data_PCOD9356634
_publ_section_title
;
Structure prediction by ZEFSAII (Michael W. Deem and Ramdas Pophale) SiO2 
 PCOD9356634
Probable space group: A M M 2
;
_chemical_formula_sum "Si O2"
_cell_formula_units_Z 64
_cell_length_a 7.529146
_cell_length_b 15.153215
_cell_length_c 29.004505
_cell_angle_alpha 90.000000
_cell_angle_beta 90.000000
_cell_angle_gamma 90.000000
_cell_volume 3309.146254
_symmetry_space_group_name_H-M "A M M 2"
_symmetry_group_IT_number 38
_symmetry_cell_setting 'orthorhombic'
loop_
_space_group_symop_operation_xyz
x,y,z
-x,-y,z
-x,y,z
x,-y,z
x,1/2+y,1/2+z
-x,1/2-y,1/2+z
-x,1/2+y,1/2+z
x,1/2-y,1/2+z
loop_
_atom_site_type_symbol
_atom_site_label
_atom_site_fract_x
_atom_site_fract_y
_atom_site_fract_z
Si Si1 0.712053 0.400016 0.221870
Si Si2 0.211841 0.283233 0.032076
Si Si3 0.785494 0.101247 0.446859
Si Si4 0.213637 0.600576 0.116530
Si Si5 0.713195 0.400830 0.494399
Si Si6 0.283988 0.101225 0.890246
Si Si7 0.718284 0.720899 0.305089
Si Si8 0.709579 0.598361 0.840999
O O1 0.500000 0.404968 0.228264
O O2 0.782363 0.500000 0.228336
O O3 0.744169 0.373920 0.168989
O O4 0.778193 0.331239 0.259761
O O5 0.280270 0.332222 0.077710
O O6 0.000000 0.295994 0.031822
O O7 0.280527 0.332397 0.986064
O O8 0.242520 0.179157 0.027967
O O9 0.727362 0.122907 0.395028
O O10 0.000000 0.102756 0.446830
O O11 0.730653 0.000000 0.456891
O O12 0.278770 0.500000 0.108923
O O13 0.000000 0.597510 0.113108
O O14 0.500000 0.405154 0.492170
O O15 0.776337 0.500000 0.506089
O O16 0.776526 0.378477 0.442321
O O17 0.500000 0.103969 0.890575
O O18 0.224995 0.166822 0.850479
O O19 0.233944 0.000000 0.879820
O O20 0.500000 0.721862 0.305075
O O21 0.780359 0.821378 0.310654
O O22 0.500000 0.592367 0.831442
O O23 0.786386 0.500000 0.835050
#
# Coordination Sequence:
#
# PCOD9356634 Si02
#       8
#     8   8   8   8   8   8   8   8
#     4   9  17  29  46  68  89 109 140 182 224 265
#     4  10  19  30  47  68  88 117 155 187 219 265
#     4   9  17  29  44  64  92 122 151 185 224 265
#     4   9  18  33  50  67  90 118 145 177 223 276
#     4   9  18  31  46  66  93 123 153 185 220 257
#     4   8  13  22  38  61  87 114 143 172 206 253
#     4   9  15  24  41  63  87 114 142 176 217 257
#     4   9  17  28  42  62  88 118 151 182 213 256
#
# _framework density 19.340336000000001
#
# number of rings (size 3 to 8) (size 9 to 14) (size 15 to 20)
#    0.000    3.000    0.000    2.250    0.000    5.250 
#    0.000    0.625    0.000    5.250    0.000    3.500 
#    0.000    0.000    0.000    0.000    0.000    0.000 
#
# Total GULP energy -178499.764630 kJ/mol
# GULP energy per Si atom -5578.117645 kJ/mol
# Density = 1.929632 g / cm^3
# Si number density = 19.340336 Si / 1000 Ang^3
#
#
#
# Elastic Constant Matrix: (Units=GPa)
#
#
# Indices 1 2 3 4 5 6 
#
# 1 48.0741 3.2930 1.4195 0.0000 0.0000 0.0000
# 2 3.2930 149.7705 113.2474 0.0000 0.0000 0.0000
# 3 1.4195 113.2474 116.0580 0.0000 0.0000 0.0000
# 4 0.0000 0.0000 0.0000 32.5725 0.0000 0.0000
# 5 0.0000 0.0000 0.0000 0.0000 19.7079 0.0000
# 6 0.0000 0.0000 0.0000 0.0000 0.0000 8.9516
#
#
#
# Elastic Compliance Matrix: (Units=1/GPa)
#
#
# Indices 1 2 3 4 5 6 
#
# 1 0.020849 -0.001013 0.000734 0.000000 0.000000 0.000000
# 2 -0.001013 0.025517 -0.024886 0.000000 0.000000 0.000000
# 3 0.000734 -0.024886 0.032891 0.000000 0.000000 0.000000
# 4 0.000000 0.000000 0.000000 0.030701 0.000000 0.000000
# 5 0.000000 0.000000 0.000000 0.000000 0.050741 0.000000
# 6 0.000000 0.000000 0.000000 0.000000 0.000000 0.111712
#
#
# Mechanical properties :
#
#
# Convention : Reuss Voigt Hill
#
# Bulk Modulus (GPa) = 34.57222 61.09137 47.83180
# Shear Modulus (GPa) = 15.04283 25.30925 20.17604
#
# Velocity S-wave (km/s) = 2.79192 3.62142 3.23338
# Velocity P-wave (km/s) = 5.32049 7.01016 6.22294
#
# Compressibility (1/GPa) = 0.02892495
#
# Stress axis : x y z
#
# Youngs Moduli (GPa) = 47.96404 39.18989 30.40330
#
# Poissons Ratio (x) = 0.03970 -0.02230
# Poissons Ratio (y) = 0.04859 0.75663
# Poissons Ratio (z) = -0.03518 0.97530
#
# Static dielectric constant tensor:
#      x y z
#    x 1.737440 0.000000 0.000000 
#    y 0.000000 1.694790 0.000000 
#    z 0.000000 0.000000 1.647640 
# 
# From -- ./inp_files/24730.got.cif
#   From: 2010.05.17/outbox.cif.g08.bks.cpg/sg38_13_cif.got.tgz:24730.got - 2010.06.03 18:07:57.
