data_PCOD9356447
_publ_section_title
;
Structure prediction by ZEFSAII (Michael W. Deem and Ramdas Pophale) SiO2 
 PCOD9356447
Probable space group: A M M 2
;
_chemical_formula_sum "Si O2"
_cell_formula_units_Z 64
_cell_length_a 8.490373
_cell_length_b 15.968405
_cell_length_c 24.440030
_cell_angle_alpha 90.000000
_cell_angle_beta 90.000000
_cell_angle_gamma 90.000000
_cell_volume 3313.523414
_symmetry_space_group_name_H-M "A M M 2"
_symmetry_group_IT_number 38
_symmetry_cell_setting 'orthorhombic'
loop_
_space_group_symop_operation_xyz
x,y,z
-x,-y,z
-x,y,z
x,-y,z
x,1/2+y,1/2+z
-x,1/2-y,1/2+z
-x,1/2+y,1/2+z
x,1/2-y,1/2+z
loop_
_atom_site_type_symbol
_atom_site_label
_atom_site_fract_x
_atom_site_fract_y
_atom_site_fract_z
Si Si1 0.189263 0.150475 0.656580
Si Si2 0.809635 0.593997 0.775590
Si Si3 0.189386 0.848525 0.154651
Si Si4 0.311416 0.250680 0.343970
Si Si5 0.192176 0.907019 0.536513
Si Si6 0.689483 0.092409 0.772383
Si Si7 0.687836 0.593940 0.538839
Si Si8 0.188528 0.747072 0.466968
O O1 0.225064 0.249482 0.655459
O O2 0.240218 0.110572 0.599133
O O3 0.264122 0.109532 0.709808
O O4 0.000000 0.141625 0.660650
O O5 0.760238 0.500000 0.791062
O O6 0.762364 0.612765 0.712783
O O7 0.746188 0.666249 0.814648
O O8 0.000000 0.597373 0.777066
O O9 0.267860 0.889582 0.101974
O O10 0.000000 0.857843 0.149264
O O11 0.500000 0.251784 0.342745
O O12 0.251436 0.331029 0.309519
O O13 0.254943 0.255930 0.406075
O O14 0.245353 0.830943 0.498312
O O15 0.000000 0.905563 0.536184
O O16 0.242274 0.000000 0.519243
O O17 0.500000 0.092347 0.776150
O O18 0.746566 0.000000 0.789127
O O19 0.500000 0.598446 0.532691
O O20 0.740165 0.500000 0.523526
O O21 0.763264 0.666241 0.502089
O O22 0.000000 0.750753 0.464475
#
# Coordination Sequence:
#
# PCOD9356447 Si02
#       8
#     8   8   8   8   8   8   8   8
#     4  10  18  33  60  90 118 148 187 236 286 343
#     4  10  21  38  61  88 119 157 199 245 298 354
#     4  10  19  35  61  91 121 153 194 244 296 351
#     4  11  24  41  60  84 116 156 199 249 302 354
#     4   9  18  34  57  86 117 148 183 229 288 346
#     4  10  22  39  58  83 117 155 191 232 290 354
#     4  11  24  40  60  88 122 159 197 241 298 359
#     4  11  23  41  63  86 114 154 202 250 296 349
#
# _framework density 19.314786999999999
#
# number of rings (size 3 to 8) (size 9 to 14) (size 15 to 20)
#    0.000    1.750    2.500    1.875    0.000    5.000 
#    0.000    2.500    0.000    1.875    0.000    0.000 
#    0.000    0.000    0.000    0.000    0.000    0.000 
#
# Total GULP energy -178787.539641 kJ/mol
# GULP energy per Si atom -5587.110614 kJ/mol
# Density = 1.927083 g / cm^3
# Si number density = 19.314787 Si / 1000 Ang^3
#
#
#
# Elastic Constant Matrix: (Units=GPa)
#
#
# Indices 1 2 3 4 5 6 
#
# 1 13.4961 25.9695 13.6894 0.0000 0.0000 0.0000
# 2 25.9695 171.9922 72.1486 0.0000 0.0000 0.0000
# 3 13.6894 72.1486 130.1863 0.0000 0.0000 0.0000
# 4 0.0000 0.0000 0.0000 -1.1261 0.0000 0.0000
# 5 0.0000 0.0000 0.0000 0.0000 64.6614 0.0000
# 6 0.0000 0.0000 0.0000 0.0000 0.0000 24.2592
#
#
#
# Elastic Compliance Matrix: (Units=1/GPa)
#
#
# Indices 1 2 3 4 5 6 
#
# 1 0.105300 -0.014664 -0.002946 0.000000 0.000000 0.000000
# 2 -0.014664 0.009617 -0.003788 0.000000 0.000000 0.000000
# 3 -0.002946 -0.003788 0.010090 0.000000 0.000000 0.000000
# 4 0.000000 0.000000 0.000000 -0.887999 0.000000 0.000000
# 5 0.000000 0.000000 0.000000 0.000000 0.015465 0.000000
# 6 0.000000 0.000000 0.000000 0.000000 0.000000 0.041222
#
#
# Mechanical properties :
#
#
# Convention : Reuss Voigt Hill
#
# Bulk Modulus (GPa) = 12.16362 59.92105 36.04233
# Shear Modulus (GPa) = -7.86033 31.15003 11.64485
#
# Velocity S-wave (km/s) = -2.01951 4.02027 2.45806
# Velocity P-wave (km/s) = 0.93453 7.25540 5.17273
#
# Compressibility (1/GPa) = 0.08221239
#
# Stress axis : x y z
#
# Youngs Moduli (GPa) = 9.49668 103.97923 99.10464
#
# Poissons Ratio (x) = 1.52471 0.29197
# Poissons Ratio (y) = 0.13926 0.37540
# Poissons Ratio (z) = 0.02798 0.39387
#
# Static dielectric constant tensor:
#      x y z
#    x 1.665740 0.000000 0.000000 
#    y 0.000000 1.685220 0.000000 
#    z 0.000000 0.000000 1.631390 
# 
# From -- ./inp_files/22120.got.cif
#   From: 2010.05.17/outbox.cif.g08.bks.cpg/sg38_12_cif.got.tgz:22120.got - 2010.06.03 18:07:57.
