data_PCOD9356714
_publ_section_title
;
Structure prediction by ZEFSAII (Michael W. Deem and Ramdas Pophale) SiO2 
 PCOD9356714
Probable space group: A M M 2
;
_chemical_formula_sum "Si O2"
_cell_formula_units_Z 64
_cell_length_a 8.773255
_cell_length_b 14.168785
_cell_length_c 30.340986
_cell_angle_alpha 90.000000
_cell_angle_beta 90.000000
_cell_angle_gamma 90.000000
_cell_volume 3771.577645
_symmetry_space_group_name_H-M "A M M 2"
_symmetry_group_IT_number 38
_symmetry_cell_setting 'orthorhombic'
loop_
_space_group_symop_operation_xyz
x,y,z
-x,-y,z
-x,y,z
x,-y,z
x,1/2+y,1/2+z
-x,1/2-y,1/2+z
-x,1/2+y,1/2+z
x,1/2-y,1/2+z
loop_
_atom_site_type_symbol
_atom_site_label
_atom_site_fract_x
_atom_site_fract_y
_atom_site_fract_z
Si Si1 0.827489 0.606112 0.754100
Si Si2 0.815929 0.110175 0.759621
Si Si3 0.179839 0.794219 0.852956
Si Si4 0.825375 0.385577 0.520054
Si Si5 0.184632 0.889868 0.119775
Si Si6 0.676361 0.253795 0.693005
Si Si7 0.320166 0.102221 0.348789
Si Si8 0.329982 0.612347 0.431540
O O1 0.827583 0.500000 0.735998
O O2 0.702099 0.668327 0.730910
O O3 0.782449 0.600727 0.804808
O O4 0.000000 0.644509 0.748404
O O5 0.770007 0.166157 0.804739
O O6 0.752403 0.162231 0.715995
O O7 0.000000 0.112677 0.758282
O O8 0.769224 0.000000 0.762268
O O9 0.266003 0.699895 0.869073
O O10 0.217889 0.867641 0.891217
O O11 0.000000 0.776495 0.850018
O O12 0.828962 0.500000 0.518099
O O13 0.769667 0.365352 0.569508
O O14 0.729523 0.350332 0.478543
O O15 0.000000 0.352806 0.515833
O O16 0.245787 0.808788 0.152184
O O17 0.000000 0.890398 0.121940
O O18 0.232538 0.000000 0.129036
O O19 0.500000 0.236022 0.683876
O O20 0.500000 0.107738 0.338168
O O21 0.296292 0.000000 0.371362
O O22 0.500000 0.647829 0.421454
O O23 0.338837 0.500000 0.436323
#
# Coordination Sequence:
#
# PCOD9356714 Si02
#       8
#     8   8   8   8   8   8   8   8
#     4  10  19  31  47  66  92 128 167 202 237 284
#     4  10  22  39  55  70  93 130 175 219 258 296
#     4  11  21  34  54  76  99 133 176 214 251 299
#     4   8  15  30  51  74 101 133 169 208 251 300
#     4   9  18  33  53  76 104 138 172 208 250 299
#     4  12  23  32  47  72 101 133 167 206 253 302
#     4  10  20  33  49  71  99 129 162 203 252 300
#     4  10  20  32  49  75 107 140 171 209 257 304
#
# _framework density 16.969027000000001
#
# number of rings (size 3 to 8) (size 9 to 14) (size 15 to 20)
#    0.000    2.000    1.250    4.125    0.000    5.750 
#    0.000    1.250    0.000    0.000    0.000    0.875 
#    0.000    1.000    0.000    0.000    0.000    0.000 
#
# Total GULP energy -178182.854669 kJ/mol
# GULP energy per Si atom -5568.214208 kJ/mol
# Density = 1.693040 g / cm^3
# Si number density = 16.969027 Si / 1000 Ang^3
#
#
#
# Elastic Constant Matrix: (Units=GPa)
#
#
# Indices 1 2 3 4 5 6 
#
# 1 47.0691 25.6171 21.4961 0.0000 0.0000 0.0000
# 2 25.6171 77.2209 22.7182 0.0000 0.0000 0.0000
# 3 21.4961 22.7182 77.1059 0.0000 0.0000 0.0000
# 4 0.0000 0.0000 0.0000 16.7973 0.0000 0.0000
# 5 0.0000 0.0000 0.0000 0.0000 13.4991 0.0000
# 6 0.0000 0.0000 0.0000 0.0000 0.0000 21.0565
#
#
#
# Elastic Compliance Matrix: (Units=1/GPa)
#
#
# Indices 1 2 3 4 5 6 
#
# 1 0.027930 -0.007637 -0.005537 0.000000 0.000000 0.000000
# 2 -0.007637 0.016267 -0.002664 0.000000 0.000000 0.000000
# 3 -0.005537 -0.002664 0.015298 0.000000 0.000000 0.000000
# 4 0.000000 0.000000 0.000000 0.059533 0.000000 0.000000
# 5 0.000000 0.000000 0.000000 0.000000 0.074079 0.000000
# 6 0.000000 0.000000 0.000000 0.000000 0.000000 0.047491
#
#
# Mechanical properties :
#
#
# Convention : Reuss Voigt Hill
#
# Bulk Modulus (GPa) = 35.94463 37.89541 36.92002
# Shear Modulus (GPa) = 17.75913 19.04155 18.40034
#
# Velocity S-wave (km/s) = 3.23857 3.35346 3.29652
# Velocity P-wave (km/s) = 5.93405 6.11350 6.02444
#
# Compressibility (1/GPa) = 0.02782057
#
# Stress axis : x y z
#
# Youngs Moduli (GPa) = 35.80372 61.47443 65.36993
#
# Poissons Ratio (x) = 0.46946 0.36192
# Poissons Ratio (y) = 0.27342 0.17413
# Poissons Ratio (z) = 0.19823 0.16376
#
# Static dielectric constant tensor:
#      x y z
#    x 1.579570 0.000000 0.000000 
#    y 0.000000 1.630350 0.000000 
#    z 0.000000 0.000000 1.581440 
# 
# From -- ./inp_files/24824.got.cif
#   From: 2010.05.17/outbox.cif.g08.bks.cpg/sg38_13_cif.got.tgz:24824.got - 2010.06.03 18:07:57.
