data_PCOD9356389
_publ_section_title
;
Structure prediction by ZEFSAII (Michael W. Deem and Ramdas Pophale) SiO2 
 PCOD9356389
Probable space group: A M M 2
;
_chemical_formula_sum "Si O2"
_cell_formula_units_Z 64
_cell_length_a 19.953172
_cell_length_b 8.777730
_cell_length_c 20.782303
_cell_angle_alpha 90.000000
_cell_angle_beta 90.000000
_cell_angle_gamma 90.000000
_cell_volume 3639.886459
_symmetry_space_group_name_H-M "A M M 2"
_symmetry_group_IT_number 38
_symmetry_cell_setting 'orthorhombic'
loop_
_space_group_symop_operation_xyz
x,y,z
-x,-y,z
-x,y,z
x,-y,z
x,1/2+y,1/2+z
-x,1/2-y,1/2+z
-x,1/2+y,1/2+z
x,1/2-y,1/2+z
loop_
_atom_site_type_symbol
_atom_site_label
_atom_site_fract_x
_atom_site_fract_y
_atom_site_fract_z
Si Si1 0.286005 0.682013 0.966140
Si Si2 0.925314 0.185316 0.784868
Si Si3 0.789110 0.680395 0.588329
Si Si4 0.575453 0.816373 0.767365
Si Si5 0.788383 0.318017 0.344060
Si Si6 0.923691 0.683685 0.134954
Si Si7 0.712110 0.181320 0.708754
Si Si8 0.424734 0.183808 0.410079
O O1 0.284893 0.500000 0.972926
O O2 0.246542 0.731188 0.901986
O O3 0.363353 0.731651 0.955278
O O4 0.250505 0.755191 0.027271
O O5 0.864357 0.233919 0.829729
O O6 0.913954 0.228630 0.710165
O O7 0.000000 0.235364 0.803851
O O8 0.924756 0.000000 0.785185
O O9 0.792115 0.500000 0.584875
O O10 0.864387 0.745856 0.593634
O O11 0.750015 0.732759 0.652409
O O12 0.500000 0.774821 0.746721
O O13 0.635099 0.770754 0.719836
O O14 0.586497 0.747892 0.838289
O O15 0.578883 0.000000 0.773224
O O16 0.787882 0.500000 0.357751
O O17 0.748617 0.296270 0.277229
O O18 0.918956 0.500000 0.132410
O O19 0.000000 0.726042 0.116850
O O20 0.714747 0.000000 0.694563
O O21 0.500000 0.230362 0.430369
O O22 0.423483 0.000000 0.406430
#
# Coordination Sequence:
#
# PCOD9356389 Si02
#       8
#     8   8   8   8   8   8   8   8
#     4  11  23  38  56  78 110 148 187 228 278 335
#     4   8  14  27  51  81 109 139 175 215 262 316
#     4  12  25  38  55  80 113 149 190 233 275 324
#     4   9  17  30  52  82 112 143 179 222 274 333
#     4  10  18  32  56  83 110 139 177 224 273 327
#     4   9  17  34  60  85 110 143 182 222 272 333
#     4  10  19  34  56  81 111 144 181 224 274 331
#     4   9  18  33  54  80 107 137 177 227 280 333
#
# _framework density 17.582965999999999
#
# number of rings (size 3 to 8) (size 9 to 14) (size 15 to 20)
#    0.000    2.250    2.500    2.250    0.000    1.750 
#    0.000    1.250    0.000    6.375    0.000    0.000 
#    0.000    0.000    0.000    0.000    0.000    0.000 
#
# Total GULP energy -178491.016668 kJ/mol
# GULP energy per Si atom -5577.844271 kJ/mol
# Density = 1.754295 g / cm^3
# Si number density = 17.582966 Si / 1000 Ang^3
#
#
#
# Elastic Constant Matrix: (Units=GPa)
#
#
# Indices 1 2 3 4 5 6 
#
# 1 173.9236 46.1080 62.4944 0.0000 0.0000 0.0000
# 2 46.1080 37.6330 34.5135 0.0000 0.0000 0.0000
# 3 62.4944 34.5135 69.4573 0.0000 0.0000 0.0000
# 4 0.0000 0.0000 0.0000 25.0055 0.0000 0.0000
# 5 0.0000 0.0000 0.0000 0.0000 28.2042 0.0000
# 6 0.0000 0.0000 0.0000 0.0000 0.0000 18.7286
#
#
#
# Elastic Compliance Matrix: (Units=1/GPa)
#
#
# Indices 1 2 3 4 5 6 
#
# 1 0.009378 -0.006893 -0.005013 0.000000 0.000000 0.000000
# 2 -0.006893 0.053886 -0.020575 0.000000 0.000000 0.000000
# 3 -0.005013 -0.020575 0.029131 0.000000 0.000000 0.000000
# 4 0.000000 0.000000 0.000000 0.039991 0.000000 0.000000
# 5 0.000000 0.000000 0.000000 0.000000 0.035456 0.000000
# 6 0.000000 0.000000 0.000000 0.000000 0.000000 0.053394
#
#
# Mechanical properties :
#
#
# Convention : Reuss Voigt Hill
#
# Bulk Modulus (GPa) = 36.44931 63.02730 49.73831
# Shear Modulus (GPa) = 16.92945 23.58088 20.25517
#
# Velocity S-wave (km/s) = 3.10632 3.66610 3.39776
# Velocity P-wave (km/s) = 5.80005 7.33784 6.61379
#
# Compressibility (1/GPa) = 0.02743536
#
# Stress axis : x y z
#
# Youngs Moduli (GPa) = 106.62970 18.55753 34.32711
#
# Poissons Ratio (x) = 0.12791 0.17209
# Poissons Ratio (y) = 0.73496 0.70627
# Poissons Ratio (z) = 0.53455 0.38181
#
# Static dielectric constant tensor:
#      x y z
#    x 1.641740 0.000000 0.000000 
#    y 0.000000 1.591160 0.000000 
#    z 0.000000 0.000000 1.554890 
# 
# From -- ./inp_files/18898.got.cif
#   From: 2010.05.17/outbox.cif.g08.bks.cpg/sg38_10_cif.got.tgz:18898.got - 2010.06.03 18:07:57.
