data_PCOD9356384
_publ_section_title
;
Structure prediction by ZEFSAII (Michael W. Deem and Ramdas Pophale) SiO2 
 PCOD9356384
Probable space group: A M M 2
;
_chemical_formula_sum "Si O2"
_cell_formula_units_Z 64
_cell_length_a 8.946597
_cell_length_b 34.550608
_cell_length_c 12.063135
_cell_angle_alpha 90.000000
_cell_angle_beta 90.000000
_cell_angle_gamma 90.000000
_cell_volume 3728.840074
_symmetry_space_group_name_H-M "A M M 2"
_symmetry_group_IT_number 38
_symmetry_cell_setting 'orthorhombic'
loop_
_space_group_symop_operation_xyz
x,y,z
-x,-y,z
-x,y,z
x,-y,z
x,1/2+y,1/2+z
-x,1/2-y,1/2+z
-x,1/2+y,1/2+z
x,1/2-y,1/2+z
loop_
_atom_site_type_symbol
_atom_site_label
_atom_site_fract_x
_atom_site_fract_y
_atom_site_fract_z
Si Si1 0.318275 0.873718 0.009230
Si Si2 0.324405 0.670363 0.732335
Si Si3 0.674056 0.886232 0.443733
Si Si4 0.822175 0.677432 0.086993
Si Si5 0.680683 0.543554 0.589395
Si Si6 0.320725 0.813505 0.826314
Si Si7 0.825985 0.955069 0.332097
Si Si8 0.821750 0.766675 0.381646
O O1 0.500000 0.873895 0.011839
O O2 0.271481 0.849139 0.118063
O O3 0.271571 0.918622 0.019902
O O4 0.272443 0.850415 0.900003
O O5 0.500000 0.680744 0.720614
O O6 0.313756 0.638080 0.828889
O O7 0.235058 0.707167 0.778544
O O8 0.500000 0.887996 0.473637
O O9 0.765358 0.862655 0.534777
O O10 0.741880 0.927748 0.417604
O O11 0.742506 0.684756 0.202702
O O12 0.000000 0.677255 0.101594
O O13 0.785457 0.709742 0.993915
O O14 0.500000 0.544516 0.598112
O O15 0.722024 0.500000 0.549733
O O16 0.748986 0.548468 0.711815
O O17 0.500000 0.812381 0.824194
O O18 0.258528 0.774392 0.880714
O O19 0.000000 0.943865 0.323437
O O20 0.817466 0.000000 0.363927
O O21 0.000000 0.762087 0.374361
#
# Coordination Sequence:
#
# PCOD9356384 Si02
#       8
#     8   8   8   8   8   8   8   8
#     4   9  18  33  52  81 111 138 177 225 270 321
#     4   9  17  32  53  78 106 136 172 215 266 323
#     4  10  18  32  56  79 103 138 179 222 265 318
#     4  10  22  40  57  76 106 140 178 223 273 325
#     4   9  16  30  53  78 108 144 180 223 274 325
#     4  11  23  37  56  78 105 142 183 224 266 321
#     4  10  19  29  45  76 115 147 175 213 266 325
#     4  10  22  38  55  77 104 135 175 224 272 319
#
# _framework density 17.163516000000001
#
# number of rings (size 3 to 8) (size 9 to 14) (size 15 to 20)
#    0.000    2.250    1.250    1.875    1.750    2.750 
#    0.000    1.875    0.000    0.750    0.000    1.750 
#    0.000    0.000    0.000    0.000    0.000    0.000 
#
# Total GULP energy -178510.622538 kJ/mol
# GULP energy per Si atom -5578.456954 kJ/mol
# Density = 1.712445 g / cm^3
# Si number density = 17.163516 Si / 1000 Ang^3
#
#
#
# Elastic Constant Matrix: (Units=GPa)
#
#
# Indices 1 2 3 4 5 6 
#
# 1 40.2937 40.6484 34.3119 0.0000 0.0000 0.0000
# 2 40.6484 126.5515 53.5658 0.0000 0.0000 0.0000
# 3 34.3119 53.5658 81.0383 0.0000 0.0000 0.0000
# 4 0.0000 0.0000 0.0000 18.7577 0.0000 0.0000
# 5 0.0000 0.0000 0.0000 0.0000 14.8871 0.0000
# 6 0.0000 0.0000 0.0000 0.0000 0.0000 23.0354
#
#
#
# Elastic Compliance Matrix: (Units=1/GPa)
#
#
# Indices 1 2 3 4 5 6 
#
# 1 0.044997 -0.008871 -0.013188 0.000000 0.000000 0.000000
# 2 -0.008871 0.012720 -0.004652 0.000000 0.000000 0.000000
# 3 -0.013188 -0.004652 0.020999 0.000000 0.000000 0.000000
# 4 0.000000 0.000000 0.000000 0.053311 0.000000 0.000000
# 5 0.000000 0.000000 0.000000 0.000000 0.067172 0.000000
# 6 0.000000 0.000000 0.000000 0.000000 0.000000 0.043411
#
#
# Mechanical properties :
#
#
# Convention : Reuss Voigt Hill
#
# Bulk Modulus (GPa) = 39.53553 56.10395 47.81974
# Shear Modulus (GPa) = 16.42222 19.29321 17.85771
#
# Velocity S-wave (km/s) = 3.09659 3.35637 3.22909
# Velocity P-wave (km/s) = 5.98914 6.91225 6.46719
#
# Compressibility (1/GPa) = 0.02529370
#
# Stress axis : x y z
#
# Youngs Moduli (GPa) = 22.22362 78.61423 47.62154
#
# Poissons Ratio (x) = 0.69737 0.62805
# Poissons Ratio (y) = 0.19714 0.22154
# Poissons Ratio (z) = 0.29309 0.36572
#
# Static dielectric constant tensor:
#      x y z
#    x 1.572640 0.000000 0.000000 
#    y 0.000000 1.596120 0.000000 
#    z 0.000000 0.000000 1.560120 
# 
# From -- ./inp_files/8677.got.cif
#   From: 2010.05.17/outbox.cif.g08.bks.cpg/sg38_5_cif.got.tgz:8677.got - 2010.06.03 18:07:57.
