data_PCOD9356575
_publ_section_title
;
Structure prediction by ZEFSAII (Michael W. Deem and Ramdas Pophale) SiO2 
 PCOD9356575
Probable space group: A M M 2
;
_chemical_formula_sum "Si O2"
_cell_formula_units_Z 56
_cell_length_a 9.025547
_cell_length_b 19.447273
_cell_length_c 18.260198
_cell_angle_alpha 90.000000
_cell_angle_beta 90.000000
_cell_angle_gamma 90.000000
_cell_volume 3205.071522
_symmetry_space_group_name_H-M "A M M 2"
_symmetry_group_IT_number 38
_symmetry_cell_setting 'orthorhombic'
loop_
_space_group_symop_operation_xyz
x,y,z
-x,-y,z
-x,y,z
x,-y,z
x,1/2+y,1/2+z
-x,1/2-y,1/2+z
-x,1/2+y,1/2+z
x,1/2-y,1/2+z
loop_
_atom_site_type_symbol
_atom_site_label
_atom_site_fract_x
_atom_site_fract_y
_atom_site_fract_z
Si Si1 0.325450 0.074495 0.623480
Si Si2 0.821143 0.211855 0.984100
Si Si3 0.168433 0.296383 0.127781
Si Si4 0.169922 0.657111 0.720264
Si Si5 0.180525 0.578605 0.576354
Si Si6 0.675253 0.193263 0.371208
Si Si7 0.827355 0.922101 0.465570
O O1 0.500000 0.078655 0.607920
O O2 0.270783 0.144195 0.660509
O O3 0.232535 0.075423 0.548299
O O4 0.297890 0.000000 0.659650
O O5 0.784274 0.267565 0.048031
O O6 0.774720 0.137408 0.017337
O O7 0.000000 0.211295 0.977153
O O8 0.749624 0.239641 0.909394
O O9 0.165495 0.229042 0.177182
O O10 0.000000 0.322381 0.122128
O O11 0.224339 0.603087 0.658489
O O12 0.265462 0.672047 0.791511
O O13 0.000000 0.638589 0.741306
O O14 0.226796 0.500000 0.561261
O O15 0.000000 0.580341 0.576708
O O16 0.500000 0.201740 0.371058
O O17 0.726914 0.129763 0.421241
O O18 0.000000 0.900972 0.463172
O O19 0.817607 0.000000 0.436376
#
# Coordination Sequence:
#
# PCOD9356575 Si02
#       7
#     8   8   8   8   8   8   8
#     4  10  19  29  45  72 102 129 158 198 248 298
#     4   9  17  31  53  77 101 132 171 216 260 307
#     4   9  17  31  51  72  95 129 173 215 251 297
#     4   9  19  34  52  75 103 136 173 212 256 312
#     4   8  15  31  57  85 106 129 170 221 268 314
#     4  12  23  33  48  74 107 142 175 212 259 311
#     4  10  20  33  49  69  96 132 170 205 242 289
#
# _framework density 17.472308999999999
#
# number of rings (size 3 to 8) (size 9 to 14) (size 15 to 20)
#    0.000    2.429    1.429    3.857    0.000    2.857 
#    0.000    3.571    0.000    2.143    0.000    2.000 
#    0.000    0.000    0.000    0.000    0.000    0.000 
#
# Total GULP energy -155928.305360 kJ/mol
# GULP energy per Si atom -5568.868049 kJ/mol
# Density = 1.743254 g / cm^3
# Si number density = 17.472309 Si / 1000 Ang^3
#
#
#
# Elastic Constant Matrix: (Units=GPa)
#
#
# Indices 1 2 3 4 5 6 
#
# 1 47.2431 26.4782 8.2802 0.0000 0.0000 0.0000
# 2 26.4782 107.7889 12.1875 0.0000 0.0000 0.0000
# 3 8.2802 12.1875 36.1563 0.0000 0.0000 0.0000
# 4 0.0000 0.0000 0.0000 12.3963 0.0000 0.0000
# 5 0.0000 0.0000 0.0000 0.0000 5.6974 0.0000
# 6 0.0000 0.0000 0.0000 0.0000 0.0000 9.4231
#
#
#
# Elastic Compliance Matrix: (Units=1/GPa)
#
#
# Indices 1 2 3 4 5 6 
#
# 1 0.025041 -0.005721 -0.003806 0.000000 0.000000 0.000000
# 2 -0.005721 0.010952 -0.002382 0.000000 0.000000 0.000000
# 3 -0.003806 -0.002382 0.029332 0.000000 0.000000 0.000000
# 4 0.000000 0.000000 0.000000 0.080669 0.000000 0.000000
# 5 0.000000 0.000000 0.000000 0.000000 0.175518 0.000000
# 6 0.000000 0.000000 0.000000 0.000000 0.000000 0.106122
#
#
# Mechanical properties :
#
#
# Convention : Reuss Voigt Hill
#
# Bulk Modulus (GPa) = 24.09202 31.67557 27.88379
# Shear Modulus (GPa) = 10.74606 15.11954 12.93280
#
# Velocity S-wave (km/s) = 2.48268 2.94486 2.72359
# Velocity P-wave (km/s) = 4.69435 5.45264 5.08764
#
# Compressibility (1/GPa) = 0.04150752
#
# Stress axis : x y z
#
# Youngs Moduli (GPa) = 39.93530 91.30775 34.09228
#
# Poissons Ratio (x) = 0.52235 0.12976
# Poissons Ratio (y) = 0.22846 0.08119
# Poissons Ratio (z) = 0.15200 0.21745
#
# Static dielectric constant tensor:
#      x y z
#    x 1.585920 0.000000 0.000000 
#    y 0.000000 1.654940 0.000000 
#    z 0.000000 0.000000 1.607940 
# 
# From -- ./inp_files/17115.got.cif
#   From: 2010.05.17/outbox.cif.g08.bks.cpg/sg38_9_cif.got.tgz:17115.got - 2010.06.03 18:07:57.
