data_PCOD9356703
_publ_section_title
;
Structure prediction by ZEFSAII (Michael W. Deem and Ramdas Pophale) SiO2 
 PCOD9356703
Probable space group: A M M 2
;
_chemical_formula_sum "Si O2"
_cell_formula_units_Z 52
_cell_length_a 7.905816
_cell_length_b 12.960614
_cell_length_c 33.623901
_cell_angle_alpha 90.000000
_cell_angle_beta 90.000000
_cell_angle_gamma 90.000000
_cell_volume 3445.247110
_symmetry_space_group_name_H-M "A M M 2"
_symmetry_group_IT_number 38
_symmetry_cell_setting 'orthorhombic'
loop_
_space_group_symop_operation_xyz
x,y,z
-x,-y,z
-x,y,z
x,-y,z
x,1/2+y,1/2+z
-x,1/2-y,1/2+z
-x,1/2+y,1/2+z
x,1/2-y,1/2+z
loop_
_atom_site_type_symbol
_atom_site_label
_atom_site_fract_x
_atom_site_fract_y
_atom_site_fract_z
Si Si1 0.000000 0.122464 0.125000
Si Si2 0.802014 0.125121 0.431371
Si Si3 0.000000 0.742894 0.707787
Si Si4 0.696030 0.377851 0.178025
Si Si5 0.000000 0.625139 0.790812
Si Si6 0.794287 0.879496 0.519172
Si Si7 0.307627 0.256042 0.096587
Si Si8 0.684736 0.374599 0.845590
O O1 0.000000 0.165127 0.170192
O O2 0.165951 0.170071 0.104097
O O3 0.000000 0.000000 0.124124
O O4 0.740123 0.157250 0.475048
O O5 0.711949 0.160179 0.391180
O O6 0.000000 0.151872 0.427692
O O7 0.793138 0.000000 0.432103
O O8 0.166458 0.814080 0.702866
O O9 0.000000 0.680214 0.748532
O O10 0.500000 0.358070 0.189627
O O11 0.727139 0.500000 0.180224
O O12 0.714210 0.338677 0.132455
O O13 0.836266 0.655420 0.816746
O O14 0.000000 0.500000 0.786261
O O15 0.722670 0.812600 0.554886
O O16 0.000000 0.875528 0.520078
O O17 0.746442 0.000000 0.523971
O O18 0.500000 0.216729 0.098931
O O19 0.500000 0.342251 0.831259
O O20 0.688567 0.500000 0.846786
#
# Coordination Sequence:
#
# PCOD9356703 Si02
#       8
#     4   8   4   8   4   8   8   8
#     4  10  21  37  50  63  86 117 155 199 238 268
#     4   8  13  23  38  58  88 123 153 180 212 256
#     4  10  20  32  50  70  86 116 152 186 226 276
#     4   9  18  32  49  70  96 121 145 178 220 268
#     4  10  19  31  44  61  88 117 151 195 228 256
#     4   9  16  25  41  67  99 130 155 182 217 260
#     4  10  19  31  48  70  93 122 157 188 221 264
#     4   9  16  26  41  59  82 118 156 184 218 263
#
# _framework density 15.093256
#
# number of rings (size 3 to 8) (size 9 to 14) (size 15 to 20)
#    0.000    2.769    1.538    1.846    0.000    2.462 
#    0.000    1.538    0.000    2.769    0.000    0.000 
#    0.000    4.923    0.000    2.462    0.000    0.000 
#
# Total GULP energy -144817.118377 kJ/mol
# GULP energy per Si atom -5569.889168 kJ/mol
# Density = 1.505890 g / cm^3
# Si number density = 15.093256 Si / 1000 Ang^3
#
#
#
# Elastic Constant Matrix: (Units=GPa)
#
#
# Indices 1 2 3 4 5 6 
#
# 1 113.9181 47.7424 66.4685 0.0000 0.0000 0.0000
# 2 47.7424 65.7924 37.3983 0.0000 0.0000 0.0000
# 3 66.4685 37.3983 110.4518 0.0000 0.0000 0.0000
# 4 0.0000 0.0000 0.0000 20.6722 0.0000 0.0000
# 5 0.0000 0.0000 0.0000 0.0000 7.2003 0.0000
# 6 0.0000 0.0000 0.0000 0.0000 0.0000 6.8553
#
#
#
# Elastic Compliance Matrix: (Units=1/GPa)
#
#
# Indices 1 2 3 4 5 6 
#
# 1 0.016147 -0.007670 -0.007120 0.000000 0.000000 0.000000
# 2 -0.007670 0.022465 -0.002991 0.000000 0.000000 0.000000
# 3 -0.007120 -0.002991 0.014351 0.000000 0.000000 0.000000
# 4 0.000000 0.000000 0.000000 0.048374 0.000000 0.000000
# 5 0.000000 0.000000 0.000000 0.000000 0.138884 0.000000
# 6 0.000000 0.000000 0.000000 0.000000 0.000000 0.145873
#
#
# Mechanical properties :
#
#
# Convention : Reuss Voigt Hill
#
# Bulk Modulus (GPa) = 57.46607 65.93120 61.69863
# Shear Modulus (GPa) = 11.69710 16.18242 13.93976
#
# Velocity S-wave (km/s) = 2.78688 3.27794 3.04234
# Velocity P-wave (km/s) = 6.96508 7.62259 7.30124
#
# Compressibility (1/GPa) = 0.01740157
#
# Stress axis : x y z
#
# Youngs Moduli (GPa) = 61.93080 44.51348 69.68044
#
# Poissons Ratio (x) = 0.34141 0.49613
# Poissons Ratio (y) = 0.47500 0.20841
# Poissons Ratio (z) = 0.44095 0.13314
#
# Static dielectric constant tensor:
#      x y z
#    x 1.535500 0.000000 0.000000 
#    y 0.000000 1.454500 0.000000 
#    z 0.000000 0.000000 1.500160 
# 
# From -- ./inp_files/24558.got.cif
#   From: 2010.05.17/outbox.cif.g08.bks.cpg/sg38_13_cif.got.tgz:24558.got - 2010.06.03 18:07:57.
