data_PCOD9356186
_publ_section_title
;
Structure prediction by ZEFSAII (Michael W. Deem and Ramdas Pophale) SiO2 
 PCOD9356186
Probable space group: A M M 2
;
_chemical_formula_sum "Si O2"
_cell_formula_units_Z 48
_cell_length_a 7.343047
_cell_length_b 14.089180
_cell_length_c 19.612788
_cell_angle_alpha 90.000000
_cell_angle_beta 90.000000
_cell_angle_gamma 90.000000
_cell_volume 2029.090229
_symmetry_space_group_name_H-M "A M M 2"
_symmetry_group_IT_number 38
_symmetry_cell_setting 'orthorhombic'
loop_
_space_group_symop_operation_xyz
x,y,z
-x,-y,z
-x,y,z
x,-y,z
x,1/2+y,1/2+z
-x,1/2-y,1/2+z
-x,1/2+y,1/2+z
x,1/2-y,1/2+z
loop_
_atom_site_type_symbol
_atom_site_label
_atom_site_fract_x
_atom_site_fract_y
_atom_site_fract_z
Si Si1 0.711031 0.684967 0.243300
Si Si2 0.702241 0.761293 0.485082
Si Si3 0.276429 0.394859 0.381951
Si Si4 0.780847 0.396733 0.588368
Si Si5 0.781272 0.397097 0.747969
Si Si6 0.722188 0.390033 0.099382
O O1 0.500000 0.659105 0.236676
O O2 0.783782 0.620558 0.304121
O O3 0.720187 0.793272 0.270475
O O4 0.785964 0.667549 0.167030
O O5 0.500000 0.789799 0.461108
O O6 0.787268 0.695190 0.426599
O O7 0.690754 0.685664 0.546663
O O8 0.788029 0.848595 0.526599
O O9 0.500000 0.392528 0.384693
O O10 0.220446 0.500000 0.405284
O O11 0.728838 0.500000 0.561260
O O12 0.733089 0.395742 0.667801
O O13 0.000000 0.387248 0.583708
O O14 0.717978 0.500000 0.775947
O O15 0.000000 0.397359 0.753336
O O16 0.500000 0.383190 0.095770
O O17 0.769202 0.500000 0.108326
#
# Coordination Sequence:
#
# PCOD9356186 Si02
#       6
#     8   8   8   8   8   8
#     4  10  18  31  51  74  98 128 169 208 241 287
#     4  10  18  30  49  74  98 126 166 206 242 286
#     4   9  18  31  48  73 105 135 159 195 252 302
#     4   9  17  29  46  69  98 129 157 193 247 298
#     4   9  18  32  49  71 101 133 161 197 252 302
#     4   9  17  29  47  71  96 125 164 207 246 285
#
# _framework density 23.655923000000001
#
# number of rings (size 3 to 8) (size 9 to 14) (size 15 to 20)
#    0.000    2.667    1.667    2.000    0.000    3.333 
#    0.000    3.333    0.000    7.500    0.000    0.000 
#    0.000    0.000    0.000    0.000    0.000    0.000 
#
# Total GULP energy -133815.860137 kJ/mol
# GULP energy per Si atom -5575.660839 kJ/mol
# Density = 2.360208 g / cm^3
# Si number density = 23.655923 Si / 1000 Ang^3
#
#
#
# Elastic Constant Matrix: (Units=GPa)
#
#
# Indices 1 2 3 4 5 6 
#
# 1 84.8532 -7.4115 2.4837 0.0000 0.0000 0.0000
# 2 -7.4115 124.2997 38.2902 0.0000 0.0000 0.0000
# 3 2.4837 38.2902 91.3701 0.0000 0.0000 0.0000
# 4 0.0000 0.0000 0.0000 30.7014 0.0000 0.0000
# 5 0.0000 0.0000 0.0000 0.0000 -303.7824 0.0000
# 6 0.0000 0.0000 0.0000 0.0000 0.0000 15.1629
#
#
#
# Elastic Compliance Matrix: (Units=1/GPa)
#
#
# Indices 1 2 3 4 5 6 
#
# 1 0.011887 0.000928 -0.000712 0.000000 0.000000 0.000000
# 2 0.000928 0.009310 -0.003927 0.000000 0.000000 0.000000
# 3 -0.000712 -0.003927 0.012609 0.000000 0.000000 0.000000
# 4 0.000000 0.000000 0.000000 0.032572 0.000000 0.000000
# 5 0.000000 0.000000 0.000000 0.000000 -0.003292 0.000000
# 6 0.000000 0.000000 0.000000 0.000000 0.000000 0.065950
#
#
# Mechanical properties :
#
#
# Convention : Reuss Voigt Hill
#
# Bulk Modulus (GPa) = 37.90027 40.80530 39.35279
# Shear Modulus (GPa) = 34.42269 -33.77289 0.32490
#
# Velocity S-wave (km/s) = 3.81877 -3.78255 0.37100
# Velocity P-wave (km/s) = 5.95821 1.33791 4.10550
#
# Compressibility (1/GPa) = 0.02638503
#
# Stress axis : x y z
#
# Youngs Moduli (GPa) = 84.12579 107.41096 79.30579
#
# Poissons Ratio (x) = -0.09969 0.05647
# Poissons Ratio (y) = -0.07808 0.31141
# Poissons Ratio (z) = 0.05990 0.42178
#
# Static dielectric constant tensor:
#      x y z
#    x 2.212040 0.000000 0.000000 
#    y 0.000000 1.961620 0.000000 
#    z 0.000000 0.000000 1.897530 
# 
# From -- ./inp_files/16627.got.cif
#   From: 2010.05.17/outbox.cif.g08.bks.cpg/sg38_9_cif.got.tgz:16627.got - 2010.06.03 18:07:57.
