data_PCOD9356849
_publ_section_title
;
Structure prediction by ZEFSAII (Michael W. Deem and Ramdas Pophale) SiO2 
 PCOD9356849
Probable space group: A M M 2
;
_chemical_formula_sum "Si O2"
_cell_formula_units_Z 64
_cell_length_a 12.838870
_cell_length_b 14.912312
_cell_length_c 20.434683
_cell_angle_alpha 90.000000
_cell_angle_beta 90.000000
_cell_angle_gamma 90.000000
_cell_volume 3912.367909
_symmetry_space_group_name_H-M "A M M 2"
_symmetry_group_IT_number 38
_symmetry_cell_setting 'orthorhombic'
loop_
_space_group_symop_operation_xyz
x,y,z
-x,-y,z
-x,y,z
x,-y,z
x,1/2+y,1/2+z
-x,1/2-y,1/2+z
-x,1/2+y,1/2+z
x,1/2-y,1/2+z
loop_
_atom_site_type_symbol
_atom_site_label
_atom_site_fract_x
_atom_site_fract_y
_atom_site_fract_z
Si Si1 0.617020 0.893962 0.341680
Si Si2 0.289555 0.395656 0.559006
Si Si3 0.874061 0.102299 0.631329
Si Si4 0.216980 0.250000 0.381329
Si Si5 0.382981 0.393961 0.420979
Si Si6 0.710446 0.604344 0.703652
Si Si7 0.123136 0.252369 0.023741
Si Si8 0.123136 0.752369 0.738917
O O1 0.500000 0.868086 0.361288
O O2 0.706516 0.835217 0.374417
O O3 0.632394 0.879875 0.263663
O O4 0.630213 0.000000 0.354346
O O5 0.257468 0.500000 0.554779
O O6 0.367607 0.379874 0.498996
O O7 0.334558 0.380701 0.631329
O O8 0.191288 0.330901 0.549158
O O9 0.845983 0.160865 0.567222
O O10 0.845982 0.160865 0.695435
O O11 0.000000 0.097149 0.631329
O O12 0.834262 0.000000 0.631329
O O13 0.293484 0.335217 0.388242
O O14 0.149917 0.238915 0.447060
O O15 0.149918 0.261085 0.315598
O O16 0.500000 0.368086 0.401370
O O17 0.369788 0.500000 0.408313
O O18 0.742534 0.500000 0.707879
O O19 0.808714 0.669098 0.713500
O O20 0.000000 0.237834 0.032797
O O21 0.000000 0.737835 0.729862
#
# Coordination Sequence:
#
# PCOD9356849 Si02
#       8
#     8   8   8   8   8   8   8   8
#     4   9  18  32  49  70  96 125 158 198 245 294
#     4   9  17  29  47  72  99 124 155 194 239 292
#     4   9  18  32  49  67  90 127 171 205 235 278
#     4  10  20  32  50  72  98 126 164 204 248 292
#     4   9  18  32  49  70  96 125 158 198 245 294
#     4   9  17  29  47  72  99 124 155 194 239 292
#     4  10  19  32  48  70  99 130 164 202 244 288
#     4  10  19  32  48  70  99 130 164 202 244 288
#
# _framework density 16.358378999999999
#
# number of rings (size 3 to 8) (size 9 to 14) (size 15 to 20)
#    0.000    2.625    1.250    0.750    0.000    2.000 
#    0.000    3.750    0.000    4.500    0.000    0.000 
#    0.000    8.000    0.000    0.000    0.000    0.000 
#
# Total GULP energy -178205.158185 kJ/mol
# GULP energy per Si atom -5568.911193 kJ/mol
# Density = 1.632115 g / cm^3
# Si number density = 16.358379 Si / 1000 Ang^3
#
#
#
# Elastic Constant Matrix: (Units=GPa)
#
#
# Indices 1 2 3 4 5 6 
#
# 1 36.4389 11.4456 -13.8668 0.0000 0.0000 0.0000
# 2 11.4456 49.2920 3.7401 0.0000 0.0000 0.0000
# 3 -13.8668 3.7401 55.8499 0.0000 0.0000 0.0000
# 4 0.0000 0.0000 0.0000 21.1233 0.0000 0.0000
# 5 0.0000 0.0000 0.0000 0.0000 3.9562 0.0000
# 6 0.0000 0.0000 0.0000 0.0000 0.0000 20.8839
#
#
#
# Elastic Compliance Matrix: (Units=1/GPa)
#
#
# Indices 1 2 3 4 5 6 
#
# 1 0.033474 -0.008446 0.008877 0.000000 0.000000 0.000000
# 2 -0.008446 0.022522 -0.003605 0.000000 0.000000 0.000000
# 3 0.008877 -0.003605 0.020351 0.000000 0.000000 0.000000
# 4 0.000000 0.000000 0.000000 0.047341 0.000000 0.000000
# 5 0.000000 0.000000 0.000000 0.000000 0.252765 0.000000
# 6 0.000000 0.000000 0.000000 0.000000 0.000000 0.047884
#
#
# Mechanical properties :
#
#
# Convention : Reuss Voigt Hill
#
# Bulk Modulus (GPa) = 14.28626 16.02430 15.15528
# Shear Modulus (GPa) = 11.01275 18.54349 14.77812
#
# Velocity S-wave (km/s) = 2.59746 3.37052 3.00892
# Velocity P-wave (km/s) = 4.21284 4.99642 4.62127
#
# Compressibility (1/GPa) = 0.06999734
#
# Stress axis : x y z
#
# Youngs Moduli (GPa) = 29.87369 44.40095 49.13869
#
# Poissons Ratio (x) = 0.37502 -0.43620
# Poissons Ratio (y) = 0.25232 0.17716
# Poissons Ratio (z) = -0.26518 0.16008
#
# Static dielectric constant tensor:
#      x y z
#    x 1.516580 0.000000 0.000000 
#    y 0.000000 1.545620 0.000000 
#    z 0.000000 0.000000 1.564220 
# 
# From -- ./inp_files/17838.got.cif
#   From: 2010.05.17/outbox.cif.g08.bks.cpg/sg38_9_cif.got.tgz:17838.got - 2010.06.03 18:07:57.
