data_PCOD9356429
_publ_section_title
;
Structure prediction by ZEFSAII (Michael W. Deem and Ramdas Pophale) SiO2 
 PCOD9356429
Probable space group: A M M 2
;
_chemical_formula_sum "Si O2"
_cell_formula_units_Z 64
_cell_length_a 24.609659
_cell_length_b 7.527402
_cell_length_c 15.924917
_cell_angle_alpha 90.000000
_cell_angle_beta 90.000000
_cell_angle_gamma 90.000000
_cell_volume 2950.039857
_symmetry_space_group_name_H-M "A M M 2"
_symmetry_group_IT_number 38
_symmetry_cell_setting 'orthorhombic'
loop_
_space_group_symop_operation_xyz
x,y,z
-x,-y,z
-x,y,z
x,-y,z
x,1/2+y,1/2+z
-x,1/2-y,1/2+z
-x,1/2+y,1/2+z
x,1/2-y,1/2+z
loop_
_atom_site_type_symbol
_atom_site_label
_atom_site_fract_x
_atom_site_fract_y
_atom_site_fract_z
Si Si1 0.060804 0.707629 0.495780
Si Si2 0.875933 0.295598 0.161877
Si Si3 0.747009 0.716155 0.409167
Si Si4 0.369994 0.286589 0.347596
Si Si5 0.136596 0.781458 0.845656
Si Si6 0.562211 0.782279 0.007754
Si Si7 0.638620 0.211131 0.159267
Si Si8 0.755630 0.784779 0.105252
O O1 0.055625 0.500000 0.475272
O O2 0.091209 0.715745 0.584683
O O3 0.099298 0.781211 0.422469
O O4 0.000000 0.783612 0.499293
O O5 0.892726 0.500000 0.164012
O O6 0.884143 0.220716 0.255009
O O7 0.811653 0.284697 0.142773
O O8 0.746224 0.500000 0.407049
O O9 0.690730 0.779334 0.369220
O O10 0.801303 0.774746 0.361884
O O11 0.750796 0.764931 0.507176
O O12 0.368576 0.500000 0.353498
O O13 0.411122 0.225210 0.419724
O O14 0.383827 0.241908 0.252106
O O15 0.137410 0.000000 0.844972
O O16 0.500000 0.725373 0.016163
O O17 0.599978 0.721656 0.084929
O O18 0.562285 0.000000 0.008558
O O19 0.700615 0.278067 0.150765
O O20 0.642498 0.000000 0.146028
O O21 0.758731 0.000000 0.109412
#
# Coordination Sequence:
#
# PCOD9356429 Si02
#       8
#     8   8   8   8   8   8   8   8
#     4  10  21  39  61  80 103 145 193 224 254 312
#     4  11  22  35  56  87 115 138 171 224 282 320
#     4   9  15  29  55  78  99 135 180 217 253 312
#     4  10  19  33  55  80 105 139 181 225 271 322
#     4   9  18  33  55  79 104 138 178 215 256 316
#     4   9  18  34  55  77 104 144 192 229 262 320
#     4  10  20  34  54  81 109 141 179 224 276 323
#     4  10  18  33  57  79 106 144 182 216 261 329
#
# _framework density 21.694621999999999
#
# number of rings (size 3 to 8) (size 9 to 14) (size 15 to 20)
#    0.000    2.250    2.500    1.125    0.000    2.750 
#    0.000    3.750    0.000    0.750    0.000    0.000 
#    0.000    0.000    0.000    0.000    0.000    0.000 
#
# Total GULP energy -178776.513191 kJ/mol
# GULP energy per Si atom -5586.766037 kJ/mol
# Density = 2.164524 g / cm^3
# Si number density = 21.694622 Si / 1000 Ang^3
#
#
#
# Elastic Constant Matrix: (Units=GPa)
#
#
# Indices 1 2 3 4 5 6 
#
# 1 124.2001 -4.5020 37.2736 0.0000 0.0000 0.0000
# 2 -4.5020 50.9923 -11.2452 0.0000 0.0000 0.0000
# 3 37.2736 -11.2452 127.0619 0.0000 0.0000 0.0000
# 4 0.0000 0.0000 0.0000 13.5799 0.0000 0.0000
# 5 0.0000 0.0000 0.0000 0.0000 1.1819 0.0000
# 6 0.0000 0.0000 0.0000 0.0000 0.0000 -20.0128
#
#
#
# Elastic Compliance Matrix: (Units=1/GPa)
#
#
# Indices 1 2 3 4 5 6 
#
# 1 0.008831 0.000213 -0.002572 0.000000 0.000000 0.000000
# 2 0.000213 0.020006 0.001708 0.000000 0.000000 0.000000
# 3 -0.002572 0.001708 0.008776 0.000000 0.000000 0.000000
# 4 0.000000 0.000000 0.000000 0.073638 0.000000 0.000000
# 5 0.000000 0.000000 0.000000 0.000000 0.846081 0.000000
# 6 0.000000 0.000000 0.000000 0.000000 0.000000 -0.049968
#
#
# Mechanical properties :
#
#
# Convention : Reuss Voigt Hill
#
# Bulk Modulus (GPa) = 27.53978 38.36744 32.95361
# Shear Modulus (GPa) = 5.43024 17.66498 11.54761
#
# Velocity S-wave (km/s) = 1.58381 2.85661 2.30962
# Velocity P-wave (km/s) = 4.00830 5.34827 4.72601
#
# Compressibility (1/GPa) = 0.03631111
#
# Stress axis : x y z
#
# Youngs Moduli (GPa) = 113.23691 49.98432 113.94977
#
# Poissons Ratio (x) = -0.01062 0.29305
# Poissons Ratio (y) = -0.02406 -0.19466
# Poissons Ratio (z) = 0.29122 -0.08539
#
# Static dielectric constant tensor:
#      x y z
#    x 1.759410 0.000000 0.000000 
#    y 0.000000 1.831010 0.000000 
#    z 0.000000 0.000000 1.763830 
# 
# From -- ./inp_files/15750.got.cif
#   From: 2010.05.17/outbox.cif.g08.bks.cpg/sg38_8_cif.got.tgz:15750.got - 2010.06.03 18:07:57.
