data_PCOD9356797
_publ_section_title
;
Structure prediction by ZEFSAII (Michael W. Deem and Ramdas Pophale) SiO2 
 PCOD9356797
Probable space group: A M M 2
;
_chemical_formula_sum "Si O2"
_cell_formula_units_Z 64
_cell_length_a 17.744962
_cell_length_b 7.463984
_cell_length_c 22.396893
_cell_angle_alpha 90.000000
_cell_angle_beta 90.000000
_cell_angle_gamma 90.000000
_cell_volume 2966.426203
_symmetry_space_group_name_H-M "A M M 2"
_symmetry_group_IT_number 38
_symmetry_cell_setting 'orthorhombic'
loop_
_space_group_symop_operation_xyz
x,y,z
-x,-y,z
-x,y,z
x,-y,z
x,1/2+y,1/2+z
-x,1/2-y,1/2+z
-x,1/2+y,1/2+z
x,1/2-y,1/2+z
loop_
_atom_site_type_symbol
_atom_site_label
_atom_site_fract_x
_atom_site_fract_y
_atom_site_fract_z
Si Si1 0.384466 0.206757 0.279200
Si Si2 0.079874 0.782565 0.786486
Si Si3 0.228325 0.281980 0.223818
Si Si4 0.414767 0.206031 0.913727
Si Si5 0.266290 0.797764 0.592825
Si Si6 0.418523 0.284180 0.646536
Si Si7 0.084317 0.782307 0.925979
Si Si8 0.748126 0.702649 0.459873
O O1 0.295347 0.219098 0.266673
O O2 0.407379 0.292754 0.341484
O O3 0.414900 0.277617 0.215678
O O4 0.407721 0.000000 0.283947
O O5 0.150718 0.718597 0.750586
O O6 0.083742 0.737260 0.855929
O O7 0.000000 0.722285 0.761686
O O8 0.081688 0.000000 0.784223
O O9 0.232764 0.500000 0.222713
O O10 0.235963 0.221300 0.155380
O O11 0.500000 0.279495 0.927678
O O12 0.333302 0.281965 0.937543
O O13 0.415705 0.000000 0.935291
O O14 0.354700 0.800753 0.607029
O O15 0.254512 0.698216 0.531427
O O16 0.237173 0.000000 0.585309
O O17 0.500000 0.246842 0.621552
O O18 0.406786 0.500000 0.648009
O O19 0.167857 0.719452 0.946797
O O20 0.000000 0.724523 0.949408
O O21 0.084514 0.000000 0.932971
O O22 0.749252 0.500000 0.434078
#
# Coordination Sequence:
#
# PCOD9356797 Si02
#       8
#     8   8   8   8   8   8   8   8
#     4  10  19  31  50  76 103 130 161 199 247 301
#     4   8  13  24  47  77 102 123 154 199 246 294
#     4   9  17  31  50  72 100 132 165 203 248 297
#     4  10  21  35  51  73 100 131 167 206 251 302
#     4  10  21  34  48  70  99 130 167 208 248 292
#     4   9  18  33  52  72  95 126 164 204 247 297
#     4   8  14  26  48  77 100 120 158 210 254 293
#     4  10  20  35  53  70  95 134 175 213 251 293
#
# _framework density 21.574781999999999
#
# number of rings (size 3 to 8) (size 9 to 14) (size 15 to 20)
#    0.000    2.750    0.000    2.625    0.000    5.000 
#    0.000    1.875    0.000    1.500    0.000    1.750 
#    0.000    0.000    0.000    0.000    0.000    0.000 
#
# Total GULP energy -178235.807779 kJ/mol
# GULP energy per Si atom -5569.868993 kJ/mol
# Density = 2.152568 g / cm^3
# Si number density = 21.574782 Si / 1000 Ang^3
#
#
#
# Elastic Constant Matrix: (Units=GPa)
#
#
# Indices 1 2 3 4 5 6 
#
# 1 221.4990 5.5889 59.1901 0.0000 0.0000 0.0000
# 2 5.5889 60.4852 0.6447 0.0000 0.0000 0.0000
# 3 59.1901 0.6447 52.1000 0.0000 0.0000 0.0000
# 4 0.0000 0.0000 0.0000 18.5976 0.0000 0.0000
# 5 0.0000 0.0000 0.0000 0.0000 -30.4549 0.0000
# 6 0.0000 0.0000 0.0000 0.0000 0.0000 -4.0255
#
#
#
# Elastic Compliance Matrix: (Units=1/GPa)
#
#
# Indices 1 2 3 4 5 6 
#
# 1 0.006499 -0.000522 -0.007377 0.000000 0.000000 0.000000
# 2 -0.000522 0.016577 0.000388 0.000000 0.000000 0.000000
# 3 -0.007377 0.000388 0.027570 0.000000 0.000000 0.000000
# 4 0.000000 0.000000 0.000000 0.053770 0.000000 0.000000
# 5 0.000000 0.000000 0.000000 0.000000 -0.032835 0.000000
# 6 0.000000 0.000000 0.000000 0.000000 0.000000 -0.248415
#
#
# Mechanical properties :
#
#
# Convention : Reuss Voigt Hill
#
# Bulk Modulus (GPa) = 28.07106 51.65906 39.86506
# Shear Modulus (GPa) = -33.34747 14.73413 -9.30667
#
# Velocity S-wave (km/s) = -3.93576 2.61613 -2.07919
# Velocity P-wave (km/s) = 2.75941 5.75515 3.57123
#
# Compressibility (1/GPa) = 0.03562387
#
# Stress axis : x y z
#
# Youngs Moduli (GPa) = 153.86393 60.32435 36.27095
#
# Poissons Ratio (x) = 0.03148 0.26758
# Poissons Ratio (y) = 0.08030 -0.01407
# Poissons Ratio (z) = 1.13509 -0.02339
#
# Static dielectric constant tensor:
#      x y z
#    x 1.843800 0.000000 0.000000 
#    y 0.000000 1.784570 0.000000 
#    z 0.000000 0.000000 1.724500 
# 
# From -- ./inp_files/21432.got.cif
#   From: 2010.05.17/outbox.cif.g08.bks.cpg/sg38_11_cif.got.tgz:21432.got - 2010.06.03 18:07:57.
