data_PCOD9356009
_publ_section_title
;
Structure prediction by ZEFSAII (Michael W. Deem and Ramdas Pophale) SiO2 
 PCOD9356009
Probable space group: A M M 2
;
_chemical_formula_sum "Si O2"
_cell_formula_units_Z 56
_cell_length_a 8.786749
_cell_length_b 30.235961
_cell_length_c 14.048197
_cell_angle_alpha 90.000000
_cell_angle_beta 90.000000
_cell_angle_gamma 90.000000
_cell_volume 3732.265978
_symmetry_space_group_name_H-M "A M M 2"
_symmetry_group_IT_number 38
_symmetry_cell_setting 'orthorhombic'
loop_
_space_group_symop_operation_xyz
x,y,z
-x,-y,z
-x,y,z
x,-y,z
x,1/2+y,1/2+z
-x,1/2-y,1/2+z
-x,1/2+y,1/2+z
x,1/2-y,1/2+z
loop_
_atom_site_type_symbol
_atom_site_label
_atom_site_fract_x
_atom_site_fract_y
_atom_site_fract_z
Si Si1 0.683477 0.903073 0.724480
Si Si2 0.818867 0.402691 0.011564
Si Si3 0.681997 0.820386 0.405389
Si Si4 0.683604 0.267755 0.720544
Si Si5 0.681585 0.000000 0.728012
Si Si6 0.682879 0.772417 0.002951
Si Si7 0.818523 0.500000 0.018671
Si Si8 0.181104 0.182523 0.822170
O O1 0.500000 0.901245 0.723802
O O2 0.741961 0.898495 0.615669
O O3 0.734380 0.951699 0.762594
O O4 0.748977 0.863273 0.786115
O O5 0.785151 0.452376 0.972724
O O6 0.000000 0.398849 0.024041
O O7 0.760903 0.364091 0.943615
O O8 0.500000 0.826635 0.409145
O O9 0.723732 0.804786 0.298830
O O10 0.718973 0.778035 0.471861
O O11 0.500000 0.261872 0.724558
O O12 0.725058 0.279231 0.612661
O O13 0.758193 0.222050 0.754560
O O14 0.726997 0.000000 0.617145
O O15 0.500000 0.000000 0.737785
O O16 0.500000 0.777508 0.992894
O O17 0.763056 0.804291 0.927652
O O18 0.000000 0.500000 0.039931
O O19 0.000000 0.180868 0.818201
#
# Coordination Sequence:
#
# PCOD9356009 Si02
#       8
#     8   8   8   8   4   8   4   8
#     4  10  18  30  46  64  89 118 148 181 217 258
#     4  10  18  28  43  64  90 119 149 181 219 260
#     4   9  17  28  44  67  90 114 146 179 216 262
#     4   9  18  33  50  65  86 118 151 183 219 257
#     4   8  16  28  44  64  83 110 147 182 215 254
#     4   9  18  33  49  63  84 116 149 181 216 255
#     4   8  16  28  40  58  87 118 145 176 217 264
#     4  11  21  30  44  68  93 117 146 178 216 261
#
# _framework density 15.004289
#
# number of rings (size 3 to 8) (size 9 to 14) (size 15 to 20)
#    0.000    2.571    0.000    3.857    0.000    5.143 
#    0.000    0.000    0.000    0.000    0.000    1.000 
#    0.000    2.286    0.000    0.000    0.000    0.000 
#
# Total GULP energy -155990.643725 kJ/mol
# GULP energy per Si atom -5571.094419 kJ/mol
# Density = 1.497014 g / cm^3
# Si number density = 15.004289 Si / 1000 Ang^3
#
#
#
# Elastic Constant Matrix: (Units=GPa)
#
#
# Indices 1 2 3 4 5 6 
#
# 1 39.4557 49.6108 37.2603 0.0000 0.0000 0.0000
# 2 49.6108 155.7344 70.4073 0.0000 0.0000 0.0000
# 3 37.2603 70.4073 99.1330 0.0000 0.0000 0.0000
# 4 0.0000 0.0000 0.0000 21.8000 0.0000 0.0000
# 5 0.0000 0.0000 0.0000 0.0000 7.3826 0.0000
# 6 0.0000 0.0000 0.0000 0.0000 0.0000 18.4618
#
#
#
# Elastic Compliance Matrix: (Units=1/GPa)
#
#
# Indices 1 2 3 4 5 6 
#
# 1 0.049060 -0.010741 -0.010811 0.000000 0.000000 0.000000
# 2 -0.010741 0.011810 -0.004351 0.000000 0.000000 0.000000
# 3 -0.010811 -0.004351 0.017241 0.000000 0.000000 0.000000
# 4 0.000000 0.000000 0.000000 0.045871 0.000000 0.000000
# 5 0.000000 0.000000 0.000000 0.000000 0.135454 0.000000
# 6 0.000000 0.000000 0.000000 0.000000 0.000000 0.054166
#
#
# Mechanical properties :
#
#
# Convention : Reuss Voigt Hill
#
# Bulk Modulus (GPa) = 38.01533 67.65333 52.83433
# Shear Modulus (GPa) = 13.36272 18.66519 16.01395
#
# Velocity S-wave (km/s) = 2.98752 3.53085 3.27049
# Velocity P-wave (km/s) = 6.10669 7.86192 7.03923
#
# Compressibility (1/GPa) = 0.02630517
#
# Stress axis : x y z
#
# Youngs Moduli (GPa) = 20.38332 84.67662 58.00162
#
# Poissons Ratio (x) = 0.90949 0.62707
# Poissons Ratio (y) = 0.21893 0.25234
# Poissons Ratio (z) = 0.22037 0.36839
#
# Static dielectric constant tensor:
#      x y z
#    x 1.504550 0.000000 0.000000 
#    y 0.000000 1.512940 0.000000 
#    z 0.000000 0.000000 1.477250 
# 
# From -- ./inp_files/13025.got.cif
#   From: 2010.05.17/outbox.cif.g08.bks.cpg/sg38_7_cif.got.tgz:13025.got - 2010.06.03 18:07:57.
