data_PCOD9356655
_publ_section_title
;
Structure prediction by ZEFSAII (Michael W. Deem and Ramdas Pophale) SiO2 
 PCOD9356655
Probable space group: A M M 2
;
_chemical_formula_sum "Si O2"
_cell_formula_units_Z 56
_cell_length_a 18.382795
_cell_length_b 8.440205
_cell_length_c 19.598492
_cell_angle_alpha 90.000000
_cell_angle_beta 90.000000
_cell_angle_gamma 90.000000
_cell_volume 3040.795369
_symmetry_space_group_name_H-M "A M M 2"
_symmetry_group_IT_number 38
_symmetry_cell_setting 'orthorhombic'
loop_
_space_group_symop_operation_xyz
x,y,z
-x,-y,z
-x,y,z
x,-y,z
x,1/2+y,1/2+z
-x,1/2-y,1/2+z
-x,1/2+y,1/2+z
x,1/2-y,1/2+z
loop_
_atom_site_type_symbol
_atom_site_label
_atom_site_fract_x
_atom_site_fract_y
_atom_site_fract_z
Si Si1 0.417019 0.190527 0.469130
Si Si2 0.414816 0.179221 0.816577
Si Si3 0.798580 0.812198 0.854504
Si Si4 0.187281 0.683983 0.139296
Si Si5 0.255413 0.807193 0.499900
Si Si6 0.084036 0.311200 0.756867
Si Si7 0.298669 0.318819 0.734652
O O1 0.500000 0.246870 0.488463
O O2 0.404866 0.241527 0.390512
O O3 0.341235 0.242066 0.505467
O O4 0.419166 0.000000 0.473318
O O5 0.500000 0.169927 0.805804
O O6 0.379569 0.277201 0.755777
O O7 0.384534 0.000000 0.817982
O O8 0.780173 0.757687 0.930620
O O9 0.876631 0.769958 0.821505
O O10 0.744498 0.717172 0.804583
O O11 0.787713 0.000000 0.848231
O O12 0.166996 0.500000 0.135694
O O13 0.128765 0.768484 0.188088
O O14 0.263290 0.704952 0.179365
O O15 0.205779 0.744197 0.063829
O O16 0.255044 0.000000 0.498080
O O17 0.088168 0.500000 0.766304
O O18 0.000000 0.263993 0.750723
O O19 0.288565 0.500000 0.714096
#
# Coordination Sequence:
#
# PCOD9356655 Si02
#       7
#     8   8   8   8   8   8   8
#     4   9  17  30  50  75 104 143 186 228 278 330
#     4  10  19  30  47  74 104 135 179 234 284 326
#     4  11  21  33  56  84 109 139 177 222 270 318
#     4  10  21  36  56  81 111 147 185 221 268 326
#     4  10  20  35  54  80 114 149 186 229 274 326
#     4  10  21  39  62  85 110 141 178 223 276 332
#     4  11  20  33  52  74 104 141 182 225 270 324
#
# _framework density 18.416232999999998
#
# number of rings (size 3 to 8) (size 9 to 14) (size 15 to 20)
#    0.000    1.857    1.429    5.571    0.000    3.143 
#    0.000    1.429    0.000    3.429    0.000    0.000 
#    0.000    0.000    0.000    0.000    0.000    0.000 
#
# Total GULP energy -156059.479672 kJ/mol
# GULP energy per Si atom -5573.552845 kJ/mol
# Density = 1.837432 g / cm^3
# Si number density = 18.416233 Si / 1000 Ang^3
#
#
#
# Elastic Constant Matrix: (Units=GPa)
#
#
# Indices 1 2 3 4 5 6 
#
# 1 109.5096 18.1020 36.5005 0.0000 0.0000 0.0000
# 2 18.1020 28.2985 -1.3143 0.0000 0.0000 0.0000
# 3 36.5005 -1.3143 82.5179 0.0000 0.0000 0.0000
# 4 0.0000 0.0000 0.0000 19.9804 0.0000 0.0000
# 5 0.0000 0.0000 0.0000 0.0000 18.4118 0.0000
# 6 0.0000 0.0000 0.0000 0.0000 0.0000 19.2533
#
#
#
# Elastic Compliance Matrix: (Units=1/GPa)
#
#
# Indices 1 2 3 4 5 6 
#
# 1 0.012343 -0.008155 -0.005589 0.000000 0.000000 0.000000
# 2 -0.008155 0.040752 0.004256 0.000000 0.000000 0.000000
# 3 -0.005589 0.004256 0.014659 0.000000 0.000000 0.000000
# 4 0.000000 0.000000 0.000000 0.050049 0.000000 0.000000
# 5 0.000000 0.000000 0.000000 0.000000 0.054313 0.000000
# 6 0.000000 0.000000 0.000000 0.000000 0.000000 0.051939
#
#
# Mechanical properties :
#
#
# Convention : Reuss Voigt Hill
#
# Bulk Modulus (GPa) = 20.50149 36.32248 28.41198
# Shear Modulus (GPa) = 19.28345 22.66495 20.97420
#
# Velocity S-wave (km/s) = 3.23939 3.51195 3.37842
# Velocity P-wave (km/s) = 5.01477 6.01755 5.53890
#
# Compressibility (1/GPa) = 0.04877695
#
# Stress axis : x y z
#
# Youngs Moduli (GPa) = 81.01981 24.53883 68.21841
#
# Poissons Ratio (x) = 0.20011 0.38131
# Poissons Ratio (y) = 0.66071 -0.29036
# Poissons Ratio (z) = 0.45286 -0.10444
#
# Static dielectric constant tensor:
#      x y z
#    x 1.693020 0.000000 0.000000 
#    y 0.000000 1.643830 0.000000 
#    z 0.000000 0.000000 1.617500 
# 
# From -- ./inp_files/21295.got.cif
#   From: 2010.05.17/outbox.cif.g08.bks.cpg/sg38_11_cif.got.tgz:21295.got - 2010.06.03 18:07:57.
