data_PCOD9356039
_publ_section_title
;
Structure prediction by ZEFSAII (Michael W. Deem and Ramdas Pophale) SiO2 
 PCOD9356039
Probable space group: A M M 2
;
_chemical_formula_sum "Si O2"
_cell_formula_units_Z 48
_cell_length_a 7.870388
_cell_length_b 14.346851
_cell_length_c 24.657838
_cell_angle_alpha 90.000000
_cell_angle_beta 90.000000
_cell_angle_gamma 90.000000
_cell_volume 2784.246779
_symmetry_space_group_name_H-M "A M M 2"
_symmetry_group_IT_number 38
_symmetry_cell_setting 'orthorhombic'
loop_
_space_group_symop_operation_xyz
x,y,z
-x,-y,z
-x,y,z
x,-y,z
x,1/2+y,1/2+z
-x,1/2-y,1/2+z
-x,1/2+y,1/2+z
x,1/2-y,1/2+z
loop_
_atom_site_type_symbol
_atom_site_label
_atom_site_fract_x
_atom_site_fract_y
_atom_site_fract_z
Si Si1 0.297242 0.604185 0.088400
Si Si2 0.797133 0.711220 0.196996
Si Si3 0.704981 0.895260 0.137961
Si Si4 0.792739 0.107803 0.803209
Si Si5 0.795544 0.894040 0.924978
Si Si6 0.704251 0.713537 0.531676
O O1 0.500000 0.598259 0.080276
O O2 0.226040 0.500000 0.083230
O O3 0.269306 0.646105 0.148317
O O4 0.231033 0.683327 0.047168
O O5 0.752234 0.817169 0.181857
O O6 0.733134 0.674127 0.254856
O O7 0.000000 0.702914 0.196693
O O8 0.500000 0.898432 0.136079
O O9 0.765030 0.855935 0.079513
O O10 0.767570 0.000000 0.147951
O O11 0.736473 0.132066 0.864300
O O12 0.000000 0.110417 0.803350
O O13 0.745022 0.000000 0.792582
O O14 0.000000 0.897332 0.923146
O O15 0.735244 0.000000 0.936597
O O16 0.747079 0.825154 0.972924
O O17 0.500000 0.716023 0.535911
#
# Coordination Sequence:
#
# PCOD9356039 Si02
#       6
#     8   8   8   8   8   8
#     4   9  18  32  47  63  88 121 150 177 216 265
#     4  10  18  28  46  70  92 114 144 183 222 260
#     4   9  18  32  47  63  89 123 150 175 215 264
#     4   8  15  28  44  63  89 118 143 171 215 265
#     4   9  17  29  45  64  87 116 146 175 212 260
#     4   9  17  29  45  65  87 112 143 179 218 256
#
# _framework density 17.239851000000002
#
# number of rings (size 3 to 8) (size 9 to 14) (size 15 to 20)
#    0.000    3.000    0.000    3.500    0.000    5.000 
#    0.000    1.667    0.000    3.000    0.000    4.667 
#    0.000    0.000    0.000    0.000    0.000    0.000 
#
# Total GULP energy -133729.171733 kJ/mol
# GULP energy per Si atom -5572.048822 kJ/mol
# Density = 1.720061 g / cm^3
# Si number density = 17.239851 Si / 1000 Ang^3
#
#
#
# Elastic Constant Matrix: (Units=GPa)
#
#
# Indices 1 2 3 4 5 6 
#
# 1 13.5327 5.5441 1.3040 0.0000 0.0000 0.0000
# 2 5.5441 161.9844 105.9333 0.0000 0.0000 0.0000
# 3 1.3040 105.9333 149.9439 0.0000 0.0000 0.0000
# 4 0.0000 0.0000 0.0000 16.8454 0.0000 0.0000
# 5 0.0000 0.0000 0.0000 0.0000 27.6897 0.0000
# 6 0.0000 0.0000 0.0000 0.0000 0.0000 16.7169
#
#
#
# Elastic Compliance Matrix: (Units=1/GPa)
#
#
# Indices 1 2 3 4 5 6 
#
# 1 0.075323 -0.003996 0.002168 0.000000 0.000000 0.000000
# 2 -0.003996 0.011687 -0.008222 0.000000 0.000000 0.000000
# 3 0.002168 -0.008222 0.012459 0.000000 0.000000 0.000000
# 4 0.000000 0.000000 0.000000 0.059363 0.000000 0.000000
# 5 0.000000 0.000000 0.000000 0.000000 0.036115 0.000000
# 6 0.000000 0.000000 0.000000 0.000000 0.000000 0.059820
#
#
# Mechanical properties :
#
#
# Convention : Reuss Voigt Hill
#
# Bulk Modulus (GPa) = 12.59930 61.22488 36.91209
# Shear Modulus (GPa) = 16.59345 26.42904 21.51124
#
# Velocity S-wave (km/s) = 3.10579 3.91963 3.53620
# Velocity P-wave (km/s) = 4.49281 7.48835 6.17498
#
# Compressibility (1/GPa) = 0.07936952
#
# Stress axis : x y z
#
# Youngs Moduli (GPa) = 13.27613 85.56352 80.26253
#
# Poissons Ratio (x) = 0.34189 -0.17400
# Poissons Ratio (y) = 0.05305 0.65993
# Poissons Ratio (z) = -0.02878 0.70351
#
# Static dielectric constant tensor:
#      x y z
#    x 1.629400 0.000000 0.000000 
#    y 0.000000 1.600310 0.000000 
#    z 0.000000 0.000000 1.576340 
# 
# From -- ./inp_files/19618.got.cif
#   From: 2010.05.17/outbox.cif.g08.bks.cpg/sg38_10_cif.got.tgz:19618.got - 2010.06.03 18:07:57.
