data_PCOD9356237
_publ_section_title
;
Structure prediction by ZEFSAII (Michael W. Deem and Ramdas Pophale) SiO2 
 PCOD9356237
Probable space group: A M M 2
;
_chemical_formula_sum "Si O2"
_cell_formula_units_Z 56
_cell_length_a 7.812364
_cell_length_b 15.108333
_cell_length_c 22.922805
_cell_angle_alpha 90.000000
_cell_angle_beta 90.000000
_cell_angle_gamma 90.000000
_cell_volume 2705.619863
_symmetry_space_group_name_H-M "A M M 2"
_symmetry_group_IT_number 38
_symmetry_cell_setting 'orthorhombic'
loop_
_space_group_symop_operation_xyz
x,y,z
-x,-y,z
-x,y,z
x,-y,z
x,1/2+y,1/2+z
-x,1/2-y,1/2+z
-x,1/2+y,1/2+z
x,1/2-y,1/2+z
loop_
_atom_site_type_symbol
_atom_site_label
_atom_site_fract_x
_atom_site_fract_y
_atom_site_fract_z
Si Si1 0.798309 0.784043 0.556150
Si Si2 0.709089 0.401292 0.299579
Si Si3 0.794487 0.600526 0.949345
Si Si4 0.707075 0.715112 0.836750
Si Si5 0.705110 0.598153 0.595393
Si Si6 0.293941 0.099048 0.664995
Si Si7 0.291556 0.398946 0.727904
O O1 0.724002 0.845455 0.504925
O O2 0.743946 0.682037 0.555830
O O3 0.758649 0.828402 0.618390
O O4 0.000000 0.784276 0.548853
O O5 0.500000 0.402490 0.300255
O O6 0.765947 0.500000 0.316925
O O7 0.765547 0.317136 0.337005
O O8 0.760436 0.386028 0.231891
O O9 0.727489 0.500000 0.945997
O O10 0.759311 0.656382 0.891393
O O11 0.000000 0.594266 0.955473
O O12 0.500000 0.715727 0.835163
O O13 0.767909 0.668759 0.776903
O O14 0.500000 0.592923 0.599051
O O15 0.767373 0.500000 0.577783
O O16 0.767950 0.616666 0.661656
O O17 0.500000 0.098531 0.665964
O O18 0.235320 0.000000 0.647370
O O19 0.500000 0.394064 0.726841
O O20 0.246479 0.500000 0.743855
#
# Coordination Sequence:
#
# PCOD9356237 Si02
#       7
#     8   8   8   8   8   8   8
#     4  11  22  35  52  73 102 140 175 210 256 306
#     4   8  15  29  50  78 109 135 160 199 254 307
#     4  10  23  41  54  67  96 136 171 206 253 303
#     4  10  18  30  53  79 100 128 169 212 247 288
#     4   9  18  34  56  80 106 135 167 206 252 303
#     4   9  17  31  54  81 106 134 169 209 254 306
#     4   8  14  26  47  76 105 129 156 198 254 304
#
# _framework density 20.697659999999999
#
# number of rings (size 3 to 8) (size 9 to 14) (size 15 to 20)
#    0.000    2.714    0.000    3.857    0.000    5.429 
#    0.000    3.571    0.000    4.714    0.000    0.000 
#    0.000    0.000    0.000    0.000    0.000    0.000 
#
# Total GULP energy -156218.619339 kJ/mol
# GULP energy per Si atom -5579.236405 kJ/mol
# Density = 2.065055 g / cm^3
# Si number density = 20.697660 Si / 1000 Ang^3
#
#
#
# Elastic Constant Matrix: (Units=GPa)
#
#
# Indices 1 2 3 4 5 6 
#
# 1 23.2583 13.2749 5.5387 0.0000 0.0000 0.0000
# 2 13.2749 215.6598 86.5891 0.0000 0.0000 0.0000
# 3 5.5387 86.5891 57.7368 0.0000 0.0000 0.0000
# 4 0.0000 0.0000 0.0000 32.9943 0.0000 0.0000
# 5 0.0000 0.0000 0.0000 0.0000 22.9432 0.0000
# 6 0.0000 0.0000 0.0000 0.0000 0.0000 9.1288
#
#
#
# Elastic Compliance Matrix: (Units=1/GPa)
#
#
# Indices 1 2 3 4 5 6 
#
# 1 0.044565 -0.002581 -0.000405 0.000000 0.000000 0.000000
# 2 -0.002581 0.011804 -0.017456 0.000000 0.000000 0.000000
# 3 -0.000405 -0.017456 0.043538 0.000000 0.000000 0.000000
# 4 0.000000 0.000000 0.000000 0.030308 0.000000 0.000000
# 5 0.000000 0.000000 0.000000 0.000000 0.043586 0.000000
# 6 0.000000 0.000000 0.000000 0.000000 0.000000 0.109543
#
#
# Mechanical properties :
#
#
# Convention : Reuss Voigt Hill
#
# Bulk Modulus (GPa) = 16.94218 56.38445 36.66332
# Shear Modulus (GPa) = 14.53904 25.76341 20.15123
#
# Velocity S-wave (km/s) = 2.65325 3.53193 3.12364
# Velocity P-wave (km/s) = 4.19400 6.62826 5.54632
#
# Compressibility (1/GPa) = 0.05902428
#
# Stress axis : x y z
#
# Youngs Moduli (GPa) = 22.43926 84.71409 22.96862
#
# Poissons Ratio (x) = 0.21861 0.00930
# Poissons Ratio (y) = 0.05791 0.40094
# Poissons Ratio (z) = 0.00909 1.47875
#
# Static dielectric constant tensor:
#      x y z
#    x 1.765060 0.000000 0.000000 
#    y 0.000000 1.797810 0.000000 
#    z 0.000000 0.000000 1.715540 
# 
# From -- ./inp_files/19776.got.cif
#   From: 2010.05.17/outbox.cif.g08.bks.cpg/sg38_10_cif.got.tgz:19776.got - 2010.06.03 18:07:57.
