data_PCOD9356871
_publ_section_title
;
Structure prediction by ZEFSAII (Michael W. Deem and Ramdas Pophale) SiO2 
 PCOD9356871
Probable space group: A M M 2
;
_chemical_formula_sum "Si O2"
_cell_formula_units_Z 56
_cell_length_a 14.307735
_cell_length_b 19.602393
_cell_length_c 12.493538
_cell_angle_alpha 90.000000
_cell_angle_beta 90.000000
_cell_angle_gamma 90.000000
_cell_volume 3504.010685
_symmetry_space_group_name_H-M "A M M 2"
_symmetry_group_IT_number 38
_symmetry_cell_setting 'orthorhombic'
loop_
_space_group_symop_operation_xyz
x,y,z
-x,-y,z
-x,y,z
x,-y,z
x,1/2+y,1/2+z
-x,1/2-y,1/2+z
-x,1/2+y,1/2+z
x,1/2-y,1/2+z
loop_
_atom_site_type_symbol
_atom_site_label
_atom_site_fract_x
_atom_site_fract_y
_atom_site_fract_z
Si Si1 0.772349 0.823485 0.876100
Si Si2 0.890071 0.296411 0.161738
Si Si3 0.110561 0.577943 0.794957
Si Si4 0.391143 0.579539 0.297728
Si Si5 0.891817 0.858246 0.078509
Si Si6 0.227967 0.669660 0.954322
Si Si7 0.391643 0.578751 0.040092
O O1 0.837318 0.816580 0.770567
O O2 0.681154 0.867855 0.849222
O O3 0.751940 0.746385 0.915153
O O4 0.828629 0.857492 0.973921
O O5 0.884408 0.215168 0.138399
O O6 0.000000 0.314431 0.165874
O O7 0.837229 0.328585 0.060081
O O8 0.125805 0.500000 0.828481
O O9 0.132446 0.587337 0.669481
O O10 0.171402 0.629200 0.864097
O O11 0.000000 0.593992 0.807095
O O12 0.500000 0.592728 0.325639
O O13 0.370656 0.500000 0.324573
O O14 0.383302 0.585573 0.168741
O O15 0.000000 0.866606 0.046716
O O16 0.322020 0.630004 0.983222
O O17 0.500000 0.590876 0.012451
O O18 0.368942 0.500000 0.013468
#
# Coordination Sequence:
#
# PCOD9356871 Si02
#       7
#     8   8   8   8   8   8   8
#     4  11  20  32  56  80 105 135 176 219 266 310
#     4  10  19  32  50  76 108 138 171 220 265 304
#     4  10  20  34  51  73 107 148 184 213 248 309
#     4   9  19  37  58  77 101 134 171 214 268 327
#     4   9  19  33  49  73 106 144 180 209 251 310
#     4  11  20  32  54  80 107 133 177 222 265 306
#     4   9  18  34  55  76 101 134 170 213 267 319
#
# _framework density 15.981687000000001
#
# number of rings (size 3 to 8) (size 9 to 14) (size 15 to 20)
#    0.000    2.143    2.857    2.143    0.000    2.286 
#    0.000    0.000    0.000    3.000    0.000    2.000 
#    0.000    0.000    0.000    0.000    0.000    0.000 
#
# Total GULP energy -156130.180726 kJ/mol
# GULP energy per Si atom -5576.077883 kJ/mol
# Density = 1.594531 g / cm^3
# Si number density = 15.981687 Si / 1000 Ang^3
#
#
#
# Elastic Constant Matrix: (Units=GPa)
#
#
# Indices 1 2 3 4 5 6 
#
# 1 116.1214 74.1764 65.7178 0.0000 0.0000 0.0000
# 2 74.1764 83.3643 48.5799 0.0000 0.0000 0.0000
# 3 65.7178 48.5799 87.6243 0.0000 0.0000 0.0000
# 4 0.0000 0.0000 0.0000 10.5895 0.0000 0.0000
# 5 0.0000 0.0000 0.0000 0.0000 27.5355 0.0000
# 6 0.0000 0.0000 0.0000 0.0000 0.0000 27.7303
#
#
#
# Elastic Compliance Matrix: (Units=1/GPa)
#
#
# Indices 1 2 3 4 5 6 
#
# 1 0.024043 -0.016081 -0.009117 0.000000 0.000000 0.000000
# 2 -0.016081 0.028476 -0.003727 0.000000 0.000000 0.000000
# 3 -0.009117 -0.003727 0.020316 0.000000 0.000000 0.000000
# 4 0.000000 0.000000 0.000000 0.094433 0.000000 0.000000
# 5 0.000000 0.000000 0.000000 0.000000 0.036317 0.000000
# 6 0.000000 0.000000 0.000000 0.000000 0.000000 0.036062
#
#
# Mechanical properties :
#
#
# Convention : Reuss Voigt Hill
#
# Bulk Modulus (GPa) = 66.72801 73.78424 70.25612
# Shear Modulus (GPa) = 16.52938 19.74678 18.13808
#
# Velocity S-wave (km/s) = 3.21950 3.51891 3.37253
# Velocity P-wave (km/s) = 7.46081 7.92329 7.69552
#
# Compressibility (1/GPa) = 0.01498621
#
# Stress axis : x y z
#
# Youngs Moduli (GPa) = 41.59139 35.11786 49.22121
#
# Poissons Ratio (x) = 0.56471 0.44876
# Poissons Ratio (y) = 0.66881 0.18344
# Poissons Ratio (z) = 0.37920 0.13088
#
# Static dielectric constant tensor:
#      x y z
#    x 1.510450 0.000000 0.000000 
#    y 0.000000 1.534350 0.000000 
#    z 0.000000 0.000000 1.521130 
# 
# From -- ./inp_files/9364.got.cif
#   From: 2010.05.17/outbox.cif.g08.bks.cpg/sg38_5_cif.got.tgz:9364.got - 2010.06.03 18:07:57.
