data_PCOD9356437
_publ_section_title
;
Structure prediction by ZEFSAII (Michael W. Deem and Ramdas Pophale) SiO2 
 PCOD9356437
Probable space group: A M M 2
;
_chemical_formula_sum "Si O2"
_cell_formula_units_Z 64
_cell_length_a 7.608686
_cell_length_b 16.101184
_cell_length_c 24.347589
_cell_angle_alpha 90.000000
_cell_angle_beta 90.000000
_cell_angle_gamma 90.000000
_cell_volume 2982.795209
_symmetry_space_group_name_H-M "A M M 2"
_symmetry_group_IT_number 38
_symmetry_cell_setting 'orthorhombic'
loop_
_space_group_symop_operation_xyz
x,y,z
-x,-y,z
-x,y,z
x,-y,z
x,1/2+y,1/2+z
-x,1/2-y,1/2+z
-x,1/2+y,1/2+z
x,1/2-y,1/2+z
loop_
_atom_site_type_symbol
_atom_site_label
_atom_site_fract_x
_atom_site_fract_y
_atom_site_fract_z
Si Si1 0.285103 0.907551 0.606500
Si Si2 0.785036 0.407896 0.838339
Si Si3 0.205635 0.752095 0.406077
Si Si4 0.707500 0.746124 0.032257
Si Si5 0.787054 0.663864 0.721190
Si Si6 0.212284 0.406758 0.604148
Si Si7 0.704822 0.357912 0.226861
Si Si8 0.795344 0.909412 0.847433
O O1 0.500000 0.904245 0.607385
O O2 0.224095 0.830962 0.568925
O O3 0.226354 0.893754 0.669364
O O4 0.234566 0.000000 0.587570
O O5 0.724471 0.500000 0.852880
O O6 0.721585 0.335732 0.878852
O O7 0.734174 0.383836 0.776298
O O8 0.000000 0.409458 0.839545
O O9 0.217048 0.752431 0.471306
O O10 0.284385 0.668640 0.379659
O O11 0.000000 0.751657 0.390072
O O12 0.500000 0.733724 0.026426
O O13 0.736685 0.833219 0.063085
O O14 0.728503 0.619552 0.665288
O O15 0.723009 0.758453 0.723637
O O16 0.000000 0.666537 0.720524
O O17 0.273479 0.500000 0.590221
O O18 0.000000 0.408826 0.604970
O O19 0.500000 0.380356 0.230789
O O20 0.790079 0.390282 0.282574
O O21 0.000000 0.914187 0.863967
O O22 0.715861 0.000000 0.857976
#
# Coordination Sequence:
#
# PCOD9356437 Si02
#       8
#     8   8   8   8   8   8   8   8
#     4   9  19  36  56  79 111 151 187 221 274 337
#     4   9  17  32  57  85 112 143 180 224 275 331
#     4  10  21  38  57  80 110 147 189 234 281 329
#     4  11  23  39  58  81 111 150 193 238 282 330
#     4  10  18  33  58  86 116 147 182 223 275 335
#     4  10  21  37  60  88 116 148 186 230 282 339
#     4  11  20  33  57  86 117 149 182 222 277 338
#     4  10  21  38  59  83 111 145 185 230 280 332
#
# _framework density 21.456385000000001
#
# number of rings (size 3 to 8) (size 9 to 14) (size 15 to 20)
#    0.000    2.000    2.500    1.500    0.000    4.000 
#    0.000    1.250    0.000    5.250    0.000    0.000 
#    0.000    0.000    0.000    0.000    0.000    0.000 
#
# Total GULP energy -178784.816460 kJ/mol
# GULP energy per Si atom -5587.025514 kJ/mol
# Density = 2.140755 g / cm^3
# Si number density = 21.456385 Si / 1000 Ang^3
#
#
#
# Elastic Constant Matrix: (Units=GPa)
#
#
# Indices 1 2 3 4 5 6 
#
# 1 43.4453 -1.3618 -11.3723 0.0000 0.0000 0.0000
# 2 -1.3618 215.7820 84.7733 0.0000 0.0000 0.0000
# 3 -11.3723 84.7733 125.5317 0.0000 0.0000 0.0000
# 4 0.0000 0.0000 0.0000 0.9526 0.0000 0.0000
# 5 0.0000 0.0000 0.0000 0.0000 -10.2061 0.0000
# 6 0.0000 0.0000 0.0000 0.0000 0.0000 9.4332
#
#
#
# Elastic Compliance Matrix: (Units=1/GPa)
#
#
# Indices 1 2 3 4 5 6 
#
# 1 0.023717 -0.000945 0.002787 0.000000 0.000000 0.000000
# 2 -0.000945 0.006345 -0.004371 0.000000 0.000000 0.000000
# 3 0.002787 -0.004371 0.011170 0.000000 0.000000 0.000000
# 4 0.000000 0.000000 0.000000 1.049812 0.000000 0.000000
# 5 0.000000 0.000000 0.000000 0.000000 -0.097980 0.000000
# 6 0.000000 0.000000 0.000000 0.000000 0.000000 0.106008
#
#
# Mechanical properties :
#
#
# Convention : Reuss Voigt Hill
#
# Bulk Modulus (GPa) = 27.64351 58.75973 43.20162
# Shear Modulus (GPa) = 4.47952 20.88392 12.68172
#
# Velocity S-wave (km/s) = 1.44647 3.12319 2.43378
# Velocity P-wave (km/s) = 3.96248 6.36010 5.29868
#
# Compressibility (1/GPa) = 0.03617485
#
# Stress axis : x y z
#
# Youngs Moduli (GPa) = 42.16330 157.59239 89.52343
#
# Poissons Ratio (x) = 0.14896 -0.24950
# Poissons Ratio (y) = 0.03985 0.39129
# Poissons Ratio (z) = -0.11751 0.68881
#
# Static dielectric constant tensor:
#      x y z
#    x 1.809510 0.000000 0.000000 
#    y 0.000000 1.785430 0.000000 
#    z 0.000000 0.000000 1.723030 
# 
# From -- ./inp_files/22152.got.cif
#   From: 2010.05.17/outbox.cif.g08.bks.cpg/sg38_12_cif.got.tgz:22152.got - 2010.06.03 18:07:57.
