data_PCOD9356790
_publ_section_title
;
Structure prediction by ZEFSAII (Michael W. Deem and Ramdas Pophale) SiO2 
 PCOD9356790
Probable space group: A M M 2
;
_chemical_formula_sum "Si O2"
_cell_formula_units_Z 64
_cell_length_a 19.960581
_cell_length_b 7.867232
_cell_length_c 21.218851
_cell_angle_alpha 90.000000
_cell_angle_beta 90.000000
_cell_angle_gamma 90.000000
_cell_volume 3332.092115
_symmetry_space_group_name_H-M "A M M 2"
_symmetry_group_IT_number 38
_symmetry_cell_setting 'orthorhombic'
loop_
_space_group_symop_operation_xyz
x,y,z
-x,-y,z
-x,y,z
x,-y,z
x,1/2+y,1/2+z
-x,1/2-y,1/2+z
-x,1/2+y,1/2+z
x,1/2-y,1/2+z
loop_
_atom_site_type_symbol
_atom_site_label
_atom_site_fract_x
_atom_site_fract_y
_atom_site_fract_z
Si Si1 0.075023 0.293864 0.513750
Si Si2 0.792964 0.301083 0.450337
Si Si3 0.287946 0.705288 0.330026
Si Si4 0.074443 0.296358 0.160041
Si Si5 0.574888 0.797386 0.387223
Si Si6 0.575274 0.300189 0.531621
Si Si7 0.783486 0.208408 0.702738
Si Si8 0.284402 0.197680 0.573143
O O1 0.076399 0.500000 0.513104
O O2 0.134658 0.228807 0.469621
O O3 0.086665 0.239592 0.586034
O O4 0.000000 0.238746 0.495823
O O5 0.803580 0.500000 0.436366
O O6 0.754117 0.228274 0.390277
O O7 0.747357 0.287881 0.512575
O O8 0.284678 0.500000 0.330341
O O9 0.365254 0.750946 0.340833
O O10 0.255131 0.765471 0.265066
O O11 0.072128 0.500000 0.167743
O O12 0.139144 0.234585 0.198143
O O13 0.000000 0.228680 0.175798
O O14 0.500000 0.742857 0.367322
O O15 0.587754 0.721605 0.456699
O O16 0.574550 0.000000 0.394933
O O17 0.500000 0.234031 0.543850
O O18 0.576416 0.500000 0.545816
O O19 0.635706 0.215105 0.568831
O O20 0.745869 0.261849 0.638749
O O21 0.783352 0.000000 0.703207
O O22 0.265864 0.000000 0.567238
#
# Coordination Sequence:
#
# PCOD9356790 Si02
#       8
#     8   8   8   8   8   8   8   8
#     4   9  17  29  46  72 104 133 167 215 267 313
#     4  10  19  31  50  75 101 133 173 215 260 309
#     4  10  20  35  53  73 104 141 176 212 254 312
#     4   9  16  29  50  73  98 131 173 216 257 305
#     4  10  20  34  53  78 105 132 169 215 258 304
#     4  10  20  34  53  78 106 135 169 210 259 313
#     4   9  19  34  50  75 106 138 175 214 258 306
#     4  11  20  32  53  77 104 134 170 217 260 303
#
# _framework density 19.207152000000001
#
# number of rings (size 3 to 8) (size 9 to 14) (size 15 to 20)
#    0.000    2.250    2.500    1.125    0.000    1.500 
#    0.000    3.125    0.000    7.500    0.000    0.000 
#    0.000    5.000    0.000    0.000    0.000    0.000 
#
# Total GULP energy -178513.770465 kJ/mol
# GULP energy per Si atom -5578.555327 kJ/mol
# Density = 1.916344 g / cm^3
# Si number density = 19.207152 Si / 1000 Ang^3
#
#
#
# Elastic Constant Matrix: (Units=GPa)
#
#
# Indices 1 2 3 4 5 6 
#
# 1 173.5054 0.1188 74.6306 0.0000 0.0000 0.0000
# 2 0.1188 22.4680 -1.5003 0.0000 0.0000 0.0000
# 3 74.6306 -1.5003 99.6871 0.0000 0.0000 0.0000
# 4 0.0000 0.0000 0.0000 13.7535 0.0000 0.0000
# 5 0.0000 0.0000 0.0000 0.0000 30.4687 0.0000
# 6 0.0000 0.0000 0.0000 0.0000 0.0000 15.2901
#
#
#
# Elastic Compliance Matrix: (Units=1/GPa)
#
#
# Indices 1 2 3 4 5 6 
#
# 1 0.008506 -0.000471 -0.006375 0.000000 0.000000 0.000000
# 2 -0.000471 0.044579 0.001023 0.000000 0.000000 0.000000
# 3 -0.006375 0.001023 0.014819 0.000000 0.000000 0.000000
# 4 0.000000 0.000000 0.000000 0.072709 0.000000 0.000000
# 5 0.000000 0.000000 0.000000 0.000000 0.032821 0.000000
# 6 0.000000 0.000000 0.000000 0.000000 0.000000 0.065402
#
#
# Mechanical properties :
#
#
# Convention : Reuss Voigt Hill
#
# Bulk Modulus (GPa) = 17.77489 49.12873 33.45181
# Shear Modulus (GPa) = 18.57128 26.72989 22.65058
#
# Velocity S-wave (km/s) = 3.11286 3.73455 3.43779
# Velocity P-wave (km/s) = 4.71108 6.65054 5.76298
#
# Compressibility (1/GPa) = 0.05625915
#
# Stress axis : x y z
#
# Youngs Moduli (GPa) = 117.56455 22.43227 67.47879
#
# Poissons Ratio (x) = 0.01056 0.43018
# Poissons Ratio (y) = 0.05533 -0.06905
# Poissons Ratio (z) = 0.74948 -0.02295
#
# Static dielectric constant tensor:
#      x y z
#    x 1.709620 0.000000 0.000000 
#    y 0.000000 1.711720 0.000000 
#    z 0.000000 0.000000 1.631000 
# 
# From -- ./inp_files/21539.got.cif
#   From: 2010.05.17/outbox.cif.g08.bks.cpg/sg38_11_cif.got.tgz:21539.got - 2010.06.03 18:07:57.
