data_PCOD9356163
_publ_section_title
;
Structure prediction by ZEFSAII (Michael W. Deem and Ramdas Pophale) SiO2 
 PCOD9356163
Probable space group: A M M 2
;
_chemical_formula_sum "Si O2"
_cell_formula_units_Z 64
_cell_length_a 8.759450
_cell_length_b 31.149397
_cell_length_c 14.805484
_cell_angle_alpha 90.000000
_cell_angle_beta 90.000000
_cell_angle_gamma 90.000000
_cell_volume 4039.699784
_symmetry_space_group_name_H-M "A M M 2"
_symmetry_group_IT_number 38
_symmetry_cell_setting 'orthorhombic'
loop_
_space_group_symop_operation_xyz
x,y,z
-x,-y,z
-x,y,z
x,-y,z
x,1/2+y,1/2+z
-x,1/2-y,1/2+z
-x,1/2+y,1/2+z
x,1/2-y,1/2+z
loop_
_atom_site_type_symbol
_atom_site_label
_atom_site_fract_x
_atom_site_fract_y
_atom_site_fract_z
Si Si1 0.321140 0.273527 0.426320
Si Si2 0.316887 0.209714 0.720630
Si Si3 0.816736 0.292342 0.614989
Si Si4 0.826012 0.816076 0.428656
Si Si5 0.821500 0.131589 0.613290
Si Si6 0.815225 0.450988 0.834026
Si Si7 0.682502 0.450719 0.034816
Si Si8 0.179885 0.632543 0.741847
O O1 0.500000 0.282992 0.435824
O O2 0.270599 0.286773 0.325778
O O3 0.231869 0.293044 0.510868
O O4 0.291486 0.222600 0.432424
O O5 0.500000 0.212833 0.715498
O O6 0.247776 0.249566 0.663859
O O7 0.261321 0.164790 0.679443
O O8 0.757838 0.334929 0.666809
O O9 0.000000 0.290386 0.622887
O O10 0.809049 0.846671 0.514267
O O11 0.809077 0.842318 0.336737
O O12 0.000000 0.798289 0.430970
O O13 0.749956 0.084629 0.602112
O O14 0.000000 0.128799 0.636236
O O15 0.778803 0.500000 0.808096
O O16 0.759037 0.414927 0.763769
O O17 0.000000 0.447210 0.841335
O O18 0.748036 0.443307 0.933849
O O19 0.500000 0.446744 0.031595
O O20 0.721661 0.500000 0.059086
O O21 0.000000 0.627188 0.720627
#
# Coordination Sequence:
#
# PCOD9356163 Si02
#       8
#     8   8   8   8   8   8   8   8
#     4  11  23  36  49  69 100 133 169 210 251 295
#     4  11  23  36  50  71  99 130 167 209 253 301
#     4  11  21  33  51  71  97 132 170 209 247 298
#     4  10  18  30  48  70 100 132 167 203 243 294
#     4  11  21  33  52  75  98 133 171 206 250 296
#     4   9  16  29  49  71  98 131 167 207 249 296
#     4  10  20  32  47  71 104 137 166 201 246 295
#     4   9  17  30  47  71  98 128 166 203 241 291
#
# _framework density 15.842762
#
# number of rings (size 3 to 8) (size 9 to 14) (size 15 to 20)
#    0.000    1.750    3.750    1.875    0.000    2.750 
#    0.000    1.250    0.000    0.000    0.000    0.875 
#    0.000    3.000    0.000    0.000    0.000    0.000 
#
# Total GULP energy -178484.801931 kJ/mol
# GULP energy per Si atom -5577.650060 kJ/mol
# Density = 1.580670 g / cm^3
# Si number density = 15.842762 Si / 1000 Ang^3
#
#
#
# Elastic Constant Matrix: (Units=GPa)
#
#
# Indices 1 2 3 4 5 6 
#
# 1 37.9027 30.5336 32.2024 0.0000 0.0000 0.0000
# 2 30.5336 112.0254 41.0859 0.0000 0.0000 0.0000
# 3 32.2024 41.0859 82.8493 0.0000 0.0000 0.0000
# 4 0.0000 0.0000 0.0000 20.1121 0.0000 0.0000
# 5 0.0000 0.0000 0.0000 0.0000 13.4164 0.0000
# 6 0.0000 0.0000 0.0000 0.0000 0.0000 14.8324
#
#
#
# Elastic Compliance Matrix: (Units=1/GPa)
#
#
# Indices 1 2 3 4 5 6 
#
# 1 0.043343 -0.006888 -0.013431 0.000000 0.000000 0.000000
# 2 -0.006888 0.012006 -0.003277 0.000000 0.000000 0.000000
# 3 -0.013431 -0.003277 0.018916 0.000000 0.000000 0.000000
# 4 0.000000 0.000000 0.000000 0.049721 0.000000 0.000000
# 5 0.000000 0.000000 0.000000 0.000000 0.074535 0.000000
# 6 0.000000 0.000000 0.000000 0.000000 0.000000 0.067420
#
#
# Mechanical properties :
#
#
# Convention : Reuss Voigt Hill
#
# Bulk Modulus (GPa) = 36.93667 48.93569 42.93618
# Shear Modulus (GPa) = 15.52042 18.26922 16.89482
#
# Velocity S-wave (km/s) = 3.13334 3.39950 3.26913
# Velocity P-wave (km/s) = 6.03784 6.80913 6.43505
#
# Compressibility (1/GPa) = 0.02707337
#
# Stress axis : x y z
#
# Youngs Moduli (GPa) = 23.07172 83.29505 52.86666
#
# Poissons Ratio (x) = 0.57370 0.71006
# Poissons Ratio (y) = 0.15891 0.17322
# Poissons Ratio (z) = 0.30988 0.27292
#
# Static dielectric constant tensor:
#      x y z
#    x 1.538820 0.000000 0.000000 
#    y 0.000000 1.541200 0.000000 
#    z 0.000000 0.000000 1.517060 
# 
# From -- ./inp_files/13055.got.cif
#   From: 2010.05.17/outbox.cif.g08.bks.cpg/sg38_7_cif.got.tgz:13055.got - 2010.06.03 18:07:57.
