data_PCOD9356394
_publ_section_title
;
Structure prediction by ZEFSAII (Michael W. Deem and Ramdas Pophale) SiO2 
 PCOD9356394
Probable space group: A M M 2
;
_chemical_formula_sum "Si O2"
_cell_formula_units_Z 64
_cell_length_a 8.039536
_cell_length_b 29.361877
_cell_length_c 12.953352
_cell_angle_alpha 90.000000
_cell_angle_beta 90.000000
_cell_angle_gamma 90.000000
_cell_volume 3057.714739
_symmetry_space_group_name_H-M "A M M 2"
_symmetry_group_IT_number 38
_symmetry_cell_setting 'orthorhombic'
loop_
_space_group_symop_operation_xyz
x,y,z
-x,-y,z
-x,y,z
x,-y,z
x,1/2+y,1/2+z
-x,1/2-y,1/2+z
-x,1/2+y,1/2+z
x,1/2-y,1/2+z
loop_
_atom_site_type_symbol
_atom_site_label
_atom_site_fract_x
_atom_site_fract_y
_atom_site_fract_z
Si Si1 0.697894 0.698016 0.027560
Si Si2 0.303864 0.595540 0.974459
Si Si3 0.797354 0.619712 0.584838
Si Si4 0.197921 0.051792 0.262507
Si Si5 0.797603 0.951366 0.914330
Si Si6 0.195083 0.204261 0.963000
Si Si7 0.309488 0.167101 0.748614
Si Si8 0.188430 0.428258 0.195039
O O1 0.500000 0.700221 0.007586
O O2 0.722202 0.699389 0.151121
O O3 0.756599 0.648149 0.988269
O O4 0.779938 0.742519 0.981227
O O5 0.500000 0.597589 0.955946
O O6 0.224500 0.569407 0.878753
O O7 0.273821 0.570815 0.084094
O O8 0.736943 0.590820 0.683679
O O9 0.744534 0.590305 0.484753
O O10 0.747811 0.671596 0.558021
O O11 0.000000 0.619710 0.591162
O O12 0.000000 0.048892 0.243568
O O13 0.264513 0.000000 0.249059
O O14 0.735018 0.950716 0.796962
O O15 0.000000 0.948608 0.908142
O O16 0.756402 0.000000 0.963699
O O17 0.285871 0.189574 0.858539
O O18 0.000000 0.194861 0.947353
O O19 0.500000 0.150390 0.736675
O O20 0.191210 0.124299 0.731414
O O21 0.000000 0.444452 0.181154
#
# Coordination Sequence:
#
# PCOD9356394 Si02
#       8
#     8   8   8   8   8   8   8   8
#     4   9  21  39  56  79 110 152 199 240 291 356
#     4  10  22  40  59  80 114 157 198 241 300 363
#     4   9  18  34  54  83 117 147 187 239 293 349
#     4  10  21  38  62  88 116 156 204 251 299 356
#     4   9  16  28  51  82 113 142 174 223 285 342
#     4  11  21  34  57  88 116 147 193 247 300 349
#     4  10  20  36  56  77 111 154 189 227 287 355
#     4  10  18  32  56  85 112 141 188 241 287 339
#
# _framework density 20.930665000000001
#
# number of rings (size 3 to 8) (size 9 to 14) (size 15 to 20)
#    0.000    2.250    1.250    2.625    0.000    6.250 
#    0.000    5.000    0.000    1.125    0.000    0.000 
#    0.000    0.000    0.000    0.000    0.000    0.000 
#
# Total GULP energy -178443.063139 kJ/mol
# GULP energy per Si atom -5576.345723 kJ/mol
# Density = 2.088303 g / cm^3
# Si number density = 20.930665 Si / 1000 Ang^3
#
#
#
# Elastic Constant Matrix: (Units=GPa)
#
#
# Indices 1 2 3 4 5 6 
#
# 1 19.2613 6.0665 0.6901 0.0000 0.0000 0.0000
# 2 6.0665 56.9350 14.5698 0.0000 0.0000 0.0000
# 3 0.6901 14.5698 85.4816 0.0000 0.0000 0.0000
# 4 0.0000 0.0000 0.0000 20.1518 0.0000 0.0000
# 5 0.0000 0.0000 0.0000 0.0000 15.3375 0.0000
# 6 0.0000 0.0000 0.0000 0.0000 0.0000 -10.0889
#
#
#
# Elastic Compliance Matrix: (Units=1/GPa)
#
#
# Indices 1 2 3 4 5 6 
#
# 1 0.053747 -0.005872 0.000567 0.000000 0.000000 0.000000
# 2 -0.005872 0.019006 -0.003192 0.000000 0.000000 0.000000
# 3 0.000567 -0.003192 0.012238 0.000000 0.000000 0.000000
# 4 0.000000 0.000000 0.000000 0.049623 0.000000 0.000000
# 5 0.000000 0.000000 0.000000 0.000000 0.065200 0.000000
# 6 0.000000 0.000000 0.000000 0.000000 0.000000 -0.099119
#
#
# Mechanical properties :
#
#
# Convention : Reuss Voigt Hill
#
# Bulk Modulus (GPa) = 14.70657 22.70343 18.70500
# Shear Modulus (GPa) = 35.62384 14.43683 25.03034
#
# Velocity S-wave (km/s) = 4.13000 2.62915 3.46189
# Velocity P-wave (km/s) = 5.45748 4.48186 4.99355
#
# Compressibility (1/GPa) = 0.06799684
#
# Stress axis : x y z
#
# Youngs Moduli (GPa) = 18.60579 52.61379 81.71316
#
# Poissons Ratio (x) = 0.30894 -0.04632
# Poissons Ratio (y) = 0.10925 0.26084
# Poissons Ratio (z) = -0.01055 0.16795
#
# Static dielectric constant tensor:
#      x y z
#    x 1.762260 0.000000 0.000000 
#    y 0.000000 1.765470 0.000000 
#    z 0.000000 0.000000 1.745210 
# 
# From -- ./inp_files/8612.got.cif
#   From: 2010.05.17/outbox.cif.g08.bks.cpg/sg38_5_cif.got.tgz:8612.got - 2010.06.03 18:07:57.
