data_PCOD9356690
_publ_section_title
;
Structure prediction by ZEFSAII (Michael W. Deem and Ramdas Pophale) SiO2 
 PCOD9356690
Probable space group: A M M 2
;
_chemical_formula_sum "Si O2"
_cell_formula_units_Z 40
_cell_length_a 7.356840
_cell_length_b 8.253645
_cell_length_c 29.123294
_cell_angle_alpha 90.000000
_cell_angle_beta 90.000000
_cell_angle_gamma 90.000000
_cell_volume 1768.388128
_symmetry_space_group_name_H-M "A M M 2"
_symmetry_group_IT_number 38
_symmetry_cell_setting 'orthorhombic'
loop_
_space_group_symop_operation_xyz
x,y,z
-x,-y,z
-x,y,z
x,-y,z
x,1/2+y,1/2+z
-x,1/2-y,1/2+z
-x,1/2+y,1/2+z
x,1/2-y,1/2+z
loop_
_atom_site_type_symbol
_atom_site_label
_atom_site_fract_x
_atom_site_fract_y
_atom_site_fract_z
Si Si1 0.286112 0.000000 0.123891
Si Si2 0.288074 0.324377 0.078650
Si Si3 0.219087 0.500000 0.731596
Si Si4 0.219719 0.815188 0.981756
Si Si5 0.221344 0.813195 0.382924
Si Si6 0.778312 0.820415 0.785683
O O1 0.207967 0.165185 0.102626
O O2 0.267869 0.000000 0.178362
O O3 0.500000 0.000000 0.111502
O O4 0.500000 0.330401 0.091896
O O5 0.208310 0.500000 0.090092
O O6 0.278357 0.294693 0.024105
O O7 0.282292 0.334484 0.756127
O O8 0.000000 0.500000 0.735497
O O9 0.281471 0.755109 0.931917
O O10 0.000000 0.813417 0.981300
O O11 0.278820 0.000000 0.989943
O O12 0.276365 0.711486 0.338464
O O13 0.000000 0.810648 0.383485
O O14 0.276064 0.000000 0.377333
O O15 0.000000 0.819637 0.784574
O O16 0.720171 0.000000 0.770471
#
# Coordination Sequence:
#
# PCOD9356690 Si02
#       6
#     4   8   4   8   8   8
#     4  10  22  40  58  76 102 138 176 220 271 322
#     4  10  21  38  58  77 101 138 181 219 263 322
#     4  10  20  34  54  80 104 132 174 222 265 306
#     4  10  19  30  49  80 113 142 175 217 263 308
#     4   9  15  25  43  71 108 144 174 206 249 307
#     4   9  16  28  47  73 107 140 170 208 256 310
#
# _framework density 22.619468999999999
#
# number of rings (size 3 to 8) (size 9 to 14) (size 15 to 20)
#    0.000    2.400    2.000    1.200    0.000    5.200 
#    0.000    0.000    0.000    1.200    0.000    0.000 
#    0.000    0.000    0.000    0.000    0.000    0.000 
#
# Total GULP energy -111765.825505 kJ/mol
# GULP energy per Si atom -5588.291275 kJ/mol
# Density = 2.256799 g / cm^3
# Si number density = 22.619469 Si / 1000 Ang^3
#
#
#
# Elastic Constant Matrix: (Units=GPa)
#
#
# Indices 1 2 3 4 5 6 
#
# 1 84.8488 11.2265 -10.3670 0.0000 0.0000 0.0000
# 2 11.2265 236.9527 81.8583 0.0000 0.0000 0.0000
# 3 -10.3670 81.8583 123.6732 0.0000 0.0000 0.0000
# 4 0.0000 0.0000 0.0000 30.1042 0.0000 0.0000
# 5 0.0000 0.0000 0.0000 0.0000 24.7282 0.0000
# 6 0.0000 0.0000 0.0000 0.0000 0.0000 -13.4342
#
#
#
# Elastic Compliance Matrix: (Units=1/GPa)
#
#
# Indices 1 2 3 4 5 6 
#
# 1 0.012167 -0.001204 0.001817 0.000000 0.000000 0.000000
# 2 -0.001204 0.005590 -0.003801 0.000000 0.000000 0.000000
# 3 0.001817 -0.003801 0.010754 0.000000 0.000000 0.000000
# 4 0.000000 0.000000 0.000000 0.033218 0.000000 0.000000
# 5 0.000000 0.000000 0.000000 0.000000 0.040440 0.000000
# 6 0.000000 0.000000 0.000000 0.000000 0.000000 -0.074437
#
#
# Mechanical properties :
#
#
# Convention : Reuss Voigt Hill
#
# Bulk Modulus (GPa) = 45.17796 67.87891 56.52843
# Shear Modulus (GPa) = 120.51921 32.46345 76.49133
#
# Velocity S-wave (km/s) = 7.30732 3.79251 5.82151
# Velocity P-wave (km/s) = 9.55051 7.01796 8.38045
#
# Compressibility (1/GPa) = 0.02213469
#
# Stress axis : x y z
#
# Youngs Moduli (GPa) = 82.18969 178.87540 92.98749
#
# Poissons Ratio (x) = 0.21539 -0.16895
# Poissons Ratio (y) = 0.09897 0.35347
# Poissons Ratio (z) = -0.14933 0.67995
#
# Static dielectric constant tensor:
#      x y z
#    x 1.874990 0.000000 0.000000 
#    y 0.000000 1.843530 0.000000 
#    z 0.000000 0.000000 1.768050 
# 
# From -- ./inp_files/23206.got.cif
#   From: 2010.05.17/outbox.cif.g08.bks.cpg/sg38_12_cif.got.tgz:23206.got - 2010.06.03 18:07:57.
