data_PCOD9356508
_publ_section_title
;
Structure prediction by ZEFSAII (Michael W. Deem and Ramdas Pophale) SiO2 
 PCOD9356508
Probable space group: A M M 2
;
_chemical_formula_sum "Si O2"
_cell_formula_units_Z 48
_cell_length_a 15.930672
_cell_length_b 27.993602
_cell_length_c 5.161979
_cell_angle_alpha 90.000000
_cell_angle_beta 90.000000
_cell_angle_gamma 90.000000
_cell_volume 2302.020109
_symmetry_space_group_name_H-M "A M M 2"
_symmetry_group_IT_number 38
_symmetry_cell_setting 'orthorhombic'
loop_
_space_group_symop_operation_xyz
x,y,z
-x,-y,z
-x,y,z
x,-y,z
x,1/2+y,1/2+z
-x,1/2-y,1/2+z
-x,1/2+y,1/2+z
x,1/2-y,1/2+z
loop_
_atom_site_type_symbol
_atom_site_label
_atom_site_fract_x
_atom_site_fract_y
_atom_site_fract_z
Si Si1 0.898710 0.720169 0.442560
Si Si2 0.591947 0.577660 0.903933
Si Si3 0.377704 0.633998 0.396031
Si Si4 0.787208 0.944895 0.442561
Si Si5 0.403738 0.232445 0.174221
Si Si6 0.184230 0.617179 0.430953
O O1 0.869339 0.749490 0.694276
O O2 0.871471 0.664782 0.439910
O O3 0.000000 0.720747 0.442167
O O4 0.500000 0.553909 0.940334
O O5 0.597063 0.593460 0.604290
O O6 0.683971 0.555302 0.962268
O O7 0.590872 0.621384 0.110472
O O8 0.405571 0.682337 0.530641
O O9 0.278097 0.636222 0.388243
O O10 0.827496 0.919293 0.692425
O O11 0.812636 0.000000 0.418111
O O12 0.813372 0.913295 0.195206
O O13 0.500000 0.246653 0.232028
O O14 0.363133 0.266910 0.958133
#
# Coordination Sequence:
#
# PCOD9356508 Si02
#       6
#     8   8   8   8   8   8
#     4  10  21  38  63  94 124 152 183 226 282 342
#     4  10  19  32  51  72  98 136 183 235 286 332
#     4  10  20  32  47  69  97 134 179 226 277 331
#     4  10  21  37  57  82 113 152 196 240 287 336
#     4  10  19  28  39  57  84 121 163 208 258 308
#     4  10  21  37  58  83 113 150 187 229 285 343
#
# _framework density 20.851251000000001
#
# number of rings (size 3 to 8) (size 9 to 14) (size 15 to 20)
#    0.000    2.000    0.000    4.000    0.000    3.000 
#    0.000    0.000    0.000    9.000    0.000    0.000 
#    0.000    0.000    0.000    0.000    0.000    0.000 
#
# Total GULP energy -133780.258584 kJ/mol
# GULP energy per Si atom -5574.177441 kJ/mol
# Density = 2.080379 g / cm^3
# Si number density = 20.851251 Si / 1000 Ang^3
#
#
#
# Elastic Constant Matrix: (Units=GPa)
#
#
# Indices 1 2 3 4 5 6 
#
# 1 24.0035 21.5859 22.3104 0.0000 0.0000 0.0000
# 2 21.5859 130.5190 34.9136 0.0000 0.0000 0.0000
# 3 22.3104 34.9136 116.1512 0.0000 0.0000 0.0000
# 4 0.0000 0.0000 0.0000 16.4697 0.0000 0.0000
# 5 0.0000 0.0000 0.0000 0.0000 6.8184 0.0000
# 6 0.0000 0.0000 0.0000 0.0000 0.0000 27.3216
#
#
#
# Elastic Compliance Matrix: (Units=1/GPa)
#
#
# Indices 1 2 3 4 5 6 
#
# 1 0.055949 -0.006936 -0.008662 0.000000 0.000000 0.000000
# 2 -0.006936 0.009192 -0.001431 0.000000 0.000000 0.000000
# 3 -0.008662 -0.001431 0.010703 0.000000 0.000000 0.000000
# 4 0.000000 0.000000 0.000000 0.060718 0.000000 0.000000
# 5 0.000000 0.000000 0.000000 0.000000 0.146663 0.000000
# 6 0.000000 0.000000 0.000000 0.000000 0.000000 0.036601
#
#
# Mechanical properties :
#
#
# Convention : Reuss Voigt Hill
#
# Bulk Modulus (GPa) = 23.93099 47.58816 35.75957
# Shear Modulus (GPa) = 13.59392 22.91285 18.25339
#
# Velocity S-wave (km/s) = 2.55610 3.31852 2.96194
# Velocity P-wave (km/s) = 4.49593 6.12827 5.37443
#
# Compressibility (1/GPa) = 0.04178682
#
# Stress axis : x y z
#
# Youngs Moduli (GPa) = 17.87340 108.79596 93.42958
#
# Poissons Ratio (x) = 0.75462 0.80927
# Poissons Ratio (y) = 0.12397 0.13366
# Poissons Ratio (z) = 0.15482 0.15564
#
# Static dielectric constant tensor:
#      x y z
#    x 1.755140 0.000000 0.000000 
#    y 0.000000 1.763510 0.000000 
#    z 0.000000 0.000000 1.799190 
# 
# From -- ./inp_files/1640.got.cif
#   From: 2010.05.17/outbox.cif.g08.bks.cpg/sg38_1_cif.got.tgz:1640.got - 2010.06.03 18:07:57.
