data_PCOD9356450
_publ_section_title
;
Structure prediction by ZEFSAII (Michael W. Deem and Ramdas Pophale) SiO2 
 PCOD9356450
Probable space group: A M M 2
;
_chemical_formula_sum "Si O2"
_cell_formula_units_Z 64
_cell_length_a 20.327733
_cell_length_b 8.642304
_cell_length_c 20.794684
_cell_angle_alpha 90.000000
_cell_angle_beta 90.000000
_cell_angle_gamma 90.000000
_cell_volume 3653.177816
_symmetry_space_group_name_H-M "A M M 2"
_symmetry_group_IT_number 38
_symmetry_cell_setting 'orthorhombic'
loop_
_space_group_symop_operation_xyz
x,y,z
-x,-y,z
-x,y,z
x,-y,z
x,1/2+y,1/2+z
-x,1/2-y,1/2+z
-x,1/2+y,1/2+z
x,1/2-y,1/2+z
loop_
_atom_site_type_symbol
_atom_site_label
_atom_site_fract_x
_atom_site_fract_y
_atom_site_fract_z
Si Si1 0.181951 0.812381 0.931430
Si Si2 0.195372 0.185708 0.786702
Si Si3 0.322373 0.316094 0.977802
Si Si4 0.836186 0.186095 0.153603
Si Si5 0.312796 0.684902 0.616023
Si Si6 0.075047 0.688993 0.536025
Si Si7 0.344917 0.186104 0.749578
Si Si8 0.424358 0.687140 0.374138
O O1 0.173362 0.762987 0.857384
O O2 0.251461 0.751992 0.957524
O O3 0.185034 0.000000 0.932651
O O4 0.122689 0.763146 0.977813
O O5 0.157010 0.252509 0.725756
O O6 0.272291 0.227758 0.776668
O O7 0.191324 0.000000 0.784392
O O8 0.319517 0.500000 0.975612
O O9 0.376704 0.255242 0.928097
O O10 0.336737 0.259930 0.050148
O O11 0.763653 0.232964 0.127943
O O12 0.890845 0.238016 0.102777
O O13 0.836665 0.000000 0.155415
O O14 0.314368 0.500000 0.609974
O O15 0.351091 0.737581 0.679846
O O16 0.074564 0.500000 0.535965
O O17 0.000000 0.741403 0.529891
O O18 0.397279 0.231860 0.803626
O O19 0.346772 0.000000 0.742119
O O20 0.500000 0.733262 0.382768
O O21 0.420269 0.500000 0.377641
#
# Coordination Sequence:
#
# PCOD9356450 Si02
#       8
#     8   8   8   8   8   8   8   8
#     4  10  18  34  55  77 106 142 183 228 273 326
#     4   9  17  29  50  76 105 134 167 216 267 312
#     4  12  23  34  54  83 113 145 184 231 275 320
#     4   9  17  30  50  75 103 133 173 221 265 318
#     4  10  19  33  54  79 107 140 181 226 272 319
#     4   9  17  31  53  78 103 138 184 229 273 325
#     4   9  17  32  53  80 109 136 172 219 270 323
#     4  10  21  39  61  82 110 148 182 217 272 335
#
# _framework density 17.518993999999999
#
# number of rings (size 3 to 8) (size 9 to 14) (size 15 to 20)
#    0.000    2.250    2.500    1.500    0.000    1.750 
#    0.000    1.250    0.000    4.500    0.000    0.000 
#    0.000    0.000    0.000    0.000    0.000    0.000 
#
# Total GULP energy -178523.140330 kJ/mol
# GULP energy per Si atom -5578.848135 kJ/mol
# Density = 1.747912 g / cm^3
# Si number density = 17.518994 Si / 1000 Ang^3
#
#
#
# Elastic Constant Matrix: (Units=GPa)
#
#
# Indices 1 2 3 4 5 6 
#
# 1 111.8736 25.6658 79.4245 0.0000 0.0000 0.0000
# 2 25.6658 15.9251 32.8461 0.0000 0.0000 0.0000
# 3 79.4245 32.8461 174.8196 0.0000 0.0000 0.0000
# 4 0.0000 0.0000 0.0000 28.3624 0.0000 0.0000
# 5 0.0000 0.0000 0.0000 0.0000 25.3794 0.0000
# 6 0.0000 0.0000 0.0000 0.0000 0.0000 10.7093
#
#
#
# Elastic Compliance Matrix: (Units=1/GPa)
#
#
# Indices 1 2 3 4 5 6 
#
# 1 0.015636 -0.017221 -0.003868 0.000000 0.000000 0.000000
# 2 -0.017221 0.121493 -0.015003 0.000000 0.000000 0.000000
# 3 -0.003868 -0.015003 0.010296 0.000000 0.000000 0.000000
# 4 0.000000 0.000000 0.000000 0.035258 0.000000 0.000000
# 5 0.000000 0.000000 0.000000 0.000000 0.039402 0.000000
# 6 0.000000 0.000000 0.000000 0.000000 0.000000 0.093377
#
#
# Mechanical properties :
#
#
# Convention : Reuss Voigt Hill
#
# Bulk Modulus (GPa) = 13.29075 64.27679 38.78377
# Shear Modulus (GPa) = 12.11460 23.86902 17.99181
#
# Velocity S-wave (km/s) = 2.63252 3.69516 3.20814
# Velocity P-wave (km/s) = 4.10404 7.41452 5.99242
#
# Compressibility (1/GPa) = 0.07524032
#
# Stress axis : x y z
#
# Youngs Moduli (GPa) = 63.95657 8.23096 97.12273
#
# Poissons Ratio (x) = 0.14175 0.37566
# Poissons Ratio (y) = 1.10143 1.45709
# Poissons Ratio (z) = 0.24738 0.12349
#
# Static dielectric constant tensor:
#      x y z
#    x 1.578020 0.000000 0.000000 
#    y 0.000000 1.592220 0.000000 
#    z 0.000000 0.000000 1.597660 
# 
# From -- ./inp_files/21349.got.cif
#   From: 2010.05.17/outbox.cif.g08.bks.cpg/sg38_11_cif.got.tgz:21349.got - 2010.06.03 18:07:57.
