data_PCOD9356689
_publ_section_title
;
Structure prediction by ZEFSAII (Michael W. Deem and Ramdas Pophale) SiO2 
 PCOD9356689
Probable space group: A M M 2
;
_chemical_formula_sum "Si O2"
_cell_formula_units_Z 64
_cell_length_a 8.884200
_cell_length_b 34.543085
_cell_length_c 12.117064
_cell_angle_alpha 90.000000
_cell_angle_beta 90.000000
_cell_angle_gamma 90.000000
_cell_volume 3718.577608
_symmetry_space_group_name_H-M "A M M 2"
_symmetry_group_IT_number 38
_symmetry_cell_setting 'orthorhombic'
loop_
_space_group_symop_operation_xyz
x,y,z
-x,-y,z
-x,y,z
x,-y,z
x,1/2+y,1/2+z
-x,1/2-y,1/2+z
-x,1/2+y,1/2+z
x,1/2-y,1/2+z
loop_
_atom_site_type_symbol
_atom_site_label
_atom_site_fract_x
_atom_site_fract_y
_atom_site_fract_z
Si Si1 0.181551 0.673378 0.732870
Si Si2 0.171465 0.545226 0.002026
Si Si3 0.816945 0.685682 0.481963
Si Si4 0.324140 0.164590 0.587030
Si Si5 0.325417 0.608707 0.873300
Si Si6 0.818138 0.227653 0.436298
Si Si7 0.320086 0.044362 0.739664
Si Si8 0.819015 0.123819 0.800348
O O1 0.231538 0.681842 0.608757
O O2 0.249998 0.633634 0.777662
O O3 0.224762 0.706200 0.822384
O O4 0.000000 0.671078 0.734190
O O5 0.171281 0.500000 0.975278
O O6 0.237949 0.569993 0.903248
O O7 0.000000 0.557526 0.026908
O O8 0.270033 0.549993 0.112356
O O9 0.770241 0.727723 0.437161
O O10 0.770557 0.650287 0.403961
O O11 0.000000 0.685592 0.481572
O O12 0.500000 0.170347 0.613064
O O13 0.314333 0.134657 0.484663
O O14 0.250510 0.203662 0.538566
O O15 0.240319 0.145770 0.690848
O O16 0.500000 0.601529 0.850785
O O17 0.000000 0.225959 0.445627
O O18 0.500000 0.046965 0.747500
O O19 0.245641 0.080253 0.803149
O O20 0.274897 0.000000 0.770383
O O21 0.000000 0.122068 0.796591
#
# Coordination Sequence:
#
# PCOD9356689 Si02
#       8
#     8   8   8   8   8   8   8   8
#     4   9  18  34  54  74 101 136 177 221 265 313
#     4  10  19  30  49  79 109 136 170 211 259 316
#     4   9  20  35  54  81 105 135 181 230 272 314
#     4  10  20  33  49  74 107 140 174 213 261 316
#     4  10  19  32  51  73 104 139 172 211 257 312
#     4   9  18  33  56  78 100 135 176 220 268 317
#     4  10  20  34  52  76 110 146 177 217 271 326
#     4  11  21  33  54  81 110 142 180 223 269 325
#
# _framework density 17.210881000000001
#
# number of rings (size 3 to 8) (size 9 to 14) (size 15 to 20)
#    0.000    2.250    1.250    1.875    1.750    2.500 
#    0.000    3.125    0.000    0.750    0.000    1.750 
#    0.000    0.000    0.000    0.000    0.000    0.000 
#
# Total GULP energy -178486.808620 kJ/mol
# GULP energy per Si atom -5577.712769 kJ/mol
# Density = 1.717171 g / cm^3
# Si number density = 17.210881 Si / 1000 Ang^3
#
#
#
# Elastic Constant Matrix: (Units=GPa)
#
#
# Indices 1 2 3 4 5 6 
#
# 1 46.1807 38.8455 28.5341 0.0000 0.0000 0.0000
# 2 38.8455 131.5086 54.4127 0.0000 0.0000 0.0000
# 3 28.5341 54.4127 81.1852 0.0000 0.0000 0.0000
# 4 0.0000 0.0000 0.0000 23.6563 0.0000 0.0000
# 5 0.0000 0.0000 0.0000 0.0000 2.4676 0.0000
# 6 0.0000 0.0000 0.0000 0.0000 0.0000 17.0572
#
#
#
# Elastic Compliance Matrix: (Units=1/GPa)
#
#
# Indices 1 2 3 4 5 6 
#
# 1 0.031192 -0.006472 -0.006625 0.000000 0.000000 0.000000
# 2 -0.006472 0.011865 -0.005677 0.000000 0.000000 0.000000
# 3 -0.006625 -0.005677 0.018451 0.000000 0.000000 0.000000
# 4 0.000000 0.000000 0.000000 0.042272 0.000000 0.000000
# 5 0.000000 0.000000 0.000000 0.000000 0.405246 0.000000
# 6 0.000000 0.000000 0.000000 0.000000 0.000000 0.058626
#
#
# Mechanical properties :
#
#
# Convention : Reuss Voigt Hill
#
# Bulk Modulus (GPa) = 41.73900 55.82877 48.78389
# Shear Modulus (GPa) = 8.15411 17.77505 12.96458
#
# Velocity S-wave (km/s) = 2.17900 3.21718 2.74757
# Velocity P-wave (km/s) = 5.53488 6.80506 6.20257
#
# Compressibility (1/GPa) = 0.02395841
#
# Stress axis : x y z
#
# Youngs Moduli (GPa) = 32.05961 84.28168 54.19718
#
# Poissons Ratio (x) = 0.54551 0.35906
# Poissons Ratio (y) = 0.20750 0.30770
# Poissons Ratio (z) = 0.21239 0.47850
#
# Static dielectric constant tensor:
#      x y z
#    x 1.582890 0.000000 0.000000 
#    y 0.000000 1.597810 0.000000 
#    z 0.000000 0.000000 1.560110 
# 
# From -- ./inp_files/8514.got.cif
#   From: 2010.05.17/outbox.cif.g08.bks.cpg/sg38_5_cif.got.tgz:8514.got - 2010.06.03 18:07:57.
