data_PCOD9356833
_publ_section_title
;
Structure prediction by ZEFSAII (Michael W. Deem and Ramdas Pophale) SiO2 
 PCOD9356833
Probable space group: A M M 2
;
_chemical_formula_sum "Si O2"
_cell_formula_units_Z 40
_cell_length_a 7.589445
_cell_length_b 8.208246
_cell_length_c 29.510846
_cell_angle_alpha 90.000000
_cell_angle_beta 90.000000
_cell_angle_gamma 90.000000
_cell_volume 1838.408594
_symmetry_space_group_name_H-M "A M M 2"
_symmetry_group_IT_number 38
_symmetry_cell_setting 'orthorhombic'
loop_
_space_group_symop_operation_xyz
x,y,z
-x,-y,z
-x,y,z
x,-y,z
x,1/2+y,1/2+z
-x,1/2-y,1/2+z
-x,1/2+y,1/2+z
x,1/2-y,1/2+z
loop_
_atom_site_type_symbol
_atom_site_label
_atom_site_fract_x
_atom_site_fract_y
_atom_site_fract_z
Si Si1 0.792083 0.323180 0.074010
Si Si2 0.217173 0.000000 0.124735
Si Si3 0.711242 0.178173 0.785440
Si Si4 0.792176 0.500000 0.727710
Si Si5 0.286818 0.814674 0.978585
Si Si6 0.715191 0.188305 0.380767
O O1 0.716818 0.500000 0.086652
O O2 0.000000 0.327740 0.084166
O O3 0.721390 0.163556 0.099305
O O4 0.771585 0.295144 0.020339
O O5 0.278680 0.000000 0.176616
O O6 0.000000 0.000000 0.123239
O O7 0.500000 0.169135 0.787958
O O8 0.747335 0.335333 0.754730
O O9 0.775379 0.214072 0.836572
O O10 0.775775 0.000000 0.769581
O O11 0.000000 0.500000 0.723076
O O12 0.500000 0.812588 0.978083
O O13 0.226400 0.756482 0.929189
O O14 0.228367 0.000000 0.986885
O O15 0.500000 0.194081 0.381022
O O16 0.766210 0.000000 0.375906
#
# Coordination Sequence:
#
# PCOD9356833 Si02
#       6
#     8   4   8   4   8   8
#     4  10  20  36  58  80 105 142 186 229 275 332
#     4   9  20  39  59  79 107 147 191 231 282 343
#     4  10  20  37  61  86 115 153 195 236 284 348
#     4  11  23  39  61  87 115 149 193 249 298 341
#     4  10  19  31  51  82 115 146 181 224 275 327
#     4   9  16  29  52  80 111 147 186 226 269 329
#
# _framework density 21.757949
#
# number of rings (size 3 to 8) (size 9 to 14) (size 15 to 20)
#    0.000    2.200    2.000    1.500    0.000    4.800 
#    0.000    5.000    0.000    2.400    0.000    0.000 
#    0.000    0.000    0.000    0.000    0.000    0.000 
#
# Total GULP energy -111705.664724 kJ/mol
# GULP energy per Si atom -5585.283236 kJ/mol
# Density = 2.170843 g / cm^3
# Si number density = 21.757949 Si / 1000 Ang^3
#
#
#
# Elastic Constant Matrix: (Units=GPa)
#
#
# Indices 1 2 3 4 5 6 
#
# 1 46.9317 9.9245 -1.0474 0.0000 0.0000 0.0000
# 2 9.9245 222.0207 92.0552 0.0000 0.0000 0.0000
# 3 -1.0474 92.0552 148.1581 0.0000 0.0000 0.0000
# 4 0.0000 0.0000 0.0000 28.4367 0.0000 0.0000
# 5 0.0000 0.0000 0.0000 0.0000 17.1709 0.0000
# 6 0.0000 0.0000 0.0000 0.0000 0.0000 -4.9806
#
#
#
# Elastic Compliance Matrix: (Units=1/GPa)
#
#
# Indices 1 2 3 4 5 6 
#
# 1 0.021624 -0.001387 0.001015 0.000000 0.000000 0.000000
# 2 -0.001387 0.006156 -0.003835 0.000000 0.000000 0.000000
# 3 0.001015 -0.003835 0.009139 0.000000 0.000000 0.000000
# 4 0.000000 0.000000 0.000000 0.035166 0.000000 0.000000
# 5 0.000000 0.000000 0.000000 0.000000 0.058238 0.000000
# 6 0.000000 0.000000 0.000000 0.000000 0.000000 -0.200779
#
#
# Mechanical properties :
#
#
# Convention : Reuss Voigt Hill
#
# Bulk Modulus (GPa) = 35.08213 68.77502 51.92857
# Shear Modulus (GPa) = -95.16604 29.20395 -32.98104
#
# Velocity S-wave (km/s) = -6.62068 3.66761 -3.89757
# Velocity P-wave (km/s) = 6.50275 7.04364 1.91404
#
# Compressibility (1/GPa) = 0.02850454
#
# Stress axis : x y z
#
# Youngs Moduli (GPa) = 46.24575 162.44067 109.41655
#
# Poissons Ratio (x) = 0.22537 -0.11105
# Poissons Ratio (y) = 0.06416 0.41959
# Poissons Ratio (z) = -0.04693 0.62292
#
# Static dielectric constant tensor:
#      x y z
#    x 1.824690 0.000000 0.000000 
#    y 0.000000 1.767270 0.000000 
#    z 0.000000 0.000000 1.764980 
# 
# From -- ./inp_files/23245.got.cif
#   From: 2010.05.17/outbox.cif.g08.bks.cpg/sg38_12_cif.got.tgz:23245.got - 2010.06.03 18:07:57.
