data_PCOD9356117
_publ_section_title
;
Structure prediction by ZEFSAII (Michael W. Deem and Ramdas Pophale) SiO2 
 PCOD9356117
Probable space group: A M M 2
;
_chemical_formula_sum "Si O2"
_cell_formula_units_Z 64
_cell_length_a 8.751031
_cell_length_b 14.851228
_cell_length_c 29.035716
_cell_angle_alpha 90.000000
_cell_angle_beta 90.000000
_cell_angle_gamma 90.000000
_cell_volume 3773.584920
_symmetry_space_group_name_H-M "A M M 2"
_symmetry_group_IT_number 38
_symmetry_cell_setting 'orthorhombic'
loop_
_space_group_symop_operation_xyz
x,y,z
-x,-y,z
-x,y,z
x,-y,z
x,1/2+y,1/2+z
-x,1/2-y,1/2+z
-x,1/2+y,1/2+z
x,1/2-y,1/2+z
loop_
_atom_site_type_symbol
_atom_site_label
_atom_site_fract_x
_atom_site_fract_y
_atom_site_fract_z
Si Si1 0.315977 0.897754 0.816330
Si Si2 0.182738 0.103772 0.188837
Si Si3 0.186094 0.601731 0.960431
Si Si4 0.317105 0.396283 0.588150
Si Si5 0.819250 0.892371 0.355169
Si Si6 0.184918 0.281730 0.505427
Si Si7 0.181818 0.105776 0.915620
Si Si8 0.317725 0.282315 0.771529
O O1 0.500000 0.899252 0.816213
O O2 0.261631 0.871583 0.867558
O O3 0.266454 0.820455 0.781023
O O4 0.261320 0.000000 0.807088
O O5 0.252147 0.123973 0.138787
O O6 0.242008 0.170474 0.227844
O O7 0.000000 0.107861 0.186288
O O8 0.225864 0.000000 0.200590
O O9 0.238245 0.500000 0.970372
O O10 0.232746 0.678811 0.995897
O O11 0.000000 0.600057 0.960007
O O12 0.229375 0.626459 0.907856
O O13 0.500000 0.392365 0.589306
O O14 0.271615 0.500000 0.576920
O O15 0.253730 0.328981 0.549915
O O16 0.727896 0.838459 0.316963
O O17 0.000000 0.870538 0.350938
O O18 0.804068 0.000000 0.348271
O O19 0.230590 0.336876 0.459572
O O20 0.000000 0.285179 0.508574
O O21 0.000000 0.119077 0.909609
O O22 0.209330 0.000000 0.924755
O O23 0.500000 0.283598 0.765879
#
# Coordination Sequence:
#
# PCOD9356117 Si02
#       8
#     8   8   8   8   8   8   8   8
#     4   9  19  34  48  65  95 134 170 201 236 279
#     4  10  21  37  56  76  98 124 153 188 234 289
#     4   8  15  28  46  69  97 130 168 206 239 272
#     4  10  21  36  53  74 100 126 152 189 238 289
#     4   9  17  30  48  70  98 132 167 200 236 282
#     4  10  18  29  49  73  97 128 164 201 240 283
#     4   9  17  28  44  69  98 127 163 205 243 280
#     4  11  21  31  48  73  99 128 161 199 242 285
#
# _framework density 16.960000000000001
#
# number of rings (size 3 to 8) (size 9 to 14) (size 15 to 20)
#    0.000    2.500    0.000    3.375    0.000    6.250 
#    0.000    1.875    0.000    1.875    0.000    0.000 
#    0.000    0.000    0.000    0.000    0.000    0.000 
#
# Total GULP energy -178525.495371 kJ/mol
# GULP energy per Si atom -5578.921730 kJ/mol
# Density = 1.692140 g / cm^3
# Si number density = 16.960000 Si / 1000 Ang^3
#
#
#
# Elastic Constant Matrix: (Units=GPa)
#
#
# Indices 1 2 3 4 5 6 
#
# 1 22.4209 34.8960 32.2228 0.0000 0.0000 0.0000
# 2 34.8960 112.1487 101.8731 0.0000 0.0000 0.0000
# 3 32.2228 101.8731 121.2628 0.0000 0.0000 0.0000
# 4 0.0000 0.0000 0.0000 32.6154 0.0000 0.0000
# 5 0.0000 0.0000 0.0000 0.0000 48.3126 0.0000
# 6 0.0000 0.0000 0.0000 0.0000 0.0000 18.9497
#
#
#
# Elastic Compliance Matrix: (Units=1/GPa)
#
#
# Indices 1 2 3 4 5 6 
#
# 1 0.086556 -0.025498 -0.001580 0.000000 0.000000 0.000000
# 2 -0.025498 0.045155 -0.031159 0.000000 0.000000 0.000000
# 3 -0.001580 -0.031159 0.034843 0.000000 0.000000 0.000000
# 4 0.000000 0.000000 0.000000 0.030660 0.000000 0.000000
# 5 0.000000 0.000000 0.000000 0.000000 0.020699 0.000000
# 6 0.000000 0.000000 0.000000 0.000000 0.000000 0.052771
#
#
# Mechanical properties :
#
#
# Convention : Reuss Voigt Hill
#
# Bulk Modulus (GPa) = 19.96761 65.97959 42.97360
# Shear Modulus (GPa) = 12.38077 25.76489 19.07283
#
# Velocity S-wave (km/s) = 2.70478 3.90186 3.35711
# Velocity P-wave (km/s) = 4.64256 7.69980 6.35768
#
# Compressibility (1/GPa) = 0.05008111
#
# Stress axis : x y z
#
# Youngs Moduli (GPa) = 11.55316 22.14597 28.69999
#
# Poissons Ratio (x) = 0.56468 0.04533
# Poissons Ratio (y) = 0.29458 0.89427
# Poissons Ratio (z) = 0.01825 0.69005
#
# Static dielectric constant tensor:
#      x y z
#    x 1.571180 0.000000 0.000000 
#    y 0.000000 1.602400 0.000000 
#    z 0.000000 0.000000 1.536230 
# 
# From -- ./inp_files/22210.got.cif
#   From: 2010.05.17/outbox.cif.g08.bks.cpg/sg38_12_cif.got.tgz:22210.got - 2010.06.03 18:07:57.
