data_PCOD9356826
_publ_section_title
;
Structure prediction by ZEFSAII (Michael W. Deem and Ramdas Pophale) SiO2 
 PCOD9356826
Probable space group: A M M 2
;
_chemical_formula_sum "Si O2"
_cell_formula_units_Z 52
_cell_length_a 18.727134
_cell_length_b 25.230178
_cell_length_c 5.271551
_cell_angle_alpha 90.000000
_cell_angle_beta 90.000000
_cell_angle_gamma 90.000000
_cell_volume 2490.749461
_symmetry_space_group_name_H-M "A M M 2"
_symmetry_group_IT_number 38
_symmetry_cell_setting 'orthorhombic'
loop_
_space_group_symop_operation_xyz
x,y,z
-x,-y,z
-x,y,z
x,-y,z
x,1/2+y,1/2+z
-x,1/2-y,1/2+z
-x,1/2+y,1/2+z
x,1/2-y,1/2+z
loop_
_atom_site_type_symbol
_atom_site_label
_atom_site_fract_x
_atom_site_fract_y
_atom_site_fract_z
Si Si1 0.276947 0.219758 0.799830
Si Si2 0.082475 0.107016 0.585618
Si Si3 0.913719 0.939748 0.086994
Si Si4 0.586063 0.437253 0.731010
Si Si5 0.373914 0.126759 0.726781
Si Si6 0.500000 0.713318 0.202932
Si Si7 0.894550 0.277398 0.295662
O O1 0.303138 0.256086 0.565921
O O2 0.301245 0.159701 0.758362
O O3 0.191363 0.222735 0.800949
O O4 0.114129 0.098822 0.307082
O O5 0.082774 0.166177 0.688877
O O6 0.000000 0.089572 0.555808
O O7 0.116390 0.072470 0.809575
O O8 0.000000 0.933028 0.060103
O O9 0.900601 0.000000 0.164964
O O10 0.500000 0.431327 0.752144
O O11 0.601986 0.500000 0.730360
O O12 0.610324 0.409539 0.470588
O O13 0.620238 0.407681 0.972097
O O14 0.432622 0.173780 0.713490
O O15 0.500000 0.752244 0.445626
O O16 0.918317 0.264495 0.580667
#
# Coordination Sequence:
#
# PCOD9356826 Si02
#       7
#     8   8   8   8   8   4   8
#     4  10  21  38  57  78 104 142 180 211 256 325
#     4  10  19  31  51  78 105 134 174 220 267 311
#     4   9  17  30  49  74 104 135 168 208 260 320
#     4  11  22  38  57  81 109 141 181 215 255 315
#     4  12  21  37  57  80 108 142 173 216 266 301
#     4  12  22  32  49  80 111 130 160 210 262 304
#     4  10  21  36  54  75 104 141 180 214 255 314
#
# _framework density 20.877248999999999
#
# number of rings (size 3 to 8) (size 9 to 14) (size 15 to 20)
#    0.000    1.538    1.538    4.615    0.000    3.692 
#    0.000    0.000    0.000    5.538    0.000    0.000 
#    0.000    0.000    0.000    0.000    0.000    0.000 
#
# Total GULP energy -145234.123079 kJ/mol
# GULP energy per Si atom -5585.927811 kJ/mol
# Density = 2.082973 g / cm^3
# Si number density = 20.877249 Si / 1000 Ang^3
#
#
#
# Elastic Constant Matrix: (Units=GPa)
#
#
# Indices 1 2 3 4 5 6 
#
# 1 20.7537 0.5660 -7.6189 0.0000 0.0000 0.0000
# 2 0.5660 76.0231 17.1595 0.0000 0.0000 0.0000
# 3 -7.6189 17.1595 78.3103 0.0000 0.0000 0.0000
# 4 0.0000 0.0000 0.0000 47.6218 0.0000 0.0000
# 5 0.0000 0.0000 0.0000 0.0000 6.8235 0.0000
# 6 0.0000 0.0000 0.0000 0.0000 0.0000 120.9284
#
#
#
# Elastic Compliance Matrix: (Units=1/GPa)
#
#
# Indices 1 2 3 4 5 6 
#
# 1 0.050142 -0.001551 0.005218 0.000000 0.000000 0.000000
# 2 -0.001551 0.013886 -0.003194 0.000000 0.000000 0.000000
# 3 0.005218 -0.003194 0.013977 0.000000 0.000000 0.000000
# 4 0.000000 0.000000 0.000000 0.020999 0.000000 0.000000
# 5 0.000000 0.000000 0.000000 0.000000 0.146552 0.000000
# 6 0.000000 0.000000 0.000000 0.000000 0.000000 0.008269
#
#
# Mechanical properties :
#
#
# Convention : Reuss Voigt Hill
#
# Bulk Modulus (GPa) = 12.66584 21.70003 17.18293
# Shear Modulus (GPa) = 17.90851 46.07345 31.99098
#
# Velocity S-wave (km/s) = 2.93200 4.70283 3.91875
# Velocity P-wave (km/s) = 4.18834 6.31708 5.35946
#
# Compressibility (1/GPa) = 0.07895255
#
# Stress axis : x y z
#
# Youngs Moduli (GPa) = 19.94327 72.01335 71.54503
#
# Poissons Ratio (x) = 0.11171 -0.37334
# Poissons Ratio (y) = 0.03094 0.22849
# Poissons Ratio (z) = -0.10407 0.22999
#
# Static dielectric constant tensor:
#      x y z
#    x 1.780270 0.000000 0.000000 
#    y 0.000000 1.724730 0.000000 
#    z 0.000000 0.000000 1.783300 
# 
# From -- ./inp_files/1897.got.cif
#   From: 2010.05.17/outbox.cif.g08.bks.cpg/sg38_1_cif.got.tgz:1897.got - 2010.06.03 18:07:57.
