data_PCOD9356935
_publ_section_title
;
Structure prediction by ZEFSAII (Michael W. Deem and Ramdas Pophale) SiO2 
 PCOD9356935
Probable space group: A M M 2
;
_chemical_formula_sum "Si O2"
_cell_formula_units_Z 64
_cell_length_a 9.000723
_cell_length_b 33.977522
_cell_length_c 11.858510
_cell_angle_alpha 90.000000
_cell_angle_beta 90.000000
_cell_angle_gamma 90.000000
_cell_volume 3626.596373
_symmetry_space_group_name_H-M "A M M 2"
_symmetry_group_IT_number 38
_symmetry_cell_setting 'orthorhombic'
loop_
_space_group_symop_operation_xyz
x,y,z
-x,-y,z
-x,y,z
x,-y,z
x,1/2+y,1/2+z
-x,1/2-y,1/2+z
-x,1/2+y,1/2+z
x,1/2-y,1/2+z
loop_
_atom_site_type_symbol
_atom_site_label
_atom_site_fract_x
_atom_site_fract_y
_atom_site_fract_z
Si Si1 0.322899 0.125598 0.114500
Si Si2 0.328871 0.314411 0.190330
Si Si3 0.172579 0.545035 0.964036
Si Si4 0.176607 0.235207 0.497046
Si Si5 0.177059 0.544836 0.693440
Si Si6 0.175752 0.824006 0.928333
Si Si7 0.824005 0.169915 0.321501
Si Si8 0.668471 0.619399 0.007795
O O1 0.500000 0.125126 0.117892
O O2 0.260454 0.081779 0.138997
O O3 0.260587 0.155338 0.210826
O O4 0.262903 0.142834 0.997042
O O5 0.500000 0.305204 0.218526
O O6 0.264081 0.282747 0.102255
O O7 0.232080 0.319116 0.301295
O O8 0.325087 0.354984 0.120102
O O9 0.195479 0.500000 0.997382
O O10 0.197355 0.547561 0.828949
O O11 0.281516 0.575005 0.023923
O O12 0.000000 0.555274 0.984611
O O13 0.202133 0.281333 0.484751
O O14 0.216858 0.211395 0.381735
O O15 0.000000 0.228280 0.513563
O O16 0.221762 0.500000 0.660103
O O17 0.000000 0.548549 0.672503
O O18 0.000000 0.831921 0.931862
O O19 0.781053 0.138493 0.418050
O O20 0.000000 0.169880 0.298430
O O21 0.500000 0.622036 0.962728
#
# Coordination Sequence:
#
# PCOD9356935 Si02
#       8
#     8   8   8   8   8   8   8   8
#     4  12  24  36  54  85 119 151 187 232 289 343
#     4  10  22  39  57  81 112 143 181 229 283 335
#     4   9  17  29  49  79 112 144 180 223 271 327
#     4   9  21  39  60  82 106 143 189 233 276 329
#     4   9  18  34  56  82 114 151 189 232 283 339
#     4  11  24  41  60  81 108 148 196 237 276 330
#     4  10  19  34  55  79 109 145 185 229 273 327
#     4  10  19  32  52  79 110 144 178 220 273 332
#
# _framework density 17.647400000000001
#
# number of rings (size 3 to 8) (size 9 to 14) (size 15 to 20)
#    0.000    2.000    1.250    3.375    1.750    3.500 
#    0.000    1.250    0.000    0.750    0.000    3.500 
#    0.000    0.000    0.000    0.000    0.000    0.000 
#
# Total GULP energy -178600.755262 kJ/mol
# GULP energy per Si atom -5581.273602 kJ/mol
# Density = 1.760723 g / cm^3
# Si number density = 17.647400 Si / 1000 Ang^3
#
#
#
# Elastic Constant Matrix: (Units=GPa)
#
#
# Indices 1 2 3 4 5 6 
#
# 1 73.5905 48.6675 32.5176 0.0000 0.0000 0.0000
# 2 48.6675 69.9090 16.1626 0.0000 0.0000 0.0000
# 3 32.5176 16.1626 57.2267 0.0000 0.0000 0.0000
# 4 0.0000 0.0000 0.0000 15.8003 0.0000 0.0000
# 5 0.0000 0.0000 0.0000 0.0000 27.0898 0.0000
# 6 0.0000 0.0000 0.0000 0.0000 0.0000 14.7697
#
#
#
# Elastic Compliance Matrix: (Units=1/GPa)
#
#
# Indices 1 2 3 4 5 6 
#
# 1 0.031994 -0.019332 -0.012720 0.000000 0.000000 0.000000
# 2 -0.019332 0.026985 0.003364 0.000000 0.000000 0.000000
# 3 -0.012720 0.003364 0.023752 0.000000 0.000000 0.000000
# 4 0.000000 0.000000 0.000000 0.063290 0.000000 0.000000
# 5 0.000000 0.000000 0.000000 0.000000 0.036914 0.000000
# 6 0.000000 0.000000 0.000000 0.000000 0.000000 0.067706
#
#
# Mechanical properties :
#
#
# Convention : Reuss Voigt Hill
#
# Bulk Modulus (GPa) = 39.44094 43.93574 41.68834
# Shear Modulus (GPa) = 15.79929 18.42386 17.11158
#
# Velocity S-wave (km/s) = 2.99536 3.23460 3.11728
# Velocity P-wave (km/s) = 5.86182 6.23704 6.05234
#
# Compressibility (1/GPa) = 0.02535437
#
# Stress axis : x y z
#
# Youngs Moduli (GPa) = 31.25565 37.05781 42.10153
#
# Poissons Ratio (x) = 0.71641 0.53553
# Poissons Ratio (y) = 0.60424 -0.14162
# Poissons Ratio (z) = 0.39757 -0.12465
#
# Static dielectric constant tensor:
#      x y z
#    x 1.610840 0.000000 0.000000 
#    y 0.000000 1.620210 0.000000 
#    z 0.000000 0.000000 1.580290 
# 
# From -- ./inp_files/8513.got.cif
#   From: 2010.05.17/outbox.cif.g08.bks.cpg/sg38_5_cif.got.tgz:8513.got - 2010.06.03 18:07:57.
