data_PCOD9356134
_publ_section_title
;
Structure prediction by ZEFSAII (Michael W. Deem and Ramdas Pophale) SiO2 
 PCOD9356134
Probable space group: A M M 2
;
_chemical_formula_sum "Si O2"
_cell_formula_units_Z 64
_cell_length_a 18.968361
_cell_length_b 7.793273
_cell_length_c 21.592028
_cell_angle_alpha 90.000000
_cell_angle_beta 90.000000
_cell_angle_gamma 90.000000
_cell_volume 3191.854832
_symmetry_space_group_name_H-M "A M M 2"
_symmetry_group_IT_number 38
_symmetry_cell_setting 'orthorhombic'
loop_
_space_group_symop_operation_xyz
x,y,z
-x,-y,z
-x,y,z
x,-y,z
x,1/2+y,1/2+z
-x,1/2-y,1/2+z
-x,1/2+y,1/2+z
x,1/2-y,1/2+z
loop_
_atom_site_type_symbol
_atom_site_label
_atom_site_fract_x
_atom_site_fract_y
_atom_site_fract_z
Si Si1 0.659120 0.707449 0.648670
Si Si2 0.341789 0.695419 0.515213
Si Si3 0.183474 0.198610 0.525911
Si Si4 0.579118 0.794025 0.771996
Si Si5 0.840921 0.295137 0.393868
Si Si6 0.321060 0.789107 0.881954
Si Si7 0.920699 0.794322 0.269996
Si Si8 0.179363 0.706805 0.660231
O O1 0.661990 0.500000 0.644165
O O2 0.635828 0.773646 0.580821
O O3 0.608277 0.754768 0.704137
O O4 0.739175 0.767650 0.662831
O O5 0.368437 0.500000 0.513371
O O6 0.256104 0.694400 0.520328
O O7 0.354119 0.771270 0.447346
O O8 0.140809 0.232011 0.463027
O O9 0.150679 0.243911 0.592228
O O10 0.204012 0.000000 0.527013
O O11 0.500000 0.727403 0.780616
O O12 0.633891 0.730197 0.823622
O O13 0.576856 0.000000 0.778661
O O14 0.839933 0.500000 0.395801
O O15 0.760687 0.234546 0.379490
O O16 0.890960 0.240178 0.338292
O O17 0.320686 0.000000 0.883201
O O18 0.867440 0.727972 0.217120
O O19 0.000000 0.726757 0.262926
O O20 0.923378 0.000000 0.262400
O O21 0.181126 0.500000 0.663412
#
# Coordination Sequence:
#
# PCOD9356134 Si02
#       8
#     8   8   8   8   8   8   8   8
#     4   9  17  30  50  73  96 124 159 199 242 292
#     4   8  15  30  50  72  97 124 158 204 253 296
#     4  10  18  29  50  79 105 129 164 210 254 297
#     4  10  20  32  46  67  97 130 162 200 246 293
#     4  10  19  33  54  76 101 134 170 209 251 299
#     4   8  15  30  51  72  93 121 161 203 240 283
#     4  10  21  36  53  75 104 134 165 206 253 300
#     4   9  18  34  54  76 103 133 165 205 255 306
#
# _framework density 20.051038999999999
#
# number of rings (size 3 to 8) (size 9 to 14) (size 15 to 20)
#    0.000    2.750    0.000    3.750    0.000    3.000 
#    0.000    3.750    0.000    4.500    0.000    0.000 
#    0.000    0.000    0.000    0.000    0.000    0.000 
#
# Total GULP energy -178398.911975 kJ/mol
# GULP energy per Si atom -5574.965999 kJ/mol
# Density = 2.000540 g / cm^3
# Si number density = 20.051039 Si / 1000 Ang^3
#
#
#
# Elastic Constant Matrix: (Units=GPa)
#
#
# Indices 1 2 3 4 5 6 
#
# 1 31.9854 -0.8889 -2.7578 0.0000 0.0000 0.0000
# 2 -0.8889 33.8475 -15.0559 0.0000 0.0000 0.0000
# 3 -2.7578 -15.0559 69.0172 0.0000 0.0000 0.0000
# 4 0.0000 0.0000 0.0000 26.0832 0.0000 0.0000
# 5 0.0000 0.0000 0.0000 0.0000 -3.8540 0.0000
# 6 0.0000 0.0000 0.0000 0.0000 0.0000 10.8669
#
#
#
# Elastic Compliance Matrix: (Units=1/GPa)
#
#
# Indices 1 2 3 4 5 6 
#
# 1 0.031444 0.001533 0.001591 0.000000 0.000000 0.000000
# 2 0.001533 0.032794 0.007215 0.000000 0.000000 0.000000
# 3 0.001591 0.007215 0.016127 0.000000 0.000000 0.000000
# 4 0.000000 0.000000 0.000000 0.038339 0.000000 0.000000
# 5 0.000000 0.000000 0.000000 0.000000 -0.259469 0.000000
# 6 0.000000 0.000000 0.000000 0.000000 0.000000 0.092022
#
#
# Mechanical properties :
#
#
# Convention : Reuss Voigt Hill
#
# Bulk Modulus (GPa) = 9.89669 10.82722 10.36195
# Shear Modulus (GPa) = -139.89531 16.85607 -61.51962
#
# Velocity S-wave (km/s) = -8.36188 2.90256 -5.54510
# Velocity P-wave (km/s) = 9.39583 4.07979 5.98485
#
# Compressibility (1/GPa) = 0.10104389
#
# Stress axis : x y z
#
# Youngs Moduli (GPa) = 31.80254 30.49345 62.00911
#
# Poissons Ratio (x) = -0.04676 -0.09866
# Poissons Ratio (y) = -0.04877 -0.44740
# Poissons Ratio (z) = -0.05060 -0.22001
#
# Static dielectric constant tensor:
#      x y z
#    x 1.680600 0.000000 0.000000 
#    y 0.000000 1.741440 0.000000 
#    z 0.000000 0.000000 1.740190 
# 
# From -- ./inp_files/21508.got.cif
#   From: 2010.05.17/outbox.cif.g08.bks.cpg/sg38_11_cif.got.tgz:21508.got - 2010.06.03 18:07:57.
