data_PCOD9356436
_publ_section_title
;
Structure prediction by ZEFSAII (Michael W. Deem and Ramdas Pophale) SiO2 
 PCOD9356436
Probable space group: A M M 2
;
_chemical_formula_sum "Si O2"
_cell_formula_units_Z 64
_cell_length_a 7.610392
_cell_length_b 31.854842
_cell_length_c 12.235715
_cell_angle_alpha 90.000000
_cell_angle_beta 90.000000
_cell_angle_gamma 90.000000
_cell_volume 2966.277894
_symmetry_space_group_name_H-M "A M M 2"
_symmetry_group_IT_number 38
_symmetry_cell_setting 'orthorhombic'
loop_
_space_group_symop_operation_xyz
x,y,z
-x,-y,z
-x,y,z
x,-y,z
x,1/2+y,1/2+z
-x,1/2-y,1/2+z
-x,1/2+y,1/2+z
x,1/2-y,1/2+z
loop_
_atom_site_type_symbol
_atom_site_label
_atom_site_fract_x
_atom_site_fract_y
_atom_site_fract_z
Si Si1 0.296484 0.935339 0.941090
Si Si2 0.702562 0.371482 0.074588
Si Si3 0.715400 0.045834 0.699471
Si Si4 0.214001 0.838216 0.933868
Si Si5 0.713004 0.046269 0.183239
Si Si6 0.205938 0.627957 0.824809
Si Si7 0.794705 0.205978 0.715065
Si Si8 0.215220 0.201272 0.163527
O O1 0.500000 0.948815 0.942043
O O2 0.223556 0.950828 0.825409
O O3 0.284784 0.885188 0.937565
O O4 0.221933 0.949188 0.057959
O O5 0.500000 0.368862 0.108159
O O6 0.776560 0.413490 0.132202
O O7 0.783788 0.328488 0.119576
O O8 0.712836 0.375160 0.944521
O O9 0.500000 0.047030 0.699352
O O10 0.766355 0.000000 0.655126
O O11 0.277497 0.814871 0.825191
O O12 0.000000 0.841143 0.931351
O O13 0.266401 0.814100 0.043358
O O14 0.500000 0.048242 0.181083
O O15 0.772619 0.085249 0.255998
O O16 0.763500 0.000000 0.224725
O O17 0.273897 0.666977 0.752618
O O18 0.000000 0.635272 0.842699
O O19 0.721539 0.251642 0.686522
O O20 0.000000 0.213315 0.737746
O O21 0.000000 0.200919 0.164391
#
# Coordination Sequence:
#
# PCOD9356436 Si02
#       8
#     8   8   8   8   8   8   8   8
#     4  10  18  33  58  86 116 146 184 231 283 340
#     4  11  23  39  58  84 117 150 189 240 292 344
#     4   9  18  34  57  82 109 146 187 225 274 338
#     4  10  19  34  58  86 115 145 185 235 286 337
#     4  10  21  37  59  87 118 152 191 236 289 348
#     4  11  23  40  61  83 113 154 199 244 287 341
#     4  10  21  37  61  86 112 149 193 236 282 342
#     4   9  20  37  59  85 112 149 193 235 282 341
#
# _framework density 21.575859999999999
#
# number of rings (size 3 to 8) (size 9 to 14) (size 15 to 20)
#    0.000    2.000    2.500    1.125    1.750    2.250 
#    0.000    3.125    0.000    3.750    0.000    0.000 
#    0.000    0.000    0.000    0.000    0.000    0.000 
#
# Total GULP energy -178756.413157 kJ/mol
# GULP energy per Si atom -5586.137911 kJ/mol
# Density = 2.152675 g / cm^3
# Si number density = 21.575860 Si / 1000 Ang^3
#
#
#
# Elastic Constant Matrix: (Units=GPa)
#
#
# Indices 1 2 3 4 5 6 
#
# 1 45.1536 -5.5900 -7.8343 0.0000 0.0000 0.0000
# 2 -5.5900 193.1349 67.7538 0.0000 0.0000 0.0000
# 3 -7.8343 67.7538 127.1518 0.0000 0.0000 0.0000
# 4 0.0000 0.0000 0.0000 41.0216 0.0000 0.0000
# 5 0.0000 0.0000 0.0000 0.0000 15.9782 0.0000
# 6 0.0000 0.0000 0.0000 0.0000 0.0000 17.9194
#
#
#
# Elastic Compliance Matrix: (Units=1/GPa)
#
#
# Indices 1 2 3 4 5 6 
#
# 1 0.022392 0.000202 0.001272 0.000000 0.000000 0.000000
# 2 0.000202 0.006370 -0.003382 0.000000 0.000000 0.000000
# 3 0.001272 -0.003382 0.009745 0.000000 0.000000 0.000000
# 4 0.000000 0.000000 0.000000 0.024377 0.000000 0.000000
# 5 0.000000 0.000000 0.000000 0.000000 0.062585 0.000000
# 6 0.000000 0.000000 0.000000 0.000000 0.000000 0.055805
#
#
# Mechanical properties :
#
#
# Convention : Reuss Voigt Hill
#
# Bulk Modulus (GPa) = 28.82547 52.67771 40.75159
# Shear Modulus (GPa) = 25.42523 35.72456 30.57490
#
# Velocity S-wave (km/s) = 3.43652 4.07352 3.76851
# Velocity P-wave (km/s) = 5.39771 6.82590 6.15338
#
# Compressibility (1/GPa) = 0.03469154
#
# Stress axis : x y z
#
# Youngs Moduli (GPa) = 44.65817 156.98693 102.61637
#
# Poissons Ratio (x) = -0.03169 -0.13054
# Poissons Ratio (y) = -0.00901 0.34703
# Poissons Ratio (z) = -0.05681 0.53091
#
# Static dielectric constant tensor:
#      x y z
#    x 1.824860 0.000000 0.000000 
#    y 0.000000 1.762060 0.000000 
#    z 0.000000 0.000000 1.747670 
# 
# From -- ./inp_files/8597.got.cif
#   From: 2010.05.17/outbox.cif.g08.bks.cpg/sg38_5_cif.got.tgz:8597.got - 2010.06.03 18:07:57.
