data_PCOD9356052
_publ_section_title
;
Structure prediction by ZEFSAII (Michael W. Deem and Ramdas Pophale) SiO2 
 PCOD9356052
Probable space group: A M M 2
;
_chemical_formula_sum "Si O2"
_cell_formula_units_Z 48
_cell_length_a 11.327924
_cell_length_b 7.284650
_cell_length_c 24.080491
_cell_angle_alpha 90.000000
_cell_angle_beta 90.000000
_cell_angle_gamma 90.000000
_cell_volume 1987.121192
_symmetry_space_group_name_H-M "A M M 2"
_symmetry_group_IT_number 38
_symmetry_cell_setting 'orthorhombic'
loop_
_space_group_symop_operation_xyz
x,y,z
-x,-y,z
-x,y,z
x,-y,z
x,1/2+y,1/2+z
-x,1/2-y,1/2+z
-x,1/2+y,1/2+z
x,1/2-y,1/2+z
loop_
_atom_site_type_symbol
_atom_site_label
_atom_site_fract_x
_atom_site_fract_y
_atom_site_fract_z
Si Si1 0.245363 0.776289 0.952080
Si Si2 0.500000 0.795587 0.965295
Si Si3 0.133063 0.220270 0.838475
Si Si4 0.634005 0.724230 0.626860
Si Si5 0.129646 0.222691 0.062297
Si Si6 0.500000 0.276551 0.837624
Si Si7 0.690315 0.214587 0.250861
O O1 0.372126 0.710923 0.975253
O O2 0.212249 0.712408 0.890403
O O3 0.254661 0.000000 0.950214
O O4 0.147591 0.730770 0.997544
O O5 0.500000 0.805390 0.898246
O O6 0.500000 0.000000 0.990957
O O7 0.180860 0.267037 0.777276
O O8 0.000000 0.284918 0.846194
O O9 0.132891 0.000000 0.842340
O O10 0.500000 0.779896 0.609876
O O11 0.633650 0.500000 0.625018
O O12 0.750689 0.782924 0.593251
O O13 0.658556 0.785766 0.690399
O O14 0.000000 0.284552 0.082151
O O15 0.129394 0.000000 0.066345
O O16 0.500000 0.500000 0.844045
O O17 0.390529 0.213924 0.800525
O O18 0.661830 0.000000 0.246933
#
# Coordination Sequence:
#
# PCOD9356052 Si02
#       7
#     8   4   8   8   8   4   8
#     4   9  17  28  44  68  99 127 158 200 247 294
#     4  10  18  28  47  75  99 125 162 203 244 294
#     4  10  20  33  49  71 101 135 166 200 244 293
#     4   9  17  29  46  68  97 131 165 203 247 293
#     4   9  17  28  43  65  96 132 164 198 247 300
#     4  10  18  30  47  69  99 131 160 193 244 296
#     4  10  19  32  50  72 100 131 162 200 247 295
#
# _framework density 24.155549000000001
#
# number of rings (size 3 to 8) (size 9 to 14) (size 15 to 20)
#    0.000    2.500    2.500    0.500    1.167    3.000 
#    0.000    1.667    0.000    0.000    0.000    2.333 
#    0.000    2.667    0.000    0.000    0.000    0.000 
#
# Total GULP energy -133975.254330 kJ/mol
# GULP energy per Si atom -5582.302264 kJ/mol
# Density = 2.410057 g / cm^3
# Si number density = 24.155549 Si / 1000 Ang^3
#
#
#
# Elastic Constant Matrix: (Units=GPa)
#
#
# Indices 1 2 3 4 5 6 
#
# 1 194.1790 -2.6597 59.3871 0.0000 0.0000 0.0000
# 2 -2.6597 105.2396 -2.2172 0.0000 0.0000 0.0000
# 3 59.3871 -2.2172 93.5884 0.0000 0.0000 0.0000
# 4 0.0000 0.0000 0.0000 8.8214 0.0000 0.0000
# 5 0.0000 0.0000 0.0000 0.0000 34.9613 0.0000
# 6 0.0000 0.0000 0.0000 0.0000 0.0000 -3.0755
#
#
#
# Elastic Compliance Matrix: (Units=1/GPa)
#
#
# Indices 1 2 3 4 5 6 
#
# 1 0.006391 0.000076 -0.004053 0.000000 0.000000 0.000000
# 2 0.000076 0.009508 0.000177 0.000000 0.000000 0.000000
# 3 -0.004053 0.000177 0.013261 0.000000 0.000000 0.000000
# 4 0.000000 0.000000 0.000000 0.113361 0.000000 0.000000
# 5 0.000000 0.000000 0.000000 0.000000 0.028603 0.000000
# 6 0.000000 0.000000 0.000000 0.000000 0.000000 -0.325146
#
#
# Mechanical properties :
#
#
# Convention : Reuss Voigt Hill
#
# Bulk Modulus (GPa) = 46.38413 55.78083 51.08248
# Shear Modulus (GPa) = -35.91042 30.70788 -2.60127
#
# Velocity S-wave (km/s) = -3.85987 3.56934 -1.03886
# Velocity P-wave (km/s) = 0.78794 6.33477 4.44458
#
# Compressibility (1/GPa) = 0.02155910
#
# Stress axis : x y z
#
# Youngs Moduli (GPa) = 156.47959 105.17703 75.40691
#
# Poissons Ratio (x) = -0.00801 0.30565
# Poissons Ratio (y) = -0.01191 -0.01334
# Poissons Ratio (z) = 0.63427 -0.01861
#
# Static dielectric constant tensor:
#      x y z
#    x 1.972980 0.000000 0.000000 
#    y 0.000000 1.799490 0.000000 
#    z 0.000000 0.000000 1.872900 
# 
# From -- ./inp_files/20638.got.cif
#   From: 2010.05.17/outbox.cif.g08.bks.cpg/sg38_11_cif.got.tgz:20638.got - 2010.06.03 18:07:57.
