data_PCOD9356073
_publ_section_title
;
Structure prediction by ZEFSAII (Michael W. Deem and Ramdas Pophale) SiO2 
 PCOD9356073
Probable space group: A M M 2
;
_chemical_formula_sum "Si O2"
_cell_formula_units_Z 64
_cell_length_a 14.834425
_cell_length_b 8.195377
_cell_length_c 32.320406
_cell_angle_alpha 90.000000
_cell_angle_beta 90.000000
_cell_angle_gamma 90.000000
_cell_volume 3929.311519
_symmetry_space_group_name_H-M "A M M 2"
_symmetry_group_IT_number 38
_symmetry_cell_setting 'orthorhombic'
loop_
_space_group_symop_operation_xyz
x,y,z
-x,-y,z
-x,y,z
x,-y,z
x,1/2+y,1/2+z
-x,1/2-y,1/2+z
-x,1/2+y,1/2+z
x,1/2-y,1/2+z
loop_
_atom_site_type_symbol
_atom_site_label
_atom_site_fract_x
_atom_site_fract_y
_atom_site_fract_z
Si Si1 0.895570 0.802376 0.909740
Si Si2 0.600931 0.696856 0.859677
Si Si3 0.897152 0.194953 0.569296
Si Si4 0.786976 0.197015 0.490811
Si Si5 0.788409 0.694039 0.328269
Si Si6 0.399593 0.199017 0.455836
Si Si7 0.109379 0.189176 0.158589
Si Si8 0.103272 0.696678 0.748648
O O1 0.847049 0.741578 0.951101
O O2 0.841885 0.744060 0.869025
O O3 0.000000 0.750809 0.908329
O O4 0.893510 0.000000 0.910035
O O5 0.500000 0.749244 0.847077
O O6 0.602751 0.500000 0.858841
O O7 0.683996 0.760397 0.833280
O O8 0.613993 0.746877 0.907769
O O9 0.833962 0.258923 0.532651
O O10 0.863257 0.228799 0.615701
O O11 0.000000 0.259769 0.565390
O O12 0.902359 0.000000 0.564505
O O13 0.685237 0.256486 0.482415
O O14 0.783051 0.000000 0.493162
O O15 0.797032 0.500000 0.328081
O O16 0.834162 0.758522 0.286755
O O17 0.500000 0.252057 0.468697
O O18 0.399606 0.000000 0.456417
O O19 0.136768 0.257120 0.203534
O O20 0.000000 0.195996 0.159790
O O21 0.136056 0.000000 0.156008
O O22 0.099535 0.500000 0.745421
O O23 0.000000 0.754288 0.755763
#
# Coordination Sequence:
#
# PCOD9356073 Si02
#       8
#     8   8   8   8   8   8   8   8
#     4  10  21  33  41  56  89 127 156 180 212 261
#     4   9  17  31  50  68  87 116 156 197 232 269
#     4   9  17  27  40  63  92 117 144 182 226 269
#     4  10  18  29  46  66  88 116 153 191 223 262
#     4  11  21  31  45  67  95 124 152 186 232 280
#     4   8  14  26  45  66  86 111 147 191 230 260
#     4   8  15  29  47  65  85 113 149 187 226 268
#     4   9  18  32  49  68  90 118 156 196 228 267
#
# _framework density 16.287839999999999
#
# number of rings (size 3 to 8) (size 9 to 14) (size 15 to 20)
#    0.000    2.750    1.250    2.625    0.000    3.250 
#    0.000    2.500    0.000    0.375    0.000    0.875 
#    0.000    3.000    0.000    0.000    0.000    0.000 
#
# Total GULP energy -178295.519190 kJ/mol
# GULP energy per Si atom -5571.734975 kJ/mol
# Density = 1.625077 g / cm^3
# Si number density = 16.287840 Si / 1000 Ang^3
#
#
#
# Elastic Constant Matrix: (Units=GPa)
#
#
# Indices 1 2 3 4 5 6 
#
# 1 120.4715 9.6210 79.4051 0.0000 0.0000 0.0000
# 2 9.6210 5.4020 10.5727 0.0000 0.0000 0.0000
# 3 79.4051 10.5727 145.5327 0.0000 0.0000 0.0000
# 4 0.0000 0.0000 0.0000 20.4151 0.0000 0.0000
# 5 0.0000 0.0000 0.0000 0.0000 8.5110 0.0000
# 6 0.0000 0.0000 0.0000 0.0000 0.0000 12.6349
#
#
#
# Elastic Compliance Matrix: (Units=1/GPa)
#
#
# Indices 1 2 3 4 5 6 
#
# 1 0.013524 -0.011243 -0.006562 0.000000 0.000000 0.000000
# 2 -0.011243 0.225147 -0.010222 0.000000 0.000000 0.000000
# 3 -0.006562 -0.010222 0.011194 0.000000 0.000000 0.000000
# 4 0.000000 0.000000 0.000000 0.048983 0.000000 0.000000
# 5 0.000000 0.000000 0.000000 0.000000 0.117495 0.000000
# 6 0.000000 0.000000 0.000000 0.000000 0.000000 0.079146
#
#
# Mechanical properties :
#
#
# Convention : Reuss Voigt Hill
#
# Bulk Modulus (GPa) = 5.15968 52.28932 28.72450
# Shear Modulus (GPa) = 8.11496 19.76603 13.94050
#
# Velocity S-wave (km/s) = 2.23451 3.48738 2.92872
# Velocity P-wave (km/s) = 3.13561 6.95620 5.39540
#
# Compressibility (1/GPa) = 0.19381054
#
# Stress axis : x y z
#
# Youngs Moduli (GPa) = 73.94417 4.44155 89.33132
#
# Poissons Ratio (x) = 0.04994 0.58619
# Poissons Ratio (y) = 0.83134 0.91317
# Poissons Ratio (z) = 0.48522 0.04540
#
# Static dielectric constant tensor:
#      x y z
#    x 1.547040 0.000000 0.000000 
#    y 0.000000 1.572540 0.000000 
#    z 0.000000 0.000000 1.548490 
# 
# From -- ./inp_files/25061.got.cif
#   From: 2010.05.17/outbox.cif.g08.bks.cpg/sg38_13_cif.got.tgz:25061.got - 2010.06.03 18:07:57.
