data_PCOD9356255
_publ_section_title
;
Structure prediction by ZEFSAII (Michael W. Deem and Ramdas Pophale) SiO2 
 PCOD9356255
Probable space group: A M M 2
;
_chemical_formula_sum "Si O2"
_cell_formula_units_Z 64
_cell_length_a 7.494344
_cell_length_b 20.286593
_cell_length_c 21.453351
_cell_angle_alpha 90.000000
_cell_angle_beta 90.000000
_cell_angle_gamma 90.000000
_cell_volume 3261.653923
_symmetry_space_group_name_H-M "A M M 2"
_symmetry_group_IT_number 38
_symmetry_cell_setting 'orthorhombic'
loop_
_space_group_symop_operation_xyz
x,y,z
-x,-y,z
-x,y,z
x,-y,z
x,1/2+y,1/2+z
-x,1/2-y,1/2+z
-x,1/2+y,1/2+z
x,1/2-y,1/2+z
loop_
_atom_site_type_symbol
_atom_site_label
_atom_site_fract_x
_atom_site_fract_y
_atom_site_fract_z
Si Si1 0.215643 0.926444 0.420210
Si Si2 0.716504 0.786267 0.997897
Si Si3 0.782322 0.926579 0.565423
Si Si4 0.717043 0.572453 0.536860
Si Si5 0.290899 0.293928 0.741236
Si Si6 0.791680 0.293618 0.123803
Si Si7 0.706461 0.214931 0.374598
Si Si8 0.282363 0.572566 0.682431
O O1 0.269270 0.917802 0.492867
O O2 0.284567 0.864080 0.382600
O O3 0.000000 0.924807 0.418110
O O4 0.272408 0.000000 0.400118
O O5 0.500000 0.784913 0.998460
O O6 0.784276 0.748137 0.936785
O O7 0.775287 0.862378 0.000814
O O8 0.771224 0.750023 0.061498
O O9 0.717359 0.865725 0.606583
O O10 0.000000 0.925207 0.565748
O O11 0.727342 0.000000 0.585183
O O12 0.500000 0.572189 0.535550
O O13 0.776331 0.500000 0.514994
O O14 0.768009 0.579262 0.609656
O O15 0.500000 0.305843 0.753529
O O16 0.282124 0.244150 0.683526
O O17 0.214680 0.269027 0.806881
O O18 0.215050 0.364503 0.719904
O O19 0.000000 0.301604 0.136624
O O20 0.500000 0.236271 0.374852
O O21 0.500000 0.573608 0.683354
O O22 0.226119 0.500000 0.704731
#
# Coordination Sequence:
#
# PCOD9356255 Si02
#       8
#     8   8   8   8   8   8   8   8
#     4   9  17  31  50  70  98 136 169 201 245 293
#     4  10  18  31  50  72  97 124 157 202 247 287
#     4   8  15  29  49  72  96 123 159 201 244 292
#     4   8  13  23  44  70  89 113 155 196 230 277
#     4  10  20  34  48  67 100 136 161 197 245 289
#     4  11  20  31  52  77  95 123 166 205 242 289
#     4  10  21  32  47  72 101 133 167 200 245 297
#     4   8  13  23  42  65  86 118 162 192 218 270
#
# _framework density 19.621946999999999
#
# number of rings (size 3 to 8) (size 9 to 14) (size 15 to 20)
#    0.000    2.750    2.500    1.875    0.000    1.250 
#    0.000    1.250    0.000    3.750    0.000    1.750 
#    0.000    0.000    0.000    0.000    0.000    0.000 
#
# Total GULP energy -178476.512234 kJ/mol
# GULP energy per Si atom -5577.391007 kJ/mol
# Density = 1.957729 g / cm^3
# Si number density = 19.621947 Si / 1000 Ang^3
#
#
#
# Elastic Constant Matrix: (Units=GPa)
#
#
# Indices 1 2 3 4 5 6 
#
# 1 50.7324 -8.8874 -4.5307 0.0000 0.0000 0.0000
# 2 -8.8874 120.0990 58.9208 0.0000 0.0000 0.0000
# 3 -4.5307 58.9208 116.5471 0.0000 0.0000 0.0000
# 4 0.0000 0.0000 0.0000 19.4430 0.0000 0.0000
# 5 0.0000 0.0000 0.0000 0.0000 -68.0049 0.0000
# 6 0.0000 0.0000 0.0000 0.0000 0.0000 12.0592
#
#
#
# Elastic Compliance Matrix: (Units=1/GPa)
#
#
# Indices 1 2 3 4 5 6 
#
# 1 0.019970 0.001459 0.000039 0.000000 0.000000 0.000000
# 2 0.001459 0.011179 -0.005595 0.000000 0.000000 0.000000
# 3 0.000039 -0.005595 0.011410 0.000000 0.000000 0.000000
# 4 0.000000 0.000000 0.000000 0.051432 0.000000 0.000000
# 5 0.000000 0.000000 0.000000 0.000000 -0.014705 0.000000
# 6 0.000000 0.000000 0.000000 0.000000 0.000000 0.082924
#
#
# Mechanical properties :
#
#
# Convention : Reuss Voigt Hill
#
# Bulk Modulus (GPa) = 29.09930 42.04266 35.57098
# Shear Modulus (GPa) = 27.49345 8.82451 18.15898
#
# Velocity S-wave (km/s) = 3.74727 2.12298 3.04541
# Velocity P-wave (km/s) = 5.79524 5.24235 5.52572
#
# Compressibility (1/GPa) = 0.03436509
#
# Stress axis : x y z
#
# Youngs Moduli (GPa) = 50.07437 89.45052 87.63989
#
# Poissons Ratio (x) = -0.13049 -0.00340
# Poissons Ratio (y) = -0.07305 0.49035
# Poissons Ratio (z) = -0.00194 0.50048
#
# Static dielectric constant tensor:
#      x y z
#    x 1.895010 0.000000 0.000000 
#    y 0.000000 1.706960 0.000000 
#    z 0.000000 0.000000 1.684380 
# 
# From -- ./inp_files/20211.got.cif
#   From: 2010.05.17/outbox.cif.g08.bks.cpg/sg38_11_cif.got.tgz:20211.got - 2010.06.03 18:07:57.
