data_PCOD9356853
_publ_section_title
;
Structure prediction by ZEFSAII (Michael W. Deem and Ramdas Pophale) SiO2 
 PCOD9356853
Probable space group: A M M 2
;
_chemical_formula_sum "Si O2"
_cell_formula_units_Z 64
_cell_length_a 25.997277
_cell_length_b 7.495696
_cell_length_c 14.870406
_cell_angle_alpha 90.000000
_cell_angle_beta 90.000000
_cell_angle_gamma 90.000000
_cell_volume 2897.761595
_symmetry_space_group_name_H-M "A M M 2"
_symmetry_group_IT_number 38
_symmetry_cell_setting 'orthorhombic'
loop_
_space_group_symop_operation_xyz
x,y,z
-x,-y,z
-x,y,z
x,-y,z
x,1/2+y,1/2+z
-x,1/2-y,1/2+z
-x,1/2+y,1/2+z
x,1/2-y,1/2+z
loop_
_atom_site_type_symbol
_atom_site_label
_atom_site_fract_x
_atom_site_fract_y
_atom_site_fract_z
Si Si1 0.054631 0.283637 0.646880
Si Si2 0.835227 0.793010 0.155027
Si Si3 0.168753 0.707637 0.947125
Si Si4 0.246271 0.780913 0.295361
Si Si5 0.557283 0.715444 0.427152
Si Si6 0.944601 0.286574 0.432371
Si Si7 0.557240 0.282117 0.635098
Si Si8 0.361745 0.292315 0.777080
O O1 0.054707 0.500000 0.655555
O O2 0.109119 0.213050 0.681025
O O3 0.054647 0.246898 0.539671
O O4 0.000000 0.217429 0.683768
O O5 0.786174 0.722415 0.207910
O O6 0.838177 0.000000 0.181536
O O7 0.830861 0.788219 0.047042
O O8 0.178464 0.500000 0.961507
O O9 0.212607 0.778085 0.880983
O O10 0.111719 0.723133 0.903142
O O11 0.304919 0.717277 0.292181
O O12 0.247586 0.000000 0.298814
O O13 0.500000 0.774539 0.397549
O O14 0.557839 0.500000 0.423885
O O15 0.563801 0.768036 0.531095
O O16 0.602820 0.782101 0.365017
O O17 0.944528 0.500000 0.422686
O O18 0.000000 0.218941 0.396341
O O19 0.500000 0.224939 0.664810
O O20 0.557186 0.500000 0.638429
O O21 0.602834 0.214655 0.697880
O O22 0.354021 0.500000 0.753749
#
# Coordination Sequence:
#
# PCOD9356853 Si02
#       8
#     8   8   8   8   8   8   8   8
#     4   7  10  19  40  67  87 107 145 195 237 276
#     4   9  17  33  53  69  91 130 174 207 243 298
#     4  10  19  32  49  72 103 132 160 205 262 302
#     4   9  20  35  49  70 102 136 170 210 250 290
#     4   9  18  33  52  77 108 133 155 196 255 305
#     4   8  14  27  48  72  96 125 163 203 246 303
#     4   8  15  29  50  74  98 126 161 200 243 292
#     4  10  19  33  53  74  98 133 176 212 240 282
#
# _framework density 22.086012
#
# number of rings (size 3 to 8) (size 9 to 14) (size 15 to 20)
#    0.000    3.250    0.000    3.000    0.000    2.000 
#    0.000    5.625    0.000    3.000    0.000    0.000 
#    0.000    0.000    0.000    0.000    0.000    0.000 
#
# Total GULP energy -178452.355923 kJ/mol
# GULP energy per Si atom -5576.636123 kJ/mol
# Density = 2.203574 g / cm^3
# Si number density = 22.086012 Si / 1000 Ang^3
#
#
#
# Elastic Constant Matrix: (Units=GPa)
#
#
# Indices 1 2 3 4 5 6 
#
# 1 253.7875 0.9997 83.3037 0.0000 0.0000 0.0000
# 2 0.9997 54.9800 -10.3864 0.0000 0.0000 0.0000
# 3 83.3037 -10.3864 82.3804 0.0000 0.0000 0.0000
# 4 0.0000 0.0000 0.0000 9.9454 0.0000 0.0000
# 5 0.0000 0.0000 0.0000 0.0000 -321.1260 0.0000
# 6 0.0000 0.0000 0.0000 0.0000 0.0000 11.9412
#
#
#
# Elastic Compliance Matrix: (Units=1/GPa)
#
#
# Indices 1 2 3 4 5 6 
#
# 1 0.005985 -0.001283 -0.006214 0.000000 0.000000 0.000000
# 2 -0.001283 0.018907 0.003681 0.000000 0.000000 0.000000
# 3 -0.006214 0.003681 0.018886 0.000000 0.000000 0.000000
# 4 0.000000 0.000000 0.000000 0.100549 0.000000 0.000000
# 5 0.000000 0.000000 0.000000 0.000000 -0.003114 0.000000
# 6 0.000000 0.000000 0.000000 0.000000 0.000000 0.083743
#
#
# Mechanical properties :
#
#
# Convention : Reuss Voigt Hill
#
# Bulk Modulus (GPa) = 27.66472 59.88689 43.77580
# Shear Modulus (GPa) = 20.43841 -38.69915 -9.13037
#
# Velocity S-wave (km/s) = 3.04534 -4.19047 -2.03543
# Velocity P-wave (km/s) = 4.99185 1.93927 3.78677
#
# Compressibility (1/GPa) = 0.03614712
#
# Stress axis : x y z
#
# Youngs Moduli (GPa) = 167.08491 52.89019 52.94845
#
# Poissons Ratio (x) = 0.06784 0.32901
# Poissons Ratio (y) = 0.21432 -0.19489
# Poissons Ratio (z) = 1.03823 -0.19468
#
# Static dielectric constant tensor:
#      x y z
#    x 1.830700 0.000000 0.000000 
#    y 0.000000 1.849690 0.000000 
#    z 0.000000 0.000000 1.804750 
# 
# From -- ./inp_files/15886.got.cif
#   From: 2010.05.17/outbox.cif.g08.bks.cpg/sg38_8_cif.got.tgz:15886.got - 2010.06.03 18:07:57.
