data_PCOD9356126
_publ_section_title
;
Structure prediction by ZEFSAII (Michael W. Deem and Ramdas Pophale) SiO2 
 PCOD9356126
Probable space group: A M M 2
;
_chemical_formula_sum "Si O2"
_cell_formula_units_Z 64
_cell_length_a 8.468368
_cell_length_b 14.949084
_cell_length_c 24.716769
_cell_angle_alpha 90.000000
_cell_angle_beta 90.000000
_cell_angle_gamma 90.000000
_cell_volume 3129.003172
_symmetry_space_group_name_H-M "A M M 2"
_symmetry_group_IT_number 38
_symmetry_cell_setting 'orthorhombic'
loop_
_space_group_symop_operation_xyz
x,y,z
-x,-y,z
-x,y,z
x,-y,z
x,1/2+y,1/2+z
-x,1/2-y,1/2+z
-x,1/2+y,1/2+z
x,1/2-y,1/2+z
loop_
_atom_site_type_symbol
_atom_site_label
_atom_site_fract_x
_atom_site_fract_y
_atom_site_fract_z
Si Si1 0.810766 0.901471 0.193930
Si Si2 0.679372 0.760942 0.762772
Si Si3 0.688995 0.102186 0.851951
Si Si4 0.175550 0.401269 0.194665
Si Si5 0.189056 0.683805 0.579627
Si Si6 0.678927 0.124862 0.587096
Si Si7 0.311682 0.599077 0.961080
Si Si8 0.813101 0.699365 0.454383
O O1 0.754896 0.826629 0.236285
O O2 0.774921 0.879936 0.130549
O O3 0.000000 0.902497 0.196995
O O4 0.748585 0.000000 0.207414
O O5 0.500000 0.738823 0.777046
O O6 0.752666 0.819245 0.812048
O O7 0.692894 0.834684 0.715571
O O8 0.500000 0.099300 0.842784
O O9 0.724782 0.136925 0.911856
O O10 0.748250 0.000000 0.844164
O O11 0.192658 0.500000 0.218402
O O12 0.198355 0.408556 0.130861
O O13 0.000000 0.366122 0.206846
O O14 0.297551 0.769351 0.588797
O O15 0.215509 0.664350 0.515972
O O16 0.000000 0.705434 0.583801
O O17 0.500000 0.099697 0.600983
O O18 0.710175 0.096343 0.525941
O O19 0.500000 0.605122 0.950372
O O20 0.257754 0.500000 0.940088
O O21 0.237106 0.695751 0.946316
O O22 0.000000 0.694158 0.444971
#
# Coordination Sequence:
#
# PCOD9356126 Si02
#       8
#     8   8   8   8   8   8   8   8
#     4  10  21  38  61  88 122 162 197 235 291 358
#     4  11  23  40  62  86 114 149 195 250 298 348
#     4  10  23  44  66  87 115 153 197 248 306 362
#     4  11  22  33  49  77 113 152 191 233 287 350
#     4   9  18  34  55  82 121 161 195 235 290 350
#     4  10  18  29  49  78 113 152 194 239 284 336
#     4   9  18  33  53  79 116 161 202 240 288 345
#     4  10  21  36  59  91 122 155 199 250 298 352
#
# _framework density 20.453799
#
# number of rings (size 3 to 8) (size 9 to 14) (size 15 to 20)
#    0.000    2.000    1.250    2.250    0.000    5.250 
#    0.000    1.875    0.000    0.750    0.000    0.000 
#    0.000    0.000    0.000    0.000    0.000    0.000 
#
# Total GULP energy -178238.276229 kJ/mol
# GULP energy per Si atom -5569.946132 kJ/mol
# Density = 2.040725 g / cm^3
# Si number density = 20.453799 Si / 1000 Ang^3
#
#
#
# Elastic Constant Matrix: (Units=GPa)
#
#
# Indices 1 2 3 4 5 6 
#
# 1 15.2620 23.2945 17.0583 0.0000 0.0000 0.0000
# 2 23.2945 135.1995 53.4244 0.0000 0.0000 0.0000
# 3 17.0583 53.4244 81.7683 0.0000 0.0000 0.0000
# 4 0.0000 0.0000 0.0000 12.4351 0.0000 0.0000
# 5 0.0000 0.0000 0.0000 0.0000 24.9347 0.0000
# 6 0.0000 0.0000 0.0000 0.0000 0.0000 36.4870
#
#
#
# Elastic Compliance Matrix: (Units=1/GPa)
#
#
# Indices 1 2 3 4 5 6 
#
# 1 0.097737 -0.011839 -0.012654 0.000000 0.000000 0.000000
# 2 -0.011839 0.011405 -0.004982 0.000000 0.000000 0.000000
# 3 -0.012654 -0.004982 0.018124 0.000000 0.000000 0.000000
# 4 0.000000 0.000000 0.000000 0.080418 0.000000 0.000000
# 5 0.000000 0.000000 0.000000 0.000000 0.040105 0.000000
# 6 0.000000 0.000000 0.000000 0.000000 0.000000 0.027407
#
#
# Mechanical properties :
#
#
# Convention : Reuss Voigt Hill
#
# Bulk Modulus (GPa) = 14.63796 46.64270 30.64033
# Shear Modulus (GPa) = 14.00883 24.00153 19.00518
#
# Velocity S-wave (km/s) = 2.61990 3.42928 3.05155
# Velocity P-wave (km/s) = 4.04029 6.20753 5.23724
#
# Compressibility (1/GPa) = 0.06831555
#
# Stress axis : x y z
#
# Youngs Moduli (GPa) = 10.23156 87.68169 55.17436
#
# Poissons Ratio (x) = 1.03811 0.69818
# Poissons Ratio (y) = 0.12114 0.27486
# Poissons Ratio (z) = 0.12947 0.43680
#
# Static dielectric constant tensor:
#      x y z
#    x 1.710690 0.000000 0.000000 
#    y 0.000000 1.764560 0.000000 
#    z 0.000000 0.000000 1.768100 
# 
# From -- ./inp_files/22173.got.cif
#   From: 2010.05.17/outbox.cif.g08.bks.cpg/sg38_12_cif.got.tgz:22173.got - 2010.06.03 18:07:57.
