data_PCOD9356900
_publ_section_title
;
Structure prediction by ZEFSAII (Michael W. Deem and Ramdas Pophale) SiO2 
 PCOD9356900
Probable space group: A M M 2
;
_chemical_formula_sum "Si O2"
_cell_formula_units_Z 64
_cell_length_a 8.535891
_cell_length_b 21.321404
_cell_length_c 17.416503
_cell_angle_alpha 90.000000
_cell_angle_beta 90.000000
_cell_angle_gamma 90.000000
_cell_volume 3169.754440
_symmetry_space_group_name_H-M "A M M 2"
_symmetry_group_IT_number 38
_symmetry_cell_setting 'orthorhombic'
loop_
_space_group_symop_operation_xyz
x,y,z
-x,-y,z
-x,y,z
x,-y,z
x,1/2+y,1/2+z
-x,1/2-y,1/2+z
-x,1/2+y,1/2+z
x,1/2-y,1/2+z
loop_
_atom_site_type_symbol
_atom_site_label
_atom_site_fract_x
_atom_site_fract_y
_atom_site_fract_z
Si Si1 0.823114 0.926173 0.192450
Si Si2 0.188832 0.572255 0.857926
Si Si3 0.811220 0.926579 0.888518
Si Si4 0.187408 0.256294 0.114987
Si Si5 0.821365 0.333687 0.256047
Si Si6 0.675409 0.428961 0.154306
Si Si7 0.319115 0.136680 0.504767
Si Si8 0.682033 0.873348 0.047168
O O1 0.762660 0.901912 0.274235
O O2 0.713053 0.916671 0.120635
O O3 0.000000 0.901355 0.176292
O O4 0.838903 0.000000 0.205805
O O5 0.244579 0.500000 0.869553
O O6 0.243648 0.616854 0.925554
O O7 0.000000 0.570397 0.856578
O O8 0.752037 0.871498 0.829705
O O9 0.000000 0.928120 0.879741
O O10 0.757486 0.000000 0.876817
O O11 0.768611 0.902660 0.973600
O O12 0.244136 0.277082 0.201536
O O13 0.253537 0.192560 0.079497
O O14 0.000000 0.253383 0.119586
O O15 0.236693 0.309030 0.053456
O O16 0.810020 0.389575 0.193928
O O17 0.000000 0.316584 0.275869
O O18 0.500000 0.403822 0.174543
O O19 0.683658 0.500000 0.179102
O O20 0.687509 0.422128 0.063133
O O21 0.500000 0.153985 0.493344
O O22 0.500000 0.867811 0.028307
#
# Coordination Sequence:
#
# PCOD9356900 Si02
#       8
#     8   8   8   8   8   8   8   8
#     4   9  19  38  62  85 111 146 189 237 289 344
#     4   9  18  33  54  82 114 149 193 239 283 337
#     4  10  21  39  64  93 124 156 193 244 305 363
#     4  10  21  40  62  82 112 155 201 244 288 345
#     4   9  19  36  59  86 112 145 193 243 289 342
#     4   9  17  28  45  73 111 153 188 223 279 344
#     4  10  19  32  51  78 114 152 191 236 288 342
#     4  12  25  40  59  86 117 153 196 243 297 355
#
# _framework density 20.190836999999998
#
# number of rings (size 3 to 8) (size 9 to 14) (size 15 to 20)
#    0.000    2.250    0.000    3.750    0.000    5.500 
#    2.250    1.250    0.000    0.000    0.000    0.000 
#    0.000    0.000    0.000    0.000    0.000    0.000 
#
# Total GULP energy -178153.438775 kJ/mol
# GULP energy per Si atom -5567.294962 kJ/mol
# Density = 2.014488 g / cm^3
# Si number density = 20.190837 Si / 1000 Ang^3
#
#
#
# Elastic Constant Matrix: (Units=GPa)
#
#
# Indices 1 2 3 4 5 6 
#
# 1 24.2575 4.2032 6.5247 0.0000 0.0000 0.0000
# 2 4.2032 59.8255 25.3413 0.0000 0.0000 0.0000
# 3 6.5247 25.3413 132.1607 0.0000 0.0000 0.0000
# 4 0.0000 0.0000 0.0000 34.6523 0.0000 0.0000
# 5 0.0000 0.0000 0.0000 0.0000 -7.7042 0.0000
# 6 0.0000 0.0000 0.0000 0.0000 0.0000 9.5351
#
#
#
# Elastic Compliance Matrix: (Units=1/GPa)
#
#
# Indices 1 2 3 4 5 6 
#
# 1 0.042058 -0.002259 -0.001643 0.000000 0.000000 0.000000
# 2 -0.002259 0.018314 -0.003400 0.000000 0.000000 0.000000
# 3 -0.001643 -0.003400 0.008300 0.000000 0.000000 0.000000
# 4 0.000000 0.000000 0.000000 0.028858 0.000000 0.000000
# 5 0.000000 0.000000 0.000000 0.000000 -0.129799 0.000000
# 6 0.000000 0.000000 0.000000 0.000000 0.000000 0.104876
#
#
# Mechanical properties :
#
#
# Convention : Reuss Voigt Hill
#
# Bulk Modulus (GPa) = 18.49551 32.04245 25.26898
# Shear Modulus (GPa) = 47.51365 19.30828 33.41096
#
# Velocity S-wave (km/s) = 4.85627 3.09575 4.07229
# Velocity P-wave (km/s) = 6.37375 5.35560 5.88673
#
# Compressibility (1/GPa) = 0.05406717
#
# Stress axis : x y z
#
# Youngs Moduli (GPa) = 23.77685 54.60234 120.48713
#
# Poissons Ratio (x) = 0.12333 0.19799
# Poissons Ratio (y) = 0.05371 0.40968
# Poissons Ratio (z) = 0.03907 0.18566
#
# Static dielectric constant tensor:
#      x y z
#    x 1.744220 0.000000 0.000000 
#    y 0.000000 1.737310 0.000000 
#    z 0.000000 0.000000 1.723890 
# 
# From -- ./inp_files/12850.got.cif
#   From: 2010.05.17/outbox.cif.g08.bks.cpg/sg38_7_cif.got.tgz:12850.got - 2010.06.03 18:07:57.
