data_PCOD9356746
_publ_section_title
;
Structure prediction by ZEFSAII (Michael W. Deem and Ramdas Pophale) SiO2 
 PCOD9356746
Probable space group: A M M 2
;
_chemical_formula_sum "Si O2"
_cell_formula_units_Z 64
_cell_length_a 8.565613
_cell_length_b 24.097624
_cell_length_c 19.671521
_cell_angle_alpha 90.000000
_cell_angle_beta 90.000000
_cell_angle_gamma 90.000000
_cell_volume 4060.416775
_symmetry_space_group_name_H-M "A M M 2"
_symmetry_group_IT_number 38
_symmetry_cell_setting 'orthorhombic'
loop_
_space_group_symop_operation_xyz
x,y,z
-x,-y,z
-x,y,z
x,-y,z
x,1/2+y,1/2+z
-x,1/2-y,1/2+z
-x,1/2+y,1/2+z
x,1/2-y,1/2+z
loop_
_atom_site_type_symbol
_atom_site_label
_atom_site_fract_x
_atom_site_fract_y
_atom_site_fract_z
Si Si1 0.190606 0.563024 0.211010
Si Si2 0.187143 0.225590 0.215395
Si Si3 0.189601 0.664585 0.298822
Si Si4 0.812528 0.121063 0.569699
Si Si5 0.314459 0.246710 0.571953
Si Si6 0.311332 0.436431 0.933521
Si Si7 0.312649 0.164748 0.342257
Si Si8 0.812350 0.269011 0.427232
O O1 0.244708 0.500000 0.219591
O O2 0.244090 0.606362 0.268480
O O3 0.234629 0.587850 0.137613
O O4 0.000000 0.562303 0.212431
O O5 0.234977 0.285042 0.248490
O O6 0.252316 0.223635 0.139650
O O7 0.248614 0.179667 0.267916
O O8 0.000000 0.224148 0.213930
O O9 0.237397 0.682967 0.374296
O O10 0.000000 0.663556 0.298560
O O11 0.747133 0.183320 0.572070
O O12 0.754379 0.089272 0.503033
O O13 0.000000 0.124545 0.568575
O O14 0.500000 0.245932 0.572156
O O15 0.253703 0.273942 0.502477
O O16 0.500000 0.435816 0.937900
O O17 0.260216 0.500000 0.924610
O O18 0.267055 0.394974 0.872403
O O19 0.500000 0.168853 0.341838
O O20 0.246511 0.211639 0.393391
O O21 0.000000 0.267249 0.429593
#
# Coordination Sequence:
#
# PCOD9356746 Si02
#       8
#     8   8   8   8   8   8   8   8
#     4   9  16  27  45  70  97 125 160 199 233 273
#     4  10  19  33  51  70  96 127 162 202 247 298
#     4   8  15  28  45  68  94 122 155 194 236 280
#     4  11  20  31  47  69  99 134 172 205 236 284
#     4  12  22  32  48  72  99 129 163 204 253 301
#     4  10  21  35  49  68 100 137 169 204 245 289
#     4  10  19  32  49  72  99 128 164 203 246 294
#     4  10  19  31  49  69  95 129 164 202 246 294
#
# _framework density 15.761927999999999
#
# number of rings (size 3 to 8) (size 9 to 14) (size 15 to 20)
#    0.000    2.000    2.500    3.750    0.000    1.250 
#    0.000    0.000    0.000    0.000    0.000    0.875 
#    0.000    3.000    0.000    0.000    0.000    0.000 
#
# Total GULP energy -178537.219468 kJ/mol
# GULP energy per Si atom -5579.288108 kJ/mol
# Density = 1.572605 g / cm^3
# Si number density = 15.761928 Si / 1000 Ang^3
#
#
#
# Elastic Constant Matrix: (Units=GPa)
#
#
# Indices 1 2 3 4 5 6 
#
# 1 39.2902 29.4073 36.9330 0.0000 0.0000 0.0000
# 2 29.4073 101.6083 80.4668 0.0000 0.0000 0.0000
# 3 36.9330 80.4668 161.8527 0.0000 0.0000 0.0000
# 4 0.0000 0.0000 0.0000 18.6853 0.0000 0.0000
# 5 0.0000 0.0000 0.0000 0.0000 20.8422 0.0000
# 6 0.0000 0.0000 0.0000 0.0000 0.0000 13.2700
#
#
#
# Elastic Compliance Matrix: (Units=1/GPa)
#
#
# Indices 1 2 3 4 5 6 
#
# 1 0.034624 -0.006208 -0.004814 0.000000 0.000000 0.000000
# 2 -0.006208 0.017346 -0.007207 0.000000 0.000000 0.000000
# 3 -0.004814 -0.007207 0.010860 0.000000 0.000000 0.000000
# 4 0.000000 0.000000 0.000000 0.053518 0.000000 0.000000
# 5 0.000000 0.000000 0.000000 0.000000 0.047980 0.000000
# 6 0.000000 0.000000 0.000000 0.000000 0.000000 0.075358
#
#
# Mechanical properties :
#
#
# Convention : Reuss Voigt Hill
#
# Bulk Modulus (GPa) = 37.92084 66.26280 52.09182
# Shear Modulus (GPa) = 17.54788 20.95578 19.25183
#
# Velocity S-wave (km/s) = 3.34025 3.65021 3.49866
# Velocity P-wave (km/s) = 6.24396 7.73928 7.03148
#
# Compressibility (1/GPa) = 0.02637073
#
# Stress axis : x y z
#
# Youngs Moduli (GPa) = 28.88195 57.65019 92.07999
#
# Poissons Ratio (x) = 0.35790 0.44330
# Poissons Ratio (y) = 0.17930 0.66363
# Poissons Ratio (z) = 0.13905 0.41549
#
# Static dielectric constant tensor:
#      x y z
#    x 1.530730 0.000000 0.000000 
#    y 0.000000 1.516920 0.000000 
#    z 0.000000 0.000000 1.524360 
# 
# From -- ./inp_files/17298.got.cif
#   From: 2010.05.17/outbox.cif.g08.bks.cpg/sg38_9_cif.got.tgz:17298.got - 2010.06.03 18:07:57.
