data_PCOD9356955
_publ_section_title
;
Structure prediction by ZEFSAII (Michael W. Deem and Ramdas Pophale) SiO2 
 PCOD9356955
Probable space group: A M M 2
;
_chemical_formula_sum "Si O2"
_cell_formula_units_Z 64
_cell_length_a 21.583070
_cell_length_b 8.656703
_cell_length_c 19.017300
_cell_angle_alpha 90.000000
_cell_angle_beta 90.000000
_cell_angle_gamma 90.000000
_cell_volume 3553.158611
_symmetry_space_group_name_H-M "A M M 2"
_symmetry_group_IT_number 38
_symmetry_cell_setting 'orthorhombic'
loop_
_space_group_symop_operation_xyz
x,y,z
-x,-y,z
-x,y,z
x,-y,z
x,1/2+y,1/2+z
-x,1/2-y,1/2+z
-x,1/2+y,1/2+z
x,1/2-y,1/2+z
loop_
_atom_site_type_symbol
_atom_site_label
_atom_site_fract_x
_atom_site_fract_y
_atom_site_fract_z
Si Si1 0.701815 0.687393 0.511740
Si Si2 0.182324 0.184774 0.916150
Si Si3 0.296963 0.814787 0.670409
Si Si4 0.183609 0.816650 0.259732
Si Si5 0.433247 0.186211 0.665229
Si Si6 0.566370 0.314145 0.506559
Si Si7 0.929020 0.686278 0.170412
Si Si8 0.071286 0.813930 0.507124
O O1 0.702497 0.500000 0.517802
O O2 0.758424 0.734914 0.462479
O O3 0.708469 0.756318 0.589947
O O4 0.634387 0.735189 0.480698
O O5 0.184665 0.254748 0.838844
O O6 0.183854 0.000000 0.910840
O O7 0.120606 0.236615 0.956548
O O8 0.242934 0.745017 0.717213
O O9 0.366513 0.771666 0.697050
O O10 0.291585 0.000000 0.670894
O O11 0.121848 0.758514 0.220549
O O12 0.184377 0.000000 0.259716
O O13 0.500000 0.226550 0.699215
O O14 0.433695 0.262209 0.588039
O O15 0.432357 0.000000 0.656968
O O16 0.500000 0.258478 0.476113
O O17 0.565581 0.500000 0.502821
O O18 0.925525 0.500000 0.174989
O O19 0.916829 0.727963 0.088781
O O20 0.000000 0.731211 0.187158
O O21 0.000000 0.772413 0.490802
O O22 0.076347 0.000000 0.501936
#
# Coordination Sequence:
#
# PCOD9356955 Si02
#       8
#     8   8   8   8   8   8   8   8
#     4   9  18  32  51  77 105 133 170 213 256 306
#     4  11  23  37  53  74 103 139 176 215 257 302
#     4  10  19  32  53  78 105 137 172 213 260 310
#     4  12  25  38  53  74 104 141 179 219 259 303
#     4   8  14  25  43  70 101 130 163 205 253 304
#     4   8  13  23  42  69 100 130 160 200 251 303
#     4   9  19  38  63  87 110 136 167 206 253 306
#     4   9  19  37  60  84 108 133 163 202 249 303
#
# _framework density 18.012142000000001
#
# number of rings (size 3 to 8) (size 9 to 14) (size 15 to 20)
#    0.000    2.500    0.000    3.375    0.000    5.000 
#    0.000    1.250    0.000    0.750    0.000    3.500 
#    0.000    0.000    0.000    0.000    0.000    0.000 
#
# Total GULP energy -178347.439012 kJ/mol
# GULP energy per Si atom -5573.357469 kJ/mol
# Density = 1.797115 g / cm^3
# Si number density = 18.012142 Si / 1000 Ang^3
#
#
#
# Elastic Constant Matrix: (Units=GPa)
#
#
# Indices 1 2 3 4 5 6 
#
# 1 196.0618 53.0174 104.0413 0.0000 0.0000 0.0000
# 2 53.0174 36.1721 36.0887 0.0000 0.0000 0.0000
# 3 104.0413 36.0887 90.7918 0.0000 0.0000 0.0000
# 4 0.0000 0.0000 0.0000 399.5478 0.0000 0.0000
# 5 0.0000 0.0000 0.0000 0.0000 -6.4056 0.0000
# 6 0.0000 0.0000 0.0000 0.0000 0.0000 18.6012
#
#
#
# Elastic Compliance Matrix: (Units=1/GPa)
#
#
# Indices 1 2 3 4 5 6 
#
# 1 0.014163 -0.007567 -0.013222 0.000000 0.000000 0.000000
# 2 -0.007567 0.049857 -0.011146 0.000000 0.000000 0.000000
# 3 -0.013222 -0.011146 0.030596 0.000000 0.000000 0.000000
# 4 0.000000 0.000000 0.000000 0.002503 0.000000 0.000000
# 5 0.000000 0.000000 0.000000 0.000000 -0.156113 0.000000
# 6 0.000000 0.000000 0.000000 0.000000 0.000000 0.053760
#
#
# Mechanical properties :
#
#
# Convention : Reuss Voigt Hill
#
# Bulk Modulus (GPa) = 32.52477 78.81338 55.66907
# Shear Modulus (GPa) = 72.58388 91.00723 81.79556
#
# Velocity S-wave (km/s) = 6.35489 7.11584 6.74610
# Velocity P-wave (km/s) = 8.48190 10.55293 9.57358
#
# Compressibility (1/GPa) = 0.03074580
#
# Stress axis : x y z
#
# Youngs Moduli (GPa) = 70.60647 20.05719 32.68381
#
# Poissons Ratio (x) = 0.15178 0.43214
# Poissons Ratio (y) = 0.53430 0.36430
# Poissons Ratio (z) = 0.93356 0.22356
#
# Static dielectric constant tensor:
#      x y z
#    x 1.669150 0.000000 0.000000 
#    y 0.000000 1.581190 0.000000 
#    z 0.000000 0.000000 1.566200 
# 
# From -- ./inp_files/18928.got.cif
#   From: 2010.05.17/outbox.cif.g08.bks.cpg/sg38_10_cif.got.tgz:18928.got - 2010.06.03 18:07:57.
