data_PCOD9356912
_publ_section_title
;
Structure prediction by ZEFSAII (Michael W. Deem and Ramdas Pophale) SiO2 
 PCOD9356912
Probable space group: A M M 2
;
_chemical_formula_sum "Si O2"
_cell_formula_units_Z 56
_cell_length_a 8.027675
_cell_length_b 15.063693
_cell_length_c 22.790391
_cell_angle_alpha 90.000000
_cell_angle_beta 90.000000
_cell_angle_gamma 90.000000
_cell_volume 2755.960661
_symmetry_space_group_name_H-M "A M M 2"
_symmetry_group_IT_number 38
_symmetry_cell_setting 'orthorhombic'
loop_
_space_group_symop_operation_xyz
x,y,z
-x,-y,z
-x,y,z
x,-y,z
x,1/2+y,1/2+z
-x,1/2-y,1/2+z
-x,1/2+y,1/2+z
x,1/2-y,1/2+z
loop_
_atom_site_type_symbol
_atom_site_label
_atom_site_fract_x
_atom_site_fract_y
_atom_site_fract_z
Si Si1 0.800580 0.783774 0.566210
Si Si2 0.701079 0.400561 0.310172
Si Si3 0.795736 0.602279 0.955812
Si Si4 0.802219 0.712720 0.843015
Si Si5 0.803058 0.598031 0.601088
Si Si6 0.299006 0.100508 0.675042
Si Si7 0.303463 0.399879 0.732957
O O1 0.737835 0.845647 0.513719
O O2 0.732334 0.683473 0.567790
O O3 0.766550 0.830090 0.628348
O O4 0.000000 0.777958 0.559189
O O5 0.500000 0.400809 0.310243
O O6 0.756241 0.500000 0.327799
O O7 0.759917 0.316595 0.346980
O O8 0.755323 0.385698 0.242335
O O9 0.741849 0.500000 0.955282
O O10 0.740314 0.655546 0.898153
O O11 0.000000 0.601902 0.956108
O O12 0.734057 0.671025 0.782889
O O13 0.000000 0.703430 0.841049
O O14 0.730766 0.500000 0.589173
O O15 0.784137 0.615318 0.670768
O O16 0.000000 0.593798 0.588384
O O17 0.500000 0.104674 0.674797
O O18 0.249623 0.000000 0.658004
O O19 0.500000 0.398440 0.721046
O O20 0.257203 0.500000 0.753378
#
# Coordination Sequence:
#
# PCOD9356912 Si02
#       7
#     8   8   8   8   8   8   8
#     4  10  19  32  52  75  98 131 172 207 244 295
#     4   9  19  36  55  75 104 139 169 203 253 308
#     4   9  19  35  52  72 101 134 166 204 252 301
#     4  11  21  33  52  76 102 135 174 214 256 301
#     4   9  18  32  50  75 105 132 162 205 255 304
#     4   9  18  32  50  74 103 132 160 196 249 304
#     4  10  20  33  51  76 105 137 172 210 255 308
#
# _framework density 20.319593999999999
#
# number of rings (size 3 to 8) (size 9 to 14) (size 15 to 20)
#    0.000    2.429    0.000    3.429    0.000    6.000 
#    0.000    3.571    0.000    6.000    0.000    2.000 
#    0.000    0.000    0.000    0.000    0.000    0.000 
#
# Total GULP energy -156284.037485 kJ/mol
# GULP energy per Si atom -5581.572767 kJ/mol
# Density = 2.027335 g / cm^3
# Si number density = 20.319594 Si / 1000 Ang^3
#
#
#
# Elastic Constant Matrix: (Units=GPa)
#
#
# Indices 1 2 3 4 5 6 
#
# 1 15.2368 6.0436 0.0014 0.0000 0.0000 0.0000
# 2 6.0436 190.0392 68.4155 0.0000 0.0000 0.0000
# 3 0.0014 68.4155 43.3291 0.0000 0.0000 0.0000
# 4 0.0000 0.0000 0.0000 35.5284 0.0000 0.0000
# 5 0.0000 0.0000 0.0000 0.0000 -186.4319 0.0000
# 6 0.0000 0.0000 0.0000 0.0000 0.0000 22.8814
#
#
#
# Elastic Compliance Matrix: (Units=1/GPa)
#
#
# Indices 1 2 3 4 5 6 
#
# 1 0.067605 -0.004980 0.007861 0.000000 0.000000 0.000000
# 2 -0.004980 0.012560 -0.019832 0.000000 0.000000 0.000000
# 3 0.007861 -0.019832 0.054393 0.000000 0.000000 0.000000
# 4 0.000000 0.000000 0.000000 0.028146 0.000000 0.000000
# 5 0.000000 0.000000 0.000000 0.000000 -0.005364 0.000000
# 6 0.000000 0.000000 0.000000 0.000000 0.000000 0.043704
#
#
# Mechanical properties :
#
#
# Convention : Reuss Voigt Hill
#
# Bulk Modulus (GPa) = 9.93474 44.16958 27.05216
# Shear Modulus (GPa) = 18.62212 -13.99478 2.31367
#
# Velocity S-wave (km/s) = 3.03060 -2.62722 1.06823
# Velocity P-wave (km/s) = 4.14076 3.54705 3.85535
#
# Compressibility (1/GPa) = 0.10065694
#
# Stress axis : x y z
#
# Youngs Moduli (GPa) = 14.79172 79.61759 18.38480
#
# Poissons Ratio (x) = 0.39650 -0.14453
# Poissons Ratio (y) = 0.07366 0.36460
# Poissons Ratio (z) = -0.11628 1.57896
#
# Static dielectric constant tensor:
#      x y z
#    x 1.724150 0.000000 0.000000 
#    y 0.000000 1.756530 0.000000 
#    z 0.000000 0.000000 1.688920 
# 
# From -- ./inp_files/19777.got.cif
#   From: 2010.05.17/outbox.cif.g08.bks.cpg/sg38_10_cif.got.tgz:19777.got - 2010.06.03 18:07:57.
