data_PCOD9356289
_publ_section_title
;
Structure prediction by ZEFSAII (Michael W. Deem and Ramdas Pophale) SiO2 
 PCOD9356289
Probable space group: A M M 2
;
_chemical_formula_sum "Si O2"
_cell_formula_units_Z 64
_cell_length_a 7.670302
_cell_length_b 20.413190
_cell_length_c 21.387889
_cell_angle_alpha 90.000000
_cell_angle_beta 90.000000
_cell_angle_gamma 90.000000
_cell_volume 3348.815823
_symmetry_space_group_name_H-M "A M M 2"
_symmetry_group_IT_number 38
_symmetry_cell_setting 'orthorhombic'
loop_
_space_group_symop_operation_xyz
x,y,z
-x,-y,z
-x,y,z
x,-y,z
x,1/2+y,1/2+z
-x,1/2-y,1/2+z
-x,1/2+y,1/2+z
x,1/2-y,1/2+z
loop_
_atom_site_type_symbol
_atom_site_label
_atom_site_fract_x
_atom_site_fract_y
_atom_site_fract_z
Si Si1 0.209870 0.709713 0.571860
Si Si2 0.212174 0.427935 0.376171
Si Si3 0.207873 0.289329 0.951228
Si Si4 0.712922 0.927175 0.644397
Si Si5 0.787831 0.072414 0.023049
Si Si6 0.706189 0.790663 0.694967
Si Si7 0.709614 0.927902 0.499163
Si Si8 0.207739 0.210248 0.832188
O O1 0.276519 0.753430 0.513684
O O2 0.272836 0.635287 0.561735
O O3 0.251856 0.743742 0.637123
O O4 0.000000 0.708023 0.567495
O O5 0.273926 0.500000 0.355561
O O6 0.256436 0.419238 0.449629
O O7 0.276268 0.364170 0.339743
O O8 0.000000 0.429239 0.372921
O O9 0.276705 0.255730 0.888139
O O10 0.000000 0.279298 0.951605
O O11 0.237594 0.366410 0.957991
O O12 0.500000 0.927284 0.645692
O O13 0.778253 0.863993 0.681725
O O14 0.765094 0.918514 0.571555
O O15 0.769295 0.000000 0.665179
O O16 0.000000 0.071807 0.025406
O O17 0.727891 0.000000 0.043014
O O18 0.500000 0.797288 0.697006
O O19 0.762655 0.765325 0.762376
O O20 0.500000 0.929097 0.500182
O O21 0.771047 0.000000 0.478753
O O22 0.000000 0.206153 0.840909
#
# Coordination Sequence:
#
# PCOD9356289 Si02
#       8
#     8   8   8   8   8   8   8   8
#     4  10  18  31  52  77 101 128 164 208 252 294
#     4   8  13  24  45  72 101 131 162 196 236 286
#     4  10  19  31  51  77 103 130 163 207 257 297
#     4   8  15  29  47  67  95 131 167 200 238 287
#     4   8  13  24  47  77 102 125 158 198 241 293
#     4  11  22  34  49  71  99 136 174 207 245 292
#     4   9  17  31  52  75  99 130 166 205 250 298
#     4  10  20  34  49  71 104 137 166 203 249 295
#
# _framework density 19.111232999999999
#
# number of rings (size 3 to 8) (size 9 to 14) (size 15 to 20)
#    0.000    2.750    2.500    1.875    0.000    1.250 
#    0.000    0.000    0.000    2.250    0.000    3.500 
#    0.000    0.000    0.000    0.000    0.000    0.000 
#
# Total GULP energy -178448.430314 kJ/mol
# GULP energy per Si atom -5576.513447 kJ/mol
# Density = 1.906773 g / cm^3
# Si number density = 19.111233 Si / 1000 Ang^3
#
#
#
# Elastic Constant Matrix: (Units=GPa)
#
#
# Indices 1 2 3 4 5 6 
#
# 1 32.7191 2.1350 1.1570 0.0000 0.0000 0.0000
# 2 2.1350 128.3013 75.2955 0.0000 0.0000 0.0000
# 3 1.1570 75.2955 117.1686 0.0000 0.0000 0.0000
# 4 0.0000 0.0000 0.0000 3.4927 0.0000 0.0000
# 5 0.0000 0.0000 0.0000 0.0000 -25.7641 0.0000
# 6 0.0000 0.0000 0.0000 0.0000 0.0000 8.3414
#
#
#
# Elastic Compliance Matrix: (Units=1/GPa)
#
#
# Indices 1 2 3 4 5 6 
#
# 1 0.030596 -0.000533 0.000040 0.000000 0.000000 0.000000
# 2 -0.000533 0.012523 -0.008042 0.000000 0.000000 0.000000
# 3 0.000040 -0.008042 0.013702 0.000000 0.000000 0.000000
# 4 0.000000 0.000000 0.000000 0.286311 0.000000 0.000000
# 5 0.000000 0.000000 0.000000 0.000000 -0.038814 0.000000
# 6 0.000000 0.000000 0.000000 0.000000 0.000000 0.119884
#
#
# Mechanical properties :
#
#
# Convention : Reuss Voigt Hill
#
# Bulk Modulus (GPa) = 25.15581 48.37379 36.76480
# Shear Modulus (GPa) = 11.00055 10.52077 10.76066
#
# Velocity S-wave (km/s) = 2.40178 2.34882 2.37545
# Velocity P-wave (km/s) = 4.56977 5.72037 5.17713
#
# Compressibility (1/GPa) = 0.03975225
#
# Stress axis : x y z
#
# Youngs Moduli (GPa) = 32.68348 79.85533 72.98004
#
# Poissons Ratio (x) = 0.04254 -0.00293
# Poissons Ratio (y) = 0.01741 0.58691
# Poissons Ratio (z) = -0.00131 0.64221
#
# Static dielectric constant tensor:
#      x y z
#    x 1.732030 0.000000 0.000000 
#    y 0.000000 1.698180 0.000000 
#    z 0.000000 0.000000 1.659090 
# 
# From -- ./inp_files/17932.got.cif
#   From: 2010.05.17/outbox.cif.g08.bks.cpg/sg38_9_cif.got.tgz:17932.got - 2010.06.03 18:07:57.
