data_PCOD9356600
_publ_section_title
;
Structure prediction by ZEFSAII (Michael W. Deem and Ramdas Pophale) SiO2 
 PCOD9356600
Probable space group: A M M 2
;
_chemical_formula_sum "Si O2"
_cell_formula_units_Z 64
_cell_length_a 14.962489
_cell_length_b 7.802968
_cell_length_c 32.322555
_cell_angle_alpha 90.000000
_cell_angle_beta 90.000000
_cell_angle_gamma 90.000000
_cell_volume 3773.717216
_symmetry_space_group_name_H-M "A M M 2"
_symmetry_group_IT_number 38
_symmetry_cell_setting 'orthorhombic'
loop_
_space_group_symop_operation_xyz
x,y,z
-x,-y,z
-x,y,z
x,-y,z
x,1/2+y,1/2+z
-x,1/2-y,1/2+z
-x,1/2+y,1/2+z
x,1/2-y,1/2+z
loop_
_atom_site_type_symbol
_atom_site_label
_atom_site_fract_x
_atom_site_fract_y
_atom_site_fract_z
Si Si1 0.398221 0.206039 0.666820
Si Si2 0.286037 0.793545 0.906774
Si Si3 0.398336 0.293774 0.327725
Si Si4 0.099347 0.793040 0.279747
Si Si5 0.608655 0.697783 0.077095
Si Si6 0.397871 0.706833 0.987150
Si Si7 0.901220 0.293774 0.376348
Si Si8 0.284989 0.704097 0.746613
O O1 0.500000 0.267432 0.675388
O O2 0.367283 0.274283 0.621779
O O3 0.332841 0.242375 0.704469
O O4 0.403839 0.000000 0.662665
O O5 0.344846 0.729450 0.867916
O O6 0.333591 0.750961 0.949605
O O7 0.184500 0.729629 0.901483
O O8 0.283198 0.000000 0.903483
O O9 0.500000 0.228501 0.326426
O O10 0.402613 0.500000 0.331043
O O11 0.345229 0.254340 0.285915
O O12 0.113306 0.746510 0.327892
O O13 0.184391 0.728156 0.254070
O O14 0.000000 0.730719 0.267751
O O15 0.098062 0.000000 0.277117
O O16 0.500000 0.694653 0.077100
O O17 0.640161 0.500000 0.077007
O O18 0.632765 0.773583 0.032376
O O19 0.500000 0.766497 0.979048
O O20 0.401746 0.500000 0.990356
O O21 0.903662 0.500000 0.380318
O O22 0.000000 0.227432 0.387810
O O23 0.279564 0.500000 0.746259
#
# Coordination Sequence:
#
# PCOD9356600 Si02
#       8
#     8   8   8   8   8   8   8   8
#     4   9  17  30  48  66  87 118 150 177 212 261
#     4  10  19  30  44  64  90 117 146 180 218 260
#     4  10  20  32  43  57  85 124 156 176 202 250
#     4   9  18  32  47  62  83 112 144 181 225 265
#     4   7  12  26  46  65  84 110 146 183 215 251
#     4   9  17  29  46  67  90 116 148 183 215 253
#     4   9  17  30  48  66  83 108 145 188 225 254
#     4  11  21  30  43  65  90 114 144 183 221 256
#
# _framework density 16.959406000000001
#
# number of rings (size 3 to 8) (size 9 to 14) (size 15 to 20)
#    0.000    2.750    1.250    2.625    0.000    4.250 
#    0.000    0.625    0.000    2.250    0.000    0.875 
#    0.000    7.000    0.000    0.000    0.000    0.000 
#
# Total GULP energy -178286.359977 kJ/mol
# GULP energy per Si atom -5571.448749 kJ/mol
# Density = 1.692081 g / cm^3
# Si number density = 16.959406 Si / 1000 Ang^3
#
#
#
# Elastic Constant Matrix: (Units=GPa)
#
#
# Indices 1 2 3 4 5 6 
#
# 1 148.5191 10.0315 96.4859 0.0000 0.0000 0.0000
# 2 10.0315 20.3831 1.2536 0.0000 0.0000 0.0000
# 3 96.4859 1.2536 157.5139 0.0000 0.0000 0.0000
# 4 0.0000 0.0000 0.0000 16.2569 0.0000 0.0000
# 5 0.0000 0.0000 0.0000 0.0000 -16.5898 0.0000
# 6 0.0000 0.0000 0.0000 0.0000 0.0000 13.5284
#
#
#
# Elastic Compliance Matrix: (Units=1/GPa)
#
#
# Indices 1 2 3 4 5 6 
#
# 1 0.011737 -0.005337 -0.007147 0.000000 0.000000 0.000000
# 2 -0.005337 0.051511 0.002859 0.000000 0.000000 0.000000
# 3 -0.007147 0.002859 0.010704 0.000000 0.000000 0.000000
# 4 0.000000 0.000000 0.000000 0.061512 0.000000 0.000000
# 5 0.000000 0.000000 0.000000 0.000000 -0.060278 0.000000
# 6 0.000000 0.000000 0.000000 0.000000 0.000000 0.073919
#
#
# Mechanical properties :
#
#
# Convention : Reuss Voigt Hill
#
# Bulk Modulus (GPa) = 18.28076 60.21757 39.24916
# Shear Modulus (GPa) = 26.79715 17.21543 22.00629
#
# Velocity S-wave (km/s) = 3.97933 3.18951 3.60611
# Velocity P-wave (km/s) = 5.64942 7.01056 6.36647
#
# Compressibility (1/GPa) = 0.05470233
#
# Stress axis : x y z
#
# Youngs Moduli (GPa) = 85.20408 19.41339 93.42563
#
# Poissons Ratio (x) = 0.10360 0.66769
# Poissons Ratio (y) = 0.45470 -0.26710
# Poissons Ratio (z) = 0.60894 -0.05550
#
# Static dielectric constant tensor:
#      x y z
#    x 1.644150 0.000000 0.000000 
#    y 0.000000 1.633880 0.000000 
#    z 0.000000 0.000000 1.586810 
# 
# From -- ./inp_files/25050.got.cif
#   From: 2010.05.17/outbox.cif.g08.bks.cpg/sg38_13_cif.got.tgz:25050.got - 2010.06.03 18:07:57.
