data_PCOD9356175
_publ_section_title
;
Structure prediction by ZEFSAII (Michael W. Deem and Ramdas Pophale) SiO2 
 PCOD9356175
Probable space group: A M M 2
;
_chemical_formula_sum "Si O2"
_cell_formula_units_Z 64
_cell_length_a 14.567325
_cell_length_b 8.989139
_cell_length_c 31.670588
_cell_angle_alpha 90.000000
_cell_angle_beta 90.000000
_cell_angle_gamma 90.000000
_cell_volume 4147.190950
_symmetry_space_group_name_H-M "A M M 2"
_symmetry_group_IT_number 38
_symmetry_cell_setting 'orthorhombic'
loop_
_space_group_symop_operation_xyz
x,y,z
-x,-y,z
-x,y,z
x,-y,z
x,1/2+y,1/2+z
-x,1/2-y,1/2+z
-x,1/2+y,1/2+z
x,1/2-y,1/2+z
loop_
_atom_site_type_symbol
_atom_site_label
_atom_site_fract_x
_atom_site_fract_y
_atom_site_fract_z
Si Si1 0.707176 0.820662 0.841180
Si Si2 0.714062 0.677086 0.007827
Si Si3 0.894251 0.821625 0.977079
Si Si4 0.608906 0.176901 0.929752
Si Si5 0.101996 0.819398 0.878191
Si Si6 0.388561 0.171308 0.673823
Si Si7 0.390685 0.177228 0.086024
Si Si8 0.608788 0.822611 0.261422
O O1 0.649575 0.787385 0.883694
O O2 0.811729 0.771544 0.850480
O O3 0.663241 0.744004 0.800776
O O4 0.705308 0.000000 0.835647
O O5 0.712282 0.500000 0.009771
O O6 0.817608 0.737371 0.003407
O O7 0.664289 0.746201 0.048418
O O8 0.660140 0.734310 0.966344
O O9 0.000000 0.789846 0.988622
O O10 0.880467 0.000000 0.980259
O O11 0.882994 0.780991 0.927457
O O12 0.500000 0.203545 0.930832
O O13 0.624844 0.000000 0.936883
O O14 0.000000 0.767942 0.865557
O O15 0.101210 0.000000 0.877067
O O16 0.500000 0.172457 0.674125
O O17 0.361607 0.257851 0.631440
O O18 0.360186 0.250212 0.717207
O O19 0.358432 0.000000 0.672561
O O20 0.500000 0.206613 0.080685
O O21 0.377897 0.000000 0.084991
O O22 0.500000 0.789147 0.266865
O O23 0.618711 0.000000 0.259343
#
# Coordination Sequence:
#
# PCOD9356175 Si02
#       8
#     8   8   8   8   8   8   8   8
#     4  10  18  30  49  70  93 123 163 205 242 284
#     4  12  23  32  46  70 101 132 163 201 244 292
#     4   9  17  33  55  72  90 122 164 207 249 293
#     4  10  20  33  47  64  92 131 172 207 239 283
#     4   8  14  27  49  72  91 116 155 203 248 289
#     4   9  17  31  51  73  96 122 157 201 246 288
#     4  10  20  34  52  72  97 130 167 204 241 286
#     4  10  20  32  46  67  98 132 164 197 236 286
#
# _framework density 15.432131999999999
#
# number of rings (size 3 to 8) (size 9 to 14) (size 15 to 20)
#    0.000    2.250    1.250    3.750    0.000    6.000 
#    0.000    0.000    0.000    0.375    0.000    0.875 
#    0.000    5.000    0.000    0.000    0.000    0.000 
#
# Total GULP energy -178506.904595 kJ/mol
# GULP energy per Si atom -5578.340769 kJ/mol
# Density = 1.539701 g / cm^3
# Si number density = 15.432132 Si / 1000 Ang^3
#
#
#
# Elastic Constant Matrix: (Units=GPa)
#
#
# Indices 1 2 3 4 5 6 
#
# 1 98.5648 61.3564 73.9090 0.0000 0.0000 0.0000
# 2 61.3564 72.6242 71.2089 0.0000 0.0000 0.0000
# 3 73.9090 71.2089 140.7125 0.0000 0.0000 0.0000
# 4 0.0000 0.0000 0.0000 28.3495 0.0000 0.0000
# 5 0.0000 0.0000 0.0000 0.0000 6.3373 0.0000
# 6 0.0000 0.0000 0.0000 0.0000 0.0000 15.9679
#
#
#
# Elastic Compliance Matrix: (Units=1/GPa)
#
#
# Indices 1 2 3 4 5 6 
#
# 1 0.022695 -0.014858 -0.004401 0.000000 0.000000 0.000000
# 2 -0.014858 0.037059 -0.010950 0.000000 0.000000 0.000000
# 3 -0.004401 -0.010950 0.014960 0.000000 0.000000 0.000000
# 4 0.000000 0.000000 0.000000 0.035274 0.000000 0.000000
# 5 0.000000 0.000000 0.000000 0.000000 0.157797 0.000000
# 6 0.000000 0.000000 0.000000 0.000000 0.000000 0.062626
#
#
# Mechanical properties :
#
#
# Convention : Reuss Voigt Hill
#
# Bulk Modulus (GPa) = 69.95499 80.53889 75.24694
# Shear Modulus (GPa) = 12.63920 17.15942 14.89931
#
# Velocity S-wave (km/s) = 2.86495 3.33818 3.11058
# Velocity P-wave (km/s) = 7.50820 8.19514 7.85918
#
# Compressibility (1/GPa) = 0.01429491
#
# Stress axis : x y z
#
# Youngs Moduli (GPa) = 44.06167 26.98412 66.84633
#
# Poissons Ratio (x) = 0.40094 0.29422
# Poissons Ratio (y) = 0.65469 0.73194
# Poissons Ratio (z) = 0.19394 0.29546
#
# Static dielectric constant tensor:
#      x y z
#    x 1.514020 0.000000 0.000000 
#    y 0.000000 1.513950 0.000000 
#    z 0.000000 0.000000 1.487690 
# 
# From -- ./inp_files/25048.got.cif
#   From: 2010.05.17/outbox.cif.g08.bks.cpg/sg38_13_cif.got.tgz:25048.got - 2010.06.03 18:07:57.
