data_PCOD9356612
_publ_section_title
;
Structure prediction by ZEFSAII (Michael W. Deem and Ramdas Pophale) SiO2 
 PCOD9356612
Probable space group: A M M 2
;
_chemical_formula_sum "Si O2"
_cell_formula_units_Z 64
_cell_length_a 7.654730
_cell_length_b 31.091079
_cell_length_c 15.166581
_cell_angle_alpha 90.000000
_cell_angle_beta 90.000000
_cell_angle_gamma 90.000000
_cell_volume 3609.552475
_symmetry_space_group_name_H-M "A M M 2"
_symmetry_group_IT_number 38
_symmetry_cell_setting 'orthorhombic'
loop_
_space_group_symop_operation_xyz
x,y,z
-x,-y,z
-x,y,z
x,-y,z
x,1/2+y,1/2+z
-x,1/2-y,1/2+z
-x,1/2+y,1/2+z
x,1/2-y,1/2+z
loop_
_atom_site_type_symbol
_atom_site_label
_atom_site_fract_x
_atom_site_fract_y
_atom_site_fract_z
Si Si1 0.786124 0.714718 0.271740
Si Si2 0.801509 0.218431 0.572556
Si Si3 0.794553 0.639584 0.401658
Si Si4 0.298690 0.187168 0.074269
Si Si5 0.207859 0.702047 0.883796
Si Si6 0.289045 0.634167 0.742460
Si Si7 0.713280 0.451875 0.655545
Si Si8 0.289467 0.951779 0.951733
O O1 0.724027 0.713551 0.170450
O O2 0.735178 0.671646 0.324385
O O3 0.726145 0.757252 0.325604
O O4 0.000000 0.717057 0.268827
O O5 0.803654 0.269553 0.554857
O O6 0.718468 0.200201 0.483012
O O7 0.000000 0.201557 0.578669
O O8 0.707575 0.655100 0.492232
O O9 0.766018 0.588653 0.393134
O O10 0.000000 0.647159 0.412253
O O11 0.500000 0.199424 0.089639
O O12 0.229218 0.163927 0.161102
O O13 0.235272 0.658194 0.830714
O O14 0.000000 0.709298 0.892847
O O15 0.500000 0.633514 0.739882
O O16 0.227971 0.586128 0.719727
O O17 0.500000 0.451395 0.654712
O O18 0.768188 0.500000 0.680600
O O19 0.767538 0.444303 0.553683
O O20 0.500000 0.952223 0.952432
O O21 0.230785 0.000000 0.926130
#
# Coordination Sequence:
#
# PCOD9356612 Si02
#       8
#     8   8   8   8   8   8   8   8
#     4   9  18  31  47  67  90 120 158 193 227 273
#     4  10  19  34  49  63  90 125 160 193 229 277
#     4  11  20  31  47  69  96 127 161 194 228 271
#     4  11  20  29  44  68  96 124 157 192 231 271
#     4  10  19  31  48  67  89 122 157 188 232 276
#     4  10  19  30  45  68  94 121 156 190 224 270
#     4   8  14  27  46  65  89 121 152 182 222 275
#     4   9  17  31  49  69  96 126 154 188 232 281
#
# _framework density 17.730730000000001
#
# number of rings (size 3 to 8) (size 9 to 14) (size 15 to 20)
#    0.000    2.250    3.750    1.500    0.000    1.250 
#    0.000    1.250    0.000    0.375    0.000    0.875 
#    0.000    5.000    0.000    0.000    0.000    0.000 
#
# Total GULP energy -178434.855187 kJ/mol
# GULP energy per Si atom -5576.089225 kJ/mol
# Density = 1.769037 g / cm^3
# Si number density = 17.730730 Si / 1000 Ang^3
#
#
#
# Elastic Constant Matrix: (Units=GPa)
#
#
# Indices 1 2 3 4 5 6 
#
# 1 35.4953 1.2921 4.6910 0.0000 0.0000 0.0000
# 2 1.2921 101.1565 24.7571 0.0000 0.0000 0.0000
# 3 4.6910 24.7571 74.7239 0.0000 0.0000 0.0000
# 4 0.0000 0.0000 0.0000 24.6299 0.0000 0.0000
# 5 0.0000 0.0000 0.0000 0.0000 6.7601 0.0000
# 6 0.0000 0.0000 0.0000 0.0000 0.0000 15.7734
#
#
#
# Elastic Compliance Matrix: (Units=1/GPa)
#
#
# Indices 1 2 3 4 5 6 
#
# 1 0.028409 0.000080 -0.001810 0.000000 0.000000 0.000000
# 2 0.000080 0.010758 -0.003569 0.000000 0.000000 0.000000
# 3 -0.001810 -0.003569 0.014679 0.000000 0.000000 0.000000
# 4 0.000000 0.000000 0.000000 0.040601 0.000000 0.000000
# 5 0.000000 0.000000 0.000000 0.000000 0.147927 0.000000
# 6 0.000000 0.000000 0.000000 0.000000 0.000000 0.063398
#
#
# Mechanical properties :
#
#
# Convention : Reuss Voigt Hill
#
# Bulk Modulus (GPa) = 23.12274 30.31737 26.72005
# Shear Modulus (GPa) = 15.11552 21.47505 18.29529
#
# Velocity S-wave (km/s) = 2.92294 3.48397 3.21571
# Velocity P-wave (km/s) = 4.94578 5.77235 5.37498
#
# Compressibility (1/GPa) = 0.04324746
#
# Stress axis : x y z
#
# Youngs Moduli (GPa) = 35.20010 92.95210 68.12536
#
# Poissons Ratio (x) = -0.00745 0.12331
# Poissons Ratio (y) = -0.00282 0.24317
# Poissons Ratio (z) = 0.06371 0.33178
#
# Static dielectric constant tensor:
#      x y z
#    x 1.665020 0.000000 0.000000 
#    y 0.000000 1.609340 0.000000 
#    z 0.000000 0.000000 1.615250 
# 
# From -- ./inp_files/13077.got.cif
#   From: 2010.05.17/outbox.cif.g08.bks.cpg/sg38_7_cif.got.tgz:13077.got - 2010.06.03 18:07:57.
