data_PCOD9356157
_publ_section_title
;
Structure prediction by ZEFSAII (Michael W. Deem and Ramdas Pophale) SiO2 
 PCOD9356157
Probable space group: A M M 2
;
_chemical_formula_sum "Si O2"
_cell_formula_units_Z 64
_cell_length_a 9.074064
_cell_length_b 19.101012
_cell_length_c 22.112065
_cell_angle_alpha 90.000000
_cell_angle_beta 90.000000
_cell_angle_gamma 90.000000
_cell_volume 3832.547250
_symmetry_space_group_name_H-M "A M M 2"
_symmetry_group_IT_number 38
_symmetry_cell_setting 'orthorhombic'
loop_
_space_group_symop_operation_xyz
x,y,z
-x,-y,z
-x,y,z
x,-y,z
x,1/2+y,1/2+z
-x,1/2-y,1/2+z
-x,1/2+y,1/2+z
x,1/2-y,1/2+z
loop_
_atom_site_type_symbol
_atom_site_label
_atom_site_fract_x
_atom_site_fract_y
_atom_site_fract_z
Si Si1 0.322772 0.579656 0.938490
Si Si2 0.676785 0.921082 0.177609
Si Si3 0.671314 0.578067 0.269119
Si Si4 0.323790 0.140301 0.308241
Si Si5 0.176248 0.778158 0.762330
Si Si6 0.827813 0.327094 0.038354
Si Si7 0.822276 0.216175 0.131555
Si Si8 0.662122 0.079823 0.623781
O O1 0.500000 0.580167 0.944262
O O2 0.272158 0.500000 0.951913
O O3 0.285740 0.599973 0.869533
O O4 0.256986 0.638165 0.982764
O O5 0.500000 0.915951 0.170456
O O6 0.709356 0.904695 0.248196
O O7 0.754365 0.860221 0.139878
O O8 0.722689 0.000000 0.162546
O O9 0.500000 0.585299 0.287587
O O10 0.723087 0.500000 0.288402
O O11 0.761866 0.647403 0.284685
O O12 0.672651 0.577915 0.195876
O O13 0.500000 0.153078 0.308571
O O14 0.241007 0.213895 0.300779
O O15 0.221498 0.760315 0.692241
O O16 0.000000 0.778548 0.764316
O O17 0.777027 0.254581 0.069481
O O18 0.795289 0.380335 0.093354
O O19 0.000000 0.322357 0.024357
O O20 0.000000 0.212994 0.132117
O O21 0.500000 0.110411 0.607734
O O22 0.662541 0.000000 0.602006
#
# Coordination Sequence:
#
# PCOD9356157 Si02
#       8
#     8   8   8   8   8   8   8   8
#     4  10  21  36  52  71  97 131 171 209 243 284
#     4   9  17  30  51  77  98 119 153 198 245 291
#     4   9  17  28  43  65  93 125 161 198 237 286
#     4   9  18  33  52  71  95 128 163 202 247 291
#     4  10  18  30  47  69  97 127 162 203 245 292
#     4  11  21  32  45  65  96 131 166 202 238 282
#     4   9  19  32  44  65  97 130 160 192 237 292
#     4   9  17  28  42  61  87 122 162 198 232 274
#
# _framework density 16.699076000000002
#
# number of rings (size 3 to 8) (size 9 to 14) (size 15 to 20)
#    0.000    2.500    1.250    2.250    0.000    6.000 
#    0.000    1.250    0.000    2.250    0.000    0.875 
#    0.000    5.000    0.000    0.000    0.000    0.125 
#
# Total GULP energy -178255.547685 kJ/mol
# GULP energy per Si atom -5570.485865 kJ/mol
# Density = 1.666107 g / cm^3
# Si number density = 16.699076 Si / 1000 Ang^3
#
#
#
# Elastic Constant Matrix: (Units=GPa)
#
#
# Indices 1 2 3 4 5 6 
#
# 1 19.2995 37.7170 17.9095 0.0000 0.0000 0.0000
# 2 37.7170 138.6308 36.9881 0.0000 0.0000 0.0000
# 3 17.9095 36.9881 59.0296 0.0000 0.0000 0.0000
# 4 0.0000 0.0000 0.0000 18.9253 0.0000 0.0000
# 5 0.0000 0.0000 0.0000 0.0000 16.2595 0.0000
# 6 0.0000 0.0000 0.0000 0.0000 0.0000 12.3555
#
#
#
# Elastic Compliance Matrix: (Units=1/GPa)
#
#
# Indices 1 2 3 4 5 6 
#
# 1 0.128442 -0.029475 -0.020500 0.000000 0.000000 0.000000
# 2 -0.029475 0.015426 -0.000723 0.000000 0.000000 0.000000
# 3 -0.020500 -0.000723 0.023613 0.000000 0.000000 0.000000
# 4 0.000000 0.000000 0.000000 0.052839 0.000000 0.000000
# 5 0.000000 0.000000 0.000000 0.000000 0.061502 0.000000
# 6 0.000000 0.000000 0.000000 0.000000 0.000000 0.080936
#
#
# Mechanical properties :
#
#
# Convention : Reuss Voigt Hill
#
# Bulk Modulus (GPa) = 15.13209 44.68765 29.90987
# Shear Modulus (GPa) = 10.28420 17.79775 14.04098
#
# Velocity S-wave (km/s) = 2.48433 3.26819 2.90284
# Velocity P-wave (km/s) = 4.16059 6.40781 5.40234
#
# Compressibility (1/GPa) = 0.06608473
#
# Stress axis : x y z
#
# Youngs Moduli (GPa) = 7.78562 64.82732 42.34910
#
# Poissons Ratio (x) = 1.91081 0.86814
# Poissons Ratio (y) = 0.22948 0.03062
# Poissons Ratio (z) = 0.15960 0.04687
#
# Static dielectric constant tensor:
#      x y z
#    x 1.572910 0.000000 0.000000 
#    y 0.000000 1.582240 0.000000 
#    z 0.000000 0.000000 1.563290 
# 
# From -- ./inp_files/20010.got.cif
#   From: 2010.05.17/outbox.cif.g08.bks.cpg/sg38_11_cif.got.tgz:20010.got - 2010.06.03 18:07:57.
