data_PCOD9356632
_publ_section_title
;
Structure prediction by ZEFSAII (Michael W. Deem and Ramdas Pophale) SiO2 
 PCOD9356632
Probable space group: A M M 2
;
_chemical_formula_sum "Si O2"
_cell_formula_units_Z 56
_cell_length_a 9.165406
_cell_length_b 12.677795
_cell_length_c 23.576675
_cell_angle_alpha 90.000000
_cell_angle_beta 90.000000
_cell_angle_gamma 90.000000
_cell_volume 2739.542167
_symmetry_space_group_name_H-M "A M M 2"
_symmetry_group_IT_number 38
_symmetry_cell_setting 'orthorhombic'
loop_
_space_group_symop_operation_xyz
x,y,z
-x,-y,z
-x,y,z
x,-y,z
x,1/2+y,1/2+z
-x,1/2-y,1/2+z
-x,1/2+y,1/2+z
x,1/2-y,1/2+z
loop_
_atom_site_type_symbol
_atom_site_label
_atom_site_fract_x
_atom_site_fract_y
_atom_site_fract_z
Si Si1 0.672221 0.175490 0.452700
Si Si2 0.169539 0.326455 0.838783
Si Si3 0.829483 0.623549 0.273286
Si Si4 0.169677 0.335763 0.616747
Si Si5 0.170943 0.112705 0.565836
Si Si6 0.170153 0.382457 0.485985
Si Si7 0.672656 0.683327 0.726995
O O1 0.500000 0.163618 0.448897
O O2 0.750339 0.139160 0.395423
O O3 0.735277 0.121101 0.508940
O O4 0.721126 0.297075 0.461160
O O5 0.178313 0.197461 0.829893
O O6 0.249106 0.366164 0.782050
O O7 0.000000 0.354518 0.839666
O O8 0.791895 0.500000 0.279630
O O9 0.729492 0.694206 0.231777
O O10 0.000000 0.629155 0.254752
O O11 0.198682 0.212178 0.604977
O O12 0.191118 0.384187 0.554379
O O13 0.270309 0.366713 0.668825
O O14 0.000000 0.351233 0.632303
O O15 0.000000 0.119870 0.549404
O O16 0.195127 0.000000 0.594237
O O17 0.189898 0.500000 0.463489
O O18 0.000000 0.350293 0.476744
O O19 0.500000 0.678725 0.731605
#
# Coordination Sequence:
#
# PCOD9356632 Si02
#       7
#     8   8   8   8   8   8   8
#     4  11  21  33  52  80 111 139 168 212 269 319
#     4   9  18  33  51  70  95 134 175 209 247 301
#     4   8  16  30  46  65  91 127 168 205 244 296
#     4   9  17  32  53  77 104 136 173 213 257 306
#     4   9  19  36  57  78 101 137 183 222 255 301
#     4   9  19  36  57  78 101 135 180 222 257 303
#     4  10  19  30  46  72 102 133 165 204 256 309
#
# _framework density 20.441372000000001
#
# number of rings (size 3 to 8) (size 9 to 14) (size 15 to 20)
#    0.857    1.857    0.000    3.429    0.000    4.286 
#    0.000    2.857    0.000    0.857    0.000    2.000 
#    0.000    0.000    0.000    0.000    0.000    0.000 
#
# Total GULP energy -156054.629621 kJ/mol
# GULP energy per Si atom -5573.379629 kJ/mol
# Density = 2.039485 g / cm^3
# Si number density = 20.441372 Si / 1000 Ang^3
#
#
#
# Elastic Constant Matrix: (Units=GPa)
#
#
# Indices 1 2 3 4 5 6 
#
# 1 109.4899 -0.0844 67.6597 0.0000 0.0000 0.0000
# 2 -0.0844 62.1542 -15.8906 0.0000 0.0000 0.0000
# 3 67.6597 -15.8906 80.1810 0.0000 0.0000 0.0000
# 4 0.0000 0.0000 0.0000 -5.4811 0.0000 0.0000
# 5 0.0000 0.0000 0.0000 0.0000 6.7336 0.0000
# 6 0.0000 0.0000 0.0000 0.0000 0.0000 6.0416
#
#
#
# Elastic Compliance Matrix: (Units=1/GPa)
#
#
# Indices 1 2 3 4 5 6 
#
# 1 0.020248 -0.004573 -0.017992 0.000000 0.000000 0.000000
# 2 -0.004573 0.017980 0.007422 0.000000 0.000000 0.000000
# 3 -0.017992 0.007422 0.029125 0.000000 0.000000 0.000000
# 4 0.000000 0.000000 0.000000 -0.182445 0.000000 0.000000
# 5 0.000000 0.000000 0.000000 0.000000 0.148508 0.000000
# 6 0.000000 0.000000 0.000000 0.000000 0.000000 0.165519
#
#
# Mechanical properties :
#
#
# Convention : Reuss Voigt Hill
#
# Bulk Modulus (GPa) = 26.97761 39.46607 33.22184
# Shear Modulus (GPa) = 20.69721 14.80152 17.74937
#
# Velocity S-wave (km/s) = 3.18546 2.69382 2.94990
# Velocity P-wave (km/s) = 5.17259 5.38743 5.28111
#
# Compressibility (1/GPa) = 0.03706777
#
# Stress axis : x y z
#
# Youngs Moduli (GPa) = 49.38711 55.61638 34.33438
#
# Poissons Ratio (x) = 0.25431 0.61776
# Poissons Ratio (y) = 0.22582 -0.25483
# Poissons Ratio (z) = 0.88859 -0.41278
#
# Static dielectric constant tensor:
#      x y z
#    x 1.671760 0.000000 0.000000 
#    y 0.000000 1.753280 0.000000 
#    z 0.000000 0.000000 1.732060 
# 
# From -- ./inp_files/19823.got.cif
#   From: 2010.05.17/outbox.cif.g08.bks.cpg/sg38_10_cif.got.tgz:19823.got - 2010.06.03 18:07:57.
