data_PCOD9356821
_publ_section_title
;
Structure prediction by ZEFSAII (Michael W. Deem and Ramdas Pophale) SiO2 
 PCOD9356821
Probable space group: A M M 2
;
_chemical_formula_sum "Si O2"
_cell_formula_units_Z 48
_cell_length_a 16.141068
_cell_length_b 7.657376
_cell_length_c 18.153469
_cell_angle_alpha 90.000000
_cell_angle_beta 90.000000
_cell_angle_gamma 90.000000
_cell_volume 2243.736577
_symmetry_space_group_name_H-M "A M M 2"
_symmetry_group_IT_number 38
_symmetry_cell_setting 'orthorhombic'
loop_
_space_group_symop_operation_xyz
x,y,z
-x,-y,z
-x,y,z
x,-y,z
x,1/2+y,1/2+z
-x,1/2-y,1/2+z
-x,1/2+y,1/2+z
x,1/2-y,1/2+z
loop_
_atom_site_type_symbol
_atom_site_label
_atom_site_fract_x
_atom_site_fract_y
_atom_site_fract_z
Si Si1 0.333649 0.286033 0.446480
Si Si2 0.669142 0.786259 0.117104
Si Si3 0.164913 0.291299 0.700363
Si Si4 0.500000 0.710707 0.365689
Si Si5 0.833634 0.794193 0.871130
Si Si6 0.000000 0.796264 0.609030
Si Si7 0.000000 0.202510 0.941788
Si Si8 0.500000 0.291636 0.693389
O O1 0.335026 0.500000 0.445059
O O2 0.330328 0.234132 0.531765
O O3 0.417236 0.226579 0.406450
O O4 0.252253 0.223340 0.403380
O O5 0.752161 0.727679 0.159014
O O6 0.584863 0.725523 0.156553
O O7 0.669645 0.000000 0.118702
O O8 0.169957 0.500000 0.704400
O O9 0.161327 0.223919 0.783590
O O10 0.082118 0.246367 0.655501
O O11 0.500000 0.500000 0.370075
O O12 0.500000 0.758499 0.280178
O O13 0.915704 0.718285 0.909321
O O14 0.831778 0.000000 0.889701
O O15 0.000000 0.704856 0.529843
O O16 0.000000 0.000000 0.592812
O O17 0.000000 0.000000 0.916794
O O18 0.500000 0.500000 0.681335
#
# Coordination Sequence:
#
# PCOD9356821 Si02
#       8
#     8   8   8   4   8   4   4   4
#     4   9  17  31  52  77 105 140 184 228 268 318
#     4   9  18  33  55  82 109 143 186 227 269 320
#     4  11  22  37  58  83 113 147 185 228 274 328
#     4  10  19  31  51  77 105 140 182 226 270 320
#     4  10  20  35  56  81 111 145 181 224 274 327
#     4  12  25  40  59  83 111 143 183 230 279 330
#     4  10  21  38  59  81 107 141 179 222 275 330
#     4  10  19  33  55  81 111 144 180 224 270 322
#
# _framework density 21.392883999999999
#
# number of rings (size 3 to 8) (size 9 to 14) (size 15 to 20)
#    0.000    2.000    0.000    4.250    0.000    6.000 
#    0.000    0.833    0.000    5.000    0.000    0.000 
#    0.000    0.000    0.000    0.000    0.000    0.000 
#
# Total GULP energy -134158.509644 kJ/mol
# GULP energy per Si atom -5589.937902 kJ/mol
# Density = 2.134419 g / cm^3
# Si number density = 21.392884 Si / 1000 Ang^3
#
#
#
# Elastic Constant Matrix: (Units=GPa)
#
#
# Indices 1 2 3 4 5 6 
#
# 1 261.4149 -1.9845 128.2974 0.0000 0.0000 0.0000
# 2 -1.9845 33.2876 -28.1983 0.0000 0.0000 0.0000
# 3 128.2974 -28.1983 174.0030 0.0000 0.0000 0.0000
# 4 0.0000 0.0000 0.0000 25.5764 0.0000 0.0000
# 5 0.0000 0.0000 0.0000 0.0000 50.6752 0.0000
# 6 0.0000 0.0000 0.0000 0.0000 0.0000 -8.1464
#
#
#
# Elastic Compliance Matrix: (Units=1/GPa)
#
#
# Indices 1 2 3 4 5 6 
#
# 1 0.006472 -0.004239 -0.005459 0.000000 0.000000 0.000000
# 2 -0.004239 0.037597 0.009218 0.000000 0.000000 0.000000
# 3 -0.005459 0.009218 0.011266 0.000000 0.000000 0.000000
# 4 0.000000 0.000000 0.000000 0.039099 0.000000 0.000000
# 5 0.000000 0.000000 0.000000 0.000000 0.019734 0.000000
# 6 0.000000 0.000000 0.000000 0.000000 0.000000 -0.122753
#
#
# Mechanical properties :
#
#
# Convention : Reuss Voigt Hill
#
# Bulk Modulus (GPa) = 18.39030 73.88162 46.13596
# Shear Modulus (GPa) = 476.21086 38.32711 257.26899
#
# Velocity S-wave (km/s) = 14.93605 4.23730 10.97817
# Velocity P-wave (km/s) = 17.49465 7.65181 13.50209
#
# Compressibility (1/GPa) = 0.05437650
#
# Stress axis : x y z
#
# Youngs Moduli (GPa) = 154.50115 26.59762 88.76151
#
# Poissons Ratio (x) = 0.11274 0.48457
# Poissons Ratio (y) = 0.65488 -0.81822
# Poissons Ratio (z) = 0.84346 -0.24518
#
# Static dielectric constant tensor:
#      x y z
#    x 1.798660 0.000000 0.000000 
#    y 0.000000 1.802870 0.000000 
#    z 0.000000 0.000000 1.749370 
# 
# From -- ./inp_files/18262.got.cif
#   From: 2010.05.17/outbox.cif.g08.bks.cpg/sg38_10_cif.got.tgz:18262.got - 2010.06.03 18:07:57.
