data_PCOD9356754
_publ_section_title
;
Structure prediction by ZEFSAII (Michael W. Deem and Ramdas Pophale) SiO2 
 PCOD9356754
Probable space group: A M M 2
;
_chemical_formula_sum "Si O2"
_cell_formula_units_Z 56
_cell_length_a 14.635319
_cell_length_b 13.198456
_cell_length_c 17.896553
_cell_angle_alpha 90.000000
_cell_angle_beta 90.000000
_cell_angle_gamma 90.000000
_cell_volume 3456.962853
_symmetry_space_group_name_H-M "A M M 2"
_symmetry_group_IT_number 38
_symmetry_cell_setting 'orthorhombic'
loop_
_space_group_symop_operation_xyz
x,y,z
-x,-y,z
-x,y,z
x,-y,z
x,1/2+y,1/2+z
-x,1/2-y,1/2+z
-x,1/2+y,1/2+z
x,1/2-y,1/2+z
loop_
_atom_site_type_symbol
_atom_site_label
_atom_site_fract_x
_atom_site_fract_y
_atom_site_fract_z
Si Si1 0.893857 0.115674 0.656600
Si Si2 0.261793 0.384543 0.629089
Si Si3 0.606624 0.122601 0.261410
Si Si4 0.109636 0.116870 0.401904
Si Si5 0.230705 0.298972 0.025664
Si Si6 0.893484 0.676183 0.734323
Si Si7 0.605198 0.121934 0.429796
O O1 0.820390 0.139599 0.592055
O O2 0.882685 0.203601 0.718334
O O3 0.000000 0.125180 0.628694
O O4 0.883071 0.000000 0.682712
O O5 0.285597 0.500000 0.609774
O O6 0.332654 0.342735 0.691726
O O7 0.252316 0.310881 0.559109
O O8 0.165966 0.380177 0.672800
O O9 0.500000 0.147484 0.250724
O O10 0.632770 0.156218 0.345464
O O11 0.614666 0.000000 0.261463
O O12 0.159363 0.192372 0.457833
O O13 0.134749 0.142384 0.316791
O O14 0.000000 0.123531 0.408759
O O15 0.136662 0.000000 0.418866
O O16 0.324143 0.343268 0.992257
O O17 0.000000 0.651506 0.726200
O O18 0.500000 0.154130 0.442758
O O19 0.605534 0.000000 0.428261
#
# Coordination Sequence:
#
# PCOD9356754 Si02
#       7
#     8   8   8   8   8   8   8
#     4   9  17  30  47  67  93 125 158 189 223 269
#     4  10  20  32  46  66  93 124 156 191 231 275
#     4   8  15  30  51  70  87 111 146 187 227 266
#     4  10  19  31  49  71  92 116 151 194 234 272
#     4  11  20  29  45  68  96 124 152 186 231 280
#     4   9  18  31  48  70  92 118 156 196 231 269
#     4   9  17  29  47  72  97 118 144 184 234 280
#
# _framework density 16.199190999999999
#
# number of rings (size 3 to 8) (size 9 to 14) (size 15 to 20)
#    0.000    2.571    0.000    3.857    0.000    4.286 
#    0.000    0.714    0.000    0.857    0.000    0.000 
#    0.000    6.857    0.000    0.000    0.000    0.000 
#
# Total GULP energy -155975.874658 kJ/mol
# GULP energy per Si atom -5570.566952 kJ/mol
# Density = 1.616232 g / cm^3
# Si number density = 16.199191 Si / 1000 Ang^3
#
#
#
# Elastic Constant Matrix: (Units=GPa)
#
#
# Indices 1 2 3 4 5 6 
#
# 1 64.9337 23.4115 37.6869 0.0000 0.0000 0.0000
# 2 23.4115 60.9824 32.4716 0.0000 0.0000 0.0000
# 3 37.6869 32.4716 79.5899 0.0000 0.0000 0.0000
# 4 0.0000 0.0000 0.0000 17.1173 0.0000 0.0000
# 5 0.0000 0.0000 0.0000 0.0000 28.6656 0.0000
# 6 0.0000 0.0000 0.0000 0.0000 0.0000 17.4504
#
#
#
# Elastic Compliance Matrix: (Units=1/GPa)
#
#
# Indices 1 2 3 4 5 6 
#
# 1 0.021865 -0.003681 -0.008852 0.000000 0.000000 0.000000
# 2 -0.003681 0.021569 -0.007057 0.000000 0.000000 0.000000
# 3 -0.008852 -0.007057 0.019635 0.000000 0.000000 0.000000
# 4 0.000000 0.000000 0.000000 0.058420 0.000000 0.000000
# 5 0.000000 0.000000 0.000000 0.000000 0.034885 0.000000
# 6 0.000000 0.000000 0.000000 0.000000 0.000000 0.057305
#
#
# Mechanical properties :
#
#
# Convention : Reuss Voigt Hill
#
# Bulk Modulus (GPa) = 41.85848 43.62734 42.74291
# Shear Modulus (GPa) = 19.17024 20.10908 19.63966
#
# Velocity S-wave (km/s) = 3.44380 3.52712 3.48571
# Velocity P-wave (km/s) = 6.45825 6.60134 6.53019
#
# Compressibility (1/GPa) = 0.02389002
#
# Stress axis : x y z
#
# Youngs Moduli (GPa) = 45.73562 46.36314 50.92976
#
# Poissons Ratio (x) = 0.17065 0.45081
# Poissons Ratio (y) = 0.16834 0.35941
# Poissons Ratio (z) = 0.40483 0.32718
#
# Static dielectric constant tensor:
#      x y z
#    x 1.574810 0.000000 0.000000 
#    y 0.000000 1.536140 0.000000 
#    z 0.000000 0.000000 1.539320 
# 
# From -- ./inp_files/14634.got.cif
#   From: 2010.05.17/outbox.cif.g08.bks.cpg/sg38_8_cif.got.tgz:14634.got - 2010.06.03 18:07:57.
