data_PCOD9356494
_publ_section_title
;
Structure prediction by ZEFSAII (Michael W. Deem and Ramdas Pophale) SiO2 
 PCOD9356494
Probable space group: A M M 2
;
_chemical_formula_sum "Si O2"
_cell_formula_units_Z 48
_cell_length_a 10.404737
_cell_length_b 7.692304
_cell_length_c 28.386398
_cell_angle_alpha 90.000000
_cell_angle_beta 90.000000
_cell_angle_gamma 90.000000
_cell_volume 2271.945106
_symmetry_space_group_name_H-M "A M M 2"
_symmetry_group_IT_number 38
_symmetry_cell_setting 'orthorhombic'
loop_
_space_group_symop_operation_xyz
x,y,z
-x,-y,z
-x,y,z
x,-y,z
x,1/2+y,1/2+z
-x,1/2-y,1/2+z
-x,1/2+y,1/2+z
x,1/2-y,1/2+z
loop_
_atom_site_type_symbol
_atom_site_label
_atom_site_fract_x
_atom_site_fract_y
_atom_site_fract_z
Si Si1 0.274182 0.712663 0.535440
Si Si2 0.000000 0.213279 0.181613
Si Si3 0.221460 0.704947 0.750988
Si Si4 0.500000 0.210666 0.105349
Si Si5 0.855269 0.209300 0.354153
Si Si6 0.642984 0.208754 0.931769
Si Si7 0.000000 0.787371 0.073282
Si Si8 0.500000 0.701755 0.215075
O O1 0.275621 0.500000 0.535137
O O2 0.374926 0.765837 0.575723
O O3 0.319130 0.771812 0.483959
O O4 0.130456 0.768738 0.547888
O O5 0.874691 0.272304 0.210672
O O6 0.000000 0.269831 0.127618
O O7 0.000000 0.000000 0.179870
O O8 0.193446 0.500000 0.753494
O O9 0.188763 0.776135 0.802738
O O10 0.369001 0.724330 0.736620
O O11 0.500000 0.272244 0.158852
O O12 0.500000 0.000000 0.106985
O O13 0.751239 0.251158 0.393697
O O14 0.000000 0.271870 0.364815
O O15 0.860623 0.000000 0.351711
O O16 0.500000 0.272761 0.918822
O O17 0.636203 0.000000 0.934878
O O18 0.000000 0.000000 0.073057
O O19 0.500000 0.500000 0.226148
#
# Coordination Sequence:
#
# PCOD9356494 Si02
#       8
#     8   4   8   4   8   8   4   4
#     4   9  17  31  53  83 113 143 186 238 280 326
#     4   9  16  32  60  89 109 135 187 247 288 323
#     4  10  20  39  63  84 110 149 194 239 285 334
#     4  10  18  36  61  80 105 147 196 241 285 328
#     4  10  22  40  61  86 114 145 190 243 289 340
#     4  10  21  37  57  85 120 153 188 233 286 342
#     4   9  16  24  45  83 113 133 173 233 284 325
#     4  12  26  38  53  86 125 155 186 229 281 346
#
# _framework density 21.127271
#
# number of rings (size 3 to 8) (size 9 to 14) (size 15 to 20)
#    0.000    2.167    1.667    1.750    2.333    4.000 
#    0.000    1.250    0.000    0.000    0.000    0.000 
#    0.000    0.000    0.000    0.000    0.000    0.000 
#
# Total GULP energy -134080.318138 kJ/mol
# GULP energy per Si atom -5586.679922 kJ/mol
# Density = 2.107918 g / cm^3
# Si number density = 21.127271 Si / 1000 Ang^3
#
#
#
# Elastic Constant Matrix: (Units=GPa)
#
#
# Indices 1 2 3 4 5 6 
#
# 1 211.0814 -4.1470 89.6227 0.0000 0.0000 0.0000
# 2 -4.1470 31.6781 -0.2876 0.0000 0.0000 0.0000
# 3 89.6227 -0.2876 130.0361 0.0000 0.0000 0.0000
# 4 0.0000 0.0000 0.0000 17.1950 0.0000 0.0000
# 5 0.0000 0.0000 0.0000 0.0000 54.7175 0.0000
# 6 0.0000 0.0000 0.0000 0.0000 0.0000 -2.5058
#
#
#
# Elastic Compliance Matrix: (Units=1/GPa)
#
#
# Indices 1 2 3 4 5 6 
#
# 1 0.006720 0.000838 -0.004629 0.000000 0.000000 0.000000
# 2 0.000838 0.031673 -0.000507 0.000000 0.000000 0.000000
# 3 -0.004629 -0.000507 0.010880 0.000000 0.000000 0.000000
# 4 0.000000 0.000000 0.000000 0.058156 0.000000 0.000000
# 5 0.000000 0.000000 0.000000 0.000000 0.018276 0.000000
# 6 0.000000 0.000000 0.000000 0.000000 0.000000 -0.399078
#
#
# Mechanical properties :
#
#
# Convention : Reuss Voigt Hill
#
# Bulk Modulus (GPa) = 24.58581 60.35242 42.46912
# Shear Modulus (GPa) = -19.90301 33.05519 6.57609
#
# Velocity S-wave (km/s) = -3.07262 3.95976 1.76617
# Velocity P-wave (km/s) = 0.96214 7.03807 4.92994
#
# Compressibility (1/GPa) = 0.04067387
#
# Stress axis : x y z
#
# Youngs Moduli (GPa) = 148.81993 31.57302 91.91464
#
# Poissons Ratio (x) = -0.02645 0.42550
# Poissons Ratio (y) = -0.12466 0.04662
# Poissons Ratio (z) = 0.68894 0.01602
#
# Static dielectric constant tensor:
#      x y z
#    x 1.709900 0.000000 0.000000 
#    y 0.000000 1.811310 0.000000 
#    z 0.000000 0.000000 1.721240 
# 
# From -- ./inp_files/24475.got.cif
#   From: 2010.05.17/outbox.cif.g08.bks.cpg/sg38_13_cif.got.tgz:24475.got - 2010.06.03 18:07:57.
