data_PCOD9356987
_publ_section_title
;
Structure prediction by ZEFSAII (Michael W. Deem and Ramdas Pophale) SiO2 
 PCOD9356987
Probable space group: A M M 2
;
_chemical_formula_sum "Si O2"
_cell_formula_units_Z 48
_cell_length_a 11.551095
_cell_length_b 18.850787
_cell_length_c 11.910749
_cell_angle_alpha 90.000000
_cell_angle_beta 90.000000
_cell_angle_gamma 90.000000
_cell_volume 2593.532619
_symmetry_space_group_name_H-M "A M M 2"
_symmetry_group_IT_number 38
_symmetry_cell_setting 'orthorhombic'
loop_
_space_group_symop_operation_xyz
x,y,z
-x,-y,z
-x,y,z
x,-y,z
x,1/2+y,1/2+z
-x,1/2-y,1/2+z
-x,1/2+y,1/2+z
x,1/2-y,1/2+z
loop_
_atom_site_type_symbol
_atom_site_label
_atom_site_fract_x
_atom_site_fract_y
_atom_site_fract_z
Si Si1 0.500000 0.809695 0.631650
Si Si2 0.134918 0.159865 0.822006
Si Si3 0.868185 0.133858 0.488440
Si Si4 0.704079 0.578200 0.161887
Si Si5 0.131419 0.202054 0.070198
Si Si6 0.751013 0.185722 0.284644
Si Si7 0.500000 0.713103 0.863163
O O1 0.389913 0.861002 0.641989
O O2 0.500000 0.766318 0.751371
O O3 0.500000 0.774344 0.502707
O O4 0.209805 0.099934 0.762651
O O5 0.200521 0.233763 0.796145
O O6 0.000000 0.161617 0.784566
O O7 0.134100 0.157782 0.956006
O O8 0.784367 0.082147 0.552888
O O9 0.851111 0.214738 0.537133
O O10 0.836727 0.138861 0.358544
O O11 0.000000 0.114965 0.506588
O O12 0.654534 0.500000 0.178406
O O13 0.230059 0.174572 0.153292
O O14 0.000000 0.197079 0.117676
O O15 0.623991 0.177131 0.337678
#
# Coordination Sequence:
#
# PCOD9356987 Si02
#       7
#     4   8   8   8   8   8   4
#     4  12  25  46  60  98 121 156 200 258 318 358
#     4  10  20  34  54  86 121 153 195 245 306 365
#     4  10  19  32  53  83 117 148 192 240 296 357
#     4  12  24  39  59  82 122 165 202 237 282 358
#     4   9  17  31  55  84 119 152 181 247 320 359
#     4  11  19  33  54  85 117 150 192 252 318 351
#     4  12  24  36  66  86 126 152 194 260 312 366
#
# _framework density 18.507576
#
# number of rings (size 3 to 8) (size 9 to 14) (size 15 to 20)
#    0.000    1.333    5.000    3.250    2.333    1.333 
#    0.000    0.000    0.000    1.000    0.000    3.500 
#    0.000    0.000    0.000    0.000    0.000    0.000 
#
# Total GULP energy -133607.830803 kJ/mol
# GULP energy per Si atom -5566.992950 kJ/mol
# Density = 1.846545 g / cm^3
# Si number density = 18.507576 Si / 1000 Ang^3
#
#
#
# Elastic Constant Matrix: (Units=GPa)
#
#
# Indices 1 2 3 4 5 6 
#
# 1 89.2385 7.7716 27.6804 0.0000 0.0000 0.0000
# 2 7.7716 34.7290 23.4823 0.0000 0.0000 0.0000
# 3 27.6804 23.4823 105.8010 0.0000 0.0000 0.0000
# 4 0.0000 0.0000 0.0000 10.1586 0.0000 0.0000
# 5 0.0000 0.0000 0.0000 0.0000 9.7899 0.0000
# 6 0.0000 0.0000 0.0000 0.0000 0.0000 2.0447
#
#
#
# Elastic Compliance Matrix: (Units=1/GPa)
#
#
# Indices 1 2 3 4 5 6 
#
# 1 0.012209 -0.000673 -0.003045 0.000000 0.000000 0.000000
# 2 -0.000673 0.033916 -0.007351 0.000000 0.000000 0.000000
# 3 -0.003045 -0.007351 0.011880 0.000000 0.000000 0.000000
# 4 0.000000 0.000000 0.000000 0.098438 0.000000 0.000000
# 5 0.000000 0.000000 0.000000 0.000000 0.102146 0.000000
# 6 0.000000 0.000000 0.000000 0.000000 0.000000 0.489059
#
#
# Mechanical properties :
#
#
# Convention : Reuss Voigt Hill
#
# Bulk Modulus (GPa) = 27.88178 38.62635 33.25407
# Shear Modulus (GPa) = 6.39597 15.78761 11.09179
#
# Velocity S-wave (km/s) = 1.86101 2.92385 2.45074
# Velocity P-wave (km/s) = 4.44022 5.68457 5.10049
#
# Compressibility (1/GPa) = 0.03586572
#
# Stress axis : x y z
#
# Youngs Moduli (GPa) = 81.90678 29.48482 84.17569
#
# Poissons Ratio (x) = 0.01985 0.25629
# Poissons Ratio (y) = 0.05515 0.61881
# Poissons Ratio (z) = 0.24939 0.21675
#
# Static dielectric constant tensor:
#      x y z
#    x 1.735950 0.000000 0.000000 
#    y 0.000000 1.630380 0.000000 
#    z 0.000000 0.000000 1.713250 
# 
# From -- ./inp_files/9345.got.cif
#   From: 2010.05.17/outbox.cif.g08.bks.cpg/sg38_5_cif.got.tgz:9345.got - 2010.06.03 18:07:57.
