data_PCOD9356054
_publ_section_title
;
Structure prediction by ZEFSAII (Michael W. Deem and Ramdas Pophale) SiO2 
 PCOD9356054
Probable space group: A M M 2
;
_chemical_formula_sum "Si O2"
_cell_formula_units_Z 48
_cell_length_a 7.452562
_cell_length_b 17.201416
_cell_length_c 19.183560
_cell_angle_alpha 90.000000
_cell_angle_beta 90.000000
_cell_angle_gamma 90.000000
_cell_volume 2459.229170
_symmetry_space_group_name_H-M "A M M 2"
_symmetry_group_IT_number 38
_symmetry_cell_setting 'orthorhombic'
loop_
_space_group_symop_operation_xyz
x,y,z
-x,-y,z
-x,y,z
x,-y,z
x,1/2+y,1/2+z
-x,1/2-y,1/2+z
-x,1/2+y,1/2+z
x,1/2-y,1/2+z
loop_
_atom_site_type_symbol
_atom_site_label
_atom_site_fract_x
_atom_site_fract_y
_atom_site_fract_z
Si Si1 0.212693 0.829925 0.439920
Si Si2 0.282511 0.000000 0.264437
Si Si3 0.293514 0.227357 0.807089
Si Si4 0.715279 0.185752 0.032793
Si Si5 0.720225 0.840333 0.189886
Si Si6 0.279970 0.088815 0.899414
Si Si7 0.793384 0.500000 0.927291
O O1 0.291309 0.788686 0.371202
O O2 0.242460 0.771415 0.503749
O O3 0.284867 0.916984 0.450050
O O4 0.000000 0.835520 0.426942
O O5 0.227061 0.077592 0.223701
O O6 0.500000 0.000000 0.268714
O O7 0.213008 0.000000 0.343198
O O8 0.500000 0.209924 0.789781
O O9 0.216086 0.270890 0.740237
O O10 0.216474 0.148233 0.839493
O O11 0.500000 0.178920 0.034740
O O12 0.780543 0.169361 0.110464
O O13 0.777775 0.125377 0.973458
O O14 0.500000 0.839385 0.190458
O O15 0.500000 0.090603 0.899091
O O16 0.224532 0.000000 0.890969
O O17 0.000000 0.500000 0.951403
#
# Coordination Sequence:
#
# PCOD9356054 Si02
#       7
#     8   4   8   8   8   8   4
#     4  10  19  32  48  68  93 124 161 196 235 278
#     4  10  18  28  48  76 102 125 150 187 240 293
#     4   9  16  29  48  69  93 123 156 191 232 278
#     4   9  18  31  47  67  95 124 156 193 234 283
#     4   9  17  28  46  72  99 123 150 188 233 283
#     4   8  14  24  42  66  87 113 151 190 225 264
#     4  10  20  32  48  70  96 123 158 203 238 279
#
# _framework density 19.518312000000002
#
# number of rings (size 3 to 8) (size 9 to 14) (size 15 to 20)
#    0.000    2.833    1.667    1.500    1.167    0.667 
#    0.000    1.667    1.833    8.000    0.000    0.000 
#    0.000    0.000    0.000    0.000    0.000    0.000 
#
# Total GULP energy -133857.673883 kJ/mol
# GULP energy per Si atom -5577.403078 kJ/mol
# Density = 1.947389 g / cm^3
# Si number density = 19.518312 Si / 1000 Ang^3
#
#
#
# Elastic Constant Matrix: (Units=GPa)
#
#
# Indices 1 2 3 4 5 6 
#
# 1 60.3261 2.0012 2.4330 0.0000 0.0000 0.0000
# 2 2.0012 191.6937 70.1786 0.0000 0.0000 0.0000
# 3 2.4330 70.1786 99.0814 0.0000 0.0000 0.0000
# 4 0.0000 0.0000 0.0000 20.0005 0.0000 0.0000
# 5 0.0000 0.0000 0.0000 0.0000 68.9974 0.0000
# 6 0.0000 0.0000 0.0000 0.0000 0.0000 38.7488
#
#
#
# Elastic Compliance Matrix: (Units=1/GPa)
#
#
# Indices 1 2 3 4 5 6 
#
# 1 0.016593 -0.000032 -0.000384 0.000000 0.000000 0.000000
# 2 -0.000032 0.007043 -0.004988 0.000000 0.000000 0.000000
# 3 -0.000384 -0.004988 0.013635 0.000000 0.000000 0.000000
# 4 0.000000 0.000000 0.000000 0.049999 0.000000 0.000000
# 5 0.000000 0.000000 0.000000 0.000000 0.014493 0.000000
# 6 0.000000 0.000000 0.000000 0.000000 0.000000 0.025807
#
#
# Mechanical properties :
#
#
# Convention : Reuss Voigt Hill
#
# Bulk Modulus (GPa) = 37.79035 55.59190 46.69112
# Shear Modulus (GPa) = 33.96734 43.98189 38.97462
#
# Velocity S-wave (km/s) = 4.17619 4.75211 4.47343
# Velocity P-wave (km/s) = 6.53128 7.65858 7.11728
#
# Compressibility (1/GPa) = 0.02646178
#
# Stress axis : x y z
#
# Youngs Moduli (GPa) = 60.26581 141.98546 73.34124
#
# Poissons Ratio (x) = 0.00461 0.02820
# Poissons Ratio (y) = 0.00196 0.36580
# Poissons Ratio (z) = 0.02317 0.70818
#
# Static dielectric constant tensor:
#      x y z
#    x 1.698820 0.000000 0.000000 
#    y 0.000000 1.688990 0.000000 
#    z 0.000000 0.000000 1.644930 
# 
# From -- ./inp_files/19932.got.cif
#   From: 2010.05.17/outbox.cif.g08.bks.cpg/sg38_10_cif.got.tgz:19932.got - 2010.06.03 18:07:57.
