data_PCOD9356218
_publ_section_title
;
Structure prediction by ZEFSAII (Michael W. Deem and Ramdas Pophale) SiO2 
 PCOD9356218
Probable space group: A M M 2
;
_chemical_formula_sum "Si O2"
_cell_formula_units_Z 64
_cell_length_a 8.658924
_cell_length_b 17.741531
_cell_length_c 21.128095
_cell_angle_alpha 90.000000
_cell_angle_beta 90.000000
_cell_angle_gamma 90.000000
_cell_volume 3245.752223
_symmetry_space_group_name_H-M "A M M 2"
_symmetry_group_IT_number 38
_symmetry_cell_setting 'orthorhombic'
loop_
_space_group_symop_operation_xyz
x,y,z
-x,-y,z
-x,y,z
x,-y,z
x,1/2+y,1/2+z
-x,1/2-y,1/2+z
-x,1/2+y,1/2+z
x,1/2-y,1/2+z
loop_
_atom_site_type_symbol
_atom_site_label
_atom_site_fract_x
_atom_site_fract_y
_atom_site_fract_z
Si Si1 0.314805 0.584523 0.796130
Si Si2 0.314805 0.915477 0.836469
Si Si3 0.315797 0.868929 0.696169
Si Si4 0.684203 0.631071 0.936429
Si Si5 0.183513 0.868040 0.566299
Si Si6 0.816822 0.799859 0.935325
Si Si7 0.315779 0.302659 0.566299
Si Si8 0.183178 0.299859 0.697274
O O1 0.500000 0.596320 0.790273
O O2 0.278346 0.500000 0.774140
O O3 0.277131 0.591395 0.870463
O O4 0.229337 0.647063 0.755163
O O5 0.500000 0.903680 0.842326
O O6 0.277132 0.908605 0.762136
O O7 0.229337 0.852937 0.877435
O O8 0.278346 0.000000 0.858459
O O9 0.500000 0.870569 0.687432
O O10 0.238503 0.902038 0.632849
O O11 0.261066 0.782242 0.704064
O O12 0.500000 0.629431 0.945167
O O13 0.738934 0.717758 0.928534
O O14 0.761497 0.597962 0.999750
O O15 0.261703 0.784923 0.566299
O O16 0.000000 0.860357 0.566299
O O17 0.000000 0.789965 0.939600
O O18 0.752898 0.834228 0.001160
O O19 0.500000 0.306789 0.566299
O O20 0.247102 0.334228 0.631439
O O21 0.000000 0.289965 0.692999
#
# Coordination Sequence:
#
# PCOD9356218 Si02
#       8
#     8   8   8   8   8   8   8   8
#     4  10  22  39  56  76 105 142 183 223 262 309
#     4  10  22  39  56  76 105 142 183 223 262 309
#     4  10  19  34  57  81 106 139 179 220 262 312
#     4  10  19  34  57  81 106 139 179 220 262 312
#     4  10  18  30  51  80 111 137 169 218 269 315
#     4  11  21  34  55  83 112 139 172 217 267 318
#     4  10  18  32  55  80 107 138 175 218 261 310
#     4  11  21  34  55  83 112 139 172 217 267 318
#
# _framework density 19.718078999999999
#
# number of rings (size 3 to 8) (size 9 to 14) (size 15 to 20)
#    0.000    1.750    0.000    9.000    0.000    5.500 
#    0.000    1.250    0.000    7.500    0.000    0.000 
#    0.000    0.000    0.000    0.000    0.000    0.000 
#
# Total GULP energy -178739.757646 kJ/mol
# GULP energy per Si atom -5585.617426 kJ/mol
# Density = 1.967320 g / cm^3
# Si number density = 19.718079 Si / 1000 Ang^3
#
#
#
# Elastic Constant Matrix: (Units=GPa)
#
#
# Indices 1 2 3 4 5 6 
#
# 1 39.0153 0.6304 24.5008 0.0000 0.0000 0.0000
# 2 0.6304 41.0566 15.7971 0.0000 0.0000 0.0000
# 3 24.5008 15.7971 100.2808 0.0000 0.0000 0.0000
# 4 0.0000 0.0000 0.0000 -20.9574 0.0000 0.0000
# 5 0.0000 0.0000 0.0000 0.0000 771.6382 0.0000
# 6 0.0000 0.0000 0.0000 0.0000 0.0000 40.7727
#
#
#
# Elastic Compliance Matrix: (Units=1/GPa)
#
#
# Indices 1 2 3 4 5 6 
#
# 1 0.030526 0.002556 -0.007861 0.000000 0.000000 0.000000
# 2 0.002556 0.026142 -0.004743 0.000000 0.000000 0.000000
# 3 -0.007861 -0.004743 0.012640 0.000000 0.000000 0.000000
# 4 0.000000 0.000000 0.000000 -0.047716 0.000000 0.000000
# 5 0.000000 0.000000 0.000000 0.000000 0.001296 0.000000
# 6 0.000000 0.000000 0.000000 0.000000 0.000000 0.024526
#
#
# Mechanical properties :
#
#
# Convention : Reuss Voigt Hill
#
# Bulk Modulus (GPa) = 20.31989 29.13436 24.72713
# Shear Modulus (GPa) = 59.58502 167.58564 113.58533
#
# Velocity S-wave (km/s) = 5.50310 9.22905 7.59801
# Velocity P-wave (km/s) = 7.12084 11.33026 9.46258
#
# Compressibility (1/GPa) = 0.04921286
#
# Stress axis : x y z
#
# Youngs Moduli (GPa) = 32.75880 38.25237 79.11603
#
# Poissons Ratio (x) = -0.09777 0.62192
# Poissons Ratio (y) = -0.08373 0.37521
# Poissons Ratio (z) = 0.25751 0.18142
#
# Static dielectric constant tensor:
#      x y z
#    x 1.660460 0.000000 0.000000 
#    y 0.000000 1.661380 0.000000 
#    z 0.000000 0.000000 1.742640 
# 
# From -- ./inp_files/20095.got.cif
#   From: 2010.05.17/outbox.cif.g08.bks.cpg/sg38_11_cif.got.tgz:20095.got - 2010.06.03 18:07:57.
