data_PCOD9356589
_publ_section_title
;
Structure prediction by ZEFSAII (Michael W. Deem and Ramdas Pophale) SiO2 
 PCOD9356589
Probable space group: A M M 2
;
_chemical_formula_sum "Si O2"
_cell_formula_units_Z 48
_cell_length_a 7.349422
_cell_length_b 13.263181
_cell_length_c 20.375374
_cell_angle_alpha 90.000000
_cell_angle_beta 90.000000
_cell_angle_gamma 90.000000
_cell_volume 1986.124509
_symmetry_space_group_name_H-M "A M M 2"
_symmetry_group_IT_number 38
_symmetry_cell_setting 'orthorhombic'
loop_
_space_group_symop_operation_xyz
x,y,z
-x,-y,z
-x,y,z
x,-y,z
x,1/2+y,1/2+z
-x,1/2-y,1/2+z
-x,1/2+y,1/2+z
x,1/2-y,1/2+z
loop_
_atom_site_type_symbol
_atom_site_label
_atom_site_fract_x
_atom_site_fract_y
_atom_site_fract_z
Si Si1 0.276981 0.314382 0.590520
Si Si2 0.294555 0.500000 0.670292
Si Si3 0.290409 0.378460 0.309828
Si Si4 0.781837 0.108177 0.443166
Si Si5 0.722494 0.616150 0.163196
Si Si6 0.297071 0.170147 0.951511
Si Si7 0.216057 0.000000 0.317719
O O1 0.500000 0.309291 0.587966
O O2 0.216656 0.395201 0.644638
O O3 0.218476 0.201930 0.611999
O O4 0.213764 0.360295 0.520776
O O5 0.500000 0.500000 0.643848
O O6 0.301478 0.500000 0.747995
O O7 0.500000 0.341477 0.310344
O O8 0.290746 0.500000 0.310808
O O9 0.217468 0.352866 0.237399
O O10 0.209508 0.345640 0.380116
O O11 0.693053 0.210006 0.464285
O O12 0.739268 0.092892 0.365708
O O13 0.000000 0.116233 0.450041
O O14 0.726299 0.000000 0.473487
O O15 0.500000 0.615040 0.164524
O O16 0.778885 0.500000 0.150104
O O17 0.500000 0.125474 0.946858
O O18 0.000000 0.000000 0.308736
#
# Coordination Sequence:
#
# PCOD9356589 Si02
#       7
#     8   4   8   8   8   8   4
#     4   9  19  30  42  69 107 137 156 197 260 299
#     4  10  20  32  50  74 108 141 168 206 251 306
#     4   8  15  26  43  66  93 125 159 199 242 290
#     4   8  18  35  51  70 100 133 162 203 264 311
#     4   8  14  26  41  59  89 127 160 192 239 291
#     4  10  19  29  48  76 100 127 168 208 243 299
#     4   8  18  36  54  72  98 133 170 210 257 310
#
# _framework density 24.167670000000001
#
# number of rings (size 3 to 8) (size 9 to 14) (size 15 to 20)
#    0.500    2.833    0.000    1.000    3.500    1.667 
#    0.000    2.500    0.000    0.500    0.000    0.000 
#    0.000    0.000    0.000    0.000    0.000    0.000 
#
# Total GULP energy -133700.016119 kJ/mol
# GULP energy per Si atom -5570.834005 kJ/mol
# Density = 2.411266 g / cm^3
# Si number density = 24.167670 Si / 1000 Ang^3
#
#
#
# Elastic Constant Matrix: (Units=GPa)
#
#
# Indices 1 2 3 4 5 6 
#
# 1 84.9942 3.1552 1.6296 0.0000 0.0000 0.0000
# 2 3.1552 68.7694 17.3324 0.0000 0.0000 0.0000
# 3 1.6296 17.3324 121.3601 0.0000 0.0000 0.0000
# 4 0.0000 0.0000 0.0000 1.1142 0.0000 0.0000
# 5 0.0000 0.0000 0.0000 0.0000 28.0347 0.0000
# 6 0.0000 0.0000 0.0000 0.0000 0.0000 -11.2064
#
#
#
# Elastic Compliance Matrix: (Units=1/GPa)
#
#
# Indices 1 2 3 4 5 6 
#
# 1 0.011786 -0.000520 -0.000084 0.000000 0.000000 0.000000
# 2 -0.000520 0.015107 -0.002151 0.000000 0.000000 0.000000
# 3 -0.000084 -0.002151 0.008548 0.000000 0.000000 0.000000
# 4 0.000000 0.000000 0.000000 0.897528 0.000000 0.000000
# 5 0.000000 0.000000 0.000000 0.000000 0.035670 0.000000
# 6 0.000000 0.000000 0.000000 0.000000 0.000000 -0.089235
#
#
# Mechanical properties :
#
#
# Convention : Reuss Voigt Hill
#
# Bulk Modulus (GPa) = 33.40756 35.48423 34.44590
# Shear Modulus (GPa) = 5.58727 20.45560 13.02143
#
# Velocity S-wave (km/s) = 1.52214 2.91246 2.32372
# Velocity P-wave (km/s) = 4.11612 5.10140 4.63501
#
# Compressibility (1/GPa) = 0.02993335
#
# Stress axis : x y z
#
# Youngs Moduli (GPa) = 84.84344 66.19354 116.98355
#
# Poissons Ratio (x) = 0.03439 0.00983
# Poissons Ratio (y) = 0.04408 0.25158
# Poissons Ratio (z) = 0.00713 0.14236
#
# Static dielectric constant tensor:
#      x y z
#    x 1.907350 0.000000 0.000000 
#    y 0.000000 1.901700 0.000000 
#    z 0.000000 0.000000 1.962420 
# 
# From -- ./inp_files/20629.got.cif
#   From: 2010.05.17/outbox.cif.g08.bks.cpg/sg38_11_cif.got.tgz:20629.got - 2010.06.03 18:07:57.
