data_PCOD9356986
_publ_section_title
;
Structure prediction by ZEFSAII (Michael W. Deem and Ramdas Pophale) SiO2 
 PCOD9356986
Probable space group: A M M 2
;
_chemical_formula_sum "Si O2"
_cell_formula_units_Z 56
_cell_length_a 8.213965
_cell_length_b 22.802463
_cell_length_c 14.893466
_cell_angle_alpha 90.000000
_cell_angle_beta 90.000000
_cell_angle_gamma 90.000000
_cell_volume 2789.525822
_symmetry_space_group_name_H-M "A M M 2"
_symmetry_group_IT_number 38
_symmetry_cell_setting 'orthorhombic'
loop_
_space_group_symop_operation_xyz
x,y,z
-x,-y,z
-x,y,z
x,-y,z
x,1/2+y,1/2+z
-x,1/2-y,1/2+z
-x,1/2+y,1/2+z
x,1/2-y,1/2+z
loop_
_atom_site_type_symbol
_atom_site_label
_atom_site_fract_x
_atom_site_fract_y
_atom_site_fract_z
Si Si1 0.304488 0.112681 0.264650
Si Si2 0.301012 0.500000 0.446039
Si Si3 0.196161 0.645698 0.952535
Si Si4 0.191749 0.856461 0.652860
Si Si5 0.300577 0.500000 0.653090
Si Si6 0.308164 0.775952 0.155837
Si Si7 0.308023 0.116072 0.842387
Si Si8 0.192485 0.780321 0.962061
O O1 0.500000 0.113963 0.256855
O O2 0.259294 0.109214 0.368750
O O3 0.245938 0.057928 0.205995
O O4 0.244727 0.174197 0.222853
O O5 0.500000 0.500000 0.444838
O O6 0.248938 0.500000 0.549573
O O7 0.247687 0.558510 0.394404
O O8 0.245969 0.713968 0.939417
O O9 0.000000 0.643918 0.952272
O O10 0.251346 0.627891 0.052546
O O11 0.219955 0.786417 0.662589
O O12 0.276456 0.887135 0.736485
O O13 0.000000 0.868283 0.657659
O O14 0.500000 0.500000 0.653214
O O15 0.500000 0.765933 0.172114
O O16 0.282712 0.798162 0.053844
O O17 0.500000 0.121749 0.858495
O O18 0.226447 0.173936 0.883691
O O19 0.000000 0.778387 0.981133
#
# Coordination Sequence:
#
# PCOD9356986 Si02
#       8
#     8   4   8   8   4   8   8   8
#     4  10  20  33  54  79 104 137 177 218 264 311
#     4   9  20  38  58  79 108 140 175 223 276 323
#     4   9  20  36  53  74 106 143 176 212 263 320
#     4  10  21  37  54  77 110 146 178 219 276 331
#     4   9  18  36  56  77 106 138 169 211 266 319
#     4  10  19  32  53  83 112 142 181 224 267 320
#     4  11  21  35  57  82 106 141 185 229 274 325
#     4  10  20  34  53  80 113 148 178 216 273 331
#
# _framework density 20.075095999999998
#
# number of rings (size 3 to 8) (size 9 to 14) (size 15 to 20)
#    0.000    2.143    0.000    4.286    0.000    9.143 
#    0.000    2.500    0.000    6.000    0.000    0.000 
#    0.000    0.000    0.000    0.000    0.000    0.000 
#
# Total GULP energy -156382.726008 kJ/mol
# GULP energy per Si atom -5585.097357 kJ/mol
# Density = 2.002940 g / cm^3
# Si number density = 20.075096 Si / 1000 Ang^3
#
#
#
# Elastic Constant Matrix: (Units=GPa)
#
#
# Indices 1 2 3 4 5 6 
#
# 1 12.4117 0.3255 -7.2183 0.0000 0.0000 0.0000
# 2 0.3255 46.5169 60.4080 0.0000 0.0000 0.0000
# 3 -7.2183 60.4080 157.4489 0.0000 0.0000 0.0000
# 4 0.0000 0.0000 0.0000 34.9911 0.0000 0.0000
# 5 0.0000 0.0000 0.0000 0.0000 13.7069 0.0000
# 6 0.0000 0.0000 0.0000 0.0000 0.0000 -147.4348
#
#
#
# Elastic Compliance Matrix: (Units=1/GPa)
#
#
# Indices 1 2 3 4 5 6 
#
# 1 0.085687 -0.011362 0.008288 0.000000 0.000000 0.000000
# 2 -0.011362 0.044351 -0.017537 0.000000 0.000000 0.000000
# 3 0.008288 -0.017537 0.013460 0.000000 0.000000 0.000000
# 4 0.000000 0.000000 0.000000 0.028579 0.000000 0.000000
# 5 0.000000 0.000000 0.000000 0.000000 0.072956 0.000000
# 6 0.000000 0.000000 0.000000 0.000000 0.000000 -0.006783
#
#
# Mechanical properties :
#
#
# Convention : Reuss Voigt Hill
#
# Bulk Modulus (GPa) = 9.77760 35.93421 22.85591
# Shear Modulus (GPa) = 15.94576 -8.88986 3.52795
#
# Velocity S-wave (km/s) = 2.82140 -2.10664 1.32710
# Velocity P-wave (km/s) = 3.93635 3.46721 3.70920
#
# Compressibility (1/GPa) = 0.10227454
#
# Stress axis : x y z
#
# Youngs Moduli (GPa) = 11.67043 22.54749 74.29682
#
# Poissons Ratio (x) = 0.25618 -0.61574
# Poissons Ratio (y) = 0.13260 1.30293
# Poissons Ratio (z) = -0.09672 0.39541
#
# Static dielectric constant tensor:
#      x y z
#    x 1.696690 0.000000 0.000000 
#    y 0.000000 1.692130 0.000000 
#    z 0.000000 0.000000 1.715080 
# 
# From -- ./inp_files/12503.got.cif
#   From: 2010.05.17/outbox.cif.g08.bks.cpg/sg38_7_cif.got.tgz:12503.got - 2010.06.03 18:07:57.
