data_PCOD9356338
_publ_section_title
;
Structure prediction by ZEFSAII (Michael W. Deem and Ramdas Pophale) SiO2 
 PCOD9356338
Probable space group: A M M 2
;
_chemical_formula_sum "Si O2"
_cell_formula_units_Z 64
_cell_length_a 8.317291
_cell_length_b 33.586932
_cell_length_c 12.041441
_cell_angle_alpha 90.000000
_cell_angle_beta 90.000000
_cell_angle_gamma 90.000000
_cell_volume 3363.804085
_symmetry_space_group_name_H-M "A M M 2"
_symmetry_group_IT_number 38
_symmetry_cell_setting 'orthorhombic'
loop_
_space_group_symop_operation_xyz
x,y,z
-x,-y,z
-x,y,z
x,-y,z
x,1/2+y,1/2+z
-x,1/2-y,1/2+z
-x,1/2+y,1/2+z
x,1/2-y,1/2+z
loop_
_atom_site_type_symbol
_atom_site_label
_atom_site_fract_x
_atom_site_fract_y
_atom_site_fract_z
Si Si1 0.313582 0.684891 0.273790
Si Si2 0.684569 0.603299 0.641718
Si Si3 0.191271 0.229611 0.214698
Si Si4 0.305319 0.046436 0.705843
Si Si5 0.815955 0.825209 0.014727
Si Si6 0.193003 0.876188 0.587887
Si Si7 0.694724 0.453428 0.454740
Si Si8 0.192072 0.650433 0.845099
O O1 0.500000 0.678484 0.300365
O O2 0.283837 0.729750 0.232928
O O3 0.212024 0.680084 0.385785
O O4 0.260673 0.653391 0.181237
O O5 0.500000 0.593458 0.667034
O O6 0.697135 0.642024 0.563496
O O7 0.758055 0.569592 0.562042
O O8 0.767493 0.616424 0.755348
O O9 0.247062 0.192977 0.293961
O O10 0.000000 0.236231 0.234715
O O11 0.208360 0.214156 0.088446
O O12 0.500000 0.047132 0.704986
O O13 0.242803 0.078830 0.619217
O O14 0.251454 0.059094 0.831012
O O15 0.257698 0.000000 0.687922
O O16 0.000000 0.838246 0.037663
O O17 0.252077 0.861549 0.466836
O O18 0.000000 0.873806 0.589005
O O19 0.500000 0.448174 0.455422
O O20 0.728120 0.500000 0.463835
O O21 0.000000 0.653820 0.851408
#
# Coordination Sequence:
#
# PCOD9356338 Si02
#       8
#     8   8   8   8   8   8   8   8
#     4  12  25  37  55  85 116 142 181 239 291 336
#     4  10  18  31  56  84 109 139 180 231 280 329
#     4   9  20  39  59  78 104 145 189 229 280 343
#     4   9  18  35  59  86 118 153 188 236 298 350
#     4  10  21  38  58  78 106 145 183 220 270 337
#     4  11  23  39  59  83 112 154 201 239 285 348
#     4   8  15  29  51  80 112 143 175 218 277 340
#     4   9  21  40  58  76 107 153 194 230 279 344
#
# _framework density 19.026078999999999
#
# number of rings (size 3 to 8) (size 9 to 14) (size 15 to 20)
#    0.000    2.250    0.000    4.500    1.750    4.750 
#    0.000    1.250    0.000    5.250    0.000    0.000 
#    0.000    0.000    0.000    0.000    0.000    0.000 
#
# Total GULP energy -178504.471768 kJ/mol
# GULP energy per Si atom -5578.264743 kJ/mol
# Density = 1.898278 g / cm^3
# Si number density = 19.026079 Si / 1000 Ang^3
#
#
#
# Elastic Constant Matrix: (Units=GPa)
#
#
# Indices 1 2 3 4 5 6 
#
# 1 20.2682 5.8604 6.4446 0.0000 0.0000 0.0000
# 2 5.8604 68.5882 47.6466 0.0000 0.0000 0.0000
# 3 6.4446 47.6466 120.7625 0.0000 0.0000 0.0000
# 4 0.0000 0.0000 0.0000 13.7978 0.0000 0.0000
# 5 0.0000 0.0000 0.0000 0.0000 22.8946 0.0000
# 6 0.0000 0.0000 0.0000 0.0000 0.0000 51.0625
#
#
#
# Elastic Compliance Matrix: (Units=1/GPa)
#
#
# Indices 1 2 3 4 5 6 
#
# 1 0.050753 -0.003382 -0.001374 0.000000 0.000000 0.000000
# 2 -0.003382 0.020310 -0.007833 0.000000 0.000000 0.000000
# 3 -0.001374 -0.007833 0.011444 0.000000 0.000000 0.000000
# 4 0.000000 0.000000 0.000000 0.072475 0.000000 0.000000
# 5 0.000000 0.000000 0.000000 0.000000 0.043678 0.000000
# 6 0.000000 0.000000 0.000000 0.000000 0.000000 0.019584
#
#
# Mechanical properties :
#
#
# Convention : Reuss Voigt Hill
#
# Bulk Modulus (GPa) = 17.44291 36.61358 27.02825
# Shear Modulus (GPa) = 19.04522 27.52878 23.28700
#
# Velocity S-wave (km/s) = 3.16730 3.80794 3.50230
# Velocity P-wave (km/s) = 4.75011 6.21446 5.53096
#
# Compressibility (1/GPa) = 0.05732987
#
# Stress axis : x y z
#
# Youngs Moduli (GPa) = 19.70319 49.23679 87.37843
#
# Poissons Ratio (x) = 0.16652 0.12007
# Poissons Ratio (y) = 0.06664 0.68442
# Poissons Ratio (z) = 0.02708 0.38566
#
# Static dielectric constant tensor:
#      x y z
#    x 1.664400 0.000000 0.000000 
#    y 0.000000 1.656070 0.000000 
#    z 0.000000 0.000000 1.667970 
# 
# From -- ./inp_files/8541.got.cif
#   From: 2010.05.17/outbox.cif.g08.bks.cpg/sg38_5_cif.got.tgz:8541.got - 2010.06.03 18:07:57.
