data_PCOD9356733
_publ_section_title
;
Structure prediction by ZEFSAII (Michael W. Deem and Ramdas Pophale) SiO2 
 PCOD9356733
Probable space group: A M M 2
;
_chemical_formula_sum "Si O2"
_cell_formula_units_Z 64
_cell_length_a 18.670279
_cell_length_b 28.285051
_cell_length_c 7.709377
_cell_angle_alpha 90.000000
_cell_angle_beta 90.000000
_cell_angle_gamma 90.000000
_cell_volume 4071.243309
_symmetry_space_group_name_H-M "A M M 2"
_symmetry_group_IT_number 38
_symmetry_cell_setting 'orthorhombic'
loop_
_space_group_symop_operation_xyz
x,y,z
-x,-y,z
-x,y,z
x,-y,z
x,1/2+y,1/2+z
-x,1/2-y,1/2+z
-x,1/2+y,1/2+z
x,1/2-y,1/2+z
loop_
_atom_site_type_symbol
_atom_site_label
_atom_site_fract_x
_atom_site_fract_y
_atom_site_fract_z
Si Si1 0.339077 0.093663 0.672040
Si Si2 0.414631 0.188807 0.786395
Si Si3 0.416886 0.610710 0.840662
Si Si4 0.187648 0.557158 0.062803
Si Si5 0.193171 0.557256 0.659103
Si Si6 0.352900 0.944881 0.041596
Si Si7 0.584795 0.706572 0.693121
Si Si8 0.081504 0.442672 0.367105
O O1 0.366884 0.146348 0.714843
O O2 0.375545 0.082328 0.488447
O O3 0.255384 0.084237 0.643432
O O4 0.362687 0.063397 0.837859
O O5 0.500000 0.182103 0.744234
O O6 0.389510 0.240091 0.718796
O O7 0.408250 0.191145 0.994299
O O8 0.500000 0.613340 0.886562
O O9 0.406923 0.584878 0.657768
O O10 0.387408 0.664178 0.813884
O O11 0.200896 0.500000 0.073610
O O12 0.119486 0.567726 0.183573
O O13 0.180072 0.569780 0.859998
O O14 0.192597 0.500000 0.651448
O O15 0.272478 0.571470 0.595451
O O16 0.132633 0.573929 0.524306
O O17 0.359301 0.000000 0.082521
O O18 0.500000 0.709493 0.733195
O O19 0.079245 0.500000 0.378941
O O20 0.000000 0.425427 0.378324
#
# Coordination Sequence:
#
# PCOD9356733 Si02
#       8
#     8   8   8   8   8   8   8   8
#     4  12  21  32  53  74  96 132 173 209 253 307
#     4  10  19  32  51  73  96 125 164 210 262 315
#     4  11  23  37  52  72  97 128 174 224 263 300
#     4  10  19  31  48  70  98 134 170 201 243 299
#     4   9  17  31  49  66  90 129 169 201 241 292
#     4  11  22  36  52  69  95 134 177 214 251 300
#     4   9  18  34  52  71  96 123 158 210 269 323
#     4   9  17  29  47  72  97 122 161 208 245 288
#
# _framework density 15.720014000000001
#
# number of rings (size 3 to 8) (size 9 to 14) (size 15 to 20)
#    0.000    1.875    3.750    1.500    0.000    3.750 
#    0.000    2.500    0.000    3.375    0.000    0.000 
#    0.000    0.000    0.000   10.125    0.750    0.750 
#
# Total GULP energy -178370.117492 kJ/mol
# GULP energy per Si atom -5574.066172 kJ/mol
# Density = 1.568423 g / cm^3
# Si number density = 15.720014 Si / 1000 Ang^3
#
#
#
# Elastic Constant Matrix: (Units=GPa)
#
#
# Indices 1 2 3 4 5 6 
#
# 1 41.8333 11.7339 14.2459 0.0000 0.0000 0.0000
# 2 11.7339 40.8728 13.2431 0.0000 0.0000 0.0000
# 3 14.2459 13.2431 68.9892 0.0000 0.0000 0.0000
# 4 0.0000 0.0000 0.0000 24.3620 0.0000 0.0000
# 5 0.0000 0.0000 0.0000 0.0000 20.9581 0.0000
# 6 0.0000 0.0000 0.0000 0.0000 0.0000 2.0864
#
#
#
# Elastic Compliance Matrix: (Units=1/GPa)
#
#
# Indices 1 2 3 4 5 6 
#
# 1 0.027190 -0.006384 -0.004389 0.000000 0.000000 0.000000
# 2 -0.006384 0.027587 -0.003977 0.000000 0.000000 0.000000
# 3 -0.004389 -0.003977 0.016165 0.000000 0.000000 0.000000
# 4 0.000000 0.000000 0.000000 0.041048 0.000000 0.000000
# 5 0.000000 0.000000 0.000000 0.000000 0.047714 0.000000
# 6 0.000000 0.000000 0.000000 0.000000 0.000000 0.479286
#
#
# Mechanical properties :
#
#
# Convention : Reuss Voigt Hill
#
# Bulk Modulus (GPa) = 24.13035 25.57123 24.85079
# Shear Modulus (GPa) = 7.32812 16.97948 12.15380
#
# Velocity S-wave (km/s) = 2.16143 3.29008 2.78356
# Velocity P-wave (km/s) = 4.64892 5.54390 5.11602
#
# Compressibility (1/GPa) = 0.04144159
#
# Stress axis : x y z
#
# Youngs Moduli (GPa) = 36.77877 36.24833 61.86256
#
# Poissons Ratio (x) = 0.23139 0.27152
# Poissons Ratio (y) = 0.23478 0.24606
# Poissons Ratio (z) = 0.16143 0.14418
#
# Static dielectric constant tensor:
#      x y z
#    x 1.511080 0.000000 0.000000 
#    y 0.000000 1.528100 0.000000 
#    z 0.000000 0.000000 1.566850 
# 
# From -- ./inp_files/6579.got.cif
#   From: 2010.05.17/outbox.cif.g08.bks.cpg/sg38_4_cif.got.tgz:6579.got - 2010.06.03 18:07:57.
