data_PCOD9356444
_publ_section_title
;
Structure prediction by ZEFSAII (Michael W. Deem and Ramdas Pophale) SiO2 
 PCOD9356444
Probable space group: A M M 2
;
_chemical_formula_sum "Si O2"
_cell_formula_units_Z 64
_cell_length_a 7.893764
_cell_length_b 16.068484
_cell_length_c 24.596339
_cell_angle_alpha 90.000000
_cell_angle_beta 90.000000
_cell_angle_gamma 90.000000
_cell_volume 3119.819821
_symmetry_space_group_name_H-M "A M M 2"
_symmetry_group_IT_number 38
_symmetry_cell_setting 'orthorhombic'
loop_
_space_group_symop_operation_xyz
x,y,z
-x,-y,z
-x,y,z
x,-y,z
x,1/2+y,1/2+z
-x,1/2-y,1/2+z
-x,1/2+y,1/2+z
x,1/2-y,1/2+z
loop_
_atom_site_type_symbol
_atom_site_label
_atom_site_fract_x
_atom_site_fract_y
_atom_site_fract_z
Si Si1 0.706806 0.654390 0.385310
Si Si2 0.797269 0.908674 0.502366
Si Si3 0.201338 0.250563 0.195170
Si Si4 0.704207 0.591861 0.268109
Si Si5 0.295996 0.908278 0.266715
Si Si6 0.203929 0.247421 0.572179
Si Si7 0.295279 0.907986 0.002649
Si Si8 0.295081 0.652361 0.884309
O O1 0.500000 0.652324 0.385033
O O2 0.763968 0.612103 0.329432
O O3 0.762563 0.611294 0.441004
O O4 0.758057 0.751038 0.385697
O O5 0.729836 0.831160 0.537389
O O6 0.763690 0.892080 0.438913
O O7 0.000000 0.910193 0.509850
O O8 0.730147 0.000000 0.517722
O O9 0.249972 0.332673 0.228727
O O10 0.252502 0.167613 0.227413
O O11 0.270533 0.252296 0.133763
O O12 0.000000 0.249544 0.191491
O O13 0.500000 0.589690 0.270187
O O14 0.764435 0.500000 0.251083
O O15 0.500000 0.910905 0.269144
O O16 0.235698 0.888260 0.327996
O O17 0.235395 0.000000 0.249469
O O18 0.242542 0.333130 0.541486
O O19 0.000000 0.239834 0.574187
O O20 0.500000 0.908591 0.001705
O O21 0.237107 0.000000 0.019580
O O22 0.500000 0.650610 0.884221
#
# Coordination Sequence:
#
# PCOD9356444 Si02
#       8
#     8   8   8   8   8   8   8   8
#     4   9  16  31  57  86 115 144 174 217 276 336
#     4  10  21  37  57  81 110 145 184 226 274 329
#     4  11  24  40  58  80 111 151 193 238 281 327
#     4  10  20  37  62  88 115 148 185 227 277 335
#     4  10  21  38  60  85 114 148 186 230 281 337
#     4  10  23  41  57  76 107 150 192 230 276 325
#     4  10  20  35  58  87 114 142 179 224 275 330
#     4  10  18  33  59  86 113 145 178 220 276 334
#
# _framework density 20.514005999999998
#
# number of rings (size 3 to 8) (size 9 to 14) (size 15 to 20)
#    0.000    2.000    2.500    1.125    0.000    5.500 
#    0.000    4.375    0.000    1.500    0.000    0.000 
#    0.000    0.000    0.000    0.000    0.000    0.000 
#
# Total GULP energy -178728.501370 kJ/mol
# GULP energy per Si atom -5585.265668 kJ/mol
# Density = 2.046731 g / cm^3
# Si number density = 20.514006 Si / 1000 Ang^3
#
#
#
# Elastic Constant Matrix: (Units=GPa)
#
#
# Indices 1 2 3 4 5 6 
#
# 1 20.4728 12.3311 6.7765 0.0000 0.0000 0.0000
# 2 12.3311 222.7437 106.4553 0.0000 0.0000 0.0000
# 3 6.7765 106.4553 172.5465 0.0000 0.0000 0.0000
# 4 0.0000 0.0000 0.0000 1.7548 0.0000 0.0000
# 5 0.0000 0.0000 0.0000 0.0000 15.1915 0.0000
# 6 0.0000 0.0000 0.0000 0.0000 0.0000 12.5749
#
#
#
# Elastic Compliance Matrix: (Units=1/GPa)
#
#
# Indices 1 2 3 4 5 6 
#
# 1 0.050547 -0.002623 -0.000367 0.000000 0.000000 0.000000
# 2 -0.002623 0.006503 -0.003909 0.000000 0.000000 0.000000
# 3 -0.000367 -0.003909 0.008222 0.000000 0.000000 0.000000
# 4 0.000000 0.000000 0.000000 0.569852 0.000000 0.000000
# 5 0.000000 0.000000 0.000000 0.000000 0.065826 0.000000
# 6 0.000000 0.000000 0.000000 0.000000 0.000000 0.079524
#
#
# Mechanical properties :
#
#
# Convention : Reuss Voigt Hill
#
# Bulk Modulus (GPa) = 19.42750 74.09875 46.76312
# Shear Modulus (GPa) = 6.16197 25.25092 15.70645
#
# Velocity S-wave (km/s) = 1.73502 3.51224 2.77003
# Velocity P-wave (km/s) = 3.67487 7.25584 5.75117
#
# Compressibility (1/GPa) = 0.05147343
#
# Stress axis : x y z
#
# Youngs Moduli (GPa) = 19.78375 153.77709 121.62920
#
# Poissons Ratio (x) = 0.40334 0.04463
# Poissons Ratio (y) = 0.05189 0.47546
# Poissons Ratio (z) = 0.00726 0.60113
#
# Static dielectric constant tensor:
#      x y z
#    x 1.750640 0.000000 0.000000 
#    y 0.000000 0.700990 0.000000 
#    z 0.000000 0.000000 1.707930 
# 
# From -- ./inp_files/22119.got.cif
#   From: 2010.05.17/outbox.cif.g08.bks.cpg/sg38_12_cif.got.tgz:22119.got - 2010.06.03 18:07:57.
