data_PCOD9356229
_publ_section_title
;
Structure prediction by ZEFSAII (Michael W. Deem and Ramdas Pophale) SiO2 
 PCOD9356229
Probable space group: A M M 2
;
_chemical_formula_sum "Si O2"
_cell_formula_units_Z 40
_cell_length_a 8.592379
_cell_length_b 9.992681
_cell_length_c 26.475933
_cell_angle_alpha 90.000000
_cell_angle_beta 90.000000
_cell_angle_gamma 90.000000
_cell_volume 2273.247499
_symmetry_space_group_name_H-M "A M M 2"
_symmetry_group_IT_number 38
_symmetry_cell_setting 'orthorhombic'
loop_
_space_group_symop_operation_xyz
x,y,z
-x,-y,z
-x,y,z
x,-y,z
x,1/2+y,1/2+z
-x,1/2-y,1/2+z
-x,1/2+y,1/2+z
x,1/2-y,1/2+z
loop_
_atom_site_type_symbol
_atom_site_label
_atom_site_fract_x
_atom_site_fract_y
_atom_site_fract_z
Si Si1 0.812960 0.715802 0.819640
Si Si2 0.687218 0.000000 0.396362
Si Si3 0.689201 0.000000 0.513543
Si Si4 0.186976 0.500000 0.737604
Si Si5 0.685346 0.000000 0.847310
Si Si6 0.814315 0.000000 0.960960
Si Si7 0.687038 0.000000 0.125047
Si Si8 0.688738 0.291778 0.540795
O O1 0.750986 0.629739 0.867094
O O2 0.764840 0.629910 0.770368
O O3 0.000000 0.718624 0.821883
O O4 0.748210 0.864962 0.821661
O O5 0.500000 0.000000 0.393919
O O6 0.735325 0.000000 0.454741
O O7 0.739543 0.138105 0.539104
O O8 0.500000 0.000000 0.514444
O O9 0.248412 0.500000 0.681113
O O10 0.000000 0.500000 0.736321
O O11 0.743685 0.000000 0.905225
O O12 0.500000 0.000000 0.846625
O O13 0.756111 0.127529 0.993145
O O14 0.000000 0.000000 0.957696
O O15 0.734539 0.871870 0.091251
O O16 0.500000 0.000000 0.127815
O O17 0.500000 0.297772 0.537103
#
# Coordination Sequence:
#
# PCOD9356229 Si02
#       8
#     8   4   4   4   4   4   4   8
#     4  10  21  37  54  76 105 140 177 217 265 319
#     4  10  18  30  52  81 108 143 182 214 252 309
#     4   9  17  30  51  75 104 137 168 204 254 303
#     4   9  20  38  59  76  99 134 171 214 266 319
#     4  12  23  35  53  79 109 140 172 217 267 316
#     4  11  21  33  51  76 107 146 180 209 249 310
#     4   9  18  32  54  77 101 134 175 220 262 307
#     4   9  18  34  53  77 106 138 176 219 260 303
#
# _framework density 17.595973000000001
#
# number of rings (size 3 to 8) (size 9 to 14) (size 15 to 20)
#    0.000    2.200    0.000    5.100    0.000    5.600 
#    0.000    2.500    0.000    1.200    0.000    0.000 
#    0.000    0.000    0.000    0.000    0.000    0.000 
#
# Total GULP energy -111643.830926 kJ/mol
# GULP energy per Si atom -5582.191546 kJ/mol
# Density = 1.755592 g / cm^3
# Si number density = 17.595973 Si / 1000 Ang^3
#
#
#
# Elastic Constant Matrix: (Units=GPa)
#
#
# Indices 1 2 3 4 5 6 
#
# 1 58.1200 42.0771 34.7127 0.0000 0.0000 0.0000
# 2 42.0771 200.2257 91.5291 0.0000 0.0000 0.0000
# 3 34.7127 91.5291 146.5061 0.0000 0.0000 0.0000
# 4 0.0000 0.0000 0.0000 1.9665 0.0000 0.0000
# 5 0.0000 0.0000 0.0000 0.0000 45.1389 0.0000
# 6 0.0000 0.0000 0.0000 0.0000 0.0000 23.9513
#
#
#
# Elastic Compliance Matrix: (Units=1/GPa)
#
#
# Indices 1 2 3 4 5 6 
#
# 1 0.021282 -0.003034 -0.003147 0.000000 0.000000 0.000000
# 2 -0.003034 0.007423 -0.003919 0.000000 0.000000 0.000000
# 3 -0.003147 -0.003919 0.010020 0.000000 0.000000 0.000000
# 4 0.000000 0.000000 0.000000 0.508520 0.000000 0.000000
# 5 0.000000 0.000000 0.000000 0.000000 0.022154 0.000000
# 6 0.000000 0.000000 0.000000 0.000000 0.000000 0.041751
#
#
# Mechanical properties :
#
#
# Convention : Reuss Voigt Hill
#
# Bulk Modulus (GPa) = 53.98036 82.38773 68.18405
# Shear Modulus (GPa) = 7.84283 29.98019 18.91151
#
# Velocity S-wave (km/s) = 2.11349 4.13220 3.28192
# Velocity P-wave (km/s) = 6.05806 8.34807 7.29351
#
# Compressibility (1/GPa) = 0.01852525
#
# Stress axis : x y z
#
# Youngs Moduli (GPa) = 46.98867 134.71036 99.80372
#
# Poissons Ratio (x) = 0.40866 0.31410
# Poissons Ratio (y) = 0.14255 0.39112
# Poissons Ratio (z) = 0.14788 0.52792
#
# Static dielectric constant tensor:
#      x y z
#    x 1.592710 0.000000 0.000000 
#    y 0.000000 1.607680 0.000000 
#    z 0.000000 0.000000 1.567330 
# 
# From -- ./inp_files/23317.got.cif
#   From: 2010.05.17/outbox.cif.g08.bks.cpg/sg38_12_cif.got.tgz:23317.got - 2010.06.03 18:07:57.
