data_PCOD9356516
_publ_section_title
;
Structure prediction by ZEFSAII (Michael W. Deem and Ramdas Pophale) SiO2 
 PCOD9356516
Probable space group: A M M 2
;
_chemical_formula_sum "Si O2"
_cell_formula_units_Z 56
_cell_length_a 9.162761
_cell_length_b 13.956691
_cell_length_c 29.695787
_cell_angle_alpha 90.000000
_cell_angle_beta 90.000000
_cell_angle_gamma 90.000000
_cell_volume 3797.551406
_symmetry_space_group_name_H-M "A M M 2"
_symmetry_group_IT_number 38
_symmetry_cell_setting 'orthorhombic'
loop_
_space_group_symop_operation_xyz
x,y,z
-x,-y,z
-x,y,z
x,-y,z
x,1/2+y,1/2+z
-x,1/2-y,1/2+z
-x,1/2+y,1/2+z
x,1/2-y,1/2+z
loop_
_atom_site_type_symbol
_atom_site_label
_atom_site_fract_x
_atom_site_fract_y
_atom_site_fract_z
Si Si1 0.674441 0.788875 0.554450
Si Si2 0.827036 0.706161 0.415030
Si Si3 0.173644 0.389636 0.971156
Si Si4 0.167808 0.116229 0.739985
Si Si5 0.824377 0.886167 0.638665
Si Si6 0.174285 0.388719 0.510782
Si Si7 0.673784 0.112671 0.830659
O O1 0.500000 0.789301 0.554863
O O2 0.736145 0.857262 0.514741
O O3 0.740291 0.827353 0.600989
O O4 0.737040 0.684174 0.541899
O O5 0.794077 0.814125 0.431554
O O6 0.795034 0.640634 0.458893
O O7 0.740429 0.671422 0.371825
O O8 0.000000 0.698827 0.405982
O O9 0.201154 0.500000 0.959754
O O10 0.000000 0.379016 0.981515
O O11 0.215129 0.144623 0.689674
O O12 0.263789 0.145734 0.782431
O O13 0.000000 0.146392 0.746776
O O14 0.168525 0.000000 0.739064
O O15 0.000000 0.875171 0.633856
O O16 0.793379 0.000000 0.633625
O O17 0.207608 0.500000 0.518225
O O18 0.000000 0.373807 0.517449
O O19 0.500000 0.119029 0.830659
O O20 0.714429 0.000000 0.836304
#
# Coordination Sequence:
#
# PCOD9356516 Si02
#       7
#     8   8   8   8   8   8   8
#     4  11  21  29  42  67  95 120 145 176 220 269
#     4   9  17  29  46  66  85 110 146 182 217 256
#     4   9  18  33  49  63  84 116 153 190 221 252
#     4   8  15  28  45  63  83 111 147 183 216 251
#     4   9  17  30  47  65  87 117 151 184 217 256
#     4   9  18  33  50  65  84 115 154 190 219 251
#     4  10  19  28  40  62  92 121 144 171 213 263
#
# _framework density 14.746344000000001
#
# number of rings (size 3 to 8) (size 9 to 14) (size 15 to 20)
#    0.000    2.714    0.000    4.286    0.000    6.857 
#    0.000    1.429    0.000    0.000    0.000    1.000 
#    0.000    3.429    0.000    0.000    0.000    0.000 
#
# Total GULP energy -156052.117137 kJ/mol
# GULP energy per Si atom -5573.289898 kJ/mol
# Density = 1.471278 g / cm^3
# Si number density = 14.746344 Si / 1000 Ang^3
#
#
#
# Elastic Constant Matrix: (Units=GPa)
#
#
# Indices 1 2 3 4 5 6 
#
# 1 60.5732 50.0055 74.1962 0.0000 0.0000 0.0000
# 2 50.0055 94.1188 65.0720 0.0000 0.0000 0.0000
# 3 74.1962 65.0720 141.7988 0.0000 0.0000 0.0000
# 4 0.0000 0.0000 0.0000 22.2110 0.0000 0.0000
# 5 0.0000 0.0000 0.0000 0.0000 -7.4413 0.0000
# 6 0.0000 0.0000 0.0000 0.0000 0.0000 13.2822
#
#
#
# Elastic Compliance Matrix: (Units=1/GPa)
#
#
# Indices 1 2 3 4 5 6 
#
# 1 0.056219 -0.013960 -0.023010 0.000000 0.000000 0.000000
# 2 -0.013960 0.019029 -0.001428 0.000000 0.000000 0.000000
# 3 -0.023010 -0.001428 0.019747 0.000000 0.000000 0.000000
# 4 0.000000 0.000000 0.000000 0.045023 0.000000 0.000000
# 5 0.000000 0.000000 0.000000 0.000000 -0.134385 0.000000
# 6 0.000000 0.000000 0.000000 0.000000 0.000000 0.075289
#
#
# Mechanical properties :
#
#
# Convention : Reuss Voigt Hill
#
# Bulk Modulus (GPa) = 54.94798 75.00425 64.97611
# Shear Modulus (GPa) = 30.52798 12.75820 21.64309
#
# Velocity S-wave (km/s) = 4.55489 2.94458 3.83520
# Velocity P-wave (km/s) = 8.06261 7.90785 7.98560
#
# Compressibility (1/GPa) = 0.01819903
#
# Stress axis : x y z
#
# Youngs Moduli (GPa) = 17.78764 52.55072 50.63948
#
# Poissons Ratio (x) = 0.73363 1.16521
# Poissons Ratio (y) = 0.24832 0.07230
# Poissons Ratio (z) = 0.40929 0.07503
#
# Static dielectric constant tensor:
#      x y z
#    x 1.486830 0.000000 0.000000 
#    y 0.000000 1.479620 0.000000 
#    z 0.000000 0.000000 1.476670 
# 
# From -- ./inp_files/24636.got.cif
#   From: 2010.05.17/outbox.cif.g08.bks.cpg/sg38_13_cif.got.tgz:24636.got - 2010.06.03 18:07:57.
