data_PCOD9356734
_publ_section_title
;
Structure prediction by ZEFSAII (Michael W. Deem and Ramdas Pophale) SiO2 
 PCOD9356734
Probable space group: A M M 2
;
_chemical_formula_sum "Si O2"
_cell_formula_units_Z 56
_cell_length_a 14.791270
_cell_length_b 8.762565
_cell_length_c 25.136552
_cell_angle_alpha 90.000000
_cell_angle_beta 90.000000
_cell_angle_gamma 90.000000
_cell_volume 3257.935052
_symmetry_space_group_name_H-M "A M M 2"
_symmetry_group_IT_number 38
_symmetry_cell_setting 'orthorhombic'
loop_
_space_group_symop_operation_xyz
x,y,z
-x,-y,z
-x,y,z
x,-y,z
x,1/2+y,1/2+z
-x,1/2-y,1/2+z
-x,1/2+y,1/2+z
x,1/2-y,1/2+z
loop_
_atom_site_type_symbol
_atom_site_label
_atom_site_fract_x
_atom_site_fract_y
_atom_site_fract_z
Si Si1 0.809175 0.681680 0.060860
Si Si2 0.105351 0.815500 0.866991
Si Si3 0.604141 0.183696 0.871054
Si Si4 0.195693 0.683241 0.676552
Si Si5 0.254853 0.182779 0.780625
Si Si6 0.000000 0.171698 0.055922
Si Si7 0.248893 0.817453 0.447683
Si Si8 0.000000 0.670914 0.684138
O O1 0.809583 0.500000 0.067709
O O2 0.784913 0.756218 0.117463
O O3 0.909130 0.738115 0.044151
O O4 0.749239 0.723982 0.009980
O O5 0.166125 0.771352 0.815484
O O6 0.161701 0.752101 0.917195
O O7 0.000000 0.767021 0.864769
O O8 0.106764 0.000000 0.869715
O O9 0.500000 0.231576 0.869983
O O10 0.658860 0.219637 0.817156
O O11 0.662682 0.257927 0.917722
O O12 0.607616 0.000000 0.877171
O O13 0.189625 0.500000 0.673807
O O14 0.259344 0.736842 0.723803
O O15 0.096223 0.745843 0.694726
O O16 0.250818 0.000000 0.773317
O O17 0.000000 0.156747 0.120059
O O18 0.000000 0.000000 0.033199
O O19 0.242678 0.000000 0.443756
O O20 0.000000 0.500000 0.707843
#
# Coordination Sequence:
#
# PCOD9356734 Si02
#       8
#     8   8   8   8   8   4   8   4
#     4  10  20  33  48  70 104 142 177 213 257 305
#     4   9  19  34  50  71 101 141 181 215 256 308
#     4   9  19  38  62  82 101 130 169 213 264 324
#     4  10  19  31  48  71 101 138 180 217 253 297
#     4   9  18  32  51  76 104 131 168 213 260 314
#     4   9  17  29  45  66  93 132 181 220 248 284
#     4  10  21  34  51  78 107 135 172 216 263 313
#     4   7  14  27  39  58  89 126 169 208 236 272
#
# _framework density 17.188801999999999
#
# number of rings (size 3 to 8) (size 9 to 14) (size 15 to 20)
#    0.000    2.714    0.000    3.214    2.000    5.143 
#    0.000    0.714    0.000    0.857    0.000    2.000 
#    0.000    0.000    0.000    0.000    0.000    0.000 
#
# Total GULP energy -155995.147104 kJ/mol
# GULP energy per Si atom -5571.255254 kJ/mol
# Density = 1.714968 g / cm^3
# Si number density = 17.188802 Si / 1000 Ang^3
#
#
#
# Elastic Constant Matrix: (Units=GPa)
#
#
# Indices 1 2 3 4 5 6 
#
# 1 112.8165 28.8140 61.2217 0.0000 0.0000 0.0000
# 2 28.8140 32.3623 47.0303 0.0000 0.0000 0.0000
# 3 61.2217 47.0303 144.3959 0.0000 0.0000 0.0000
# 4 0.0000 0.0000 0.0000 26.0575 0.0000 0.0000
# 5 0.0000 0.0000 0.0000 0.0000 9.9806 0.0000
# 6 0.0000 0.0000 0.0000 0.0000 0.0000 17.2792
#
#
#
# Elastic Compliance Matrix: (Units=1/GPa)
#
#
# Indices 1 2 3 4 5 6 
#
# 1 0.012160 -0.006331 -0.003094 0.000000 0.000000 0.000000
# 2 -0.006331 0.061967 -0.017499 0.000000 0.000000 0.000000
# 3 -0.003094 -0.017499 0.013936 0.000000 0.000000 0.000000
# 4 0.000000 0.000000 0.000000 0.038377 0.000000 0.000000
# 5 0.000000 0.000000 0.000000 0.000000 0.100195 0.000000
# 6 0.000000 0.000000 0.000000 0.000000 0.000000 0.057873
#
#
# Mechanical properties :
#
#
# Convention : Reuss Voigt Hill
#
# Bulk Modulus (GPa) = 29.22543 62.63409 45.92976
# Shear Modulus (GPa) = 14.29557 20.83068 17.56313
#
# Velocity S-wave (km/s) = 2.88701 3.48498 3.19999
# Velocity P-wave (km/s) = 5.30591 7.26026 6.35862
#
# Compressibility (1/GPa) = 0.03421678
#
# Stress axis : x y z
#
# Youngs Moduli (GPa) = 82.23940 16.13775 71.75454
#
# Poissons Ratio (x) = 0.10216 0.22198
# Poissons Ratio (y) = 0.52063 1.25560
# Poissons Ratio (z) = 0.25441 0.28239
#
# Static dielectric constant tensor:
#      x y z
#    x 1.590620 0.000000 0.000000 
#    y 0.000000 1.586530 0.000000 
#    z 0.000000 0.000000 1.592490 
# 
# From -- ./inp_files/21127.got.cif
#   From: 2010.05.17/outbox.cif.g08.bks.cpg/sg38_11_cif.got.tgz:21127.got - 2010.06.03 18:07:57.
