data_PCOD9356125
_publ_section_title
;
Structure prediction by ZEFSAII (Michael W. Deem and Ramdas Pophale) SiO2 
 PCOD9356125
Probable space group: A M M 2
;
_chemical_formula_sum "Si O2"
_cell_formula_units_Z 56
_cell_length_a 16.190179
_cell_length_b 8.129136
_cell_length_c 20.609763
_cell_angle_alpha 90.000000
_cell_angle_beta 90.000000
_cell_angle_gamma 90.000000
_cell_volume 2712.495569
_symmetry_space_group_name_H-M "A M M 2"
_symmetry_group_IT_number 38
_symmetry_cell_setting 'orthorhombic'
loop_
_space_group_symop_operation_xyz
x,y,z
-x,-y,z
-x,y,z
x,-y,z
x,1/2+y,1/2+z
-x,1/2-y,1/2+z
-x,1/2+y,1/2+z
x,1/2-y,1/2+z
loop_
_atom_site_type_symbol
_atom_site_label
_atom_site_fract_x
_atom_site_fract_y
_atom_site_fract_z
Si Si1 0.266161 0.804779 0.016010
Si Si2 0.089936 0.194779 0.690352
Si Si3 0.868297 0.803595 0.332520
Si Si4 0.683143 0.802729 0.377439
Si Si5 0.269835 0.193367 0.654422
Si Si6 0.409139 0.697912 0.754393
Si Si7 0.912516 0.697828 0.474817
O O1 0.299449 0.726168 0.081437
O O2 0.262680 0.000000 0.025316
O O3 0.314197 0.769497 0.949434
O O4 0.172379 0.738186 0.005311
O O5 0.098560 0.219936 0.767835
O O6 0.176326 0.264684 0.662330
O O7 0.000000 0.264574 0.670082
O O8 0.088263 0.000000 0.676003
O O9 0.771266 0.766682 0.343206
O O10 0.908961 0.742947 0.398937
O O11 0.878854 0.000000 0.326441
O O12 0.614705 0.743750 0.326784
O O13 0.677833 0.000000 0.384224
O O14 0.335773 0.260578 0.705285
O O15 0.263497 0.000000 0.666450
O O16 0.500000 0.758436 0.734709
O O17 0.411919 0.500000 0.757480
O O18 0.910733 0.500000 0.480276
O O19 0.000000 0.758859 0.502199
#
# Coordination Sequence:
#
# PCOD9356125 Si02
#       7
#     8   8   8   8   8   8   8
#     4  10  21  36  57  81 111 154 198 238 289 345
#     4  10  21  35  51  75 111 156 200 240 286 339
#     4  10  18  29  49  78 110 144 186 238 290 339
#     4   9  18  35  58  85 115 145 183 233 289 346
#     4  11  23  39  59  84 119 159 198 242 291 343
#     4  10  21  40  67  94 119 149 186 234 293 352
#     4   9  18  32  49  72 106 148 194 242 291 343
#
# _framework density 20.645197
#
# number of rings (size 3 to 8) (size 9 to 14) (size 15 to 20)
#    0.000    2.143    1.429    1.714    0.000    5.429 
#    0.000    0.714    0.000    2.571    0.000    0.000 
#    0.000    0.000    0.000    0.000    0.000    0.000 
#
# Total GULP energy -156274.012840 kJ/mol
# GULP energy per Si atom -5581.214744 kJ/mol
# Density = 2.059821 g / cm^3
# Si number density = 20.645197 Si / 1000 Ang^3
#
#
#
# Elastic Constant Matrix: (Units=GPa)
#
#
# Indices 1 2 3 4 5 6 
#
# 1 107.6173 23.2272 50.6963 0.0000 0.0000 0.0000
# 2 23.2272 13.3412 -3.6149 0.0000 0.0000 0.0000
# 3 50.6963 -3.6149 99.9562 0.0000 0.0000 0.0000
# 4 0.0000 0.0000 0.0000 20.2339 0.0000 0.0000
# 5 0.0000 0.0000 0.0000 0.0000 11.6928 0.0000
# 6 0.0000 0.0000 0.0000 0.0000 0.0000 16.9839
#
#
#
# Elastic Compliance Matrix: (Units=1/GPa)
#
#
# Indices 1 2 3 4 5 6 
#
# 1 0.029100 -0.055204 -0.016756 0.000000 0.000000 0.000000
# 2 -0.055204 0.180422 0.034524 0.000000 0.000000 0.000000
# 3 -0.016756 0.034524 0.019751 0.000000 0.000000 0.000000
# 4 0.000000 0.000000 0.000000 0.049422 0.000000 0.000000
# 5 0.000000 0.000000 0.000000 0.000000 0.085523 0.000000
# 6 0.000000 0.000000 0.000000 0.000000 0.000000 0.058879
#
#
# Mechanical properties :
#
#
# Convention : Reuss Voigt Hill
#
# Bulk Modulus (GPa) = 6.47664 40.17020 23.32342
# Shear Modulus (GPa) = 9.10023 19.82252 14.46138
#
# Velocity S-wave (km/s) = 2.10178 3.10199 2.64951
# Velocity P-wave (km/s) = 3.00565 5.68590 4.54771
#
# Compressibility (1/GPa) = 0.15440100
#
# Stress axis : x y z
#
# Youngs Moduli (GPa) = 34.36400 5.54257 50.63000
#
# Poissons Ratio (x) = 0.30597 0.84834
# Poissons Ratio (y) = 1.89703 -1.74793
# Poissons Ratio (z) = 0.57579 -0.19135
#
# Static dielectric constant tensor:
#      x y z
#    x 1.791930 0.000000 0.000000 
#    y 0.000000 1.717390 0.000000 
#    z 0.000000 0.000000 1.708680 
# 
# From -- ./inp_files/21083.got.cif
#   From: 2010.05.17/outbox.cif.g08.bks.cpg/sg38_11_cif.got.tgz:21083.got - 2010.06.03 18:07:57.
