data_PCOD9356738
_publ_section_title
;
Structure prediction by ZEFSAII (Michael W. Deem and Ramdas Pophale) SiO2 
 PCOD9356738
Probable space group: A M M 2
;
_chemical_formula_sum "Si O2"
_cell_formula_units_Z 64
_cell_length_a 8.461533
_cell_length_b 19.191719
_cell_length_c 22.088244
_cell_angle_alpha 90.000000
_cell_angle_beta 90.000000
_cell_angle_gamma 90.000000
_cell_volume 3586.940064
_symmetry_space_group_name_H-M "A M M 2"
_symmetry_group_IT_number 38
_symmetry_cell_setting 'orthorhombic'
loop_
_space_group_symop_operation_xyz
x,y,z
-x,-y,z
-x,y,z
x,-y,z
x,1/2+y,1/2+z
-x,1/2-y,1/2+z
-x,1/2+y,1/2+z
x,1/2-y,1/2+z
loop_
_atom_site_type_symbol
_atom_site_label
_atom_site_fract_x
_atom_site_fract_y
_atom_site_fract_z
Si Si1 0.308477 0.074575 0.163450
Si Si2 0.310998 0.182806 0.066783
Si Si3 0.187728 0.078415 0.967934
Si Si4 0.308985 0.422771 0.803767
Si Si5 0.309955 0.922318 0.707464
Si Si6 0.813190 0.279348 0.159938
Si Si7 0.311449 0.371250 0.341034
Si Si8 0.189671 0.226300 0.292492
O O1 0.500000 0.078612 0.163646
O O2 0.246369 0.133627 0.120763
O O3 0.260623 0.076613 0.232917
O O4 0.262340 0.000000 0.137581
O O5 0.500000 0.182535 0.064959
O O6 0.257363 0.255857 0.095276
O O7 0.253868 0.143160 0.007048
O O8 0.230455 0.093924 0.898481
O O9 0.000000 0.077703 0.975806
O O10 0.248707 0.000000 0.984093
O O11 0.500000 0.420533 0.807486
O O12 0.260856 0.500000 0.828423
O O13 0.243536 0.347127 0.821880
O O14 0.500000 0.915380 0.700989
O O15 0.228116 0.859552 0.672518
O O16 0.274476 0.911220 0.778623
O O17 0.263380 0.000000 0.688705
O O18 0.753535 0.239127 0.221986
O O19 0.000000 0.268882 0.157904
O O20 0.500000 0.372388 0.349857
O O21 0.255200 0.291976 0.329789
O O22 0.000000 0.228596 0.291445
#
# Coordination Sequence:
#
# PCOD9356738 Si02
#       8
#     8   8   8   8   8   8   8   8
#     4   8  14  24  40  63  90 123 164 206 243 281
#     4  11  20  32  52  72  97 135 179 218 251 295
#     4  11  24  39  53  74 107 142 176 217 263 309
#     4   9  16  27  44  67  96 130 169 210 251 298
#     4   9  18  33  54  79 104 131 168 216 264 310
#     4  10  20  32  47  72 105 137 169 208 260 318
#     4  10  20  35  56  77 100 134 179 223 260 305
#     4  10  19  31  48  72 103 136 170 212 266 319
#
# _framework density 17.842504999999999
#
# number of rings (size 3 to 8) (size 9 to 14) (size 15 to 20)
#    0.000    2.250    1.250    3.375    0.000    4.000 
#    0.000    0.000    0.000    0.000    0.000    0.875 
#    0.000    7.000    0.000    0.000    0.000    0.000 
#
# Total GULP energy -178192.777027 kJ/mol
# GULP energy per Si atom -5568.524282 kJ/mol
# Density = 1.780190 g / cm^3
# Si number density = 17.842505 Si / 1000 Ang^3
#
#
#
# Elastic Constant Matrix: (Units=GPa)
#
#
# Indices 1 2 3 4 5 6 
#
# 1 37.9214 22.7598 18.0657 0.0000 0.0000 0.0000
# 2 22.7598 103.6751 20.1746 0.0000 0.0000 0.0000
# 3 18.0657 20.1746 50.8414 0.0000 0.0000 0.0000
# 4 0.0000 0.0000 0.0000 17.6689 0.0000 0.0000
# 5 0.0000 0.0000 0.0000 0.0000 21.5741 0.0000
# 6 0.0000 0.0000 0.0000 0.0000 0.0000 20.9096
#
#
#
# Elastic Compliance Matrix: (Units=1/GPa)
#
#
# Indices 1 2 3 4 5 6 
#
# 1 0.034529 -0.005627 -0.010036 0.000000 0.000000 0.000000
# 2 -0.005627 0.011370 -0.002512 0.000000 0.000000 0.000000
# 3 -0.010036 -0.002512 0.024232 0.000000 0.000000 0.000000
# 4 0.000000 0.000000 0.000000 0.056597 0.000000 0.000000
# 5 0.000000 0.000000 0.000000 0.000000 0.046352 0.000000
# 6 0.000000 0.000000 0.000000 0.000000 0.000000 0.047825
#
#
# Mechanical properties :
#
#
# Convention : Reuss Voigt Hill
#
# Bulk Modulus (GPa) = 29.60382 34.93759 32.27070
# Shear Modulus (GPa) = 18.62089 20.79303 19.70696
#
# Velocity S-wave (km/s) = 3.23402 3.41745 3.32700
# Velocity P-wave (km/s) = 5.52928 5.93258 5.73448
#
# Compressibility (1/GPa) = 0.03377943
#
# Stress axis : x y z
#
# Youngs Moduli (GPa) = 28.96116 87.95317 41.26749
#
# Poissons Ratio (x) = 0.49492 0.41418
# Poissons Ratio (y) = 0.16297 0.10367
# Poissons Ratio (z) = 0.29067 0.22095
#
# Static dielectric constant tensor:
#      x y z
#    x 1.610970 0.000000 0.000000 
#    y 0.000000 1.707660 0.000000 
#    z 0.000000 0.000000 1.607220 
# 
# From -- ./inp_files/20011.got.cif
#   From: 2010.05.17/outbox.cif.g08.bks.cpg/sg38_11_cif.got.tgz:20011.got - 2010.06.03 18:07:57.
