data_PCOD9356704
_publ_section_title
;
Structure prediction by ZEFSAII (Michael W. Deem and Ramdas Pophale) SiO2 
 PCOD9356704
Probable space group: A M M 2
;
_chemical_formula_sum "Si O2"
_cell_formula_units_Z 64
_cell_length_a 14.777689
_cell_length_b 8.622140
_cell_length_c 32.220923
_cell_angle_alpha 90.000000
_cell_angle_beta 90.000000
_cell_angle_gamma 90.000000
_cell_volume 4105.438681
_symmetry_space_group_name_H-M "A M M 2"
_symmetry_group_IT_number 38
_symmetry_cell_setting 'orthorhombic'
loop_
_space_group_symop_operation_xyz
x,y,z
-x,-y,z
-x,y,z
x,-y,z
x,1/2+y,1/2+z
-x,1/2-y,1/2+z
-x,1/2+y,1/2+z
x,1/2-y,1/2+z
loop_
_atom_site_type_symbol
_atom_site_label
_atom_site_fract_x
_atom_site_fract_y
_atom_site_fract_z
Si Si1 0.600559 0.811274 0.493190
Si Si2 0.788982 0.689493 0.958681
Si Si3 0.895697 0.313556 0.877934
Si Si4 0.890169 0.679497 0.290537
Si Si5 0.397251 0.813084 0.590290
Si Si6 0.213824 0.815969 0.121232
Si Si7 0.894703 0.687582 0.042197
Si Si8 0.105244 0.812047 0.699082
O O1 0.500000 0.758539 0.480568
O O2 0.686056 0.758338 0.466521
O O3 0.614753 0.770219 0.541624
O O4 0.599894 0.000000 0.491978
O O5 0.788562 0.500000 0.957899
O O6 0.834566 0.742961 0.916024
O O7 0.848445 0.734032 0.998781
O O8 0.897671 0.500000 0.879732
O O9 0.862140 0.265400 0.832368
O O10 0.000000 0.259028 0.882917
O O11 0.862905 0.500000 0.293843
O O12 0.863193 0.740260 0.245060
O O13 0.000000 0.683904 0.289617
O O14 0.500000 0.770360 0.602224
O O15 0.317245 0.738768 0.616373
O O16 0.389873 0.000000 0.592565
O O17 0.159801 0.753847 0.081043
O O18 0.166533 0.748746 0.162152
O O19 0.209239 0.000000 0.121981
O O20 0.890273 0.500000 0.044557
O O21 0.000000 0.732866 0.043435
O O22 0.000000 0.765216 0.692836
O O23 0.106412 0.000000 0.699367
#
# Coordination Sequence:
#
# PCOD9356704 Si02
#       8
#     8   8   8   8   8   8   8   8
#     4   8  13  23  43  67  85 106 145 196 233 254
#     4   9  15  25  42  64  89 116 151 191 225 263
#     4   9  16  25  40  64  91 117 145 180 224 271
#     4   8  15  29  47  65  85 112 147 188 230 268
#     4   9  17  32  53  70  85 114 158 199 229 265
#     4  12  23  31  43  67  98 125 148 184 237 284
#     4  10  19  31  46  61  85 126 168 196 218 256
#     4   9  18  33  51  67  86 118 160 197 227 269
#
# _framework density 15.589077
#
# number of rings (size 3 to 8) (size 9 to 14) (size 15 to 20)
#    0.000    2.750    1.250    3.375    0.000    4.250 
#    0.000    1.875    0.000    1.500    0.000    0.875 
#    0.000    3.000    0.000    0.000    0.000    0.000 
#
# Total GULP energy -178287.318773 kJ/mol
# GULP energy per Si atom -5571.478712 kJ/mol
# Density = 1.555360 g / cm^3
# Si number density = 15.589077 Si / 1000 Ang^3
#
#
#
# Elastic Constant Matrix: (Units=GPa)
#
#
# Indices 1 2 3 4 5 6 
#
# 1 116.7137 23.0623 78.1958 0.0000 0.0000 0.0000
# 2 23.0623 10.8536 23.9980 0.0000 0.0000 0.0000
# 3 78.1958 23.9980 144.1195 0.0000 0.0000 0.0000
# 4 0.0000 0.0000 0.0000 17.4230 0.0000 0.0000
# 5 0.0000 0.0000 0.0000 0.0000 8.2818 0.0000
# 6 0.0000 0.0000 0.0000 0.0000 0.0000 7.2514
#
#
#
# Elastic Compliance Matrix: (Units=1/GPa)
#
#
# Indices 1 2 3 4 5 6 
#
# 1 0.016783 -0.024576 -0.005014 0.000000 0.000000 0.000000
# 2 -0.024576 0.181812 -0.016940 0.000000 0.000000 0.000000
# 3 -0.005014 -0.016940 0.012480 0.000000 0.000000 0.000000
# 4 0.000000 0.000000 0.000000 0.057395 0.000000 0.000000
# 5 0.000000 0.000000 0.000000 0.000000 0.120746 0.000000
# 6 0.000000 0.000000 0.000000 0.000000 0.000000 0.137904
#
#
# Mechanical properties :
#
#
# Convention : Reuss Voigt Hill
#
# Bulk Modulus (GPa) = 8.47348 58.02211 33.24779
# Shear Modulus (GPa) = 7.58127 16.35329 11.96728
#
# Velocity S-wave (km/s) = 2.20766 3.24238 2.77369
# Velocity P-wave (km/s) = 3.45625 7.16365 5.62421
#
# Compressibility (1/GPa) = 0.11801532
#
# Stress axis : x y z
#
# Youngs Moduli (GPa) = 59.58238 5.50018 80.12891
#
# Poissons Ratio (x) = 0.13517 0.40177
# Poissons Ratio (y) = 1.46432 1.35737
# Poissons Ratio (z) = 0.29875 0.09317
#
# Static dielectric constant tensor:
#      x y z
#    x 1.519810 0.000000 0.000000 
#    y 0.000000 1.531470 0.000000 
#    z 0.000000 0.000000 1.514150 
# 
# From -- ./inp_files/25069.got.cif
#   From: 2010.05.17/outbox.cif.g08.bks.cpg/sg38_13_cif.got.tgz:25069.got - 2010.06.03 18:07:57.
