data_PCOD9356022
_publ_section_title
;
Structure prediction by ZEFSAII (Michael W. Deem and Ramdas Pophale) SiO2 
 PCOD9356022
Probable space group: A M M 2
;
_chemical_formula_sum "Si O2"
_cell_formula_units_Z 56
_cell_length_a 7.521204
_cell_length_b 12.331997
_cell_length_c 32.061602
_cell_angle_alpha 90.000000
_cell_angle_beta 90.000000
_cell_angle_gamma 90.000000
_cell_volume 2973.760561
_symmetry_space_group_name_H-M "A M M 2"
_symmetry_group_IT_number 38
_symmetry_cell_setting 'orthorhombic'
loop_
_space_group_symop_operation_xyz
x,y,z
-x,-y,z
-x,y,z
x,-y,z
x,1/2+y,1/2+z
-x,1/2-y,1/2+z
-x,1/2+y,1/2+z
x,1/2-y,1/2+z
loop_
_atom_site_type_symbol
_atom_site_label
_atom_site_fract_x
_atom_site_fract_y
_atom_site_fract_z
Si Si1 0.211328 0.124978 0.002050
Si Si2 0.716622 0.873913 0.819798
Si Si3 0.214060 0.782164 0.087161
Si Si4 0.702644 0.500000 0.731320
Si Si5 0.718727 0.260325 0.739237
Si Si6 0.286555 0.374765 0.410518
Si Si7 0.215426 0.500000 0.635715
Si Si8 0.289761 0.622587 0.159713
O O1 0.278352 0.199767 0.039790
O O2 0.000000 0.115405 0.008077
O O3 0.282226 0.000000 0.004267
O O4 0.238348 0.171243 0.955620
O O5 0.500000 0.872610 0.819298
O O6 0.774136 0.807288 0.779690
O O7 0.773502 0.830891 0.865533
O O8 0.769348 0.000000 0.816403
O O9 0.267919 0.891796 0.111329
O O10 0.269095 0.680345 0.115059
O O11 0.000000 0.778907 0.086578
O O12 0.500000 0.500000 0.747363
O O13 0.782672 0.383995 0.742889
O O14 0.703119 0.500000 0.681230
O O15 0.500000 0.263769 0.737929
O O16 0.779202 0.200873 0.696706
O O17 0.500000 0.376397 0.409258
O O18 0.223600 0.500000 0.411758
O O19 0.000000 0.500000 0.639264
O O20 0.500000 0.614143 0.167598
O O21 0.216921 0.500000 0.160973
#
# Coordination Sequence:
#
# PCOD9356022 Si02
#       8
#     8   8   8   4   8   8   4   8
#     4   9  16  27  43  64  90 117 144 178 222 268
#     4   8  13  23  40  61  87 117 146 177 216 263
#     4  10  19  31  47  66  90 121 154 183 218 269
#     4  10  18  28  44  68  92 114 148 188 224 261
#     4   9  16  26  42  65  91 117 146 181 219 261
#     4   8  14  24  39  62  87 110 142 182 221 262
#     4  10  18  30  46  64  90 122 152 180 218 267
#     4  10  20  32  46  66  92 121 153 187 223 262
#
# _framework density 18.831375999999999
#
# number of rings (size 3 to 8) (size 9 to 14) (size 15 to 20)
#    0.000    2.857    2.143    1.286    0.000    2.571 
#    0.000    0.000    0.000    1.714    1.857    2.000 
#    0.000    0.000    0.000    0.000    0.000    0.000 
#
# Total GULP energy -156001.821016 kJ/mol
# GULP energy per Si atom -5571.493608 kJ/mol
# Density = 1.878851 g / cm^3
# Si number density = 18.831376 Si / 1000 Ang^3
#
#
#
# Elastic Constant Matrix: (Units=GPa)
#
#
# Indices 1 2 3 4 5 6 
#
# 1 44.9144 4.6622 -0.3156 0.0000 0.0000 0.0000
# 2 4.6622 118.0188 70.2792 0.0000 0.0000 0.0000
# 3 -0.3156 70.2792 165.5925 0.0000 0.0000 0.0000
# 4 0.0000 0.0000 0.0000 13.3274 0.0000 0.0000
# 5 0.0000 0.0000 0.0000 0.0000 29.1899 0.0000
# 6 0.0000 0.0000 0.0000 0.0000 0.0000 4.4184
#
#
#
# Elastic Compliance Matrix: (Units=1/GPa)
#
#
# Indices 1 2 3 4 5 6 
#
# 1 0.022395 -0.001218 0.000560 0.000000 0.000000 0.000000
# 2 -0.001218 0.011405 -0.004843 0.000000 0.000000 0.000000
# 3 0.000560 -0.004843 0.008095 0.000000 0.000000 0.000000
# 4 0.000000 0.000000 0.000000 0.075033 0.000000 0.000000
# 5 0.000000 0.000000 0.000000 0.000000 0.034258 0.000000
# 6 0.000000 0.000000 0.000000 0.000000 0.000000 0.226326
#
#
# Mechanical properties :
#
#
# Convention : Reuss Voigt Hill
#
# Bulk Modulus (GPa) = 32.36960 53.08635 42.72797
# Shear Modulus (GPa) = 12.53720 26.31381 19.42551
#
# Velocity S-wave (km/s) = 2.58303 3.74215 3.21526
# Velocity P-wave (km/s) = 5.11103 6.85005 6.04342
#
# Compressibility (1/GPa) = 0.03089319
#
# Stress axis : x y z
#
# Youngs Moduli (GPa) = 44.65295 87.67948 123.52815
#
# Poissons Ratio (x) = 0.10679 -0.06912
# Poissons Ratio (y) = 0.05438 0.59822
# Poissons Ratio (z) = -0.02499 0.42461
#
# Static dielectric constant tensor:
#      x y z
#    x 1.723040 0.000000 0.000000 
#    y 0.000000 1.646350 0.000000 
#    z 0.000000 0.000000 1.679520 
# 
# From -- ./inp_files/22564.got.cif
#   From: 2010.05.17/outbox.cif.g08.bks.cpg/sg38_12_cif.got.tgz:22564.got - 2010.06.03 18:07:57.
