data_PCOD9356206
_publ_section_title
;
Structure prediction by ZEFSAII (Michael W. Deem and Ramdas Pophale) SiO2 
 PCOD9356206
Probable space group: A M M 2
;
_chemical_formula_sum "Si O2"
_cell_formula_units_Z 56
_cell_length_a 14.789421
_cell_length_b 8.874436
_cell_length_c 26.238069
_cell_angle_alpha 90.000000
_cell_angle_beta 90.000000
_cell_angle_gamma 90.000000
_cell_volume 3443.688049
_symmetry_space_group_name_H-M "A M M 2"
_symmetry_group_IT_number 38
_symmetry_cell_setting 'orthorhombic'
loop_
_space_group_symop_operation_xyz
x,y,z
-x,-y,z
-x,y,z
x,-y,z
x,1/2+y,1/2+z
-x,1/2-y,1/2+z
-x,1/2+y,1/2+z
x,1/2-y,1/2+z
loop_
_atom_site_type_symbol
_atom_site_label
_atom_site_fract_x
_atom_site_fract_y
_atom_site_fract_z
Si Si1 0.288922 0.318097 0.879930
Si Si2 0.393964 0.681601 0.776412
Si Si3 0.604344 0.818523 0.972943
Si Si4 0.100158 0.183065 0.336860
Si Si5 0.715701 0.679086 0.181969
Si Si6 0.393891 0.180975 0.089965
Si Si7 0.103015 0.181208 0.217298
O O1 0.289434 0.500000 0.883044
O O2 0.348930 0.276674 0.830421
O O3 0.331429 0.251702 0.930800
O O4 0.186310 0.266237 0.868984
O O5 0.500000 0.721026 0.775265
O O6 0.386377 0.500000 0.771265
O O7 0.339945 0.755491 0.730081
O O8 0.500000 0.772986 0.963207
O O9 0.607874 0.000000 0.970015
O O10 0.626632 0.777009 0.031361
O O11 0.113270 0.221553 0.277253
O O12 0.000000 0.235055 0.352837
O O13 0.099501 0.000000 0.338628
O O14 0.714516 0.500000 0.183749
O O15 0.667902 0.738177 0.130987
O O16 0.817811 0.739715 0.186590
O O17 0.500000 0.214781 0.099299
O O18 0.383635 0.000000 0.094779
O O19 0.000000 0.219152 0.202251
O O20 0.113058 0.000000 0.213718
#
# Coordination Sequence:
#
# PCOD9356206 Si02
#       7
#     8   8   8   8   8   8   8
#     4  10  18  30  51  76 101 129 166 209 249 295
#     4  10  20  33  48  69 101 139 174 205 242 300
#     4   9  19  35  53  73  98 130 169 212 256 299
#     4   8  14  27  49  74  98 127 166 206 239 284
#     4  12  23  32  48  76 108 134 161 209 263 304
#     4   9  19  37  57  72  92 131 179 218 251 299
#     4   9  17  33  56  75  96 133 176 209 242 297
#
# _framework density 16.261634999999998
#
# number of rings (size 3 to 8) (size 9 to 14) (size 15 to 20)
#    0.000    2.429    1.429    3.857    0.000    4.571 
#    0.000    1.429    0.000    1.286    0.000    4.000 
#    0.000    0.000    0.000    0.000    0.000    0.000 
#
# Total GULP energy -156177.643326 kJ/mol
# GULP energy per Si atom -5577.772976 kJ/mol
# Density = 1.622462 g / cm^3
# Si number density = 16.261635 Si / 1000 Ang^3
#
#
#
# Elastic Constant Matrix: (Units=GPa)
#
#
# Indices 1 2 3 4 5 6 
#
# 1 157.2205 50.9318 97.1266 0.0000 0.0000 0.0000
# 2 50.9318 27.2216 40.8845 0.0000 0.0000 0.0000
# 3 97.1266 40.8845 115.8968 0.0000 0.0000 0.0000
# 4 0.0000 0.0000 0.0000 26.0886 0.0000 0.0000
# 5 0.0000 0.0000 0.0000 0.0000 20.7454 0.0000
# 6 0.0000 0.0000 0.0000 0.0000 0.0000 16.9488
#
#
#
# Elastic Compliance Matrix: (Units=1/GPa)
#
#
# Indices 1 2 3 4 5 6 
#
# 1 0.018479 -0.024066 -0.006996 0.000000 0.000000 0.000000
# 2 -0.024066 0.109474 -0.018450 0.000000 0.000000 0.000000
# 3 -0.006996 -0.018450 0.021000 0.000000 0.000000 0.000000
# 4 0.000000 0.000000 0.000000 0.038331 0.000000 0.000000
# 5 0.000000 0.000000 0.000000 0.000000 0.048203 0.000000
# 6 0.000000 0.000000 0.000000 0.000000 0.000000 0.059001
#
#
# Mechanical properties :
#
#
# Convention : Reuss Voigt Hill
#
# Bulk Modulus (GPa) = 20.02896 75.35832 47.69364
# Shear Modulus (GPa) = 12.19042 20.18297 16.18669
#
# Velocity S-wave (km/s) = 2.74093 3.52680 3.15841
# Velocity P-wave (km/s) = 4.72868 7.93891 6.53401
#
# Compressibility (1/GPa) = 0.04992770
#
# Stress axis : x y z
#
# Youngs Moduli (GPa) = 54.11544 9.13455 47.61819
#
# Poissons Ratio (x) = 0.21983 0.33316
# Poissons Ratio (y) = 1.30236 0.87857
# Poissons Ratio (z) = 0.37862 0.16854
#
# Static dielectric constant tensor:
#      x y z
#    x 1.552990 0.000000 0.000000 
#    y 0.000000 1.543410 0.000000 
#    z 0.000000 0.000000 1.518430 
# 
# From -- ./inp_files/21103.got.cif
#   From: 2010.05.17/outbox.cif.g08.bks.cpg/sg38_11_cif.got.tgz:21103.got - 2010.06.03 18:07:57.
