data_PCOD9356958
_publ_section_title
;
Structure prediction by ZEFSAII (Michael W. Deem and Ramdas Pophale) SiO2 
 PCOD9356958
Probable space group: A M M 2
;
_chemical_formula_sum "Si O2"
_cell_formula_units_Z 56
_cell_length_a 14.552907
_cell_length_b 8.904683
_cell_length_c 26.267513
_cell_angle_alpha 90.000000
_cell_angle_beta 90.000000
_cell_angle_gamma 90.000000
_cell_volume 3403.981361
_symmetry_space_group_name_H-M "A M M 2"
_symmetry_group_IT_number 38
_symmetry_cell_setting 'orthorhombic'
loop_
_space_group_symop_operation_xyz
x,y,z
-x,-y,z
-x,y,z
x,-y,z
x,1/2+y,1/2+z
-x,1/2-y,1/2+z
-x,1/2+y,1/2+z
x,1/2-y,1/2+z
loop_
_atom_site_type_symbol
_atom_site_label
_atom_site_fract_x
_atom_site_fract_y
_atom_site_fract_z
Si Si1 0.391429 0.178820 0.601520
Si Si2 0.894254 0.320907 0.967108
Si Si3 0.392518 0.819958 0.210122
Si Si4 0.608143 0.819571 0.412607
Si Si5 0.715597 0.821072 0.007802
Si Si6 0.894839 0.821383 0.855267
Si Si7 0.280130 0.319254 0.810226
O O1 0.500000 0.211353 0.593422
O O2 0.367719 0.237887 0.657792
O O3 0.332855 0.259394 0.558291
O O4 0.378968 0.000000 0.598339
O O5 0.880507 0.500000 0.966540
O O6 0.881624 0.258162 0.909905
O O7 0.000000 0.289712 0.981891
O O8 0.818202 0.243556 0.001812
O O9 0.500000 0.788430 0.221187
O O10 0.331079 0.775872 0.258272
O O11 0.384258 0.000000 0.203008
O O12 0.500000 0.783511 0.411224
O O13 0.658560 0.738905 0.459121
O O14 0.657102 0.781044 0.359292
O O15 0.616775 0.000000 0.419691
O O16 0.716941 0.000000 0.007568
O O17 0.817942 0.757725 0.817947
O O18 0.000000 0.791723 0.838927
O O19 0.884033 0.000000 0.861803
O O20 0.269370 0.500000 0.810248
#
# Coordination Sequence:
#
# PCOD9356958 Si02
#       7
#     8   8   8   8   8   8   8
#     4  10  21  37  56  77 103 140 183 223 263 311
#     4  10  20  35  55  77 103 137 176 216 261 317
#     4   9  18  34  55  79 106 137 176 220 264 312
#     4  10  20  33  49  73 107 144 177 210 254 312
#     4  12  23  34  52  78 108 140 174 217 266 314
#     4  10  20  33  50  75 107 140 175 217 263 310
#     4  10  19  32  53  78 106 141 176 213 262 316
#
# _framework density 16.451325000000001
#
# number of rings (size 3 to 8) (size 9 to 14) (size 15 to 20)
#    0.000    1.857    1.429    3.429    0.000    6.857 
#    0.000    0.000    0.000    3.429    0.000    4.000 
#    0.000    0.000    0.000    0.000    0.000    0.000 
#
# Total GULP energy -156358.522625 kJ/mol
# GULP energy per Si atom -5584.232951 kJ/mol
# Density = 1.641388 g / cm^3
# Si number density = 16.451325 Si / 1000 Ang^3
#
#
#
# Elastic Constant Matrix: (Units=GPa)
#
#
# Indices 1 2 3 4 5 6 
#
# 1 130.3995 69.6959 90.2825 0.0000 0.0000 0.0000
# 2 69.6959 67.1470 65.8470 0.0000 0.0000 0.0000
# 3 90.2825 65.8470 130.2775 0.0000 0.0000 0.0000
# 4 0.0000 0.0000 0.0000 26.9101 0.0000 0.0000
# 5 0.0000 0.0000 0.0000 0.0000 21.9255 0.0000
# 6 0.0000 0.0000 0.0000 0.0000 0.0000 24.1690
#
#
#
# Elastic Compliance Matrix: (Units=1/GPa)
#
#
# Indices 1 2 3 4 5 6 
#
# 1 0.019710 -0.014006 -0.006580 0.000000 0.000000 0.000000
# 2 -0.014006 0.039480 -0.010249 0.000000 0.000000 0.000000
# 3 -0.006580 -0.010249 0.017416 0.000000 0.000000 0.000000
# 4 0.000000 0.000000 0.000000 0.037161 0.000000 0.000000
# 5 0.000000 0.000000 0.000000 0.000000 0.045609 0.000000
# 6 0.000000 0.000000 0.000000 0.000000 0.000000 0.041375
#
#
# Mechanical properties :
#
#
# Convention : Reuss Voigt Hill
#
# Bulk Modulus (GPa) = 66.94651 86.60833 76.77742
# Shear Modulus (GPa) = 18.69849 21.40084 20.04966
#
# Velocity S-wave (km/s) = 3.37500 3.61065 3.49481
# Velocity P-wave (km/s) = 7.48128 8.37508 7.94076
#
# Compressibility (1/GPa) = 0.01493730
#
# Stress axis : x y z
#
# Youngs Moduli (GPa) = 50.73453 25.32897 57.41738
#
# Poissons Ratio (x) = 0.35475 0.37783
# Poissons Ratio (y) = 0.71057 0.58847
# Poissons Ratio (z) = 0.33385 0.25959
#
# Static dielectric constant tensor:
#      x y z
#    x 1.554160 0.000000 0.000000 
#    y 0.000000 1.548230 0.000000 
#    z 0.000000 0.000000 1.520140 
# 
# From -- ./inp_files/21017.got.cif
#   From: 2010.05.17/outbox.cif.g08.bks.cpg/sg38_11_cif.got.tgz:21017.got - 2010.06.03 18:07:57.
