data_PCOD9356049
_publ_section_title
;
Structure prediction by ZEFSAII (Michael W. Deem and Ramdas Pophale) SiO2 
 PCOD9356049
Probable space group: A M M 2
;
_chemical_formula_sum "Si O2"
_cell_formula_units_Z 64
_cell_length_a 8.218149
_cell_length_b 15.138414
_cell_length_c 28.839663
_cell_angle_alpha 90.000000
_cell_angle_beta 90.000000
_cell_angle_gamma 90.000000
_cell_volume 3587.935030
_symmetry_space_group_name_H-M "A M M 2"
_symmetry_group_IT_number 38
_symmetry_cell_setting 'orthorhombic'
loop_
_space_group_symop_operation_xyz
x,y,z
-x,-y,z
-x,y,z
x,-y,z
x,1/2+y,1/2+z
-x,1/2-y,1/2+z
-x,1/2+y,1/2+z
x,1/2-y,1/2+z
loop_
_atom_site_type_symbol
_atom_site_label
_atom_site_fract_x
_atom_site_fract_y
_atom_site_fract_z
Si Si1 0.193868 0.725389 0.014590
Si Si2 0.803750 0.100967 0.870489
Si Si3 0.693825 0.899861 0.973613
Si Si4 0.198650 0.400501 0.825704
Si Si5 0.696109 0.400600 0.202376
Si Si6 0.696411 0.599826 0.095953
Si Si7 0.803588 0.221068 0.785191
Si Si8 0.198250 0.899092 0.432015
O O1 0.252802 0.825526 0.009640
O O2 0.243227 0.673061 0.060537
O O3 0.000000 0.726271 0.011621
O O4 0.258139 0.669057 0.970431
O O5 0.745445 0.164249 0.829579
O O6 0.000000 0.101367 0.869354
O O7 0.747482 0.000000 0.862935
O O8 0.753007 0.127397 0.922215
O O9 0.500000 0.903211 0.972888
O O10 0.755761 0.000000 0.982282
O O11 0.252927 0.500000 0.814330
O O12 0.252866 0.321671 0.792440
O O13 0.246727 0.379964 0.878988
O O14 0.000000 0.401741 0.825366
O O15 0.500000 0.401541 0.202443
O O16 0.751593 0.500000 0.215875
O O17 0.748490 0.384681 0.149224
O O18 0.753057 0.328040 0.238603
O O19 0.500000 0.600057 0.095340
O O20 0.750014 0.500000 0.082611
O O21 0.000000 0.221613 0.786710
O O22 0.000000 0.896932 0.432534
O O23 0.246698 0.000000 0.443064
#
# Coordination Sequence:
#
# PCOD9356049 Si02
#       8
#     8   8   8   8   8   8   8   8
#     4  11  20  30  50  77 101 125 158 202 248 293
#     4   9  17  29  45  68  98 127 157 199 249 294
#     4  10  21  35  49  67  95 133 173 206 237 283
#     4   8  14  25  41  63  94 129 159 188 226 273
#     4   9  19  35  52  70  95 127 159 193 239 293
#     4   9  19  36  54  72  98 129 158 193 241 297
#     4  10  18  28  47  73  97 124 162 205 247 290
#     4   8  14  25  42  67  98 127 154 185 225 278
#
# _framework density 17.837558000000001
#
# number of rings (size 3 to 8) (size 9 to 14) (size 15 to 20)
#    0.000    2.750    0.000    3.750    0.000    5.250 
#    0.000    2.500    0.000    1.125    0.000    7.000 
#    0.000    0.000    0.000    0.000    0.000    0.000 
#
# Total GULP energy -178457.853356 kJ/mol
# GULP energy per Si atom -5576.807917 kJ/mol
# Density = 1.779696 g / cm^3
# Si number density = 17.837558 Si / 1000 Ang^3
#
#
#
# Elastic Constant Matrix: (Units=GPa)
#
#
# Indices 1 2 3 4 5 6 
#
# 1 7.1874 12.6882 8.2805 0.0000 0.0000 0.0000
# 2 12.6882 131.9937 90.2639 0.0000 0.0000 0.0000
# 3 8.2805 90.2639 91.1297 0.0000 0.0000 0.0000
# 4 0.0000 0.0000 0.0000 31.2242 0.0000 0.0000
# 5 0.0000 0.0000 0.0000 0.0000 26.9665 0.0000
# 6 0.0000 0.0000 0.0000 0.0000 0.0000 18.0344
#
#
#
# Elastic Compliance Matrix: (Units=1/GPa)
#
#
# Indices 1 2 3 4 5 6 
#
# 1 0.167719 -0.017668 0.002261 0.000000 0.000000 0.000000
# 2 -0.017668 0.025342 -0.023496 0.000000 0.000000 0.000000
# 3 0.002261 -0.023496 0.034041 0.000000 0.000000 0.000000
# 4 0.000000 0.000000 0.000000 0.032026 0.000000 0.000000
# 5 0.000000 0.000000 0.000000 0.000000 0.037083 0.000000
# 6 0.000000 0.000000 0.000000 0.000000 0.000000 0.055449
#
#
# Mechanical properties :
#
#
# Convention : Reuss Voigt Hill
#
# Bulk Modulus (GPa) = 6.69815 50.30843 28.50329
# Shear Modulus (GPa) = 10.43330 23.18357 16.80843
#
# Velocity S-wave (km/s) = 2.42111 3.60905 3.07303
# Velocity P-wave (km/s) = 3.40278 6.75514 5.34840
#
# Compressibility (1/GPa) = 0.14929497
#
# Stress axis : x y z
#
# Youngs Moduli (GPa) = 5.96234 39.45950 29.37635
#
# Poissons Ratio (x) = 0.69718 -0.06641
# Poissons Ratio (y) = 0.10534 0.69023
# Poissons Ratio (z) = -0.01348 0.92715
#
# Static dielectric constant tensor:
#      x y z
#    x 1.629090 0.000000 0.000000 
#    y 0.000000 1.634540 0.000000 
#    z 0.000000 0.000000 1.588850 
# 
# From -- ./inp_files/22194.got.cif
#   From: 2010.05.17/outbox.cif.g08.bks.cpg/sg38_12_cif.got.tgz:22194.got - 2010.06.03 18:07:57.
