data_PCOD9356096
_publ_section_title
;
Structure prediction by ZEFSAII (Michael W. Deem and Ramdas Pophale) SiO2 
 PCOD9356096
Probable space group: A M M 2
;
_chemical_formula_sum "Si O2"
_cell_formula_units_Z 40
_cell_length_a 13.475190
_cell_length_b 8.210383
_cell_length_c 19.815251
_cell_angle_alpha 90.000000
_cell_angle_beta 90.000000
_cell_angle_gamma 90.000000
_cell_volume 2192.289441
_symmetry_space_group_name_H-M "A M M 2"
_symmetry_group_IT_number 38
_symmetry_cell_setting 'orthorhombic'
loop_
_space_group_symop_operation_xyz
x,y,z
-x,-y,z
-x,y,z
x,-y,z
x,1/2+y,1/2+z
-x,1/2-y,1/2+z
-x,1/2+y,1/2+z
x,1/2-y,1/2+z
loop_
_atom_site_type_symbol
_atom_site_label
_atom_site_fract_x
_atom_site_fract_y
_atom_site_fract_z
Si Si1 0.611493 0.301272 0.089300
Si Si2 0.000000 0.312378 0.833733
Si Si3 0.000000 0.688507 0.483815
Si Si4 0.786360 0.305895 0.342760
Si Si5 0.207749 0.693959 0.997052
Si Si6 0.611885 0.198629 0.744861
O O1 0.500000 0.249114 0.069704
O O2 0.611598 0.500000 0.087969
O O3 0.698537 0.245792 0.040004
O O4 0.628793 0.252660 0.167081
O O5 0.104477 0.233480 0.813345
O O6 0.000000 0.500000 0.814650
O O7 0.000000 0.294854 0.915453
O O8 0.896744 0.728004 0.519663
O O9 0.000000 0.500000 0.462690
O O10 0.778535 0.500000 0.349429
O O11 0.778615 0.233248 0.417890
O O12 0.698130 0.245140 0.294757
O O13 0.199764 0.500000 0.005017
O O14 0.500000 0.249046 0.764440
O O15 0.613199 0.000000 0.745711
#
# Coordination Sequence:
#
# PCOD9356096 Si02
#       6
#     8   4   4   8   8   8
#     4   8  15  29  48  69  93 122 156 192 228 267
#     4  10  18  30  47  66  93 125 155 189 229 274
#     4  10  18  30  47  66  93 125 155 189 229 274
#     4  10  18  29  48  72  96 121 152 191 231 273
#     4  10  18  29  48  72  96 121 152 191 231 273
#     4   8  15  29  48  69  93 122 156 192 228 267
#
# _framework density 18.245767000000001
#
# number of rings (size 3 to 8) (size 9 to 14) (size 15 to 20)
#    0.000    2.800    0.000    6.600    0.000    0.800 
#    0.000    1.000    0.000   14.400    0.000   11.200 
#    0.000    0.000    0.000    0.000    0.000    0.000 
#
# Total GULP energy -111440.884069 kJ/mol
# GULP energy per Si atom -5572.044203 kJ/mol
# Density = 1.820424 g / cm^3
# Si number density = 18.245767 Si / 1000 Ang^3
#
#
#
# Elastic Constant Matrix: (Units=GPa)
#
#
# Indices 1 2 3 4 5 6 
#
# 1 207.3117 7.4889 90.3432 0.0000 0.0000 0.0000
# 2 7.4889 21.4299 4.1456 0.0000 0.0000 0.0000
# 3 90.3432 4.1456 60.9779 0.0000 0.0000 0.0000
# 4 0.0000 0.0000 0.0000 12.5232 0.0000 0.0000
# 5 0.0000 0.0000 0.0000 0.0000 -26.9112 0.0000
# 6 0.0000 0.0000 0.0000 0.0000 0.0000 16.5235
#
#
#
# Elastic Compliance Matrix: (Units=1/GPa)
#
#
# Indices 1 2 3 4 5 6 
#
# 1 0.013628 -0.000868 -0.020133 0.000000 0.000000 0.000000
# 2 -0.000868 0.047341 -0.001932 0.000000 0.000000 0.000000
# 3 -0.020133 -0.001932 0.046359 0.000000 0.000000 0.000000
# 4 0.000000 0.000000 0.000000 0.079852 0.000000 0.000000
# 5 0.000000 0.000000 0.000000 0.000000 -0.037159 0.000000
# 6 0.000000 0.000000 0.000000 0.000000 0.000000 0.060520
#
#
# Mechanical properties :
#
#
# Convention : Reuss Voigt Hill
#
# Bulk Modulus (GPa) = 16.27020 54.85275 35.56147
# Shear Modulus (GPa) = 18.05743 12.94322 15.50033
#
# Velocity S-wave (km/s) = 3.14933 2.66631 2.91783
# Velocity P-wave (km/s) = 4.70754 6.29345 5.55736
#
# Compressibility (1/GPa) = 0.06146207
#
# Stress axis : x y z
#
# Youngs Moduli (GPa) = 73.37570 21.12333 21.57092
#
# Poissons Ratio (x) = 0.01833 0.43428
# Poissons Ratio (y) = 0.06369 0.04169
# Poissons Ratio (z) = 1.47724 0.04082
#
# Static dielectric constant tensor:
#      x y z
#    x 1.662110 0.000000 0.000000 
#    y 0.000000 1.647330 0.000000 
#    z 0.000000 0.000000 1.601790 
# 
# From -- ./inp_files/14285.got.cif
#   From: 2010.05.17/outbox.cif.g08.bks.cpg/sg38_8_cif.got.tgz:14285.got - 2010.06.03 18:07:57.
