data_PCOD9356830
_publ_section_title
;
Structure prediction by ZEFSAII (Michael W. Deem and Ramdas Pophale) SiO2 
 PCOD9356830
Probable space group: A M M 2
;
_chemical_formula_sum "Si O2"
_cell_formula_units_Z 40
_cell_length_a 7.942051
_cell_length_b 8.820372
_cell_length_c 29.933763
_cell_angle_alpha 90.000000
_cell_angle_beta 90.000000
_cell_angle_gamma 90.000000
_cell_volume 2096.915304
_symmetry_space_group_name_H-M "A M M 2"
_symmetry_group_IT_number 38
_symmetry_cell_setting 'orthorhombic'
loop_
_space_group_symop_operation_xyz
x,y,z
-x,-y,z
-x,y,z
x,-y,z
x,1/2+y,1/2+z
-x,1/2-y,1/2+z
-x,1/2+y,1/2+z
x,1/2-y,1/2+z
loop_
_atom_site_type_symbol
_atom_site_label
_atom_site_fract_x
_atom_site_fract_y
_atom_site_fract_z
Si Si1 0.297634 0.172583 0.156530
Si Si2 0.685340 0.684954 0.343553
Si Si3 0.197986 0.825986 0.747908
Si Si4 0.303353 0.319165 0.062614
Si Si5 0.000000 0.182198 0.005960
Si Si6 0.000000 0.314961 0.402535
O O1 0.500000 0.174529 0.160678
O O2 0.226755 0.234740 0.202802
O O3 0.256035 0.272120 0.113246
O O4 0.242334 0.000000 0.148682
O O5 0.500000 0.728691 0.359407
O O6 0.693303 0.500000 0.342157
O O7 0.712245 0.734659 0.292316
O O8 0.834772 0.736143 0.375656
O O9 0.000000 0.829068 0.758531
O O10 0.254442 0.000000 0.740170
O O11 0.500000 0.271893 0.055193
O O12 0.295526 0.500000 0.058160
O O13 0.167800 0.243413 0.030119
O O14 0.000000 0.230295 0.954087
O O15 0.000000 0.000000 0.008169
O O16 0.000000 0.500000 0.401794
#
# Coordination Sequence:
#
# PCOD9356830 Si02
#       6
#     8   8   8   8   4   4
#     4  10  21  36  54  79 113 149 187 232 281 336
#     4   9  16  29  51  77 109 147 184 227 275 324
#     4  10  19  31  51  80 114 149 188 230 270 327
#     4  10  22  41  63  85 113 152 198 242 284 341
#     4  11  23  37  60  89 120 151 184 239 302 355
#     4   9  18  33  50  79 114 141 180 229 282 343
#
# _framework density 19.07564
#
# number of rings (size 3 to 8) (size 9 to 14) (size 15 to 20)
#    0.000    2.200    1.000    2.100    1.400    4.400 
#    0.000    2.000    0.000    2.400    0.000    2.800 
#    0.000    0.000    0.000    0.000    0.000    0.000 
#
# Total GULP energy -111635.791264 kJ/mol
# GULP energy per Si atom -5581.789563 kJ/mol
# Density = 1.903222 g / cm^3
# Si number density = 19.075640 Si / 1000 Ang^3
#
#
#
# Elastic Constant Matrix: (Units=GPa)
#
#
# Indices 1 2 3 4 5 6 
#
# 1 126.6421 27.6307 84.9120 0.0000 0.0000 0.0000
# 2 27.6307 40.3741 25.0361 0.0000 0.0000 0.0000
# 3 84.9120 25.0361 140.8322 0.0000 0.0000 0.0000
# 4 0.0000 0.0000 0.0000 20.3063 0.0000 0.0000
# 5 0.0000 0.0000 0.0000 0.0000 -9.4893 0.0000
# 6 0.0000 0.0000 0.0000 0.0000 0.0000 20.4256
#
#
#
# Elastic Compliance Matrix: (Units=1/GPa)
#
#
# Indices 1 2 3 4 5 6 
#
# 1 0.014070 -0.004910 -0.007611 0.000000 0.000000 0.000000
# 2 -0.004910 0.029550 -0.002293 0.000000 0.000000 0.000000
# 3 -0.007611 -0.002293 0.012097 0.000000 0.000000 0.000000
# 4 0.000000 0.000000 0.000000 0.049246 0.000000 0.000000
# 5 0.000000 0.000000 0.000000 0.000000 -0.105381 0.000000
# 6 0.000000 0.000000 0.000000 0.000000 0.000000 0.048958
#
#
# Mechanical properties :
#
#
# Convention : Reuss Voigt Hill
#
# Bulk Modulus (GPa) = 38.32766 64.77844 51.55305
# Shear Modulus (GPa) = 57.56136 17.59982 37.58059
#
# Velocity S-wave (km/s) = 5.49917 3.04078 4.44338
# Velocity P-wave (km/s) = 7.77542 6.80889 7.30815
#
# Compressibility (1/GPa) = 0.02609082
#
# Stress axis : x y z
#
# Youngs Moduli (GPa) = 71.07169 33.84048 82.66580
#
# Poissons Ratio (x) = 0.16615 0.62913
# Poissons Ratio (y) = 0.34896 0.18955
# Poissons Ratio (z) = 0.54090 0.07759
#
# Static dielectric constant tensor:
#      x y z
#    x 1.676170 0.000000 0.000000 
#    y 0.000000 1.654820 0.000000 
#    z 0.000000 0.000000 1.630870 
# 
# From -- ./inp_files/23194.got.cif
#   From: 2010.05.17/outbox.cif.g08.bks.cpg/sg38_12_cif.got.tgz:23194.got - 2010.06.03 18:07:57.
