data_PCOD9356813
_publ_section_title
;
Structure prediction by ZEFSAII (Michael W. Deem and Ramdas Pophale) SiO2 
 PCOD9356813
Probable space group: A M M 2
;
_chemical_formula_sum "Si O2"
_cell_formula_units_Z 56
_cell_length_a 7.570218
_cell_length_b 20.250832
_cell_length_c 15.863621
_cell_angle_alpha 90.000000
_cell_angle_beta 90.000000
_cell_angle_gamma 90.000000
_cell_volume 2431.944068
_symmetry_space_group_name_H-M "A M M 2"
_symmetry_group_IT_number 38
_symmetry_cell_setting 'orthorhombic'
loop_
_space_group_symop_operation_xyz
x,y,z
-x,-y,z
-x,y,z
x,-y,z
x,1/2+y,1/2+z
-x,1/2-y,1/2+z
-x,1/2+y,1/2+z
x,1/2-y,1/2+z
loop_
_atom_site_type_symbol
_atom_site_label
_atom_site_fract_x
_atom_site_fract_y
_atom_site_fract_z
Si Si1 0.787630 0.573993 0.541610
Si Si2 0.293872 0.000000 0.461324
Si Si3 0.216367 0.425085 0.177797
Si Si4 0.201223 0.143079 0.519370
Si Si5 0.291795 0.638920 0.704571
Si Si6 0.706759 0.500000 0.761220
Si Si7 0.216333 0.122543 0.860455
Si Si8 0.209380 0.727309 0.861927
O O1 0.725556 0.500000 0.567859
O O2 0.736843 0.633948 0.604264
O O3 0.727335 0.587587 0.446506
O O4 0.000000 0.572321 0.541212
O O5 0.202175 0.067171 0.489097
O O6 0.500000 0.000000 0.487234
O O7 0.291311 0.000000 0.361013
O O8 0.269589 0.500000 0.154371
O O9 0.280172 0.368322 0.112810
O O10 0.271069 0.410922 0.273279
O O11 0.000000 0.423713 0.175008
O O12 0.281142 0.184884 0.441791
O O13 0.000000 0.166737 0.531675
O O14 0.500000 0.637557 0.719128
O O15 0.210890 0.568436 0.731987
O O16 0.228901 0.693679 0.770162
O O17 0.500000 0.500000 0.734906
O O18 0.276914 0.198325 0.861525
O O19 0.000000 0.121564 0.860255
O O20 0.000000 0.730699 0.875931
#
# Coordination Sequence:
#
# PCOD9356813 Si02
#       8
#     8   4   8   8   8   4   8   8
#     4  10  20  35  58  88 114 140 184 238 283 324
#     4  11  19  31  51  76 105 140 174 217 273 323
#     4   9  16  29  53  81 105 136 177 221 268 318
#     4  10  19  31  50  80 109 135 174 220 266 318
#     4  11  21  36  56  80 111 147 185 225 276 334
#     4   9  18  31  49  74 103 138 176 215 269 325
#     4   9  19  35  54  79 113 147 181 224 274 325
#     4  10  21  35  53  81 114 147 179 220 272 327
#
# _framework density 23.026847
#
# number of rings (size 3 to 8) (size 9 to 14) (size 15 to 20)
#    0.000    2.143    2.857    1.071    0.000    2.857 
#    0.000    5.000    0.000    3.429    0.000    0.000 
#    0.000    0.000    0.000    0.000    0.000    0.000 
#
# Total GULP energy -156192.344784 kJ/mol
# GULP energy per Si atom -5578.298028 kJ/mol
# Density = 2.297444 g / cm^3
# Si number density = 23.026847 Si / 1000 Ang^3
#
#
#
# Elastic Constant Matrix: (Units=GPa)
#
#
# Indices 1 2 3 4 5 6 
#
# 1 57.9311 -3.4527 2.6759 0.0000 0.0000 0.0000
# 2 -3.4527 73.0033 36.3990 0.0000 0.0000 0.0000
# 3 2.6759 36.3990 155.6227 0.0000 0.0000 0.0000
# 4 0.0000 0.0000 0.0000 38.1248 0.0000 0.0000
# 5 0.0000 0.0000 0.0000 0.0000 -17.9898 0.0000
# 6 0.0000 0.0000 0.0000 0.0000 0.0000 -36.0960
#
#
#
# Elastic Compliance Matrix: (Units=1/GPa)
#
#
# Indices 1 2 3 4 5 6 
#
# 1 0.017353 0.001097 -0.000555 0.000000 0.000000 0.000000
# 2 0.001097 0.015576 -0.003662 0.000000 0.000000 0.000000
# 3 -0.000555 -0.003662 0.007292 0.000000 0.000000 0.000000
# 4 0.000000 0.000000 0.000000 0.026230 0.000000 0.000000
# 5 0.000000 0.000000 0.000000 0.000000 -0.055587 0.000000
# 6 0.000000 0.000000 0.000000 0.000000 0.000000 -0.027704
#
#
# Mechanical properties :
#
#
# Convention : Reuss Voigt Hill
#
# Bulk Modulus (GPa) = 29.42784 39.75573 34.59179
# Shear Modulus (GPa) = 6894.68074 13.53682 3454.10878
#
# Velocity S-wave (km/s) = 54.77858 2.42724 38.77231
# Velocity P-wave (km/s) = 63.35401 5.01575 44.93823
#
# Compressibility (1/GPa) = 0.03398143
#
# Stress axis : x y z
#
# Youngs Moduli (GPa) = 57.62719 64.20246 137.13968
#
# Poissons Ratio (x) = -0.07046 0.07612
# Poissons Ratio (y) = -0.06324 0.50219
# Poissons Ratio (z) = 0.03199 0.23510
#
# Static dielectric constant tensor:
#      x y z
#    x 1.859220 0.000000 0.000000 
#    y 0.000000 1.846520 0.000000 
#    z 0.000000 0.000000 1.928920 
# 
# From -- ./inp_files/12525.got.cif
#   From: 2010.05.17/outbox.cif.g08.bks.cpg/sg38_7_cif.got.tgz:12525.got - 2010.06.03 18:07:57.
