data_PCOD9356454
_publ_section_title
;
Structure prediction by ZEFSAII (Michael W. Deem and Ramdas Pophale) SiO2 
 PCOD9356454
Probable space group: A M M 2
;
_chemical_formula_sum "Si O2"
_cell_formula_units_Z 56
_cell_length_a 9.676300
_cell_length_b 19.691527
_cell_length_c 15.247099
_cell_angle_alpha 90.000000
_cell_angle_beta 90.000000
_cell_angle_gamma 90.000000
_cell_volume 2905.199362
_symmetry_space_group_name_H-M "A M M 2"
_symmetry_group_IT_number 38
_symmetry_cell_setting 'orthorhombic'
loop_
_space_group_symop_operation_xyz
x,y,z
-x,-y,z
-x,y,z
x,-y,z
x,1/2+y,1/2+z
-x,1/2-y,1/2+z
-x,1/2+y,1/2+z
x,1/2-y,1/2+z
loop_
_atom_site_type_symbol
_atom_site_label
_atom_site_fract_x
_atom_site_fract_y
_atom_site_fract_z
Si Si1 0.836073 0.371604 0.890260
Si Si2 0.163467 0.500000 0.475326
Si Si3 0.336450 0.265429 0.394114
Si Si4 0.338078 0.375270 0.545268
Si Si5 0.341353 0.078521 0.231310
Si Si6 0.836499 0.077759 0.585193
Si Si7 0.655006 0.644685 0.222745
Si Si8 0.351208 0.000000 0.816969
O O1 0.760433 0.299422 0.897552
O O2 0.764236 0.409369 0.809341
O O3 0.000000 0.364624 0.876506
O O4 0.814407 0.410190 0.982082
O O5 0.234543 0.433796 0.515648
O O6 0.215654 0.500000 0.375585
O O7 0.000000 0.500000 0.485015
O O8 0.500000 0.247701 0.391121
O O9 0.316105 0.312088 0.480426
O O10 0.306050 0.307443 0.304590
O O11 0.500000 0.395272 0.534357
O O12 0.318028 0.370265 0.650009
O O13 0.500000 0.087859 0.261763
O O14 0.330275 0.000000 0.199925
O O15 0.756908 0.134451 0.641532
O O16 0.000000 0.083058 0.602842
O O17 0.793852 0.000000 0.606404
O O18 0.500000 0.664387 0.193548
O O19 0.648125 0.568993 0.262960
O O20 0.500000 0.000000 0.867442
#
# Coordination Sequence:
#
# PCOD9356454 Si02
#       8
#     8   4   8   8   8   8   8   4
#     4  11  25  43  60  81 121 166 201 245 297 354
#     4  12  22  30  52  91 126 157 194 239 294 362
#     4  10  22  40  62  87 119 160 201 240 290 357
#     4  10  20  39  63  87 121 158 194 247 304 352
#     4  10  21  39  67  95 117 149 198 254 303 350
#     4  10  22  40  61  86 118 156 194 240 300 354
#     4  10  20  35  61  91 117 149 193 245 296 348
#     4  10  18  34  56  83 120 157 192 235 300 356
#
# _framework density 19.275784999999999
#
# number of rings (size 3 to 8) (size 9 to 14) (size 15 to 20)
#    0.000    1.714    2.857    1.500    0.000    5.429 
#    0.000    4.286    0.000    0.000    0.000    0.000 
#    0.000    0.000    0.000    0.000    0.000    0.000 
#
# Total GULP energy -156244.462655 kJ/mol
# GULP energy per Si atom -5580.159381 kJ/mol
# Density = 1.923191 g / cm^3
# Si number density = 19.275785 Si / 1000 Ang^3
#
#
#
# Elastic Constant Matrix: (Units=GPa)
#
#
# Indices 1 2 3 4 5 6 
#
# 1 79.5299 33.5012 53.5794 0.0000 0.0000 0.0000
# 2 33.5012 51.5153 20.3627 0.0000 0.0000 0.0000
# 3 53.5794 20.3627 99.3552 0.0000 0.0000 0.0000
# 4 0.0000 0.0000 0.0000 14.3039 0.0000 0.0000
# 5 0.0000 0.0000 0.0000 0.0000 12.4625 0.0000
# 6 0.0000 0.0000 0.0000 0.0000 0.0000 29.8093
#
#
#
# Elastic Compliance Matrix: (Units=1/GPa)
#
#
# Indices 1 2 3 4 5 6 
#
# 1 0.025048 -0.011915 -0.011066 0.000000 0.000000 0.000000
# 2 -0.011915 0.026791 0.000935 0.000000 0.000000 0.000000
# 3 -0.011066 0.000935 0.015841 0.000000 0.000000 0.000000
# 4 0.000000 0.000000 0.000000 0.069911 0.000000 0.000000
# 5 0.000000 0.000000 0.000000 0.000000 0.080241 0.000000
# 6 0.000000 0.000000 0.000000 0.000000 0.000000 0.033547
#
#
# Mechanical properties :
#
#
# Convention : Reuss Voigt Hill
#
# Bulk Modulus (GPa) = 42.39547 49.47634 45.93590
# Shear Modulus (GPa) = 16.48357 19.51228 17.99793
#
# Velocity S-wave (km/s) = 2.92746 3.18507 3.05898
# Velocity P-wave (km/s) = 5.78520 6.26495 6.02985
#
# Compressibility (1/GPa) = 0.02358743
#
# Stress axis : x y z
#
# Youngs Moduli (GPa) = 39.92343 37.32625 63.12850
#
# Poissons Ratio (x) = 0.44475 0.69856
# Poissons Ratio (y) = 0.47569 -0.05901
# Poissons Ratio (z) = 0.44178 -0.03489
#
# Static dielectric constant tensor:
#      x y z
#    x 1.668060 0.000000 0.000000 
#    y 0.000000 1.660780 0.000000 
#    z 0.000000 0.000000 1.705650 
# 
# From -- ./inp_files/12493.got.cif
#   From: 2010.05.17/outbox.cif.g08.bks.cpg/sg38_7_cif.got.tgz:12493.got - 2010.06.03 18:07:57.
