data_PCOD9356066
_publ_section_title
;
Structure prediction by ZEFSAII (Michael W. Deem and Ramdas Pophale) SiO2 
 PCOD9356066
Probable space group: A M M 2
;
_chemical_formula_sum "Si O2"
_cell_formula_units_Z 64
_cell_length_a 7.633227
_cell_length_b 23.821512
_cell_length_c 20.060240
_cell_angle_alpha 90.000000
_cell_angle_beta 90.000000
_cell_angle_gamma 90.000000
_cell_volume 3647.653913
_symmetry_space_group_name_H-M "A M M 2"
_symmetry_group_IT_number 38
_symmetry_cell_setting 'orthorhombic'
loop_
_space_group_symop_operation_xyz
x,y,z
-x,-y,z
-x,y,z
x,-y,z
x,1/2+y,1/2+z
-x,1/2-y,1/2+z
-x,1/2+y,1/2+z
x,1/2-y,1/2+z
loop_
_atom_site_type_symbol
_atom_site_label
_atom_site_fract_x
_atom_site_fract_y
_atom_site_fract_z
Si Si1 0.289780 0.772131 0.964070
Si Si2 0.207197 0.372146 0.112242
Si Si3 0.288289 0.936293 0.475783
Si Si4 0.214267 0.564063 0.245919
Si Si5 0.714693 0.162177 0.383207
Si Si6 0.208469 0.665731 0.333551
Si Si7 0.293111 0.721648 0.754100
Si Si8 0.704185 0.242719 0.109250
O O1 0.500000 0.767492 0.968803
O O2 0.228596 0.713434 0.931273
O O3 0.251457 0.819914 0.909891
O O4 0.219515 0.778242 0.038932
O O5 0.269156 0.407621 0.176085
O O6 0.289335 0.310507 0.108315
O O7 0.000000 0.363084 0.120484
O O8 0.239027 0.406797 0.045098
O O9 0.500000 0.937755 0.473466
O O10 0.228741 0.896040 0.415714
O O11 0.223387 0.000000 0.472551
O O12 0.274429 0.500000 0.252040
O O13 0.270645 0.606469 0.304365
O O14 0.000000 0.562610 0.245672
O O15 0.500000 0.162865 0.382437
O O16 0.776622 0.178112 0.309136
O O17 0.276750 0.716904 0.287882
O O18 0.000000 0.667065 0.326568
O O19 0.500000 0.710502 0.748106
O O20 0.217128 0.722941 0.679711
O O21 0.500000 0.226003 0.109783
#
# Coordination Sequence:
#
# PCOD9356066 Si02
#       8
#     8   8   8   8   8   8   8   8
#     4   9  17  30  46  62  87 117 146 185 228 270
#     4  11  20  30  44  64  93 123 151 187 222 262
#     4  10  19  31  46  63  88 123 159 189 215 257
#     4   9  18  31  44  60  88 124 153 180 221 265
#     4   8  14  27  43  62  85 111 143 181 221 258
#     4  10  18  29  45  66  89 114 149 189 222 262
#     4   9  17  29  47  65  87 117 148 182 223 270
#     4  10  18  30  48  67  89 121 155 184 220 271
#
# _framework density 17.545524
#
# number of rings (size 3 to 8) (size 9 to 14) (size 15 to 20)
#    0.000    2.500    2.500    1.875    0.000    1.250 
#    0.000    0.000    0.000    3.750    0.000    0.875 
#    0.000    3.000    0.000    0.000    0.000    0.000 
#
# Total GULP energy -178440.587034 kJ/mol
# GULP energy per Si atom -5576.268345 kJ/mol
# Density = 1.750559 g / cm^3
# Si number density = 17.545524 Si / 1000 Ang^3
#
#
#
# Elastic Constant Matrix: (Units=GPa)
#
#
# Indices 1 2 3 4 5 6 
#
# 1 35.4539 -6.6514 2.5943 0.0000 0.0000 0.0000
# 2 -6.6514 64.6603 74.3734 0.0000 0.0000 0.0000
# 3 2.5943 74.3734 181.6673 0.0000 0.0000 0.0000
# 4 0.0000 0.0000 0.0000 18.8939 0.0000 0.0000
# 5 0.0000 0.0000 0.0000 0.0000 5.8593 0.0000
# 6 0.0000 0.0000 0.0000 0.0000 0.0000 31.7894
#
#
#
# Elastic Compliance Matrix: (Units=1/GPa)
#
#
# Indices 1 2 3 4 5 6 
#
# 1 0.029693 0.006695 -0.003165 0.000000 0.000000 0.000000
# 2 0.006695 0.030739 -0.012680 0.000000 0.000000 0.000000
# 3 -0.003165 -0.012680 0.010741 0.000000 0.000000 0.000000
# 4 0.000000 0.000000 0.000000 0.052927 0.000000 0.000000
# 5 0.000000 0.000000 0.000000 0.000000 0.170668 0.000000
# 6 0.000000 0.000000 0.000000 0.000000 0.000000 0.031457
#
#
# Mechanical properties :
#
#
# Convention : Reuss Voigt Hill
#
# Bulk Modulus (GPa) = 18.91332 46.93487 32.92410
# Shear Modulus (GPa) = 13.80647 25.40621 19.60634
#
# Velocity S-wave (km/s) = 2.80821 3.80941 3.34646
# Velocity P-wave (km/s) = 4.61711 6.79391 5.80839
#
# Compressibility (1/GPa) = 0.05287280
#
# Stress axis : x y z
#
# Youngs Moduli (GPa) = 33.67773 32.53236 93.10305
#
# Poissons Ratio (x) = -0.21779 0.29465
# Poissons Ratio (y) = -0.22546 1.18053
# Poissons Ratio (z) = 0.10658 0.41250
#
# Static dielectric constant tensor:
#      x y z
#    x 1.641560 0.000000 0.000000 
#    y 0.000000 1.571910 0.000000 
#    z 0.000000 0.000000 1.635370 
# 
# From -- ./inp_files/20239.got.cif
#   From: 2010.05.17/outbox.cif.g08.bks.cpg/sg38_11_cif.got.tgz:20239.got - 2010.06.03 18:07:57.
