data_PCOD9356463
_publ_section_title
;
Structure prediction by ZEFSAII (Michael W. Deem and Ramdas Pophale) SiO2 
 PCOD9356463
Probable space group: A M M 2
;
_chemical_formula_sum "Si O2"
_cell_formula_units_Z 56
_cell_length_a 7.584227
_cell_length_b 19.496434
_cell_length_c 17.060167
_cell_angle_alpha 90.000000
_cell_angle_beta 90.000000
_cell_angle_gamma 90.000000
_cell_volume 2522.608096
_symmetry_space_group_name_H-M "A M M 2"
_symmetry_group_IT_number 38
_symmetry_cell_setting 'orthorhombic'
loop_
_space_group_symop_operation_xyz
x,y,z
-x,-y,z
-x,y,z
x,-y,z
x,1/2+y,1/2+z
-x,1/2-y,1/2+z
-x,1/2+y,1/2+z
x,1/2-y,1/2+z
loop_
_atom_site_type_symbol
_atom_site_label
_atom_site_fract_x
_atom_site_fract_y
_atom_site_fract_z
Si Si1 0.209046 0.702682 0.964710
Si Si2 0.284631 0.078716 0.048313
Si Si3 0.707249 0.705300 0.143434
Si Si4 0.711666 0.343362 0.393320
Si Si5 0.286240 0.846354 0.207095
Si Si6 0.284080 0.578459 0.236154
Si Si7 0.209271 0.422676 0.868473
O O1 0.246794 0.763297 0.903098
O O2 0.282050 0.630742 0.932424
O O3 0.000000 0.697166 0.971955
O O4 0.276325 0.720273 0.051348
O O5 0.500000 0.080363 0.047490
O O6 0.228940 0.112770 0.129508
O O7 0.230211 0.000000 0.043894
O O8 0.222979 0.120065 0.972399
O O9 0.500000 0.703568 0.161583
O O10 0.779201 0.768444 0.194771
O O11 0.774973 0.630380 0.167596
O O12 0.500000 0.348539 0.392421
O O13 0.772226 0.383667 0.316437
O O14 0.500000 0.844956 0.207563
O O15 0.231282 0.886039 0.284665
O O16 0.500000 0.575153 0.236408
O O17 0.222689 0.500000 0.230613
O O18 0.282024 0.500000 0.869108
O O19 0.000000 0.427860 0.882452
#
# Coordination Sequence:
#
# PCOD9356463 Si02
#       7
#     8   8   8   8   8   8   8
#     4  11  23  38  57  80 108 145 189 230 271 324
#     4   9  16  27  49  81 113 142 173 213 262 320
#     4  10  20  36  57  83 114 145 182 227 273 322
#     4  10  18  34  58  82 111 144 180 222 273 328
#     4  10  19  34  56  84 113 141 180 227 273 325
#     4   9  18  32  55  87 116 143 179 225 274 324
#     4  10  23  41  57  77 109 147 185 228 277 326
#
# _framework density 22.199245000000001
#
# number of rings (size 3 to 8) (size 9 to 14) (size 15 to 20)
#    0.000    2.143    1.429    2.143    0.000    6.000 
#    0.000    0.714    0.000    2.571    0.000    0.000 
#    0.000    0.000    0.000    0.000    0.000    0.000 
#
# Total GULP energy -156419.903190 kJ/mol
# GULP energy per Si atom -5586.425114 kJ/mol
# Density = 2.214872 g / cm^3
# Si number density = 22.199245 Si / 1000 Ang^3
#
#
#
# Elastic Constant Matrix: (Units=GPa)
#
#
# Indices 1 2 3 4 5 6 
#
# 1 45.6797 2.8442 -11.0828 0.0000 0.0000 0.0000
# 2 2.8442 190.1560 26.1842 0.0000 0.0000 0.0000
# 3 -11.0828 26.1842 31.5129 0.0000 0.0000 0.0000
# 4 0.0000 0.0000 0.0000 26.7253 0.0000 0.0000
# 5 0.0000 0.0000 0.0000 0.0000 2.0836 0.0000
# 6 0.0000 0.0000 0.0000 0.0000 0.0000 4.9505
#
#
#
# Elastic Compliance Matrix: (Units=1/GPa)
#
#
# Indices 1 2 3 4 5 6 
#
# 1 0.024438 -0.001749 0.010048 0.000000 0.000000 0.000000
# 2 -0.001749 0.006063 -0.005653 0.000000 0.000000 0.000000
# 3 0.010048 -0.005653 0.039964 0.000000 0.000000 0.000000
# 4 0.000000 0.000000 0.000000 0.037418 0.000000 0.000000
# 5 0.000000 0.000000 0.000000 0.000000 0.479928 0.000000
# 6 0.000000 0.000000 0.000000 0.000000 0.000000 0.201998
#
#
# Mechanical properties :
#
#
# Convention : Reuss Voigt Hill
#
# Bulk Modulus (GPa) = 13.20003 33.69330 23.44666
# Shear Modulus (GPa) = 6.17458 23.37877 14.77668
#
# Velocity S-wave (km/s) = 1.66957 3.24872 2.58280
# Velocity P-wave (km/s) = 3.11058 5.41137 4.41354
#
# Compressibility (1/GPa) = 0.07575742
#
# Stress axis : x y z
#
# Youngs Moduli (GPa) = 40.91928 164.92249 25.02239
#
# Poissons Ratio (x) = 0.28847 -0.25143
# Poissons Ratio (y) = 0.07157 0.14146
# Poissons Ratio (z) = -0.41116 0.93236
#
# Static dielectric constant tensor:
#      x y z
#    x 1.845620 0.000000 0.000000 
#    y 0.000000 1.823980 0.000000 
#    z 0.000000 0.000000 1.785150 
# 
# From -- ./inp_files/12403.got.cif
#   From: 2010.05.17/outbox.cif.g08.bks.cpg/sg38_7_cif.got.tgz:12403.got - 2010.06.03 18:07:57.
