data_PCOD9356522
_publ_section_title
;
Structure prediction by ZEFSAII (Michael W. Deem and Ramdas Pophale) SiO2 
 PCOD9356522
Probable space group: A M M 2
;
_chemical_formula_sum "Si O2"
_cell_formula_units_Z 56
_cell_length_a 8.345266
_cell_length_b 21.553106
_cell_length_c 19.161470
_cell_angle_alpha 90.000000
_cell_angle_beta 90.000000
_cell_angle_gamma 90.000000
_cell_volume 3446.504679
_symmetry_space_group_name_H-M "A M M 2"
_symmetry_group_IT_number 38
_symmetry_cell_setting 'orthorhombic'
loop_
_space_group_symop_operation_xyz
x,y,z
-x,-y,z
-x,y,z
x,-y,z
x,1/2+y,1/2+z
-x,1/2-y,1/2+z
-x,1/2+y,1/2+z
x,1/2-y,1/2+z
loop_
_atom_site_type_symbol
_atom_site_label
_atom_site_fract_x
_atom_site_fract_y
_atom_site_fract_z
Si Si1 0.311596 0.681134 0.708130
Si Si2 0.809481 0.500000 0.082484
Si Si3 0.809206 0.750634 0.920844
Si Si4 0.808967 0.194797 0.779334
Si Si5 0.307958 0.374116 0.153840
Si Si6 0.305604 0.125131 0.346418
Si Si7 0.305632 0.500000 0.923321
Si Si8 0.693215 0.247442 0.076731
O O1 0.500000 0.667454 0.700701
O O2 0.287319 0.747830 0.745334
O O3 0.246165 0.634025 0.766470
O O4 0.245787 0.694645 0.630801
O O5 0.745159 0.561853 0.119709
O O6 0.000000 0.500000 0.085699
O O7 0.754537 0.500000 0.002209
O O8 0.769085 0.801785 0.861374
O O9 0.747917 0.684737 0.891001
O O10 0.000000 0.747275 0.925696
O O11 0.742149 0.762184 0.997409
O O12 0.762415 0.136996 0.731236
O O13 0.000000 0.206173 0.772602
O O14 0.500000 0.372237 0.157701
O O15 0.254134 0.315103 0.106124
O O16 0.500000 0.125536 0.344918
O O17 0.252981 0.061864 0.382808
O O18 0.500000 0.500000 0.924988
O O19 0.500000 0.247507 0.080401
#
# Coordination Sequence:
#
# PCOD9356522 Si02
#       8
#     8   4   8   8   8   8   4   8
#     4   8  15  28  44  62  84 114 150 185 223 269
#     4  12  24  34  46  66  93 124 153 184 219 258
#     4  10  19  28  42  66  93 117 144 180 223 269
#     4   9  17  29  44  64  88 113 144 183 225 269
#     4  10  20  34  49  65  88 120 155 188 220 262
#     4   9  17  30  46  62  86 119 153 186 222 263
#     4  10  20  32  46  66  91 122 157 190 221 258
#     4   9  17  28  44  65  88 114 146 183 224 266
#
# _framework density 16.248346000000002
#
# number of rings (size 3 to 8) (size 9 to 14) (size 15 to 20)
#    0.000    2.571    0.000    3.643    0.000    8.571 
#    0.000    0.000    0.000    0.000    0.000    1.000 
#    0.000    2.286    0.000    0.000    0.000    0.000 
#
# Total GULP energy -155921.229410 kJ/mol
# GULP energy per Si atom -5568.615336 kJ/mol
# Density = 1.621136 g / cm^3
# Si number density = 16.248346 Si / 1000 Ang^3
#
#
#
# Elastic Constant Matrix: (Units=GPa)
#
#
# Indices 1 2 3 4 5 6 
#
# 1 17.4381 10.7041 18.1237 0.0000 0.0000 0.0000
# 2 10.7041 73.1501 69.9961 0.0000 0.0000 0.0000
# 3 18.1237 69.9961 176.7520 0.0000 0.0000 0.0000
# 4 0.0000 0.0000 0.0000 28.0288 0.0000 0.0000
# 5 0.0000 0.0000 0.0000 0.0000 9.9794 0.0000
# 6 0.0000 0.0000 0.0000 0.0000 0.0000 10.5746
#
#
#
# Elastic Compliance Matrix: (Units=1/GPa)
#
#
# Indices 1 2 3 4 5 6 
#
# 1 0.065334 -0.005072 -0.004691 0.000000 0.000000 0.000000
# 2 -0.005072 0.022405 -0.008353 0.000000 0.000000 0.000000
# 3 -0.004691 -0.008353 0.009446 0.000000 0.000000 0.000000
# 4 0.000000 0.000000 0.000000 0.035678 0.000000 0.000000
# 5 0.000000 0.000000 0.000000 0.000000 0.100206 0.000000
# 6 0.000000 0.000000 0.000000 0.000000 0.000000 0.094566
#
#
# Mechanical properties :
#
#
# Convention : Reuss Voigt Hill
#
# Bulk Modulus (GPa) = 16.40552 51.66533 34.03543
# Shear Modulus (GPa) = 13.01459 20.95099 16.98279
#
# Velocity S-wave (km/s) = 2.83323 3.59475 3.23646
# Velocity P-wave (km/s) = 4.56307 7.00685 5.91259
#
# Compressibility (1/GPa) = 0.06095508
#
# Stress axis : x y z
#
# Youngs Moduli (GPa) = 15.30597 44.63239 105.86050
#
# Poissons Ratio (x) = 0.22637 0.49655
# Poissons Ratio (y) = 0.07763 0.88422
# Poissons Ratio (z) = 0.07179 0.37280
#
# Static dielectric constant tensor:
#      x y z
#    x 1.563040 0.000000 0.000000 
#    y 0.000000 1.531410 0.000000 
#    z 0.000000 0.000000 1.584080 
# 
# From -- ./inp_files/20194.got.cif
#   From: 2010.05.17/outbox.cif.g08.bks.cpg/sg38_11_cif.got.tgz:20194.got - 2010.06.03 18:07:57.
