data_PCOD9356423
_publ_section_title
;
Structure prediction by ZEFSAII (Michael W. Deem and Ramdas Pophale) SiO2 
 PCOD9356423
Probable space group: A M M 2
;
_chemical_formula_sum "Si O2"
_cell_formula_units_Z 40
_cell_length_a 7.481230
_cell_length_b 10.777320
_cell_length_c 23.335160
_cell_angle_alpha 90.000000
_cell_angle_beta 90.000000
_cell_angle_gamma 90.000000
_cell_volume 1881.458173
_symmetry_space_group_name_H-M "A M M 2"
_symmetry_group_IT_number 38
_symmetry_cell_setting 'orthorhombic'
loop_
_space_group_symop_operation_xyz
x,y,z
-x,-y,z
-x,y,z
x,-y,z
x,1/2+y,1/2+z
-x,1/2-y,1/2+z
-x,1/2+y,1/2+z
x,1/2-y,1/2+z
loop_
_atom_site_type_symbol
_atom_site_label
_atom_site_fract_x
_atom_site_fract_y
_atom_site_fract_z
Si Si1 0.718737 0.738239 0.932870
Si Si2 0.209916 0.000000 0.224908
Si Si3 0.715616 0.642820 0.056297
Si Si4 0.215024 0.500000 0.247968
Si Si5 0.283826 0.000000 0.358944
Si Si6 0.788757 0.259738 0.181019
Si Si7 0.286749 0.500000 0.382870
O O1 0.500000 0.738751 0.932044
O O2 0.774839 0.624233 0.892143
O O3 0.780995 0.871805 0.910393
O O4 0.775024 0.707731 0.997665
O O5 0.287563 0.127489 0.199954
O O6 0.225202 0.000000 0.293373
O O7 0.000000 0.000000 0.209258
O O8 0.500000 0.639120 0.054655
O O9 0.778766 0.500000 0.058464
O O10 0.768089 0.712738 0.114005
O O11 0.285003 0.623467 0.216664
O O12 0.254435 0.500000 0.315038
O O13 0.000000 0.500000 0.241120
O O14 0.500000 0.000000 0.359743
O O15 0.000000 0.256138 0.194165
O O16 0.500000 0.500000 0.391979
#
# Coordination Sequence:
#
# PCOD9356423 Si02
#       7
#     8   4   8   4   4   8   4
#     4   9  18  33  53  78 106 135 166 211 264 303
#     4  10  22  37  52  76 110 141 171 214 265 308
#     4  10  19  34  57  80 103 134 176 219 258 308
#     4  10  20  35  54  74 104 141 173 212 259 304
#     4  10  18  33  56  76 102 139 175 210 253 308
#     4  10  21  37  55  76 106 141 174 214 263 308
#     4  10  20  33  52  78 106 135 171 210 253 310
#
# _framework density 21.260104999999999
#
# number of rings (size 3 to 8) (size 9 to 14) (size 15 to 20)
#    0.000    2.200    2.000    1.200    0.000    2.400 
#    0.000    3.000    0.000    0.000    0.000    0.000 
#    0.000    0.000    0.000    0.000    0.000    0.000 
#
# Total GULP energy -111762.826391 kJ/mol
# GULP energy per Si atom -5588.141320 kJ/mol
# Density = 2.121172 g / cm^3
# Si number density = 21.260105 Si / 1000 Ang^3
#
#
#
# Elastic Constant Matrix: (Units=GPa)
#
#
# Indices 1 2 3 4 5 6 
#
# 1 58.4231 10.8289 -21.2543 0.0000 0.0000 0.0000
# 2 10.8289 259.9775 137.1020 0.0000 0.0000 0.0000
# 3 -21.2543 137.1020 169.3400 0.0000 0.0000 0.0000
# 4 0.0000 0.0000 0.0000 -67.6926 0.0000 0.0000
# 5 0.0000 0.0000 0.0000 0.0000 33.3843 0.0000
# 6 0.0000 0.0000 0.0000 0.0000 0.0000 -11.3699
#
#
#
# Elastic Compliance Matrix: (Units=1/GPa)
#
#
# Indices 1 2 3 4 5 6 
#
# 1 0.019810 -0.003728 0.005505 0.000000 0.000000 0.000000
# 2 -0.003728 0.007414 -0.006471 0.000000 0.000000 0.000000
# 3 0.005505 -0.006471 0.011835 0.000000 0.000000 0.000000
# 4 0.000000 0.000000 0.000000 -0.014773 0.000000 0.000000
# 5 0.000000 0.000000 0.000000 0.000000 0.029954 0.000000
# 6 0.000000 0.000000 0.000000 0.000000 0.000000 -0.087951
#
#
# Mechanical properties :
#
#
# Convention : Reuss Voigt Hill
#
# Bulk Modulus (GPa) = 33.70239 82.34378 58.02308
# Shear Modulus (GPa) = -346.44611 14.93529 -165.75541
#
# Velocity S-wave (km/s) = -12.77927 2.65335 -8.83938
# Velocity P-wave (km/s) = 14.20773 6.94282 8.76518
#
# Compressibility (1/GPa) = 0.02967149
#
# Stress axis : x y z
#
# Youngs Moduli (GPa) = 50.47893 134.87764 84.49522
#
# Poissons Ratio (x) = 0.50286 -0.46514
# Poissons Ratio (y) = 0.18820 0.54674
# Poissons Ratio (z) = -0.27788 0.87274
#
# Static dielectric constant tensor:
#      x y z
#    x 1.794020 0.000000 0.000000 
#    y 0.000000 1.772010 0.000000 
#    z 0.000000 0.000000 1.694440 
# 
# From -- ./inp_files/19537.got.cif
#   From: 2010.05.17/outbox.cif.g08.bks.cpg/sg38_10_cif.got.tgz:19537.got - 2010.06.03 18:07:57.
