data_PCOD9356306
_publ_section_title
;
Structure prediction by ZEFSAII (Michael W. Deem and Ramdas Pophale) SiO2 
 PCOD9356306
Probable space group: A M M 2
;
_chemical_formula_sum "Si O2"
_cell_formula_units_Z 48
_cell_length_a 15.065574
_cell_length_b 12.922637
_cell_length_c 12.587053
_cell_angle_alpha 90.000000
_cell_angle_beta 90.000000
_cell_angle_gamma 90.000000
_cell_volume 2450.534883
_symmetry_space_group_name_H-M "A M M 2"
_symmetry_group_IT_number 38
_symmetry_cell_setting 'orthorhombic'
loop_
_space_group_symop_operation_xyz
x,y,z
-x,-y,z
-x,y,z
x,-y,z
x,1/2+y,1/2+z
-x,1/2-y,1/2+z
-x,1/2+y,1/2+z
x,1/2-y,1/2+z
loop_
_atom_site_type_symbol
_atom_site_label
_atom_site_fract_x
_atom_site_fract_y
_atom_site_fract_z
Si Si1 0.896518 0.882649 0.539290
Si Si2 0.102621 0.319225 0.279862
Si Si3 0.403610 0.379152 0.735247
Si Si4 0.784719 0.188826 0.972693
Si Si5 0.402523 0.120114 0.978398
Si Si6 0.794767 0.620589 0.715091
O O1 0.885491 0.875412 0.666993
O O2 0.828872 0.800817 0.490524
O O3 0.000000 0.854800 0.517281
O O4 0.881434 0.000000 0.504031
O O5 0.162083 0.360950 0.375529
O O6 0.132777 0.200621 0.257719
O O7 0.000000 0.324493 0.309255
O O8 0.500000 0.335331 0.771230
O O9 0.403596 0.500000 0.767035
O O10 0.406631 0.376368 0.606601
O O11 0.302846 0.342929 0.756711
O O12 0.680735 0.188194 0.946371
O O13 0.794458 0.131565 0.086320
O O14 0.500000 0.149405 0.938310
O O15 0.385867 0.000000 0.949360
O O16 0.808242 0.500000 0.741459
#
# Coordination Sequence:
#
# PCOD9356306 Si02
#       6
#     8   8   8   8   8   8
#     4   9  19  35  51  68  96 135 173 206 245 296
#     4  10  21  34  47  69 100 130 164 208 253 295
#     4   7  10  20  41  67  93 120 148 180 225 283
#     4  10  18  31  53  76  98 128 168 207 245 292
#     4   8  14  26  47  76 105 129 156 195 245 298
#     4   9  18  32  50  74 100 125 158 204 254 299
#
# _framework density 19.587561000000001
#
# number of rings (size 3 to 8) (size 9 to 14) (size 15 to 20)
#    0.000    3.167    0.000    3.000    0.000    3.000 
#    0.000    0.833    0.000    6.000    0.000    0.000 
#    0.000    0.000    0.000    0.000    0.000    0.000 
#
# Total GULP energy -133668.924040 kJ/mol
# GULP energy per Si atom -5569.538502 kJ/mol
# Density = 1.954298 g / cm^3
# Si number density = 19.587561 Si / 1000 Ang^3
#
#
#
# Elastic Constant Matrix: (Units=GPa)
#
#
# Indices 1 2 3 4 5 6 
#
# 1 145.4268 41.5127 18.6849 0.0000 0.0000 0.0000
# 2 41.5127 76.5653 10.3103 0.0000 0.0000 0.0000
# 3 18.6849 10.3103 53.4594 0.0000 0.0000 0.0000
# 4 0.0000 0.0000 0.0000 -1.2627 0.0000 0.0000
# 5 0.0000 0.0000 0.0000 0.0000 9.5457 0.0000
# 6 0.0000 0.0000 0.0000 0.0000 0.0000 2.3632
#
#
#
# Elastic Compliance Matrix: (Units=1/GPa)
#
#
# Indices 1 2 3 4 5 6 
#
# 1 0.008359 -0.004249 -0.002102 0.000000 0.000000 0.000000
# 2 -0.004249 0.015569 -0.001517 0.000000 0.000000 0.000000
# 3 -0.002102 -0.001517 0.019733 0.000000 0.000000 0.000000
# 4 0.000000 0.000000 0.000000 -0.791953 0.000000 0.000000
# 5 0.000000 0.000000 0.000000 0.000000 0.104759 0.000000
# 6 0.000000 0.000000 0.000000 0.000000 0.000000 0.423163
#
#
# Mechanical properties :
#
#
# Convention : Reuss Voigt Hill
#
# Bulk Modulus (GPa) = 35.81191 46.27414 41.04302
# Shear Modulus (GPa) = -25.59863 15.79214 -4.90325
#
# Velocity S-wave (km/s) = -3.61900 2.84250 -1.58388
# Velocity P-wave (km/s) = 0.92723 5.86930 4.20169
#
# Compressibility (1/GPa) = 0.02792367
#
# Stress axis : x y z
#
# Youngs Moduli (GPa) = 119.62612 64.23028 50.67598
#
# Poissons Ratio (x) = 0.27293 0.10653
# Poissons Ratio (y) = 0.50832 0.07690
# Poissons Ratio (z) = 0.25148 0.09747
#
# Static dielectric constant tensor:
#      x y z
#    x 1.720760 0.000000 0.000000 
#    y 0.000000 1.687420 0.000000 
#    z 0.000000 0.000000 1.707370 
# 
# From -- ./inp_files/10014.got.cif
#   From: 2010.05.17/outbox.cif.g08.bks.cpg/sg38_6_cif.got.tgz:10014.got - 2010.06.03 18:07:57.
