data_PCOD9356778
_publ_section_title
;
Structure prediction by ZEFSAII (Michael W. Deem and Ramdas Pophale) SiO2 
 PCOD9356778
Probable space group: A M M 2
;
_chemical_formula_sum "Si O2"
_cell_formula_units_Z 64
_cell_length_a 9.036794
_cell_length_b 14.567999
_cell_length_c 29.046472
_cell_angle_alpha 90.000000
_cell_angle_beta 90.000000
_cell_angle_gamma 90.000000
_cell_volume 3823.910119
_symmetry_space_group_name_H-M "A M M 2"
_symmetry_group_IT_number 38
_symmetry_cell_setting 'orthorhombic'
loop_
_space_group_symop_operation_xyz
x,y,z
-x,-y,z
-x,y,z
x,-y,z
x,1/2+y,1/2+z
-x,1/2-y,1/2+z
-x,1/2+y,1/2+z
x,1/2-y,1/2+z
loop_
_atom_site_type_symbol
_atom_site_label
_atom_site_fract_x
_atom_site_fract_y
_atom_site_fract_z
Si Si1 0.177142 0.105627 0.704620
Si Si2 0.323827 0.892761 0.343973
Si Si3 0.177317 0.777430 0.884290
Si Si4 0.177429 0.784571 0.154318
Si Si5 0.177417 0.393443 0.473823
Si Si6 0.172490 0.390547 0.747759
Si Si7 0.323204 0.893129 0.071659
Si Si8 0.326108 0.890229 0.802257
O O1 0.214225 0.178795 0.665272
O O2 0.258075 0.130342 0.752182
O O3 0.000000 0.111795 0.712546
O O4 0.212930 0.000000 0.693192
O O5 0.500000 0.882862 0.346739
O O6 0.244183 0.823779 0.378617
O O7 0.268697 0.867988 0.292468
O O8 0.285645 0.000000 0.351401
O O9 0.219327 0.827611 0.931796
O O10 0.241314 0.836671 0.842068
O O11 0.000000 0.774571 0.881390
O O12 0.216031 0.839167 0.201216
O O13 0.257761 0.828832 0.111121
O O14 0.000000 0.792919 0.148027
O O15 0.212539 0.500000 0.462304
O O16 0.256596 0.370605 0.521662
O O17 0.000000 0.387632 0.480161
O O18 0.182567 0.500000 0.740174
O O19 0.000000 0.367959 0.757585
O O20 0.500000 0.886586 0.070430
O O21 0.283191 0.000000 0.081469
O O22 0.500000 0.867578 0.803319
O O23 0.309877 0.000000 0.809216
#
# Coordination Sequence:
#
# PCOD9356778 Si02
#       8
#     8   8   8   8   8   8   8   8
#     4   9  18  32  49  71 101 136 173 211 247 285
#     4  10  21  35  50  71 102 138 172 209 253 296
#     4  11  21  33  53  77 100 131 171 210 248 294
#     4  10  19  31  50  73  97 130 169 205 244 291
#     4   9  19  36  56  77 101 128 158 195 242 296
#     4   9  17  29  46  70  99 131 169 209 246 290
#     4  10  21  35  52  76 103 128 155 194 247 302
#     4  10  20  32  48  74 107 139 169 204 249 300
#
# _framework density 16.736795000000001
#
# number of rings (size 3 to 8) (size 9 to 14) (size 15 to 20)
#    0.000    2.250    0.000    3.000    0.000    6.250 
#    0.000    2.500    0.000    0.750    0.000    1.750 
#    0.000    0.000    0.000    0.000    0.000    0.000 
#
# Total GULP energy -178642.605559 kJ/mol
# GULP energy per Si atom -5582.581424 kJ/mol
# Density = 1.669870 g / cm^3
# Si number density = 16.736795 Si / 1000 Ang^3
#
#
#
# Elastic Constant Matrix: (Units=GPa)
#
#
# Indices 1 2 3 4 5 6 
#
# 1 51.8636 54.4018 59.4877 0.0000 0.0000 0.0000
# 2 54.4018 101.6760 95.0569 0.0000 0.0000 0.0000
# 3 59.4877 95.0569 128.7251 0.0000 0.0000 0.0000
# 4 0.0000 0.0000 0.0000 32.3071 0.0000 0.0000
# 5 0.0000 0.0000 0.0000 0.0000 -53.4749 0.0000
# 6 0.0000 0.0000 0.0000 0.0000 0.0000 24.0893
#
#
#
# Elastic Compliance Matrix: (Units=1/GPa)
#
#
# Indices 1 2 3 4 5 6 
#
# 1 0.047874 -0.015927 -0.010363 0.000000 0.000000 0.000000
# 2 -0.015927 0.037063 -0.020009 0.000000 0.000000 0.000000
# 3 -0.010363 -0.020009 0.027333 0.000000 0.000000 0.000000
# 4 0.000000 0.000000 0.000000 0.030953 0.000000 0.000000
# 5 0.000000 0.000000 0.000000 0.000000 -0.018700 0.000000
# 6 0.000000 0.000000 0.000000 0.000000 0.000000 0.041512
#
#
# Mechanical properties :
#
#
# Convention : Reuss Voigt Hill
#
# Bulk Modulus (GPa) = 50.83139 77.79529 64.31334
# Shear Modulus (GPa) = 18.85443 5.47219 12.16331
#
# Velocity S-wave (km/s) = 3.36002 1.81015 2.69874
# Velocity P-wave (km/s) = 6.74462 7.13802 6.94411
#
# Compressibility (1/GPa) = 0.01967288
#
# Stress axis : x y z
#
# Youngs Moduli (GPa) = 20.88832 26.98094 36.58547
#
# Poissons Ratio (x) = 0.42971 0.37913
# Poissons Ratio (y) = 0.33268 0.73204
# Poissons Ratio (z) = 0.21646 0.53987
#
# Static dielectric constant tensor:
#      x y z
#    x 1.557600 0.000000 0.000000 
#    y 0.000000 1.588220 0.000000 
#    z 0.000000 0.000000 1.521870 
# 
# From -- ./inp_files/22118.got.cif
#   From: 2010.05.17/outbox.cif.g08.bks.cpg/sg38_12_cif.got.tgz:22118.got - 2010.06.03 18:07:57.
