data_PCOD9356474
_publ_section_title
;
Structure prediction by ZEFSAII (Michael W. Deem and Ramdas Pophale) SiO2 
 PCOD9356474
Probable space group: A M M 2
;
_chemical_formula_sum "Si O2"
_cell_formula_units_Z 64
_cell_length_a 16.032690
_cell_length_b 7.908326
_cell_length_c 24.606112
_cell_angle_alpha 90.000000
_cell_angle_beta 90.000000
_cell_angle_gamma 90.000000
_cell_volume 3119.851735
_symmetry_space_group_name_H-M "A M M 2"
_symmetry_group_IT_number 38
_symmetry_cell_setting 'orthorhombic'
loop_
_space_group_symop_operation_xyz
x,y,z
-x,-y,z
-x,y,z
x,-y,z
x,1/2+y,1/2+z
-x,1/2-y,1/2+z
-x,1/2+y,1/2+z
x,1/2-y,1/2+z
loop_
_atom_site_type_symbol
_atom_site_label
_atom_site_fract_x
_atom_site_fract_y
_atom_site_fract_z
Si Si1 0.151770 0.795035 0.684980
Si Si2 0.407528 0.707032 0.299083
Si Si3 0.091984 0.199958 0.303227
Si Si4 0.752167 0.201037 0.993270
Si Si5 0.653959 0.293880 0.181698
Si Si6 0.592507 0.704180 0.064071
Si Si7 0.908469 0.703327 0.067335
Si Si8 0.746929 0.298656 0.370974
O O1 0.108827 0.731299 0.739533
O O2 0.248998 0.744923 0.684341
O O3 0.110708 0.736843 0.628690
O O4 0.148613 0.000000 0.686474
O O5 0.500000 0.758664 0.316852
O O6 0.405502 0.500000 0.299022
O O7 0.390945 0.760391 0.236897
O O8 0.332178 0.768036 0.336978
O O9 0.168271 0.273194 0.337536
O O10 0.000000 0.268147 0.317432
O O11 0.091853 0.000000 0.312871
O O12 0.752902 0.271496 0.931954
O O13 0.755906 0.000000 0.989836
O O14 0.667328 0.247053 0.024443
O O15 0.832397 0.254886 0.027951
O O16 0.651574 0.500000 0.181002
O O17 0.613581 0.236168 0.125309
O O18 0.500000 0.763068 0.047765
O O19 0.591101 0.500000 0.065802
O O20 0.911307 0.500000 0.070168
O O21 0.000000 0.764450 0.049527
O O22 0.733780 0.500000 0.375315
#
# Coordination Sequence:
#
# PCOD9356474 Si02
#       8
#     8   8   8   8   8   8   8   8
#     4  10  18  34  61  87 113 147 187 230 278 339
#     4   9  16  29  54  85 110 134 174 229 278 320
#     4  11  24  39  57  85 118 150 184 230 290 347
#     4  11  24  39  57  82 116 153 194 247 297 340
#     4   9  15  28  55  87 113 139 180 231 277 327
#     4  10  20  36  60  88 117 151 193 239 287 345
#     4  10  21  38  61  86 112 148 194 239 286 347
#     4  10  22  40  59  81 108 149 199 239 279 332
#
# _framework density 20.513797
#
# number of rings (size 3 to 8) (size 9 to 14) (size 15 to 20)
#    0.000    2.000    2.500    1.500    0.000    6.000 
#    0.000    3.750    0.000    0.375    0.000    0.000 
#    0.000    0.000    0.000    0.000    0.000    0.000 
#
# Total GULP energy -178724.192412 kJ/mol
# GULP energy per Si atom -5585.131013 kJ/mol
# Density = 2.046711 g / cm^3
# Si number density = 20.513797 Si / 1000 Ang^3
#
#
#
# Elastic Constant Matrix: (Units=GPa)
#
#
# Indices 1 2 3 4 5 6 
#
# 1 198.4166 1.5433 92.2523 0.0000 0.0000 0.0000
# 2 1.5433 15.9534 1.5742 0.0000 0.0000 0.0000
# 3 92.2523 1.5742 163.5995 0.0000 0.0000 0.0000
# 4 0.0000 0.0000 0.0000 19.2558 0.0000 0.0000
# 5 0.0000 0.0000 0.0000 0.0000 -6.0024 0.0000
# 6 0.0000 0.0000 0.0000 0.0000 0.0000 11.7350
#
#
#
# Elastic Compliance Matrix: (Units=1/GPa)
#
#
# Indices 1 2 3 4 5 6 
#
# 1 0.006832 -0.000281 -0.003850 0.000000 0.000000 0.000000
# 2 -0.000281 0.062754 -0.000445 0.000000 0.000000 0.000000
# 3 -0.003850 -0.000445 0.008288 0.000000 0.000000 0.000000
# 4 0.000000 0.000000 0.000000 0.051932 0.000000 0.000000
# 5 0.000000 0.000000 0.000000 0.000000 -0.166601 0.000000
# 6 0.000000 0.000000 0.000000 0.000000 0.000000 0.085215
#
#
# Mechanical properties :
#
#
# Convention : Reuss Voigt Hill
#
# Bulk Modulus (GPa) = 14.55162 63.18990 38.87076
# Shear Modulus (GPa) = 62.12768 23.83766 42.98267
#
# Velocity S-wave (km/s) = 5.50922 3.41255 4.58242
# Velocity P-wave (km/s) = 6.89766 6.81160 6.85476
#
# Compressibility (1/GPa) = 0.06872088
#
# Stress axis : x y z
#
# Youngs Moduli (GPa) = 146.36937 15.93534 120.66148
#
# Poissons Ratio (x) = 0.00448 0.46452
# Poissons Ratio (y) = 0.04113 0.05374
# Poissons Ratio (z) = 0.56350 0.00710
#
# Static dielectric constant tensor:
#      x y z
#    x 1.812110 0.000000 0.000000 
#    y 0.000000 1.753640 0.000000 
#    z 0.000000 0.000000 1.711920 
# 
# From -- ./inp_files/22897.got.cif
#   From: 2010.05.17/outbox.cif.g08.bks.cpg/sg38_12_cif.got.tgz:22897.got - 2010.06.03 18:07:57.
