data_PCOD9356028
_publ_section_title
;
Structure prediction by ZEFSAII (Michael W. Deem and Ramdas Pophale) SiO2 
 PCOD9356028
Probable space group: A M M 2
;
_chemical_formula_sum "Si O2"
_cell_formula_units_Z 48
_cell_length_a 24.195262
_cell_length_b 20.105403
_cell_length_c 5.017321
_cell_angle_alpha 90.000000
_cell_angle_beta 90.000000
_cell_angle_gamma 90.000000
_cell_volume 2440.703362
_symmetry_space_group_name_H-M "A M M 2"
_symmetry_group_IT_number 38
_symmetry_cell_setting 'orthorhombic'
loop_
_space_group_symop_operation_xyz
x,y,z
-x,-y,z
-x,y,z
x,-y,z
x,1/2+y,1/2+z
-x,1/2-y,1/2+z
-x,1/2+y,1/2+z
x,1/2-y,1/2+z
loop_
_atom_site_type_symbol
_atom_site_label
_atom_site_fract_x
_atom_site_fract_y
_atom_site_fract_z
Si Si1 0.408061 0.208718 0.003800
Si Si2 0.674867 0.925471 0.583697
Si Si3 0.561731 0.075162 0.293919
Si Si4 0.175743 0.794534 0.921349
Si Si5 0.059851 0.297120 0.549609
Si Si6 0.707129 0.851227 0.081790
O O1 0.424890 0.264738 0.217138
O O2 0.430364 0.136877 0.093542
O O3 0.341166 0.202278 0.027056
O O4 0.610240 0.918286 0.510819
O O5 0.687648 0.910805 0.888857
O O6 0.691850 0.000000 0.514666
O O7 0.704555 0.873471 0.387806
O O8 0.500000 0.078989 0.406960
O O9 0.567836 0.000000 0.176202
O O10 0.175209 0.769543 0.618419
O O11 0.118204 0.832086 0.989129
O O12 0.232360 0.830352 0.992920
O O13 0.060655 0.264912 0.842292
O O14 0.000000 0.331153 0.511985
#
# Coordination Sequence:
#
# PCOD9356028 Si02
#       6
#     8   8   8   8   8   8
#     4  11  22  37  56  80 109 138 168 210 262 312
#     4  10  21  37  56  77 102 131 168 218 266 309
#     4   9  20  40  62  82 105 138 179 219 263 319
#     4  10  18  28  45  70 101 135 169 203 243 303
#     4   8  14  24  38  59  91 130 166 201 242 287
#     4  11  20  34  53  76 105 137 171 207 258 317
#
# _framework density 19.666463
#
# number of rings (size 3 to 8) (size 9 to 14) (size 15 to 20)
#    0.000    2.167    0.000    4.500    0.000    1.333 
#    0.000    7.500    0.000   22.000    0.000    0.000 
#    0.000    4.000    0.000    0.000    0.000    0.000 
#
# Total GULP energy -133903.327272 kJ/mol
# GULP energy per Si atom -5579.305303 kJ/mol
# Density = 1.962170 g / cm^3
# Si number density = 19.666463 Si / 1000 Ang^3
#
#
#
# Elastic Constant Matrix: (Units=GPa)
#
#
# Indices 1 2 3 4 5 6 
#
# 1 138.5962 21.5217 -7.0885 0.0000 0.0000 0.0000
# 2 21.5217 55.3950 4.6051 0.0000 0.0000 0.0000
# 3 -7.0885 4.6051 52.2879 0.0000 0.0000 0.0000
# 4 0.0000 0.0000 0.0000 23.7743 0.0000 0.0000
# 5 0.0000 0.0000 0.0000 0.0000 14.2857 0.0000
# 6 0.0000 0.0000 0.0000 0.0000 0.0000 10.9005
#
#
#
# Elastic Compliance Matrix: (Units=1/GPa)
#
#
# Indices 1 2 3 4 5 6 
#
# 1 0.007769 -0.003129 0.001329 0.000000 0.000000 0.000000
# 2 -0.003129 0.019445 -0.002137 0.000000 0.000000 0.000000
# 3 0.001329 -0.002137 0.019493 0.000000 0.000000 0.000000
# 4 0.000000 0.000000 0.000000 0.042062 0.000000 0.000000
# 5 0.000000 0.000000 0.000000 0.000000 0.070000 0.000000
# 6 0.000000 0.000000 0.000000 0.000000 0.000000 0.091739
#
#
# Mechanical properties :
#
#
# Convention : Reuss Voigt Hill
#
# Bulk Modulus (GPa) = 25.75064 31.59509 28.67286
# Shear Modulus (GPa) = 18.42794 24.94149 21.68471
#
# Velocity S-wave (km/s) = 3.06440 3.56508 3.32418
# Velocity P-wave (km/s) = 5.06388 5.74863 5.41708
#
# Compressibility (1/GPa) = 0.03883399
#
# Stress axis : x y z
#
# Youngs Moduli (GPa) = 128.71635 51.42602 51.29989
#
# Poissons Ratio (x) = 0.16090 -0.06817
# Poissons Ratio (y) = 0.40273 0.10962
# Poissons Ratio (z) = -0.17104 0.10989
#
# Static dielectric constant tensor:
#      x y z
#    x 1.771340 0.000000 0.000000 
#    y 0.000000 1.688860 0.000000 
#    z 0.000000 0.000000 1.691330 
# 
# From -- ./inp_files/2088.got.cif
#   From: 2010.05.17/outbox.cif.g08.bks.cpg/sg38_2_cif.got.tgz:2088.got - 2010.06.03 18:07:57.
