data_PCOD9356610
_publ_section_title
;
Structure prediction by ZEFSAII (Michael W. Deem and Ramdas Pophale) SiO2 
 PCOD9356610
Probable space group: A M M 2
;
_chemical_formula_sum "Si O2"
_cell_formula_units_Z 40
_cell_length_a 8.167251
_cell_length_b 7.443279
_cell_length_c 30.068593
_cell_angle_alpha 90.000000
_cell_angle_beta 90.000000
_cell_angle_gamma 90.000000
_cell_volume 1827.903682
_symmetry_space_group_name_H-M "A M M 2"
_symmetry_group_IT_number 38
_symmetry_cell_setting 'orthorhombic'
loop_
_space_group_symop_operation_xyz
x,y,z
-x,-y,z
-x,y,z
x,-y,z
x,1/2+y,1/2+z
-x,1/2-y,1/2+z
-x,1/2+y,1/2+z
x,1/2-y,1/2+z
loop_
_atom_site_type_symbol
_atom_site_label
_atom_site_fract_x
_atom_site_fract_y
_atom_site_fract_z
Si Si1 0.822573 0.280539 0.278360
Si Si2 0.190103 0.219964 0.992619
Si Si3 0.500000 0.280623 0.331441
Si Si4 0.195519 0.709493 0.591443
Si Si5 0.500000 0.719209 0.433899
Si Si6 0.679746 0.789443 0.688283
O O1 0.824620 0.500000 0.280328
O O2 0.664348 0.222613 0.306056
O O3 0.798545 0.222035 0.226942
O O4 0.000000 0.220210 0.294983
O O5 0.332798 0.275358 0.958884
O O6 0.000000 0.273695 0.983502
O O7 0.187353 0.000000 0.993277
O O8 0.238518 0.281440 0.042605
O O9 0.500000 0.500000 0.330571
O O10 0.500000 0.224680 0.382685
O O11 0.239190 0.500000 0.590734
O O12 0.267771 0.779055 0.637224
O O13 0.000000 0.727294 0.594511
O O14 0.500000 0.500000 0.434850
O O15 0.500000 0.708313 0.693484
O O16 0.666820 0.000000 0.698101
#
# Coordination Sequence:
#
# PCOD9356610 Si02
#       6
#     8   8   4   8   4   8
#     4   9  16  27  42  58  83 118 148 182 229 270
#     4   8  15  27  40  58  85 114 146 182 221 268
#     4   9  16  26  37  58  85 109 149 189 218 271
#     4   9  18  31  46  66  93 124 158 192 225 271
#     4   9  16  24  39  58  81 115 147 181 226 269
#     4  10  19  30  45  67  95 124 157 193 226 272
#
# _framework density 21.882992000000002
#
# number of rings (size 3 to 8) (size 9 to 14) (size 15 to 20)
#    0.000    3.000    1.000    1.800    1.400    2.400 
#    0.000    4.000    0.000    0.000    0.000    0.000 
#    0.000    3.200    0.000    5.600    0.000    6.400 
#
# Total GULP energy -111528.505477 kJ/mol
# GULP energy per Si atom -5576.425274 kJ/mol
# Density = 2.183319 g / cm^3
# Si number density = 21.882992 Si / 1000 Ang^3
#
#
#
# Elastic Constant Matrix: (Units=GPa)
#
#
# Indices 1 2 3 4 5 6 
#
# 1 195.1401 -1.9996 110.1682 0.0000 0.0000 0.0000
# 2 -1.9996 63.8415 3.3611 0.0000 0.0000 0.0000
# 3 110.1682 3.3611 166.8379 0.0000 0.0000 0.0000
# 4 0.0000 0.0000 0.0000 9.9641 0.0000 0.0000
# 5 0.0000 0.0000 0.0000 0.0000 8.9435 0.0000
# 6 0.0000 0.0000 0.0000 0.0000 0.0000 -7.5208
#
#
#
# Elastic Compliance Matrix: (Units=1/GPa)
#
#
# Indices 1 2 3 4 5 6 
#
# 1 0.008189 0.000542 -0.005418 0.000000 0.000000 0.000000
# 2 0.000542 0.015716 -0.000674 0.000000 0.000000 0.000000
# 3 -0.005418 -0.000674 0.009585 0.000000 0.000000 0.000000
# 4 0.000000 0.000000 0.000000 0.100360 0.000000 0.000000
# 5 0.000000 0.000000 0.000000 0.000000 0.111814 0.000000
# 6 0.000000 0.000000 0.000000 0.000000 0.000000 -0.132965
#
#
# Mechanical properties :
#
#
# Convention : Reuss Voigt Hill
#
# Bulk Modulus (GPa) = 44.66543 72.09766 58.38154
# Shear Modulus (GPa) = 38.09119 23.23002 30.66060
#
# Velocity S-wave (km/s) = 4.17667 3.26169 3.74721
# Velocity P-wave (km/s) = 6.61171 6.87046 6.74233
#
# Compressibility (1/GPa) = 0.02238868
#
# Stress axis : x y z
#
# Youngs Moduli (GPa) = 122.11352 63.62839 104.32546
#
# Poissons Ratio (x) = -0.03447 0.56528
# Poissons Ratio (y) = -0.06616 0.07035
# Poissons Ratio (z) = 0.66166 0.04291
#
# Static dielectric constant tensor:
#      x y z
#    x 1.784900 0.000000 0.000000 
#    y 0.000000 1.938650 0.000000 
#    z 0.000000 0.000000 1.774630 
# 
# From -- ./inp_files/23191.got.cif
#   From: 2010.05.17/outbox.cif.g08.bks.cpg/sg38_12_cif.got.tgz:23191.got - 2010.06.03 18:07:57.
