data_PCOD9356981
_publ_section_title
;
Structure prediction by ZEFSAII (Michael W. Deem and Ramdas Pophale) SiO2 
 PCOD9356981
Probable space group: A M M 2
;
_chemical_formula_sum "Si O2"
_cell_formula_units_Z 64
_cell_length_a 7.709006
_cell_length_b 28.689875
_cell_length_c 12.838758
_cell_angle_alpha 90.000000
_cell_angle_beta 90.000000
_cell_angle_gamma 90.000000
_cell_volume 2839.553480
_symmetry_space_group_name_H-M "A M M 2"
_symmetry_group_IT_number 38
_symmetry_cell_setting 'orthorhombic'
loop_
_space_group_symop_operation_xyz
x,y,z
-x,-y,z
-x,y,z
x,-y,z
x,1/2+y,1/2+z
-x,1/2-y,1/2+z
-x,1/2+y,1/2+z
x,1/2-y,1/2+z
loop_
_atom_site_type_symbol
_atom_site_label
_atom_site_fract_x
_atom_site_fract_y
_atom_site_fract_z
Si Si1 0.203386 0.948106 0.293570
Si Si2 0.200735 0.372647 0.635356
Si Si3 0.710793 0.449504 0.472692
Si Si4 0.197539 0.812507 0.552867
Si Si5 0.793001 0.212776 0.006124
Si Si6 0.698572 0.179490 0.778316
Si Si7 0.298965 0.931392 0.746133
Si Si8 0.297564 0.081618 0.521161
O O1 0.279332 0.904538 0.227737
O O2 0.214983 0.936823 0.415821
O O3 0.000000 0.950112 0.264535
O O4 0.277968 0.000000 0.274478
O O5 0.209643 0.407586 0.537032
O O6 0.276554 0.323875 0.592392
O O7 0.000000 0.362976 0.663297
O O8 0.500000 0.443390 0.471177
O O9 0.748701 0.500000 0.520887
O O10 0.774560 0.450424 0.353501
O O11 0.278004 0.765305 0.507834
O O12 0.199624 0.803666 0.677165
O O13 0.285086 0.861994 0.528926
O O14 0.000000 0.817851 0.515552
O O15 0.766686 0.192715 0.891015
O O16 0.000000 0.216608 0.024574
O O17 0.500000 0.195493 0.768963
O O18 0.700123 0.123838 0.766566
O O19 0.500000 0.946811 0.740758
O O20 0.223309 0.937963 0.630773
O O21 0.500000 0.069142 0.516976
#
# Coordination Sequence:
#
# PCOD9356981 Si02
#       8
#     8   8   8   8   8   8   8   8
#     4  10  22  40  60  83 118 164 206 248 303 361
#     4  10  21  38  58  81 112 150 196 244 290 347
#     4  10  19  32  53  81 111 143 180 224 282 346
#     4  10  21  37  57  84 119 156 197 244 298 360
#     4  10  21  36  57  84 112 152 199 241 294 357
#     4  10  19  34  56  80 112 148 185 234 291 347
#     4   8  16  32  52  77 108 141 175 221 282 342
#     4  10  21  38  60  86 115 150 200 249 299 355
#
# _framework density 22.538753
#
# number of rings (size 3 to 8) (size 9 to 14) (size 15 to 20)
#    0.000    2.250    1.250    2.250    0.000    4.000 
#    0.000    4.375    0.000    0.000    0.000    0.000 
#    0.000    0.000    0.000    0.000    0.000    0.000 
#
# Total GULP energy -178511.201243 kJ/mol
# GULP energy per Si atom -5578.475039 kJ/mol
# Density = 2.248745 g / cm^3
# Si number density = 22.538753 Si / 1000 Ang^3
#
#
#
# Elastic Constant Matrix: (Units=GPa)
#
#
# Indices 1 2 3 4 5 6 
#
# 1 43.3491 -4.2983 -14.6388 0.0000 0.0000 0.0000
# 2 -4.2983 63.5878 11.6088 0.0000 0.0000 0.0000
# 3 -14.6388 11.6088 101.2954 0.0000 0.0000 0.0000
# 4 0.0000 0.0000 0.0000 29.5466 0.0000 0.0000
# 5 0.0000 0.0000 0.0000 0.0000 23.2996 0.0000
# 6 0.0000 0.0000 0.0000 0.0000 0.0000 -175.3688
#
#
#
# Elastic Compliance Matrix: (Units=1/GPa)
#
#
# Indices 1 2 3 4 5 6 
#
# 1 0.024317 0.001024 0.003397 0.000000 0.000000 0.000000
# 2 0.001024 0.016105 -0.001698 0.000000 0.000000 0.000000
# 3 0.003397 -0.001698 0.010558 0.000000 0.000000 0.000000
# 4 0.000000 0.000000 0.000000 0.033845 0.000000 0.000000
# 5 0.000000 0.000000 0.000000 0.000000 0.042919 0.000000
# 6 0.000000 0.000000 0.000000 0.000000 0.000000 -0.005702
#
#
# Mechanical properties :
#
#
# Convention : Reuss Voigt Hill
#
# Bulk Modulus (GPa) = 17.72247 21.50842 19.61544
# Shear Modulus (GPa) = 36.92622 -10.13383 13.39619
#
# Velocity S-wave (km/s) = 4.05204 -2.12272 2.44060
# Velocity P-wave (km/s) = 5.45639 1.88564 4.08215
#
# Compressibility (1/GPa) = 0.05642554
#
# Stress axis : x y z
#
# Youngs Moduli (GPa) = 41.12330 62.09078 94.71851
#
# Poissons Ratio (x) = -0.06356 -0.32175
# Poissons Ratio (y) = -0.04209 0.16081
# Poissons Ratio (z) = -0.13969 0.10542
#
# Static dielectric constant tensor:
#      x y z
#    x 1.837030 0.000000 0.000000 
#    y 0.000000 1.840390 0.000000 
#    z 0.000000 0.000000 1.832380 
# 
# From -- ./inp_files/8686.got.cif
#   From: 2010.05.17/outbox.cif.g08.bks.cpg/sg38_5_cif.got.tgz:8686.got - 2010.06.03 18:07:57.
