data_PCOD9356713
_publ_section_title
;
Structure prediction by ZEFSAII (Michael W. Deem and Ramdas Pophale) SiO2 
 PCOD9356713
Probable space group: A M M 2
;
_chemical_formula_sum "Si O2"
_cell_formula_units_Z 64
_cell_length_a 14.709558
_cell_length_b 8.674754
_cell_length_c 32.279437
_cell_angle_alpha 90.000000
_cell_angle_beta 90.000000
_cell_angle_gamma 90.000000
_cell_volume 4118.914171
_symmetry_space_group_name_H-M "A M M 2"
_symmetry_group_IT_number 38
_symmetry_cell_setting 'orthorhombic'
loop_
_space_group_symop_operation_xyz
x,y,z
-x,-y,z
-x,y,z
x,-y,z
x,1/2+y,1/2+z
-x,1/2-y,1/2+z
-x,1/2+y,1/2+z
x,1/2-y,1/2+z
loop_
_atom_site_type_symbol
_atom_site_label
_atom_site_fract_x
_atom_site_fract_y
_atom_site_fract_z
Si Si1 0.606451 0.815139 0.107280
Si Si2 0.103173 0.184394 0.059225
Si Si3 0.395148 0.314723 0.269296
Si Si4 0.708953 0.813355 0.687619
Si Si5 0.394855 0.688256 0.947161
Si Si6 0.101860 0.314146 0.151803
Si Si7 0.389571 0.178488 0.356348
Si Si8 0.285618 0.684951 0.028270
O O1 0.500000 0.772459 0.105563
O O2 0.651903 0.749947 0.148901
O O3 0.659062 0.750006 0.067481
O O4 0.613665 0.000000 0.107332
O O5 0.115957 0.241569 0.106482
O O6 0.182411 0.258421 0.032227
O O7 0.000000 0.227192 0.047003
O O8 0.111067 0.000000 0.058367
O O9 0.500000 0.260911 0.264071
O O10 0.396555 0.500000 0.268381
O O11 0.334385 0.260347 0.230895
O O12 0.361642 0.263581 0.314537
O O13 0.814154 0.768782 0.680766
O O14 0.704065 0.000000 0.686521
O O15 0.500000 0.735875 0.953406
O O16 0.395186 0.500000 0.945804
O O17 0.361811 0.740100 0.901614
O O18 0.333588 0.736087 0.985708
O O19 0.104488 0.500000 0.147232
O O20 0.000000 0.271722 0.166096
O O21 0.500000 0.183092 0.357516
O O22 0.362321 0.000000 0.353055
O O23 0.288234 0.500000 0.030166
#
# Coordination Sequence:
#
# PCOD9356713 Si02
#       8
#     8   8   8   8   8   8   8   8
#     4  11  23  34  43  61  93 128 159 189 222 267
#     4  10  20  33  48  66  91 121 151 190 237 277
#     4   9  17  28  42  63  91 119 150 187 226 271
#     4  10  19  31  47  66  89 122 156 189 229 271
#     4   8  15  28  46  68  92 118 151 189 226 269
#     4   9  17  30  48  68  87 112 152 196 232 269
#     4   8  14  27  46  65  86 114 148 185 225 267
#     4  11  20  31  49  70  91 120 156 192 230 274
#
# _framework density 15.538076
#
# number of rings (size 3 to 8) (size 9 to 14) (size 15 to 20)
#    0.000    2.500    1.250    2.625    0.000    3.250 
#    0.000    2.500    0.000    3.000    0.000    0.875 
#    0.000    3.000    0.000    0.000    0.000    0.000 
#
# Total GULP energy -178350.905877 kJ/mol
# GULP energy per Si atom -5573.465809 kJ/mol
# Density = 1.550271 g / cm^3
# Si number density = 15.538076 Si / 1000 Ang^3
#
#
#
# Elastic Constant Matrix: (Units=GPa)
#
#
# Indices 1 2 3 4 5 6 
#
# 1 112.3554 25.4908 77.1785 0.0000 0.0000 0.0000
# 2 25.4908 12.2587 22.8713 0.0000 0.0000 0.0000
# 3 77.1785 22.8713 148.2595 0.0000 0.0000 0.0000
# 4 0.0000 0.0000 0.0000 19.0937 0.0000 0.0000
# 5 0.0000 0.0000 0.0000 0.0000 8.3649 0.0000
# 6 0.0000 0.0000 0.0000 0.0000 0.0000 18.8308
#
#
#
# Elastic Compliance Matrix: (Units=1/GPa)
#
#
# Indices 1 2 3 4 5 6 
#
# 1 0.019592 -0.030486 -0.005496 0.000000 0.000000 0.000000
# 2 -0.030486 0.161979 -0.009118 0.000000 0.000000 0.000000
# 3 -0.005496 -0.009118 0.011013 0.000000 0.000000 0.000000
# 4 0.000000 0.000000 0.000000 0.052373 0.000000 0.000000
# 5 0.000000 0.000000 0.000000 0.000000 0.119547 0.000000
# 6 0.000000 0.000000 0.000000 0.000000 0.000000 0.053104
#
#
# Mechanical properties :
#
#
# Convention : Reuss Voigt Hill
#
# Bulk Modulus (GPa) = 9.76715 58.21722 33.99218
# Shear Modulus (GPa) = 9.22618 19.08010 14.15314
#
# Velocity S-wave (km/s) = 2.43940 3.50802 3.02133
# Velocity P-wave (km/s) = 3.77277 7.34555 5.83913
#
# Compressibility (1/GPa) = 0.10238401
#
# Stress axis : x y z
#
# Youngs Moduli (GPa) = 51.04056 6.17363 90.80563
#
# Poissons Ratio (x) = 0.18821 0.49907
# Poissons Ratio (y) = 1.55603 0.82795
# Poissons Ratio (z) = 0.28052 0.05629
#
# Static dielectric constant tensor:
#      x y z
#    x 1.522200 0.000000 0.000000 
#    y 0.000000 1.528600 0.000000 
#    z 0.000000 0.000000 1.509270 
# 
# From -- ./inp_files/25052.got.cif
#   From: 2010.05.17/outbox.cif.g08.bks.cpg/sg38_13_cif.got.tgz:25052.got - 2010.06.03 18:07:57.
