data_PCOD9356245
_publ_section_title
;
Structure prediction by ZEFSAII (Michael W. Deem and Ramdas Pophale) SiO2 
 PCOD9356245
Probable space group: A M M 2
;
_chemical_formula_sum "Si O2"
_cell_formula_units_Z 48
_cell_length_a 7.574500
_cell_length_b 19.201571
_cell_length_c 15.485872
_cell_angle_alpha 90.000000
_cell_angle_beta 90.000000
_cell_angle_gamma 90.000000
_cell_volume 2252.300834
_symmetry_space_group_name_H-M "A M M 2"
_symmetry_group_IT_number 38
_symmetry_cell_setting 'orthorhombic'
loop_
_space_group_symop_operation_xyz
x,y,z
-x,-y,z
-x,y,z
x,-y,z
x,1/2+y,1/2+z
-x,1/2-y,1/2+z
-x,1/2+y,1/2+z
x,1/2-y,1/2+z
loop_
_atom_site_type_symbol
_atom_site_label
_atom_site_fract_x
_atom_site_fract_y
_atom_site_fract_z
Si Si1 0.297736 0.500000 0.926131
Si Si2 0.789007 0.777218 0.825131
Si Si3 0.214813 0.890497 0.088602
Si Si4 0.784214 0.074899 0.898018
Si Si5 0.705948 0.347119 0.960055
Si Si6 0.785265 0.500000 0.729216
Si Si7 0.786158 0.763316 0.628139
O O1 0.500000 0.500000 0.959879
O O2 0.296027 0.500000 0.822672
O O3 0.215127 0.575009 0.950941
O O4 0.721968 0.852052 0.858723
O O5 0.723846 0.767834 0.727041
O O6 0.000000 0.783589 0.819178
O O7 0.762836 0.712745 0.891357
O O8 0.272973 0.811298 0.092578
O O9 0.000000 0.891486 0.088983
O O10 0.268305 0.933650 0.172194
O O11 0.268527 0.923340 0.998339
O O12 0.000000 0.076114 0.894917
O O13 0.729037 0.000000 0.859827
O O14 0.500000 0.354917 0.941943
O O15 0.731693 0.319855 0.057460
O O16 0.000000 0.500000 0.737825
O O17 0.000000 0.763747 0.629361
#
# Coordination Sequence:
#
# PCOD9356245 Si02
#       7
#     4   8   8   8   8   4   8
#     4  10  24  42  54  73 110 152 189 234 289 332
#     4  10  20  36  60  87 114 145 185 236 286 335
#     4   9  15  26  48  78 111 139 169 215 274 331
#     4   9  15  27  50  78 111 144 170 209 272 335
#     4  11  23  40  60  79 110 155 196 235 283 340
#     4  10  18  30  56  89 110 138 183 228 281 342
#     4  10  20  35  56  84 113 145 186 235 284 331
#
# _framework density 21.311540999999998
#
# number of rings (size 3 to 8) (size 9 to 14) (size 15 to 20)
#    0.000    2.167    2.500    1.500    0.000    3.333 
#    1.500    0.833    0.000    0.500    0.000    0.000 
#    0.000    0.000    0.000    0.000    0.000    0.000 
#
# Total GULP energy -133874.207752 kJ/mol
# GULP energy per Si atom -5578.091990 kJ/mol
# Density = 2.126304 g / cm^3
# Si number density = 21.311541 Si / 1000 Ang^3
#
#
#
# Elastic Constant Matrix: (Units=GPa)
#
#
# Indices 1 2 3 4 5 6 
#
# 1 43.9716 6.4582 -2.4863 0.0000 0.0000 0.0000
# 2 6.4582 204.2016 68.1478 0.0000 0.0000 0.0000
# 3 -2.4863 68.1478 101.3379 0.0000 0.0000 0.0000
# 4 0.0000 0.0000 0.0000 15.8078 0.0000 0.0000
# 5 0.0000 0.0000 0.0000 0.0000 38.7649 0.0000
# 6 0.0000 0.0000 0.0000 0.0000 0.0000 6.8562
#
#
#
# Elastic Compliance Matrix: (Units=1/GPa)
#
#
# Indices 1 2 3 4 5 6 
#
# 1 0.022992 -0.001180 0.001358 0.000000 0.000000 0.000000
# 2 -0.001180 0.006375 -0.004316 0.000000 0.000000 0.000000
# 3 0.001358 -0.004316 0.012804 0.000000 0.000000 0.000000
# 4 0.000000 0.000000 0.000000 0.063260 0.000000 0.000000
# 5 0.000000 0.000000 0.000000 0.000000 0.025797 0.000000
# 6 0.000000 0.000000 0.000000 0.000000 0.000000 0.145854
#
#
# Mechanical properties :
#
#
# Convention : Reuss Voigt Hill
#
# Bulk Modulus (GPa) = 29.50394 54.86118 42.18256
# Shear Modulus (GPa) = 16.85456 30.77853 23.81655
#
# Velocity S-wave (km/s) = 2.81528 3.80441 3.34659
# Velocity P-wave (km/s) = 4.94388 6.71539 5.89654
#
# Compressibility (1/GPa) = 0.03389378
#
# Stress axis : x y z
#
# Youngs Moduli (GPa) = 43.49327 156.86810 78.10276
#
# Poissons Ratio (x) = 0.18515 -0.10605
# Poissons Ratio (y) = 0.05134 0.33708
# Poissons Ratio (z) = -0.05906 0.67702
#
# Static dielectric constant tensor:
#      x y z
#    x 1.820040 0.000000 0.000000 
#    y 0.000000 1.815090 0.000000 
#    z 0.000000 0.000000 1.727070 
# 
# From -- ./inp_files/12143.got.cif
#   From: 2010.05.17/outbox.cif.g08.bks.cpg/sg38_7_cif.got.tgz:12143.got - 2010.06.03 18:07:57.
