data_PCOD9356037
_publ_section_title
;
Structure prediction by ZEFSAII (Michael W. Deem and Ramdas Pophale) SiO2 
 PCOD9356037
Probable space group: A M M 2
;
_chemical_formula_sum "Si O2"
_cell_formula_units_Z 64
_cell_length_a 21.830428
_cell_length_b 7.614418
_cell_length_c 19.053507
_cell_angle_alpha 90.000000
_cell_angle_beta 90.000000
_cell_angle_gamma 90.000000
_cell_volume 3167.188329
_symmetry_space_group_name_H-M "A M M 2"
_symmetry_group_IT_number 38
_symmetry_cell_setting 'orthorhombic'
loop_
_space_group_symop_operation_xyz
x,y,z
-x,-y,z
-x,y,z
x,-y,z
x,1/2+y,1/2+z
-x,1/2-y,1/2+z
-x,1/2+y,1/2+z
x,1/2-y,1/2+z
loop_
_atom_site_type_symbol
_atom_site_label
_atom_site_fract_x
_atom_site_fract_y
_atom_site_fract_z
Si Si1 0.197668 0.206228 0.095690
Si Si2 0.934391 0.713820 0.600171
Si Si3 0.686528 0.209806 0.010921
Si Si4 0.066026 0.289025 0.766175
Si Si5 0.430949 0.714165 0.261794
Si Si6 0.799531 0.705845 0.258793
Si Si7 0.431768 0.788753 0.601105
Si Si8 0.685474 0.784354 0.851357
O O1 0.131094 0.279795 0.073265
O O2 0.202446 0.217388 0.180183
O O3 0.195523 0.000000 0.078640
O O4 0.257056 0.281416 0.057287
O O5 0.934084 0.500000 0.595960
O O6 0.934575 0.757197 0.683239
O O7 0.000000 0.773965 0.570434
O O8 0.686989 0.276672 0.931499
O O9 0.693996 0.000000 0.006561
O O10 0.622403 0.239337 0.049554
O O11 0.066252 0.500000 0.770646
O O12 0.132563 0.228634 0.791563
O O13 0.000000 0.226972 0.795636
O O14 0.500000 0.768824 0.281757
O O15 0.430656 0.500000 0.262183
O O16 0.419649 0.770023 0.181238
O O17 0.376502 0.772142 0.312143
O O18 0.789190 0.500000 0.248920
O O19 0.745217 0.773553 0.307944
O O20 0.500000 0.726818 0.580603
O O21 0.433663 0.000000 0.603179
O O22 0.685659 0.000000 0.851581
#
# Coordination Sequence:
#
# PCOD9356037 Si02
#       8
#     8   8   8   8   8   8   8   8
#     4   9  17  29  45  66  92 120 154 197 239 277
#     4   7  10  19  37  59  81 107 141 180 220 262
#     4  10  20  32  47  68  95 126 158 194 231 270
#     4   8  14  26  44  66  93 122 152 190 236 284
#     4   8  14  27  48  69  88 116 154 190 224 271
#     4  10  18  28  46  69  94 124 157 196 235 274
#     4   9  18  33  52  72  93 117 148 189 236 284
#     4   9  18  30  43  65  96 125 154 190 231 270
#
# _framework density 20.207197000000001
#
# number of rings (size 3 to 8) (size 9 to 14) (size 15 to 20)
#    0.000    3.250    0.000    3.375    0.000    2.500 
#    0.000    2.500    0.000    1.500    0.000    3.500 
#    0.000    0.000    0.000    0.000    0.000    0.000 
#
# Total GULP energy -178266.142304 kJ/mol
# GULP energy per Si atom -5570.816947 kJ/mol
# Density = 2.016120 g / cm^3
# Si number density = 20.207197 Si / 1000 Ang^3
#
#
#
# Elastic Constant Matrix: (Units=GPa)
#
#
# Indices 1 2 3 4 5 6 
#
# 1 237.1231 3.2952 107.1926 0.0000 0.0000 0.0000
# 2 3.2952 37.4147 -0.8840 0.0000 0.0000 0.0000
# 3 107.1926 -0.8840 82.3780 0.0000 0.0000 0.0000
# 4 0.0000 0.0000 0.0000 -143.8788 0.0000 0.0000
# 5 0.0000 0.0000 0.0000 0.0000 -6.0616 0.0000
# 6 0.0000 0.0000 0.0000 0.0000 0.0000 16.0375
#
#
#
# Elastic Compliance Matrix: (Units=1/GPa)
#
#
# Indices 1 2 3 4 5 6 
#
# 1 0.010297 -0.001224 -0.013412 0.000000 0.000000 0.000000
# 2 -0.001224 0.026880 0.001881 0.000000 0.000000 0.000000
# 3 -0.013412 0.001881 0.029612 0.000000 0.000000 0.000000
# 4 0.000000 0.000000 0.000000 -0.006950 0.000000 0.000000
# 5 0.000000 0.000000 0.000000 0.000000 -0.164974 0.000000
# 6 0.000000 0.000000 0.000000 0.000000 0.000000 0.062354
#
#
# Mechanical properties :
#
#
# Convention : Reuss Voigt Hill
#
# Bulk Modulus (GPa) = 24.22577 64.01371 44.11974
# Shear Modulus (GPa) = -1423.63901 -10.29309 -716.96605
#
# Velocity S-wave (km/s) = -26.57161 -2.25939 -18.85676
# Velocity P-wave (km/s) = 30.48583 4.99410 21.26552
#
# Compressibility (1/GPa) = 0.04127837
#
# Stress axis : x y z
#
# Youngs Moduli (GPa) = 97.11269 37.20285 33.77029
#
# Poissons Ratio (x) = 0.04553 0.45294
# Poissons Ratio (y) = 0.11885 -0.06352
# Poissons Ratio (z) = 1.30250 -0.06997
#
# Static dielectric constant tensor:
#      x y z
#    x 1.767810 0.000000 0.000000 
#    y 0.000000 1.823910 0.000000 
#    z 0.000000 0.000000 1.669470 
# 
# From -- ./inp_files/21547.got.cif
#   From: 2010.05.17/outbox.cif.g08.bks.cpg/sg38_11_cif.got.tgz:21547.got - 2010.06.03 18:07:57.
