data_PCOD9356321
_publ_section_title
;
Structure prediction by ZEFSAII (Michael W. Deem and Ramdas Pophale) SiO2 
 PCOD9356321
Probable space group: A M M 2
;
_chemical_formula_sum "Si O2"
_cell_formula_units_Z 56
_cell_length_a 15.777301
_cell_length_b 7.541606
_cell_length_c 21.260753
_cell_angle_alpha 90.000000
_cell_angle_beta 90.000000
_cell_angle_gamma 90.000000
_cell_volume 2529.735951
_symmetry_space_group_name_H-M "A M M 2"
_symmetry_group_IT_number 38
_symmetry_cell_setting 'orthorhombic'
loop_
_space_group_symop_operation_xyz
x,y,z
-x,-y,z
-x,y,z
x,-y,z
x,1/2+y,1/2+z
-x,1/2-y,1/2+z
-x,1/2+y,1/2+z
x,1/2-y,1/2+z
loop_
_atom_site_type_symbol
_atom_site_label
_atom_site_fract_x
_atom_site_fract_y
_atom_site_fract_z
Si Si1 0.728886 0.209679 0.326620
Si Si2 0.089843 0.215800 0.369986
Si Si3 0.148892 0.285504 0.005845
Si Si4 0.721630 0.790605 0.191541
Si Si5 0.406151 0.717226 0.586512
Si Si6 0.335539 0.298308 0.460531
Si Si7 0.906289 0.785960 0.644616
O O1 0.823212 0.283222 0.340123
O O2 0.696388 0.281265 0.260183
O O3 0.674760 0.226838 0.390133
O O4 0.739639 0.000000 0.317372
O O5 0.095298 0.259416 0.444057
O O6 0.000000 0.277493 0.343276
O O7 0.091125 0.000000 0.365955
O O8 0.156469 0.500000 0.007223
O O9 0.110381 0.229168 0.072163
O O10 0.242025 0.210743 0.992092
O O11 0.667519 0.717447 0.133216
O O12 0.822608 0.769416 0.182298
O O13 0.703503 0.000000 0.190528
O O14 0.500000 0.762031 0.609661
O O15 0.400937 0.500000 0.583124
O O16 0.392936 0.783227 0.515157
O O17 0.362338 0.500000 0.451889
O O18 0.000000 0.724140 0.665268
O O19 0.907572 0.000000 0.645251
#
# Coordination Sequence:
#
# PCOD9356321 Si02
#       7
#     8   8   8   8   8   8   8
#     4   9  19  33  51  74 104 141 175 214 267 318
#     4   8  13  23  41  64  90 125 171 210 240 289
#     4   9  16  28  47  70 100 136 174 216 260 309
#     4  10  20  36  55  77 107 144 186 227 264 315
#     4   9  18  34  57  82 106 137 178 222 273 330
#     4  10  18  31  54  79 102 131 172 220 268 317
#     4  10  20  32  49  76 111 149 182 217 269 324
#
# _framework density 22.136700000000001
#
# number of rings (size 3 to 8) (size 9 to 14) (size 15 to 20)
#    0.000    2.714    1.429    1.714    0.000    3.143 
#    0.000    2.143    0.000   15.000    0.000    0.000 
#    0.000    0.000    0.000    0.000    0.000    0.000 
#
# Total GULP energy -156144.984771 kJ/mol
# GULP energy per Si atom -5576.606599 kJ/mol
# Density = 2.208632 g / cm^3
# Si number density = 22.136700 Si / 1000 Ang^3
#
#
#
# Elastic Constant Matrix: (Units=GPa)
#
#
# Indices 1 2 3 4 5 6 
#
# 1 71.6010 -6.3942 42.9797 0.0000 0.0000 0.0000
# 2 -6.3942 48.4217 6.0180 0.0000 0.0000 0.0000
# 3 42.9797 6.0180 147.8977 0.0000 0.0000 0.0000
# 4 0.0000 0.0000 0.0000 10.1049 0.0000 0.0000
# 5 0.0000 0.0000 0.0000 0.0000 0.7829 0.0000
# 6 0.0000 0.0000 0.0000 0.0000 0.0000 13.0872
#
#
#
# Elastic Compliance Matrix: (Units=1/GPa)
#
#
# Indices 1 2 3 4 5 6 
#
# 1 0.017321 0.002928 -0.005153 0.000000 0.000000 0.000000
# 2 0.002928 0.021252 -0.001716 0.000000 0.000000 0.000000
# 3 -0.005153 -0.001716 0.008329 0.000000 0.000000 0.000000
# 4 0.000000 0.000000 0.000000 0.098962 0.000000 0.000000
# 5 0.000000 0.000000 0.000000 0.000000 1.277312 0.000000
# 6 0.000000 0.000000 0.000000 0.000000 0.000000 0.076411
#
#
# Mechanical properties :
#
#
# Convention : Reuss Voigt Hill
#
# Bulk Modulus (GPa) = 25.62788 39.23636 32.43212
# Shear Modulus (GPa) = 3.28845 19.81613 11.55229
#
# Velocity S-wave (km/s) = 1.22014 2.99519 2.28691
# Velocity P-wave (km/s) = 3.68609 5.45202 4.65359
#
# Compressibility (1/GPa) = 0.03902000
#
# Stress axis : x y z
#
# Youngs Moduli (GPa) = 57.73452 47.05508 120.06828
#
# Poissons Ratio (x) = -0.13776 0.61866
# Poissons Ratio (y) = -0.16902 0.20598
# Poissons Ratio (z) = 0.29748 0.08072
#
# Static dielectric constant tensor:
#      x y z
#    x 1.809670 0.000000 0.000000 
#    y 0.000000 1.833110 0.000000 
#    z 0.000000 0.000000 1.839060 
# 
# From -- ./inp_files/21038.got.cif
#   From: 2010.05.17/outbox.cif.g08.bks.cpg/sg38_11_cif.got.tgz:21038.got - 2010.06.03 18:07:57.
