data_PCOD9356847
_publ_section_title
;
Structure prediction by ZEFSAII (Michael W. Deem and Ramdas Pophale) SiO2 
 PCOD9356847
Probable space group: A M M 2
;
_chemical_formula_sum "Si O2"
_cell_formula_units_Z 40
_cell_length_a 8.793535
_cell_length_b 13.034549
_cell_length_c 21.418831
_cell_angle_alpha 90.000000
_cell_angle_beta 90.000000
_cell_angle_gamma 90.000000
_cell_volume 2455.021330
_symmetry_space_group_name_H-M "A M M 2"
_symmetry_group_IT_number 38
_symmetry_cell_setting 'orthorhombic'
loop_
_space_group_symop_operation_xyz
x,y,z
-x,-y,z
-x,y,z
x,-y,z
x,1/2+y,1/2+z
-x,1/2-y,1/2+z
-x,1/2+y,1/2+z
x,1/2-y,1/2+z
loop_
_atom_site_type_symbol
_atom_site_label
_atom_site_fract_x
_atom_site_fract_y
_atom_site_fract_z
Si Si1 0.681856 0.325022 0.554470
Si Si2 0.185606 0.500000 0.784515
Si Si3 0.817332 0.500000 0.640540
Si Si4 0.817232 0.322217 0.876846
Si Si5 0.816748 0.615587 0.018538
Si Si6 0.317225 0.114163 0.912088
O O1 0.500000 0.328208 0.560055
O O2 0.755581 0.400053 0.604764
O O3 0.740978 0.208332 0.556131
O O4 0.722594 0.366697 0.485015
O O5 0.232568 0.500000 0.712727
O O6 0.235092 0.600289 0.823160
O O7 0.000000 0.500000 0.785655
O O8 0.000000 0.500000 0.638299
O O9 0.751681 0.208063 0.873804
O O10 0.000000 0.317203 0.874757
O O11 0.776706 0.367221 0.945318
O O12 0.772500 0.500000 0.036819
O O13 0.000000 0.623799 0.023262
O O14 0.500000 0.118208 0.908018
O O15 0.266419 0.000000 0.893896
#
# Coordination Sequence:
#
# PCOD9356847 Si02
#       6
#     8   4   4   8   8   8
#     4  10  19  32  47  68 100 132 162 199 246 291
#     4   9  18  33  51  71  99 129 158 201 242 279
#     4  11  21  33  51  71  95 131 172 205 238 283
#     4   9  16  29  48  71  97 124 157 193 238 287
#     4   9  16  28  49  75 101 126 155 197 243 293
#     4   9  17  30  46  67  99 129 152 191 244 288
#
# _framework density 16.293137999999999
#
# number of rings (size 3 to 8) (size 9 to 14) (size 15 to 20)
#    0.000    2.600    2.000    0.900    0.000    1.600 
#    0.000    2.500    0.000    1.200    0.000    2.800 
#    0.000    0.000    0.000    0.000    0.000    0.000 
#
# Total GULP energy -111474.945906 kJ/mol
# GULP energy per Si atom -5573.747295 kJ/mol
# Density = 1.625605 g / cm^3
# Si number density = 16.293138 Si / 1000 Ang^3
#
#
#
# Elastic Constant Matrix: (Units=GPa)
#
#
# Indices 1 2 3 4 5 6 
#
# 1 19.4673 39.9220 27.1798 0.0000 0.0000 0.0000
# 2 39.9220 191.9864 73.7614 0.0000 0.0000 0.0000
# 3 27.1798 73.7614 90.1071 0.0000 0.0000 0.0000
# 4 0.0000 0.0000 0.0000 18.6537 0.0000 0.0000
# 5 0.0000 0.0000 0.0000 0.0000 12.8268 0.0000
# 6 0.0000 0.0000 0.0000 0.0000 0.0000 3.0249
#
#
#
# Elastic Compliance Matrix: (Units=1/GPa)
#
#
# Indices 1 2 3 4 5 6 
#
# 1 0.112414 -0.015096 -0.021551 0.000000 0.000000 0.000000
# 2 -0.015096 0.009626 -0.003326 0.000000 0.000000 0.000000
# 3 -0.021551 -0.003326 0.020321 0.000000 0.000000 0.000000
# 4 0.000000 0.000000 0.000000 0.053609 0.000000 0.000000
# 5 0.000000 0.000000 0.000000 0.000000 0.077962 0.000000
# 6 0.000000 0.000000 0.000000 0.000000 0.000000 0.330591
#
#
# Mechanical properties :
#
#
# Convention : Reuss Voigt Hill
#
# Bulk Modulus (GPa) = 16.02172 64.80970 40.41571
# Shear Modulus (GPa) = 7.08945 17.61427 12.35186
#
# Velocity S-wave (km/s) = 2.08821 3.29155 2.75635
# Velocity P-wave (km/s) = 3.95840 7.36949 5.91516
#
# Compressibility (1/GPa) = 0.06241527
#
# Stress axis : x y z
#
# Youngs Moduli (GPa) = 8.89567 103.88981 49.20942
#
# Poissons Ratio (x) = 1.56828 1.06053
# Poissons Ratio (y) = 0.13429 0.16367
# Poissons Ratio (z) = 0.19171 0.34554
#
# Static dielectric constant tensor:
#      x y z
#    x 1.547100 0.000000 0.000000 
#    y 0.000000 1.556450 0.000000 
#    z 0.000000 0.000000 1.523020 
# 
# From -- ./inp_files/19516.got.cif
#   From: 2010.05.17/outbox.cif.g08.bks.cpg/sg38_10_cif.got.tgz:19516.got - 2010.06.03 18:07:57.
