data_PCOD9356594
_publ_section_title
;
Structure prediction by ZEFSAII (Michael W. Deem and Ramdas Pophale) SiO2 
 PCOD9356594
Probable space group: A M M 2
;
_chemical_formula_sum "Si O2"
_cell_formula_units_Z 64
_cell_length_a 8.351656
_cell_length_b 14.341158
_cell_length_c 23.777929
_cell_angle_alpha 90.000000
_cell_angle_beta 90.000000
_cell_angle_gamma 90.000000
_cell_volume 2847.940057
_symmetry_space_group_name_H-M "A M M 2"
_symmetry_group_IT_number 38
_symmetry_cell_setting 'orthorhombic'
loop_
_space_group_symop_operation_xyz
x,y,z
-x,-y,z
-x,y,z
x,-y,z
x,1/2+y,1/2+z
-x,1/2-y,1/2+z
-x,1/2+y,1/2+z
x,1/2-y,1/2+z
loop_
_atom_site_type_symbol
_atom_site_label
_atom_site_fract_x
_atom_site_fract_y
_atom_site_fract_z
Si Si1 0.188985 0.400373 0.738340
Si Si2 0.180383 0.633126 0.017713
Si Si3 0.190817 0.693376 0.376408
Si Si4 0.314262 0.899327 0.401331
Si Si5 0.182958 0.855896 0.994846
Si Si6 0.807687 0.349137 0.612789
Si Si7 0.314543 0.146820 0.635763
Si Si8 0.309747 0.191473 0.756703
O O1 0.254488 0.500000 0.759425
O O2 0.202394 0.403311 0.670726
O O3 0.264930 0.301650 0.754890
O O4 0.000000 0.394993 0.752690
O O5 0.180810 0.745370 0.009946
O O6 0.225348 0.606670 0.081262
O O7 0.000000 0.603132 0.004601
O O8 0.298195 0.600570 0.969091
O O9 0.232499 0.803799 0.381426
O O10 0.257445 0.641902 0.432616
O O11 0.249775 0.655983 0.316750
O O12 0.000000 0.686570 0.378631
O O13 0.500000 0.894181 0.385070
O O14 0.246473 0.000000 0.382950
O O15 0.245597 0.894877 0.054015
O O16 0.000000 0.889369 0.989320
O O17 0.703203 0.257276 0.623943
O O18 0.000000 0.325415 0.607295
O O19 0.500000 0.118255 0.634520
O O20 0.248732 0.140025 0.699713
O O21 0.500000 0.184343 0.754351
#
# Coordination Sequence:
#
# PCOD9356594 Si02
#       8
#     8   8   8   8   8   8   8   8
#     4   9  17  28  42  60  81 108 141 172 202 241
#     4   9  16  27  44  63  82 105 134 169 211 255
#     4  10  19  30  44  60  80 109 145 181 213 248
#     4  10  20  32  45  62  86 115 145 177 211 247
#     4   7  12  23  39  58  75  95 125 162 205 246
#     4   8  13  24  41  58  78 101 127 164 208 252
#     4   9  16  26  41  60  80 102 132 171 214 256
#     4  10  20  31  42  58  82 113 145 177 214 251
#
# _framework density 22.472384000000002
#
# number of rings (size 3 to 8) (size 9 to 14) (size 15 to 20)
#    0.000    3.000    0.000    3.375    0.000    3.250 
#    0.000    0.625    0.000    0.000    0.000    0.000 
#    0.000    1.000    0.000    4.250    0.000    2.750 
#
# Total GULP energy -178209.117649 kJ/mol
# GULP energy per Si atom -5569.034927 kJ/mol
# Density = 2.242124 g / cm^3
# Si number density = 22.472384 Si / 1000 Ang^3
#
#
#
# Elastic Constant Matrix: (Units=GPa)
#
#
# Indices 1 2 3 4 5 6 
#
# 1 32.5299 -3.4517 9.4995 0.0000 0.0000 0.0000
# 2 -3.4517 39.1414 -7.3069 0.0000 0.0000 0.0000
# 3 9.4995 -7.3069 200.8821 0.0000 0.0000 0.0000
# 4 0.0000 0.0000 0.0000 -23.0532 0.0000 0.0000
# 5 0.0000 0.0000 0.0000 0.0000 29.9588 0.0000
# 6 0.0000 0.0000 0.0000 0.0000 0.0000 -8.1281
#
#
#
# Elastic Compliance Matrix: (Units=1/GPa)
#
#
# Indices 1 2 3 4 5 6 
#
# 1 0.031414 0.002510 -0.001394 0.000000 0.000000 0.000000
# 2 0.002510 0.025924 0.000824 0.000000 0.000000 0.000000
# 3 -0.001394 0.000824 0.005074 0.000000 0.000000 0.000000
# 4 0.000000 0.000000 0.000000 -0.043378 0.000000 0.000000
# 5 0.000000 0.000000 0.000000 0.000000 0.033379 0.000000
# 6 0.000000 0.000000 0.000000 0.000000 0.000000 -0.123030
#
#
# Mechanical properties :
#
#
# Convention : Reuss Voigt Hill
#
# Bulk Modulus (GPa) = 15.08475 30.00390 22.54432
# Shear Modulus (GPa) = -95.42173 18.00964 -38.70604
#
# Velocity S-wave (km/s) = -6.52334 2.83399 -4.15466
# Velocity P-wave (km/s) = 7.07188 4.90807 3.60016
#
# Compressibility (1/GPa) = 0.06629211
#
# Stress axis : x y z
#
# Youngs Moduli (GPa) = 31.83248 38.57482 197.08479
#
# Poissons Ratio (x) = -0.09682 0.27479
# Poissons Ratio (y) = -0.07990 -0.16245
# Poissons Ratio (z) = 0.04438 -0.03180
#
# Static dielectric constant tensor:
#      x y z
#    x 1.777420 0.000000 0.000000 
#    y 0.000000 1.910130 0.000000 
#    z 0.000000 0.000000 1.930140 
# 
# From -- ./inp_files/22278.got.cif
#   From: 2010.05.17/outbox.cif.g08.bks.cpg/sg38_12_cif.got.tgz:22278.got - 2010.06.03 18:07:57.
