data_PCOD9356000
_publ_section_title
;
Structure prediction by ZEFSAII (Michael W. Deem and Ramdas Pophale) SiO2 
 PCOD9356000
Probable space group: A M M 2
;
_chemical_formula_sum "Si O2"
_cell_formula_units_Z 56
_cell_length_a 8.458138
_cell_length_b 30.424122
_cell_length_c 13.986988
_cell_angle_alpha 90.000000
_cell_angle_beta 90.000000
_cell_angle_gamma 90.000000
_cell_volume 3599.291517
_symmetry_space_group_name_H-M "A M M 2"
_symmetry_group_IT_number 38
_symmetry_cell_setting 'orthorhombic'
loop_
_space_group_symop_operation_xyz
x,y,z
-x,-y,z
-x,y,z
x,-y,z
x,1/2+y,1/2+z
-x,1/2-y,1/2+z
-x,1/2+y,1/2+z
x,1/2-y,1/2+z
loop_
_atom_site_type_symbol
_atom_site_label
_atom_site_fract_x
_atom_site_fract_y
_atom_site_fract_z
Si Si1 0.189412 0.680558 0.772920
Si Si2 0.689177 0.267224 0.173247
Si Si3 0.306923 0.595209 0.458698
Si Si4 0.311076 0.591866 0.681979
Si Si5 0.308835 0.684955 0.364825
Si Si6 0.687371 0.500000 0.453018
Si Si7 0.810933 0.228777 0.465220
Si Si8 0.186340 0.500000 0.666864
O O1 0.242642 0.719447 0.701346
O O2 0.260463 0.634229 0.741674
O O3 0.240284 0.696622 0.878838
O O4 0.000000 0.677806 0.771115
O O5 0.500000 0.263954 0.174106
O O6 0.738959 0.300245 0.258293
O O7 0.745250 0.281873 0.069340
O O8 0.500000 0.594730 0.456596
O O9 0.262337 0.599351 0.570591
O O10 0.253423 0.637212 0.398861
O O11 0.250146 0.547570 0.421053
O O12 0.500000 0.587128 0.683825
O O13 0.233820 0.545958 0.715331
O O14 0.500000 0.685346 0.368615
O O15 0.247377 0.722785 0.435187
O O16 0.500000 0.500000 0.434371
O O17 0.715978 0.500000 0.567345
O O18 0.000000 0.228610 0.468029
O O19 0.000000 0.500000 0.646554
#
# Coordination Sequence:
#
# PCOD9356000 Si02
#       8
#     8   8   8   8   8   4   8   4
#     4  10  20  32  46  66  89 115 149 186 227 271
#     4  10  19  30  45  64  88 118 150 185 223 267
#     4   8  14  25  42  63  86 112 142 176 215 260
#     4  10  18  29  46  67  91 119 149 182 221 266
#     4   9  17  29  45  65  87 113 149 185 220 265
#     4   8  14  26  42  60  85 116 147 180 221 266
#     4  10  20  32  45  62  88 118 148 184 223 266
#     4  10  18  28  42  62  91 122 149 180 217 260
#
# _framework density 15.558617999999999
#
# number of rings (size 3 to 8) (size 9 to 14) (size 15 to 20)
#    0.000    2.571    0.000    4.071    0.000    3.429 
#    0.000    2.857    0.000    0.000    0.000    1.000 
#    0.000    2.286    0.000    0.000    0.000    0.286 
#
# Total GULP energy -156027.797549 kJ/mol
# GULP energy per Si atom -5572.421341 kJ/mol
# Density = 1.552321 g / cm^3
# Si number density = 15.558618 Si / 1000 Ang^3
#
#
#
# Elastic Constant Matrix: (Units=GPa)
#
#
# Indices 1 2 3 4 5 6 
#
# 1 19.6426 18.9676 15.3621 0.0000 0.0000 0.0000
# 2 18.9676 152.5844 50.0599 0.0000 0.0000 0.0000
# 3 15.3621 50.0599 74.1961 0.0000 0.0000 0.0000
# 4 0.0000 0.0000 0.0000 20.2552 0.0000 0.0000
# 5 0.0000 0.0000 0.0000 0.0000 18.8097 0.0000
# 6 0.0000 0.0000 0.0000 0.0000 0.0000 12.5844
#
#
#
# Elastic Compliance Matrix: (Units=1/GPa)
#
#
# Indices 1 2 3 4 5 6 
#
# 1 0.063135 -0.004572 -0.009988 0.000000 0.000000 0.000000
# 2 -0.004572 0.008748 -0.004956 0.000000 0.000000 0.000000
# 3 -0.009988 -0.004956 0.018889 0.000000 0.000000 0.000000
# 4 0.000000 0.000000 0.000000 0.049370 0.000000 0.000000
# 5 0.000000 0.000000 0.000000 0.000000 0.053164 0.000000
# 6 0.000000 0.000000 0.000000 0.000000 0.000000 0.079464
#
#
# Mechanical properties :
#
#
# Convention : Reuss Voigt Hill
#
# Bulk Modulus (GPa) = 19.32628 46.13358 32.72993
# Shear Modulus (GPa) = 15.19538 21.13209 18.16374
#
# Velocity S-wave (km/s) = 3.12854 3.68941 3.42049
# Velocity P-wave (km/s) = 5.04964 6.91844 6.05655
#
# Compressibility (1/GPa) = 0.05174302
#
# Stress axis : x y z
#
# Youngs Moduli (GPa) = 15.83897 114.31329 52.94015
#
# Poissons Ratio (x) = 0.52259 0.52874
# Poissons Ratio (y) = 0.07241 0.26235
# Poissons Ratio (z) = 0.15819 0.56650
#
# Static dielectric constant tensor:
#      x y z
#    x 1.526910 0.000000 0.000000 
#    y 0.000000 1.536830 0.000000 
#    z 0.000000 0.000000 1.508680 
# 
# From -- ./inp_files/13039.got.cif
#   From: 2010.05.17/outbox.cif.g08.bks.cpg/sg38_7_cif.got.tgz:13039.got - 2010.06.03 18:07:57.
