data_PCOD9356449
_publ_section_title
;
Structure prediction by ZEFSAII (Michael W. Deem and Ramdas Pophale) SiO2 
 PCOD9356449
Probable space group: A M M 2
;
_chemical_formula_sum "Si O2"
_cell_formula_units_Z 64
_cell_length_a 7.991763
_cell_length_b 31.008353
_cell_length_c 15.243523
_cell_angle_alpha 90.000000
_cell_angle_beta 90.000000
_cell_angle_gamma 90.000000
_cell_volume 3777.518901
_symmetry_space_group_name_H-M "A M M 2"
_symmetry_group_IT_number 38
_symmetry_cell_setting 'orthorhombic'
loop_
_space_group_symop_operation_xyz
x,y,z
-x,-y,z
-x,y,z
x,-y,z
x,1/2+y,1/2+z
-x,1/2-y,1/2+z
-x,1/2+y,1/2+z
x,1/2-y,1/2+z
loop_
_atom_site_type_symbol
_atom_site_label
_atom_site_fract_x
_atom_site_fract_y
_atom_site_fract_z
Si Si1 0.802044 0.136921 0.201920
Si Si2 0.297917 0.048883 0.269605
Si Si3 0.191161 0.720944 0.370835
Si Si4 0.297917 0.048883 0.472063
Si Si5 0.686406 0.313256 0.870834
Si Si6 0.795560 0.207772 0.064962
Si Si7 0.204440 0.792228 0.676708
Si Si8 0.802045 0.636921 0.039748
O O1 0.766100 0.086208 0.206185
O O2 0.712825 0.157878 0.285617
O O3 0.749824 0.164525 0.117354
O O4 0.000000 0.143652 0.213116
O O5 0.500000 0.050022 0.269415
O O6 0.243934 0.057537 0.370834
O O7 0.245869 0.000000 0.247625
O O8 0.190621 0.772919 0.370834
O O9 0.266893 0.708271 0.464865
O O10 0.266893 0.708270 0.276805
O O11 0.000000 0.704606 0.370835
O O12 0.500000 0.050022 0.472253
O O13 0.233898 0.086209 0.535483
O O14 0.245869 0.000000 0.494043
O O15 0.500000 0.294956 0.870833
O O16 0.712822 0.342122 0.956052
O O17 0.741675 0.250000 0.120835
O O18 0.000000 0.210269 0.061318
O O19 0.250174 0.835475 0.624316
O O20 0.000000 0.789731 0.680353
O O21 0.000000 0.643653 0.028550
#
# Coordination Sequence:
#
# PCOD9356449 Si02
#       8
#     8   8   8   8   8   8   8   8
#     4  11  20  31  48  71  95 125 163 197 228 274
#     4   9  18  32  48  68  97 127 153 187 235 286
#     4  10  18  34  52  65  92 129 162 195 234 280
#     4   9  18  32  48  68  97 127 153 187 235 286
#     4  12  22  30  43  67  98 129 161 195 234 274
#     4   9  17  29  48  72  94 121 158 196 234 273
#     4   9  17  29  48  72  94 121 158 196 234 273
#     4  11  20  31  48  71  95 125 163 197 228 274
#
# _framework density 16.942336999999998
#
# number of rings (size 3 to 8) (size 9 to 14) (size 15 to 20)
#    0.000    2.000    3.750    2.625    0.000    0.500 
#    0.000    5.000    0.000    0.000    0.000    0.875 
#    0.000    7.000    0.000    0.000    0.000    0.000 
#
# Total GULP energy -178460.325695 kJ/mol
# GULP energy per Si atom -5576.885178 kJ/mol
# Density = 1.690377 g / cm^3
# Si number density = 16.942337 Si / 1000 Ang^3
#
#
#
# Elastic Constant Matrix: (Units=GPa)
#
#
# Indices 1 2 3 4 5 6 
#
# 1 27.1258 3.8295 10.1342 0.0000 0.0000 0.0000
# 2 3.8295 124.0974 69.5579 0.0000 0.0000 0.0000
# 3 10.1342 69.5579 140.9606 0.0000 0.0000 0.0000
# 4 0.0000 0.0000 0.0000 22.8748 0.0000 0.0000
# 5 0.0000 0.0000 0.0000 0.0000 4.7697 0.0000
# 6 0.0000 0.0000 0.0000 0.0000 0.0000 -26.3136
#
#
#
# Elastic Compliance Matrix: (Units=1/GPa)
#
#
# Indices 1 2 3 4 5 6 
#
# 1 0.037905 0.000495 -0.002969 0.000000 0.000000 0.000000
# 2 0.000495 0.011146 -0.005535 0.000000 0.000000 0.000000
# 3 -0.002969 -0.005535 0.010039 0.000000 0.000000 0.000000
# 4 0.000000 0.000000 0.000000 0.043716 0.000000 0.000000
# 5 0.000000 0.000000 0.000000 0.000000 0.209655 0.000000
# 6 0.000000 0.000000 0.000000 0.000000 0.000000 -0.038003
#
#
# Mechanical properties :
#
#
# Convention : Reuss Voigt Hill
#
# Bulk Modulus (GPa) = 23.21838 51.02523 37.12181
# Shear Modulus (GPa) = 16.40237 14.17700 15.28969
#
# Velocity S-wave (km/s) = 3.11485 2.89585 3.00735
# Velocity P-wave (km/s) = 5.16435 6.43146 5.83242
#
# Compressibility (1/GPa) = 0.04306933
#
# Stress axis : x y z
#
# Youngs Moduli (GPa) = 26.38197 89.72169 99.61024
#
# Poissons Ratio (x) = -0.04437 0.29576
# Poissons Ratio (y) = -0.01305 0.55138
# Poissons Ratio (z) = 0.07833 0.49665
#
# Static dielectric constant tensor:
#      x y z
#    x 1.612700 0.000000 0.000000 
#    y 0.000000 1.569930 0.000000 
#    z 0.000000 0.000000 1.578630 
# 
# From -- ./inp_files/13041.got.cif
#   From: 2010.05.17/outbox.cif.g08.bks.cpg/sg38_7_cif.got.tgz:13041.got - 2010.06.03 18:07:57.
