data_PCOD9356588
_publ_section_title
;
Structure prediction by ZEFSAII (Michael W. Deem and Ramdas Pophale) SiO2 
 PCOD9356588
Probable space group: A M M 2
;
_chemical_formula_sum "Si O2"
_cell_formula_units_Z 58
_cell_length_a 15.732989
_cell_length_b 7.434115
_cell_length_c 25.946728
_cell_angle_alpha 90.000000
_cell_angle_beta 90.000000
_cell_angle_gamma 90.000000
_cell_volume 3034.751349
_symmetry_space_group_name_H-M "A M M 2"
_symmetry_group_IT_number 38
_symmetry_cell_setting 'orthorhombic'
loop_
_space_group_symop_operation_xyz
x,y,z
-x,-y,z
-x,y,z
x,-y,z
x,1/2+y,1/2+z
-x,1/2-y,1/2+z
-x,1/2+y,1/2+z
x,1/2-y,1/2+z
loop_
_atom_site_type_symbol
_atom_site_label
_atom_site_fract_x
_atom_site_fract_y
_atom_site_fract_z
Si Si1 0.402087 0.719561 0.994320
Si Si2 0.000000 0.000000 0.209100
Si Si3 0.132584 0.281515 0.248223
Si Si4 0.093709 0.785862 0.866533
Si Si5 0.592779 0.712550 0.819795
Si Si6 0.402037 0.781109 0.610867
Si Si7 0.322458 0.215465 0.715219
Si Si8 0.722112 0.215174 0.404246
O O1 0.500000 0.773144 0.982328
O O2 0.402558 0.500000 0.993656
O O3 0.331998 0.780616 0.953288
O O4 0.380950 0.776702 0.052736
O O5 0.927007 0.840328 0.213274
O O6 0.120552 0.500000 0.243195
O O7 0.111453 0.228874 0.307478
O O8 0.229485 0.235327 0.235130
O O9 0.177516 0.749709 0.900100
O O10 0.000000 0.716501 0.882620
O O11 0.087695 0.000000 0.864812
O O12 0.500000 0.787763 0.833411
O O13 0.589267 0.500000 0.830474
O O14 0.611373 0.733655 0.759567
O O15 0.671182 0.784075 0.853752
O O16 0.500000 0.732199 0.620745
O O17 0.345915 0.716307 0.658516
O O18 0.398328 0.000000 0.610202
O O19 0.324014 0.000000 0.712340
O O20 0.715846 0.000000 0.404932
#
# Coordination Sequence:
#
# PCOD9356588 Si02
#       8
#     8   2   8   8   8   8   8   8
#     4   8  14  27  47  73 102 129 165 215 261 304
#     4  12  22  32  60  74 102 148 178 220 272 326
#     4  10  21  34  50  78 109 137 176 222 268 323
#     4  10  20  34  48  67  98 133 167 212 261 310
#     4  10  20  30  42  66 104 141 168 198 247 315
#     4   8  14  26  47  73  99 131 171 212 258 306
#     4  10  19  31  48  72 102 132 169 214 257 312
#     4  10  19  29  48  73  99 128 168 210 257 311
#
# _framework density 19.111943
#
# number of rings (size 3 to 8) (size 9 to 14) (size 15 to 20)
#    0.000    2.483    2.069    1.862    1.931    2.759 
#    0.000    0.000    0.000    2.069    1.793    1.931 
#    0.000    0.000    0.000    0.000    0.000    0.000 
#
# Total GULP energy -161442.697642 kJ/mol
# GULP energy per Si atom -5566.989574 kJ/mol
# Density = 1.906844 g / cm^3
# Si number density = 19.111943 Si / 1000 Ang^3
#
#
#
# Elastic Constant Matrix: (Units=GPa)
#
#
# Indices 1 2 3 4 5 6 
#
# 1 161.7255 11.7072 73.9802 0.0000 0.0000 0.0000
# 2 11.7072 61.1102 2.3576 0.0000 0.0000 0.0000
# 3 73.9802 2.3576 100.7338 0.0000 0.0000 0.0000
# 4 0.0000 0.0000 0.0000 5.1034 0.0000 0.0000
# 5 0.0000 0.0000 0.0000 0.0000 -21.3244 0.0000
# 6 0.0000 0.0000 0.0000 0.0000 0.0000 -7.2098
#
#
#
# Elastic Compliance Matrix: (Units=1/GPa)
#
#
# Indices 1 2 3 4 5 6 
#
# 1 0.009455 -0.001545 -0.006908 0.000000 0.000000 0.000000
# 2 -0.001545 0.016631 0.000745 0.000000 0.000000 0.000000
# 3 -0.006908 0.000745 0.014983 0.000000 0.000000 0.000000
# 4 0.000000 0.000000 0.000000 0.195949 0.000000 0.000000
# 5 0.000000 0.000000 0.000000 0.000000 -0.046895 0.000000
# 6 0.000000 0.000000 0.000000 0.000000 0.000000 -0.138701
#
#
# Mechanical properties :
#
#
# Convention : Reuss Voigt Hill
#
# Bulk Modulus (GPa) = 38.97963 55.51770 47.24867
# Shear Modulus (GPa) = 66.32317 11.01548 38.66932
#
# Velocity S-wave (km/s) = 5.89727 2.40337 4.50300
# Velocity P-wave (km/s) = 8.17375 6.06740 7.19804
#
# Compressibility (1/GPa) = 0.02565443
#
# Stress axis : x y z
#
# Youngs Moduli (GPa) = 105.76361 60.12836 66.74293
#
# Poissons Ratio (x) = 0.09289 0.46104
# Poissons Ratio (y) = 0.16339 -0.04975
# Poissons Ratio (z) = 0.73059 -0.04482
#
# Static dielectric constant tensor:
#      x y z
#    x 1.703310 0.000000 0.000000 
#    y 0.000000 1.736320 0.000000 
#    z 0.000000 0.000000 1.662960 
# 
# From -- ./inp_files/23982.got.cif
#   From: 2010.05.17/outbox.cif.g08.bks.cpg/sg38_12_cif.got.tgz:23982.got - 2010.06.03 18:07:57.
