data_PCOD9356156
_publ_section_title
;
Structure prediction by ZEFSAII (Michael W. Deem and Ramdas Pophale) SiO2 
 PCOD9356156
Probable space group: A M M 2
;
_chemical_formula_sum "Si O2"
_cell_formula_units_Z 64
_cell_length_a 8.567605
_cell_length_b 24.000730
_cell_length_c 19.655926
_cell_angle_alpha 90.000000
_cell_angle_beta 90.000000
_cell_angle_gamma 90.000000
_cell_volume 4041.823972
_symmetry_space_group_name_H-M "A M M 2"
_symmetry_group_IT_number 38
_symmetry_cell_setting 'orthorhombic'
loop_
_space_group_symop_operation_xyz
x,y,z
-x,-y,z
-x,y,z
x,-y,z
x,1/2+y,1/2+z
-x,1/2-y,1/2+z
-x,1/2+y,1/2+z
x,1/2-y,1/2+z
loop_
_atom_site_type_symbol
_atom_site_label
_atom_site_fract_x
_atom_site_fract_y
_atom_site_fract_z
Si Si1 0.687030 0.331848 0.457760
Si Si2 0.685021 0.336340 0.004846
Si Si3 0.690038 0.562883 0.372646
Si Si4 0.186977 0.935579 0.589746
Si Si5 0.687354 0.883325 0.729015
Si Si6 0.811418 0.257486 0.232139
Si Si7 0.813424 0.228426 0.082568
Si Si8 0.186596 0.723918 0.879957
O O1 0.500000 0.327128 0.451650
O O2 0.737271 0.391530 0.428567
O O3 0.736644 0.317844 0.534469
O O4 0.762641 0.283322 0.411756
O O5 0.500000 0.330978 0.011542
O O6 0.740700 0.395449 0.032816
O O7 0.763332 0.288134 0.051237
O O8 0.735663 0.322198 0.928017
O O9 0.500000 0.561805 0.373013
O O10 0.745492 0.500000 0.384188
O O11 0.736189 0.585277 0.298150
O O12 0.241022 0.912115 0.662728
O O13 0.000000 0.932151 0.585899
O O14 0.234376 0.000000 0.582763
O O15 0.500000 0.885635 0.724043
O O16 0.739803 0.819228 0.733092
O O17 0.766823 0.228112 0.161503
O O18 0.767215 0.225212 0.300907
O O19 0.000000 0.263441 0.232201
O O20 0.000000 0.223880 0.077548
O O21 0.000000 0.718758 0.885130
#
# Coordination Sequence:
#
# PCOD9356156 Si02
#       8
#     8   8   8   8   8   8   8   8
#     4  10  18  30  47  69  94 124 163 204 243 288
#     4  11  21  33  50  73  97 126 164 206 247 290
#     4   9  18  31  46  67  97 131 165 201 243 285
#     4  11  23  37  51  69  98 135 171 206 244 291
#     4  11  20  31  49  71  99 133 169 208 240 280
#     4  10  20  32  49  71  99 133 165 196 243 299
#     4  10  19  32  49  69  97 129 160 200 247 294
#     4  10  19  32  50  70  96 128 160 199 247 297
#
# _framework density 15.834436
#
# number of rings (size 3 to 8) (size 9 to 14) (size 15 to 20)
#    0.000    1.750    2.500    4.875    0.000    2.500 
#    0.000    0.000    0.000    3.750    0.000    0.875 
#    0.000    5.000    0.000    0.000    0.000    0.000 
#
# Total GULP energy -178608.808883 kJ/mol
# GULP energy per Si atom -5581.525278 kJ/mol
# Density = 1.579840 g / cm^3
# Si number density = 15.834436 Si / 1000 Ang^3
#
#
#
# Elastic Constant Matrix: (Units=GPa)
#
#
# Indices 1 2 3 4 5 6 
#
# 1 20.1003 11.5292 11.5757 0.0000 0.0000 0.0000
# 2 11.5292 95.2006 60.1538 0.0000 0.0000 0.0000
# 3 11.5757 60.1538 119.9777 0.0000 0.0000 0.0000
# 4 0.0000 0.0000 0.0000 15.7564 0.0000 0.0000
# 5 0.0000 0.0000 0.0000 0.0000 14.9604 0.0000
# 6 0.0000 0.0000 0.0000 0.0000 0.0000 17.4458
#
#
#
# Elastic Compliance Matrix: (Units=1/GPa)
#
#
# Indices 1 2 3 4 5 6 
#
# 1 0.054114 -0.004764 -0.002833 0.000000 0.000000 0.000000
# 2 -0.004764 0.015794 -0.007459 0.000000 0.000000 0.000000
# 3 -0.002833 -0.007459 0.012348 0.000000 0.000000 0.000000
# 4 0.000000 0.000000 0.000000 0.063466 0.000000 0.000000
# 5 0.000000 0.000000 0.000000 0.000000 0.066843 0.000000
# 6 0.000000 0.000000 0.000000 0.000000 0.000000 0.057320
#
#
# Mechanical properties :
#
#
# Convention : Reuss Voigt Hill
#
# Bulk Modulus (GPa) = 19.17710 44.64400 31.91055
# Shear Modulus (GPa) = 15.75403 19.76719 17.76061
#
# Velocity S-wave (km/s) = 3.15766 3.53706 3.35273
# Velocity P-wave (km/s) = 5.04299 6.70347 5.93162
#
# Compressibility (1/GPa) = 0.05214552
#
# Stress axis : x y z
#
# Youngs Moduli (GPa) = 18.47940 63.31419 80.98433
#
# Poissons Ratio (x) = 0.30160 0.22941
# Poissons Ratio (y) = 0.08803 0.60408
# Poissons Ratio (z) = 0.05235 0.47228
#
# Static dielectric constant tensor:
#      x y z
#    x 1.537670 0.000000 0.000000 
#    y 0.000000 1.506960 0.000000 
#    z 0.000000 0.000000 1.541430 
# 
# From -- ./inp_files/20273.got.cif
#   From: 2010.05.17/outbox.cif.g08.bks.cpg/sg38_11_cif.got.tgz:20273.got - 2010.06.03 18:07:57.
