data_PCOD9356298
_publ_section_title
;
Structure prediction by ZEFSAII (Michael W. Deem and Ramdas Pophale) SiO2 
 PCOD9356298
Probable space group: A M M 2
;
_chemical_formula_sum "Si O2"
_cell_formula_units_Z 56
_cell_length_a 15.969443
_cell_length_b 8.362988
_cell_length_c 20.881894
_cell_angle_alpha 90.000000
_cell_angle_beta 90.000000
_cell_angle_gamma 90.000000
_cell_volume 2788.824140
_symmetry_space_group_name_H-M "A M M 2"
_symmetry_group_IT_number 38
_symmetry_cell_setting 'orthorhombic'
loop_
_space_group_symop_operation_xyz
x,y,z
-x,-y,z
-x,y,z
x,-y,z
x,1/2+y,1/2+z
-x,1/2-y,1/2+z
-x,1/2+y,1/2+z
x,1/2-y,1/2+z
loop_
_atom_site_type_symbol
_atom_site_label
_atom_site_fract_x
_atom_site_fract_y
_atom_site_fract_z
Si Si1 0.591440 0.811693 0.139020
Si Si2 0.232761 0.189316 0.965406
Si Si3 0.822934 0.189771 0.739441
Si Si4 0.093492 0.303845 0.365033
Si Si5 0.629908 0.312210 0.275709
Si Si6 0.771231 0.310389 0.102645
Si Si7 0.408767 0.191101 0.417207
O O1 0.500000 0.757658 0.115477
O O2 0.593955 0.783633 0.215599
O O3 0.671935 0.720381 0.112458
O O4 0.600903 0.000000 0.125400
O O5 0.166304 0.251201 0.913080
O O6 0.326312 0.253932 0.954450
O O7 0.237912 0.000000 0.957253
O O8 0.203020 0.230458 0.036617
O O9 0.886257 0.252224 0.792773
O O10 0.730390 0.204662 0.770125
O O11 0.816011 0.254061 0.667180
O O12 0.839264 0.000000 0.732500
O O13 0.096301 0.500000 0.364438
O O14 0.000000 0.256990 0.384611
O O15 0.610021 0.500000 0.267743
O O16 0.600418 0.253232 0.344424
O O17 0.784526 0.500000 0.098461
O O18 0.500000 0.246361 0.442150
O O19 0.408512 0.000000 0.416427
#
# Coordination Sequence:
#
# PCOD9356298 Si02
#       7
#     8   8   8   8   8   8   8
#     4  10  20  33  50  76 110 148 194 244 291 340
#     4  11  22  38  59  84 116 153 194 239 290 348
#     4   8  15  31  54  82 110 139 181 228 274 331
#     4   9  17  33  61  92 116 143 186 237 287 343
#     4  10  18  31  52  79 112 149 190 238 289 340
#     4  10  21  36  56  79 111 153 191 234 290 344
#     4  11  23  36  52  78 113 154 198 244 293 341
#
# _framework density 20.080145999999999
#
# number of rings (size 3 to 8) (size 9 to 14) (size 15 to 20)
#    0.000    2.143    1.429    3.429    0.000    4.571 
#    0.000    0.714    0.000    2.571    0.000    0.000 
#    0.000    0.000    0.000    0.000    0.000    0.000 
#
# Total GULP energy -156268.725591 kJ/mol
# GULP energy per Si atom -5581.025914 kJ/mol
# Density = 2.003444 g / cm^3
# Si number density = 20.080146 Si / 1000 Ang^3
#
#
#
# Elastic Constant Matrix: (Units=GPa)
#
#
# Indices 1 2 3 4 5 6 
#
# 1 79.9946 14.5787 49.7479 0.0000 0.0000 0.0000
# 2 14.5787 25.3657 -3.2136 0.0000 0.0000 0.0000
# 3 49.7479 -3.2136 108.1236 0.0000 0.0000 0.0000
# 4 0.0000 0.0000 0.0000 28.7006 0.0000 0.0000
# 5 0.0000 0.0000 0.0000 0.0000 10.4088 0.0000
# 6 0.0000 0.0000 0.0000 0.0000 0.0000 0.6272
#
#
#
# Elastic Compliance Matrix: (Units=1/GPa)
#
#
# Indices 1 2 3 4 5 6 
#
# 1 0.021321 -0.013548 -0.010212 0.000000 0.000000 0.000000
# 2 -0.013548 0.048181 0.007665 0.000000 0.000000 0.000000
# 3 -0.010212 0.007665 0.014175 0.000000 0.000000 0.000000
# 4 0.000000 0.000000 0.000000 0.034843 0.000000 0.000000
# 5 0.000000 0.000000 0.000000 0.000000 0.096073 0.000000
# 6 0.000000 0.000000 0.000000 0.000000 0.000000 1.594504
#
#
# Mechanical properties :
#
#
# Convention : Reuss Voigt Hill
#
# Bulk Modulus (GPa) = 19.42224 37.30110 28.36167
# Shear Modulus (GPa) = 2.69042 18.10537 10.39789
#
# Velocity S-wave (km/s) = 1.15877 3.00601 2.27803
# Velocity P-wave (km/s) = 3.38876 5.53756 4.59066
#
# Compressibility (1/GPa) = 0.05148737
#
# Stress axis : x y z
#
# Youngs Moduli (GPa) = 46.90226 20.75508 70.54533
#
# Poissons Ratio (x) = 0.28119 0.72044
# Poissons Ratio (y) = 0.63543 -0.54076
# Poissons Ratio (z) = 0.47899 -0.15910
#
# Static dielectric constant tensor:
#      x y z
#    x 1.659320 0.000000 0.000000 
#    y 0.000000 1.688860 0.000000 
#    z 0.000000 0.000000 1.721890 
# 
# From -- ./inp_files/21051.got.cif
#   From: 2010.05.17/outbox.cif.g08.bks.cpg/sg38_11_cif.got.tgz:21051.got - 2010.06.03 18:07:57.
