data_PCOD9356985
_publ_section_title
;
Structure prediction by ZEFSAII (Michael W. Deem and Ramdas Pophale) SiO2 
 PCOD9356985
Probable space group: A M M 2
;
_chemical_formula_sum "Si O2"
_cell_formula_units_Z 64
_cell_length_a 15.076810
_cell_length_b 8.712396
_cell_length_c 25.347195
_cell_angle_alpha 90.000000
_cell_angle_beta 90.000000
_cell_angle_gamma 90.000000
_cell_volume 3329.484326
_symmetry_space_group_name_H-M "A M M 2"
_symmetry_group_IT_number 38
_symmetry_cell_setting 'orthorhombic'
loop_
_space_group_symop_operation_xyz
x,y,z
-x,-y,z
-x,y,z
x,-y,z
x,1/2+y,1/2+z
-x,1/2-y,1/2+z
-x,1/2+y,1/2+z
x,1/2-y,1/2+z
loop_
_atom_site_type_symbol
_atom_site_label
_atom_site_fract_x
_atom_site_fract_y
_atom_site_fract_z
Si Si1 0.400254 0.185313 0.970990
Si Si2 0.634766 0.677538 0.589140
Si Si3 0.163364 0.175359 0.125790
Si Si4 0.902916 0.818099 0.524192
Si Si5 0.402249 0.186138 0.205895
Si Si6 0.222929 0.685528 0.931397
Si Si7 0.785884 0.818354 0.734900
Si Si8 0.103196 0.814297 0.331755
O O1 0.500000 0.223358 0.953628
O O2 0.391395 0.500000 0.471927
O O3 0.322322 0.252088 0.935117
O O4 0.388707 0.242886 0.031881
O O5 0.604626 0.500000 0.587522
O O6 0.739954 0.679134 0.598181
O O7 0.599260 0.741892 0.644597
O O8 0.171489 0.273654 0.178529
O O9 0.143012 0.000000 0.140073
O O10 0.100625 0.238854 0.080647
O O11 0.828212 0.761745 0.484208
O O12 0.000000 0.796953 0.499476
O O13 0.889597 0.000000 0.532196
O O14 0.500000 0.222571 0.228117
O O15 0.314836 0.252024 0.233759
O O16 0.392868 0.000000 0.204866
O O17 0.225308 0.500000 0.931628
O O18 0.163062 0.733584 0.881833
O O19 0.846565 0.746205 0.780220
O O20 0.781878 0.000000 0.740853
O O21 0.000000 0.764357 0.334902
O O22 0.102634 0.000000 0.330764
#
# Coordination Sequence:
#
# PCOD9356985 Si02
#       8
#     8   8   8   8   8   8   8   8
#     4  10  19  32  53  82 117 156 194 231 277 333
#     4   8  14  27  49  77 110 149 191 230 267 316
#     4  10  19  34  56  81 113 154 195 233 275 334
#     4  10  20  34  54  83 118 151 181 224 290 354
#     4   9  17  32  56  85 118 158 201 238 277 333
#     4  10  21  38  60  85 115 146 185 239 292 341
#     4  11  23  38  58  86 120 151 186 240 300 349
#     4  10  22  43  68  87 105 142 197 247 292 349
#
# _framework density 19.222196
#
# number of rings (size 3 to 8) (size 9 to 14) (size 15 to 20)
#    0.000    2.250    1.250    3.000    0.000    5.000 
#    0.000    0.625    0.000    4.500    0.000    0.000 
#    0.000    0.000    0.000    0.000    0.000    0.000 
#
# Total GULP energy -178453.142136 kJ/mol
# GULP energy per Si atom -5576.660692 kJ/mol
# Density = 1.917845 g / cm^3
# Si number density = 19.222196 Si / 1000 Ang^3
#
#
#
# Elastic Constant Matrix: (Units=GPa)
#
#
# Indices 1 2 3 4 5 6 
#
# 1 150.9218 33.7034 71.9320 0.0000 0.0000 0.0000
# 2 33.7034 23.4744 19.6141 0.0000 0.0000 0.0000
# 3 71.9320 19.6141 95.0567 0.0000 0.0000 0.0000
# 4 0.0000 0.0000 0.0000 22.0494 0.0000 0.0000
# 5 0.0000 0.0000 0.0000 0.0000 16.9968 0.0000
# 6 0.0000 0.0000 0.0000 0.0000 0.0000 21.7927
#
#
#
# Elastic Compliance Matrix: (Units=1/GPa)
#
#
# Indices 1 2 3 4 5 6 
#
# 1 0.012791 -0.012418 -0.007117 0.000000 0.000000 0.000000
# 2 -0.012418 0.063531 -0.003712 0.000000 0.000000 0.000000
# 3 -0.007117 -0.003712 0.016672 0.000000 0.000000 0.000000
# 4 0.000000 0.000000 0.000000 0.045353 0.000000 0.000000
# 5 0.000000 0.000000 0.000000 0.000000 0.058835 0.000000
# 6 0.000000 0.000000 0.000000 0.000000 0.000000 0.045887
#
#
# Mechanical properties :
#
#
# Convention : Reuss Voigt Hill
#
# Bulk Modulus (GPa) = 21.50569 57.77243 39.63906
# Shear Modulus (GPa) = 16.39009 21.78133 19.08571
#
# Velocity S-wave (km/s) = 2.92321 3.36986 3.15445
# Velocity P-wave (km/s) = 4.75455 6.72767 5.82526
#
# Compressibility (1/GPa) = 0.04649931
#
# Stress axis : x y z
#
# Youngs Moduli (GPa) = 78.17781 15.74039 59.98222
#
# Poissons Ratio (x) = 0.19547 0.42690
# Poissons Ratio (y) = 0.97085 0.22263
# Poissons Ratio (z) = 0.55640 0.05842
#
# Static dielectric constant tensor:
#      x y z
#    x 1.702860 0.000000 0.000000 
#    y 0.000000 1.661500 0.000000 
#    z 0.000000 0.000000 1.664520 
# 
# From -- ./inp_files/22997.got.cif
#   From: 2010.05.17/outbox.cif.g08.bks.cpg/sg38_12_cif.got.tgz:22997.got - 2010.06.03 18:07:57.
