data_PCOD9356798
_publ_section_title
;
Structure prediction by ZEFSAII (Michael W. Deem and Ramdas Pophale) SiO2 
 PCOD9356798
Probable space group: A M M 2
;
_chemical_formula_sum "Si O2"
_cell_formula_units_Z 64
_cell_length_a 7.463270
_cell_length_b 28.658726
_cell_length_c 11.769945
_cell_angle_alpha 90.000000
_cell_angle_beta 90.000000
_cell_angle_gamma 90.000000
_cell_volume 2517.447760
_symmetry_space_group_name_H-M "A M M 2"
_symmetry_group_IT_number 38
_symmetry_cell_setting 'orthorhombic'
loop_
_space_group_symop_operation_xyz
x,y,z
-x,-y,z
-x,y,z
x,-y,z
x,1/2+y,1/2+z
-x,1/2-y,1/2+z
-x,1/2+y,1/2+z
x,1/2-y,1/2+z
loop_
_atom_site_type_symbol
_atom_site_label
_atom_site_fract_x
_atom_site_fract_y
_atom_site_fract_z
Si Si1 0.201310 0.074432 0.671290
Si Si2 0.210720 0.793958 0.405178
Si Si3 0.712904 0.717209 0.666159
Si Si4 0.798900 0.809123 0.927977
Si Si5 0.702696 0.676452 0.139271
Si Si6 0.217301 0.554918 0.667871
Si Si7 0.220819 0.411475 0.415177
Si Si8 0.206385 0.556150 0.919154
O O1 0.193600 0.130769 0.674150
O O2 0.275028 0.062058 0.797722
O O3 0.285849 0.064620 0.546476
O O4 0.000000 0.054803 0.666252
O O5 0.240872 0.810024 0.279178
O O6 0.287861 0.741027 0.404303
O O7 0.298850 0.823200 0.502814
O O8 0.000000 0.791295 0.431139
O O9 0.500000 0.718288 0.648038
O O10 0.805968 0.691943 0.563298
O O11 0.774034 0.771722 0.668762
O O12 0.000000 0.807896 0.880496
O O13 0.714958 0.858146 0.899245
O O14 0.500000 0.673756 0.181645
O O15 0.260269 0.500000 0.663736
O O16 0.275450 0.573882 0.543252
O O17 0.279234 0.572175 0.794511
O O18 0.000000 0.559683 0.670606
O O19 0.000000 0.412113 0.414926
O O20 0.200368 0.500000 0.909403
O O21 0.000000 0.574385 0.925667
#
# Coordination Sequence:
#
# PCOD9356798 Si02
#       8
#     8   8   8   8   8   8   8   8
#     4  10  19  31  50  76 103 132 171 219 266 311
#     4  10  19  32  51  71  94 129 173 219 263 308
#     4  10  20  33  49  69  95 129 169 214 261 310
#     4   9  18  31  46  66  94 128 165 207 254 304
#     4  10  21  35  49  69 101 137 172 212 260 314
#     4   8  14  26  44  68 101 136 163 194 248 314
#     4   9  17  28  44  69 100 131 167 212 257 303
#     4   8  15  28  46  71 104 137 168 208 261 318
#
# _framework density 25.422571000000001
#
# number of rings (size 3 to 8) (size 9 to 14) (size 15 to 20)
#    0.000    2.750    0.000    2.625    0.000    4.500 
#    0.000    5.625    0.000    0.375    0.000    0.875 
#    0.000    3.500    0.000    0.000    0.000    0.000 
#
# Total GULP energy -178412.101197 kJ/mol
# GULP energy per Si atom -5575.378162 kJ/mol
# Density = 2.536471 g / cm^3
# Si number density = 25.422571 Si / 1000 Ang^3
#
#
#
# Elastic Constant Matrix: (Units=GPa)
#
#
# Indices 1 2 3 4 5 6 
#
# 1 90.7786 7.3280 14.3361 0.0000 0.0000 0.0000
# 2 7.3280 66.1158 23.9361 0.0000 0.0000 0.0000
# 3 14.3361 23.9361 257.6136 0.0000 0.0000 0.0000
# 4 0.0000 0.0000 0.0000 -4.8753 0.0000 0.0000
# 5 0.0000 0.0000 0.0000 0.0000 -14.1580 0.0000
# 6 0.0000 0.0000 0.0000 0.0000 0.0000 -8.5946
#
#
#
# Elastic Compliance Matrix: (Units=1/GPa)
#
#
# Indices 1 2 3 4 5 6 
#
# 1 0.011183 -0.001050 -0.000525 0.000000 0.000000 0.000000
# 2 -0.001050 0.015750 -0.001405 0.000000 0.000000 0.000000
# 3 -0.000525 -0.001405 0.004042 0.000000 0.000000 0.000000
# 4 0.000000 0.000000 0.000000 -0.205116 0.000000 0.000000
# 5 0.000000 0.000000 0.000000 0.000000 -0.070632 0.000000
# 6 0.000000 0.000000 0.000000 0.000000 0.000000 -0.116352
#
#
# Mechanical properties :
#
#
# Convention : Reuss Voigt Hill
#
# Bulk Modulus (GPa) = 39.97408 56.18983 48.08196
# Shear Modulus (GPa) = -14.41639 19.06828 2.32595
#
# Velocity S-wave (km/s) = -2.38391 2.74168 0.95755
# Velocity P-wave (km/s) = 2.86018 5.67210 4.49185
#
# Compressibility (1/GPa) = 0.02501621
#
# Stress axis : x y z
#
# Youngs Moduli (GPa) = 89.41808 63.49219 247.43075
#
# Poissons Ratio (x) = 0.06664 0.12986
# Poissons Ratio (y) = 0.09385 0.34764
# Poissons Ratio (z) = 0.04693 0.08921
#
# Static dielectric constant tensor:
#      x y z
#    x 2.018910 0.000000 0.000000 
#    y 0.000000 1.966930 0.000000 
#    z 0.000000 0.000000 2.108680 
# 
# From -- ./inp_files/8519.got.cif
#   From: 2010.05.17/outbox.cif.g08.bks.cpg/sg38_5_cif.got.tgz:8519.got - 2010.06.03 18:07:57.
