data_PCOD9356840
_publ_section_title
;
Structure prediction by ZEFSAII (Michael W. Deem and Ramdas Pophale) SiO2 
 PCOD9356840
Probable space group: A M M 2
;
_chemical_formula_sum "Si O2"
_cell_formula_units_Z 40
_cell_length_a 8.551083
_cell_length_b 11.087188
_cell_length_c 23.170389
_cell_angle_alpha 90.000000
_cell_angle_beta 90.000000
_cell_angle_gamma 90.000000
_cell_volume 2196.725840
_symmetry_space_group_name_H-M "A M M 2"
_symmetry_group_IT_number 38
_symmetry_cell_setting 'orthorhombic'
loop_
_space_group_symop_operation_xyz
x,y,z
-x,-y,z
-x,y,z
x,-y,z
x,1/2+y,1/2+z
-x,1/2-y,1/2+z
-x,1/2+y,1/2+z
x,1/2-y,1/2+z
loop_
_atom_site_type_symbol
_atom_site_label
_atom_site_fract_x
_atom_site_fract_y
_atom_site_fract_z
Si Si1 0.313405 0.180373 0.730510
Si Si2 0.177598 0.500000 0.319781
Si Si3 0.187169 0.259297 0.936267
Si Si4 0.313038 0.000000 0.630891
Si Si5 0.312665 0.135940 0.319019
Si Si6 0.319566 0.500000 0.442053
Si Si7 0.812407 0.000000 0.502629
O O1 0.500000 0.155221 0.738183
O O2 0.288022 0.315521 0.753574
O O3 0.213072 0.109358 0.777450
O O4 0.273672 0.119181 0.669372
O O5 0.294998 0.500000 0.372868
O O6 0.000000 0.500000 0.341826
O O7 0.240990 0.284249 0.870485
O O8 0.000000 0.256616 0.937491
O O9 0.246163 0.129443 0.959104
O O10 0.244426 0.376447 0.972174
O O11 0.500000 0.000000 0.622318
O O12 0.231914 0.000000 0.569520
O O13 0.500000 0.137319 0.328001
O O14 0.253366 0.000000 0.325426
O O15 0.500000 0.500000 0.457860
O O16 0.000000 0.000000 0.496761
#
# Coordination Sequence:
#
# PCOD9356840 Si02
#       7
#     8   4   8   4   8   4   4
#     4   9  18  33  51  77 110 142 181 234 283 324
#     4  11  19  27  46  76 106 139 173 211 266 332
#     4  11  22  37  56  83 116 154 194 239 293 347
#     4   9  19  35  58  80 106 149 198 240 279 335
#     4  10  19  31  52  82 115 152 187 229 292 353
#     4  12  23  35  52  81 115 149 186 233 289 348
#     4  10  23  41  60  83 115 153 195 244 290 339
#
# _framework density 18.208917
#
# number of rings (size 3 to 8) (size 9 to 14) (size 15 to 20)
#    0.000    1.800    3.000    3.000    0.000    3.200 
#    0.000    0.000    2.200    0.000    0.000    0.000 
#    0.000    0.000    0.000    0.000    0.000    0.000 
#
# Total GULP energy -111357.949873 kJ/mol
# GULP energy per Si atom -5567.897494 kJ/mol
# Density = 1.816747 g / cm^3
# Si number density = 18.208917 Si / 1000 Ang^3
#
#
#
# Elastic Constant Matrix: (Units=GPa)
#
#
# Indices 1 2 3 4 5 6 
#
# 1 30.3867 28.8570 11.2264 0.0000 0.0000 0.0000
# 2 28.8570 144.5348 46.6606 0.0000 0.0000 0.0000
# 3 11.2264 46.6606 85.0630 0.0000 0.0000 0.0000
# 4 0.0000 0.0000 0.0000 23.7764 0.0000 0.0000
# 5 0.0000 0.0000 0.0000 0.0000 33.0848 0.0000
# 6 0.0000 0.0000 0.0000 0.0000 0.0000 20.3947
#
#
#
# Elastic Compliance Matrix: (Units=1/GPa)
#
#
# Indices 1 2 3 4 5 6 
#
# 1 0.040695 -0.007766 -0.001111 0.000000 0.000000 0.000000
# 2 -0.007766 0.009890 -0.004400 0.000000 0.000000 0.000000
# 3 -0.001111 -0.004400 0.014316 0.000000 0.000000 0.000000
# 4 0.000000 0.000000 0.000000 0.042058 0.000000 0.000000
# 5 0.000000 0.000000 0.000000 0.000000 0.030225 0.000000
# 6 0.000000 0.000000 0.000000 0.000000 0.000000 0.049032
#
#
# Mechanical properties :
#
#
# Convention : Reuss Voigt Hill
#
# Bulk Modulus (GPa) = 26.07780 48.16361 37.12070
# Shear Modulus (GPa) = 22.16775 27.00057 24.58416
#
# Velocity S-wave (km/s) = 3.49293 3.85492 3.67838
# Velocity P-wave (km/s) = 5.53353 6.80602 6.20249
#
# Compressibility (1/GPa) = 0.03834679
#
# Stress axis : x y z
#
# Youngs Moduli (GPa) = 24.57318 101.11444 69.85121
#
# Poissons Ratio (x) = 0.78529 0.07758
# Poissons Ratio (y) = 0.19084 0.30734
# Poissons Ratio (z) = 0.02729 0.44490
#
# Static dielectric constant tensor:
#      x y z
#    x 1.622360 0.000000 0.000000 
#    y 0.000000 1.753470 0.000000 
#    z 0.000000 0.000000 1.593050 
# 
# From -- ./inp_files/19548.got.cif
#   From: 2010.05.17/outbox.cif.g08.bks.cpg/sg38_10_cif.got.tgz:19548.got - 2010.06.03 18:07:57.
