data_PCOD9356596
_publ_section_title
;
Structure prediction by ZEFSAII (Michael W. Deem and Ramdas Pophale) SiO2 
 PCOD9356596
Probable space group: A M M 2
;
_chemical_formula_sum "Si O2"
_cell_formula_units_Z 64
_cell_length_a 15.810886
_cell_length_b 8.866176
_cell_length_c 30.957527
_cell_angle_alpha 90.000000
_cell_angle_beta 90.000000
_cell_angle_gamma 90.000000
_cell_volume 4339.691084
_symmetry_space_group_name_H-M "A M M 2"
_symmetry_group_IT_number 38
_symmetry_cell_setting 'orthorhombic'
loop_
_space_group_symop_operation_xyz
x,y,z
-x,-y,z
-x,y,z
x,-y,z
x,1/2+y,1/2+z
-x,1/2-y,1/2+z
-x,1/2+y,1/2+z
x,1/2-y,1/2+z
loop_
_atom_site_type_symbol
_atom_site_label
_atom_site_fract_x
_atom_site_fract_y
_atom_site_fract_z
Si Si1 0.097677 0.818619 0.380960
Si Si2 0.592696 0.680761 0.310214
Si Si3 0.899870 0.320991 0.650396
Si Si4 0.235431 0.681233 0.810012
Si Si5 0.592910 0.680909 0.713655
Si Si6 0.234294 0.679911 0.214079
Si Si7 0.102916 0.673897 0.471566
Si Si8 0.102732 0.672433 0.060103
O O1 0.158414 0.777586 0.341460
O O2 0.127443 0.749090 0.426315
O O3 0.000000 0.772299 0.373338
O O4 0.098699 0.000000 0.385014
O O5 0.500000 0.712523 0.330020
O O6 0.602783 0.500000 0.307749
O O7 0.676384 0.756095 0.329407
O O8 0.589861 0.749568 0.261886
O O9 0.888215 0.500000 0.655412
O O10 0.843218 0.233503 0.684783
O O11 0.875045 0.269975 0.602035
O O12 0.000000 0.287832 0.655923
O O13 0.239804 0.500000 0.805942
O O14 0.224691 0.752263 0.762402
O O15 0.500000 0.712938 0.693842
O O16 0.602449 0.500000 0.716216
O O17 0.677728 0.753790 0.694771
O O18 0.239392 0.500000 0.216578
O O19 0.128694 0.500000 0.473090
O O20 0.132281 0.759729 0.514564
O O21 0.000000 0.678591 0.472269
O O22 0.130606 0.500000 0.065494
O O23 0.000000 0.672068 0.058420
#
# Coordination Sequence:
#
# PCOD9356596 Si02
#       8
#     8   8   8   8   8   8   8   8
#     4   9  18  31  44  59  82 113 147 180 213 249
#     4   9  16  26  41  60  81 105 134 172 219 263
#     4  10  20  33  47  62  84 115 150 185 217 252
#     4  10  19  30  44  61  83 114 150 183 215 252
#     4   9  16  27  44  63  82 106 138 176 217 259
#     4  11  21  31  44  62  87 117 148 182 218 258
#     4   9  16  26  42  63  84 107 137 173 214 256
#     4   9  16  27  44  64  85 108 136 173 217 260
#
# _framework density 14.747593999999999
#
# number of rings (size 3 to 8) (size 9 to 14) (size 15 to 20)
#    0.000    2.500    0.000    4.875    0.000    6.750 
#    0.000    1.250    0.000    0.000    0.000    0.000 
#    0.000    1.000    0.000    7.250    0.000    6.000 
#
# Total GULP energy -178195.489024 kJ/mol
# GULP energy per Si atom -5568.609032 kJ/mol
# Density = 1.471403 g / cm^3
# Si number density = 14.747594 Si / 1000 Ang^3
#
#
#
# Elastic Constant Matrix: (Units=GPa)
#
#
# Indices 1 2 3 4 5 6 
#
# 1 79.1061 42.8867 44.2022 0.0000 0.0000 0.0000
# 2 42.8867 79.0929 35.7569 0.0000 0.0000 0.0000
# 3 44.2022 35.7569 70.0676 0.0000 0.0000 0.0000
# 4 0.0000 0.0000 0.0000 22.2179 0.0000 0.0000
# 5 0.0000 0.0000 0.0000 0.0000 -0.9189 0.0000
# 6 0.0000 0.0000 0.0000 0.0000 0.0000 20.2234
#
#
#
# Elastic Compliance Matrix: (Units=1/GPa)
#
#
# Indices 1 2 3 4 5 6 
#
# 1 0.022508 -0.007520 -0.010361 0.000000 0.000000 0.000000
# 2 -0.007520 0.018948 -0.004925 0.000000 0.000000 0.000000
# 3 -0.010361 -0.004925 0.023322 0.000000 0.000000 0.000000
# 4 0.000000 0.000000 0.000000 0.045009 0.000000 0.000000
# 5 0.000000 0.000000 0.000000 0.000000 -1.088206 0.000000
# 6 0.000000 0.000000 0.000000 0.000000 0.000000 0.049448
#
#
# Mechanical properties :
#
#
# Convention : Reuss Voigt Hill
#
# Bulk Modulus (GPa) = 52.18191 52.66201 52.42196
# Shear Modulus (GPa) = -5.70145 15.33253 4.81554
#
# Velocity S-wave (km/s) = -1.96835 3.22788 1.80898
# Velocity P-wave (km/s) = 5.50402 7.04831 6.32349
#
# Compressibility (1/GPa) = 0.01916373
#
# Stress axis : x y z
#
# Youngs Moduli (GPa) = 44.42871 52.77677 42.87818
#
# Poissons Ratio (x) = 0.39690 0.44428
# Poissons Ratio (y) = 0.33412 0.21119
# Poissons Ratio (z) = 0.46034 0.25994
#
# Static dielectric constant tensor:
#      x y z
#    x 1.517220 0.000000 0.000000 
#    y 0.000000 1.493210 0.000000 
#    z 0.000000 0.000000 1.464960 
# 
# From -- ./inp_files/25096.got.cif
#   From: 2010.05.17/outbox.cif.g08.bks.cpg/sg38_13_cif.got.tgz:25096.got - 2010.06.03 18:07:57.
