data_PCOD9356620
_publ_section_title
;
Structure prediction by ZEFSAII (Michael W. Deem and Ramdas Pophale) SiO2 
 PCOD9356620
Probable space group: A M M 2
;
_chemical_formula_sum "Si O2"
_cell_formula_units_Z 48
_cell_length_a 31.227574
_cell_length_b 14.503686
_cell_length_c 5.052718
_cell_angle_alpha 90.000000
_cell_angle_beta 90.000000
_cell_angle_gamma 90.000000
_cell_volume 2288.451408
_symmetry_space_group_name_H-M "A M M 2"
_symmetry_group_IT_number 38
_symmetry_cell_setting 'orthorhombic'
loop_
_space_group_symop_operation_xyz
x,y,z
-x,-y,z
-x,y,z
x,-y,z
x,1/2+y,1/2+z
-x,1/2-y,1/2+z
-x,1/2+y,1/2+z
x,1/2-y,1/2+z
loop_
_atom_site_type_symbol
_atom_site_label
_atom_site_fract_x
_atom_site_fract_y
_atom_site_fract_z
Si Si1 0.500000 0.685102 0.480500
Si Si2 0.680458 0.188934 0.985011
Si Si3 0.000000 0.314278 0.857418
Si Si4 0.819618 0.110648 0.315676
Si Si5 0.090173 0.811164 0.484499
Si Si6 0.229371 0.889346 0.815674
Si Si7 0.409912 0.314508 0.359149
O O1 0.500000 0.728108 0.773864
O O2 0.545125 0.636001 0.420633
O O3 0.680152 0.222786 0.286882
O O4 0.723780 0.137471 0.912651
O O5 0.635589 0.138391 0.918365
O O6 0.954664 0.361934 0.917924
O O7 0.000000 0.272691 0.562920
O O8 0.866481 0.137398 0.412547
O O9 0.784153 0.144060 0.526180
O O10 0.817783 0.000000 0.308598
O O11 0.806106 0.144040 0.026153
O O12 0.089863 0.777035 0.786081
O O13 0.227563 0.000000 0.808574
O O14 0.410150 0.227548 0.564914
#
# Coordination Sequence:
#
# PCOD9356620 Si02
#       7
#     4   8   4   8   8   8   8
#     4   8  12  20  34  52  79 110 135 164 214 268
#     4  10  19  30  46  68  91 114 149 193 225 257
#     4   8  16  30  47  70  97 120 144 180 222 264
#     4  10  21  35  49  68  94 121 152 189 225 264
#     4  10  19  32  52  74  95 121 153 185 221 266
#     4  10  21  35  48  64  92 126 152 181 228 276
#     4   8  14  23  36  57  83 109 137 175 219 258
#
# _framework density 20.974883999999999
#
# number of rings (size 3 to 8) (size 9 to 14) (size 15 to 20)
#    0.000    2.667    0.000    2.000    0.000    4.000 
#    0.000    0.417    0.000    0.000    0.000   11.083 
#    0.000    0.000    0.000   44.833    0.000    1.667 
#
# Total GULP energy -133785.892545 kJ/mol
# GULP energy per Si atom -5574.412189 kJ/mol
# Density = 2.092714 g / cm^3
# Si number density = 20.974884 Si / 1000 Ang^3
#
#
#
# Elastic Constant Matrix: (Units=GPa)
#
#
# Indices 1 2 3 4 5 6 
#
# 1 145.0381 -1.4150 -1.2065 0.0000 0.0000 0.0000
# 2 -1.4150 20.0582 -2.0703 0.0000 0.0000 0.0000
# 3 -1.2065 -2.0703 87.0331 0.0000 0.0000 0.0000
# 4 0.0000 0.0000 0.0000 7.3332 0.0000 0.0000
# 5 0.0000 0.0000 0.0000 0.0000 37.4741 0.0000
# 6 0.0000 0.0000 0.0000 0.0000 0.0000 -10.3536
#
#
#
# Elastic Compliance Matrix: (Units=1/GPa)
#
#
# Indices 1 2 3 4 5 6 
#
# 1 0.006900 0.000498 0.000108 0.000000 0.000000 0.000000
# 2 0.000498 0.050013 0.001197 0.000000 0.000000 0.000000
# 3 0.000108 0.001197 0.011520 0.000000 0.000000 0.000000
# 4 0.000000 0.000000 0.000000 0.136366 0.000000 0.000000
# 5 0.000000 0.000000 0.000000 0.000000 0.026685 0.000000
# 6 0.000000 0.000000 0.000000 0.000000 0.000000 -0.096585
#
#
# Mechanical properties :
#
#
# Convention : Reuss Voigt Hill
#
# Bulk Modulus (GPa) = 13.88161 26.97176 20.42668
# Shear Modulus (GPa) = 32.19395 24.01216 28.10305
#
# Velocity S-wave (km/s) = 3.92201 3.38717 3.66436
# Velocity P-wave (km/s) = 5.20981 5.30888 5.25958
#
# Compressibility (1/GPa) = 0.07203776
#
# Stress axis : x y z
#
# Youngs Moduli (GPa) = 144.91719 19.99460 86.80676
#
# Poissons Ratio (x) = -0.00995 -0.00933
# Poissons Ratio (y) = -0.07215 -0.10387
# Poissons Ratio (z) = -0.01558 -0.02393
#
# Static dielectric constant tensor:
#      x y z
#    x 1.848370 0.000000 0.000000 
#    y 0.000000 1.706690 0.000000 
#    z 0.000000 0.000000 1.734750 
# 
# From -- ./inp_files/2207.got.cif
#   From: 2010.05.17/outbox.cif.g08.bks.cpg/sg38_2_cif.got.tgz:2207.got - 2010.06.03 18:07:57.
