data_PCOD9356601
_publ_section_title
;
Structure prediction by ZEFSAII (Michael W. Deem and Ramdas Pophale) SiO2 
 PCOD9356601
Probable space group: A M M 2
;
_chemical_formula_sum "Si O2"
_cell_formula_units_Z 56
_cell_length_a 8.721721
_cell_length_b 19.021073
_cell_length_c 21.447366
_cell_angle_alpha 90.000000
_cell_angle_beta 90.000000
_cell_angle_gamma 90.000000
_cell_volume 3558.042778
_symmetry_space_group_name_H-M "A M M 2"
_symmetry_group_IT_number 38
_symmetry_cell_setting 'orthorhombic'
loop_
_space_group_symop_operation_xyz
x,y,z
-x,-y,z
-x,y,z
x,-y,z
x,1/2+y,1/2+z
-x,1/2-y,1/2+z
-x,1/2+y,1/2+z
x,1/2-y,1/2+z
loop_
_atom_site_type_symbol
_atom_site_label
_atom_site_fract_x
_atom_site_fract_y
_atom_site_fract_z
Si Si1 0.185012 0.352249 0.684850
Si Si2 0.813642 0.419370 0.061642
Si Si3 0.315121 0.082132 0.310388
Si Si4 0.176543 0.212053 0.630298
Si Si5 0.176270 0.289654 0.495191
Si Si6 0.316450 0.844703 0.439481
Si Si7 0.683531 0.419306 0.559262
O O1 0.240002 0.385211 0.749105
O O2 0.242649 0.271462 0.675812
O O3 0.247773 0.396412 0.626136
O O4 0.000000 0.351779 0.681130
O O5 0.769652 0.500000 0.072061
O O6 0.756669 0.364423 0.114509
O O7 0.000000 0.415139 0.060308
O O8 0.753235 0.391516 0.995326
O O9 0.500000 0.086342 0.304373
O O10 0.270224 0.123549 0.372945
O O11 0.274192 0.000000 0.316239
O O12 0.176694 0.250791 0.562840
O O13 0.000000 0.200995 0.649596
O O14 0.260039 0.234997 0.449981
O O15 0.255162 0.364057 0.508366
O O16 0.000000 0.298831 0.476628
O O17 0.500000 0.847231 0.444344
O O18 0.500000 0.413928 0.562888
O O19 0.725419 0.500000 0.545943
#
# Coordination Sequence:
#
# PCOD9356601 Si02
#       7
#     8   8   8   8   8   8   8
#     4  10  19  30  45  64  89 122 158 193 227 266
#     4   9  16  27  45  67  90 116 145 180 225 275
#     4  10  21  34  45  61  89 123 156 190 228 271
#     4   7  13  26  41  60  85 110 139 178 222 264
#     4   9  17  30  47  66  89 116 149 188 226 267
#     4  10  19  31  46  63  88 121 153 186 227 273
#     4  10  19  30  46  69  96 123 150 183 226 274
#
# _framework density 15.738989999999999
#
# number of rings (size 3 to 8) (size 9 to 14) (size 15 to 20)
#    0.000    2.714    0.000    4.286    0.000    5.143 
#    0.000    0.714    0.000    0.000    0.000    1.000 
#    0.000    3.429    0.000    0.000    0.000    0.000 
#
# Total GULP energy -155946.068368 kJ/mol
# GULP energy per Si atom -5569.502442 kJ/mol
# Density = 1.570317 g / cm^3
# Si number density = 15.738990 Si / 1000 Ang^3
#
#
#
# Elastic Constant Matrix: (Units=GPa)
#
#
# Indices 1 2 3 4 5 6 
#
# 1 33.2848 40.6878 21.9005 0.0000 0.0000 0.0000
# 2 40.6878 170.8483 64.7699 0.0000 0.0000 0.0000
# 3 21.9005 64.7699 67.2440 0.0000 0.0000 0.0000
# 4 0.0000 0.0000 0.0000 26.3211 0.0000 0.0000
# 5 0.0000 0.0000 0.0000 0.0000 15.6272 0.0000
# 6 0.0000 0.0000 0.0000 0.0000 0.0000 22.7467
#
#
#
# Elastic Compliance Matrix: (Units=1/GPa)
#
#
# Indices 1 2 3 4 5 6 
#
# 1 0.044223 -0.007989 -0.006708 0.000000 0.000000 0.000000
# 2 -0.007989 0.010663 -0.007669 0.000000 0.000000 0.000000
# 3 -0.006708 -0.007669 0.024443 0.000000 0.000000 0.000000
# 4 0.000000 0.000000 0.000000 0.037992 0.000000 0.000000
# 5 0.000000 0.000000 0.000000 0.000000 0.063991 0.000000
# 6 0.000000 0.000000 0.000000 0.000000 0.000000 0.043962
#
#
# Mechanical properties :
#
#
# Convention : Reuss Voigt Hill
#
# Bulk Modulus (GPa) = 28.90391 58.45483 43.67937
# Shear Modulus (GPa) = 17.75960 22.54027 20.14993
#
# Velocity S-wave (km/s) = 3.36278 3.78845 3.58195
# Velocity P-wave (km/s) = 5.78638 7.50715 6.70222
#
# Compressibility (1/GPa) = 0.03459739
#
# Stress axis : x y z
#
# Youngs Moduli (GPa) = 22.61268 93.78233 40.91208
#
# Poissons Ratio (x) = 0.74920 0.27444
# Poissons Ratio (y) = 0.18065 0.31375
# Poissons Ratio (z) = 0.15169 0.71920
#
# Static dielectric constant tensor:
#      x y z
#    x 1.538570 0.000000 0.000000 
#    y 0.000000 1.558840 0.000000 
#    z 0.000000 0.000000 1.495890 
# 
# From -- ./inp_files/19982.got.cif
#   From: 2010.05.17/outbox.cif.g08.bks.cpg/sg38_10_cif.got.tgz:19982.got - 2010.06.03 18:07:57.
