data_PCOD9356322
_publ_section_title
;
Structure prediction by ZEFSAII (Michael W. Deem and Ramdas Pophale) SiO2 
 PCOD9356322
Probable space group: A M M 2
;
_chemical_formula_sum "Si O2"
_cell_formula_units_Z 48
_cell_length_a 19.846840
_cell_length_b 7.954687
_cell_length_c 14.263122
_cell_angle_alpha 90.000000
_cell_angle_beta 90.000000
_cell_angle_gamma 90.000000
_cell_volume 2251.796093
_symmetry_space_group_name_H-M "A M M 2"
_symmetry_group_IT_number 38
_symmetry_cell_setting 'orthorhombic'
loop_
_space_group_symop_operation_xyz
x,y,z
-x,-y,z
-x,y,z
x,-y,z
x,1/2+y,1/2+z
-x,1/2-y,1/2+z
-x,1/2+y,1/2+z
x,1/2-y,1/2+z
loop_
_atom_site_type_symbol
_atom_site_label
_atom_site_fract_x
_atom_site_fract_y
_atom_site_fract_z
Si Si1 0.076438 0.500000 0.022951
Si Si2 0.320717 0.202189 0.836801
Si Si3 0.576232 0.795063 0.680633
Si Si4 0.828133 0.308808 0.298748
Si Si5 0.921859 0.500000 0.793049
Si Si6 0.306287 0.805033 0.546594
Si Si7 0.161569 0.818525 0.027063
O O1 0.115498 0.664644 0.055090
O O2 0.000000 0.500000 0.054577
O O3 0.077010 0.500000 0.908205
O O4 0.385521 0.249087 0.776408
O O5 0.250425 0.236032 0.782685
O O6 0.321044 0.000000 0.852900
O O7 0.319074 0.292825 0.935841
O O8 0.500000 0.732876 0.673169
O O9 0.627891 0.740587 0.599880
O O10 0.573677 0.000000 0.676829
O O11 0.841311 0.500000 0.266203
O O12 0.833316 0.313114 0.413065
O O13 0.879702 0.166461 0.265699
O O14 0.000000 0.500000 0.762565
O O15 0.237162 0.706953 0.563608
O O16 0.295082 0.000000 0.573374
O O17 0.134288 0.000000 0.053743
#
# Coordination Sequence:
#
# PCOD9356322 Si02
#       7
#     4   8   8   8   4   8   8
#     4   9  16  26  42  72 109 141 180 229 281 329
#     4   9  18  33  53  76 104 143 187 227 277 335
#     4   9  19  35  54  79 111 143 184 232 281 345
#     4   8  15  26  43  67  96 133 178 220 258 317
#     4   9  16  24  40  68 103 137 168 215 275 321
#     4  10  18  31  54  79 106 144 189 233 279 333
#     4   9  16  28  46  70 103 142 184 228 272 328
#
# _framework density 21.316317999999999
#
# number of rings (size 3 to 8) (size 9 to 14) (size 15 to 20)
#    0.000    3.000    0.833    1.500    3.500    1.333 
#    0.000    5.000    0.000    3.500    0.000    1.167 
#    0.000    0.000    0.000    0.000    0.000    0.000 
#
# Total GULP energy -134051.918078 kJ/mol
# GULP energy per Si atom -5585.496587 kJ/mol
# Density = 2.126780 g / cm^3
# Si number density = 21.316318 Si / 1000 Ang^3
#
#
#
# Elastic Constant Matrix: (Units=GPa)
#
#
# Indices 1 2 3 4 5 6 
#
# 1 175.9595 76.8443 12.5836 0.0000 0.0000 0.0000
# 2 76.8443 101.4594 12.6757 0.0000 0.0000 0.0000
# 3 12.5836 12.6757 45.4758 0.0000 0.0000 0.0000
# 4 0.0000 0.0000 0.0000 -506.7456 0.0000 0.0000
# 5 0.0000 0.0000 0.0000 0.0000 136.6612 0.0000
# 6 0.0000 0.0000 0.0000 0.0000 0.0000 13.9927
#
#
#
# Elastic Compliance Matrix: (Units=1/GPa)
#
#
# Indices 1 2 3 4 5 6 
#
# 1 0.008507 -0.006371 -0.000578 0.000000 0.000000 0.000000
# 2 -0.006371 0.014983 -0.002413 0.000000 0.000000 0.000000
# 3 -0.000578 -0.002413 0.022822 0.000000 0.000000 0.000000
# 4 0.000000 0.000000 0.000000 -0.001973 0.000000 0.000000
# 5 0.000000 0.000000 0.000000 0.000000 0.007317 0.000000
# 6 0.000000 0.000000 0.000000 0.000000 0.000000 0.071466
#
#
# Mechanical properties :
#
#
# Convention : Reuss Voigt Hill
#
# Bulk Modulus (GPa) = 36.24843 58.56688 47.40765
# Shear Modulus (GPa) = 33.10349 -56.49893 -11.69772
#
# Velocity S-wave (km/s) = 3.94504 -5.15389 -2.34512
# Velocity P-wave (km/s) = 6.14761 2.80748 3.86724
#
# Compressibility (1/GPa) = 0.02758741
#
# Stress axis : x y z
#
# Youngs Moduli (GPa) = 117.55564 66.74364 43.81665
#
# Poissons Ratio (x) = 0.42520 0.02533
# Poissons Ratio (y) = 0.74890 0.10575
# Poissons Ratio (z) = 0.06796 0.16108
#
# Static dielectric constant tensor:
#      x y z
#    x 1.726080 0.000000 0.000000 
#    y 0.000000 2.119050 0.000000 
#    z 0.000000 0.000000 1.809680 
# 
# From -- ./inp_files/15034.got.cif
#   From: 2010.05.17/outbox.cif.g08.bks.cpg/sg38_8_cif.got.tgz:15034.got - 2010.06.03 18:07:57.
