data_PCOD9356148
_publ_section_title
;
Structure prediction by ZEFSAII (Michael W. Deem and Ramdas Pophale) SiO2 
 PCOD9356148
Probable space group: A M M 2
;
_chemical_formula_sum "Si O2"
_cell_formula_units_Z 64
_cell_length_a 7.498957
_cell_length_b 19.434968
_cell_length_c 22.255861
_cell_angle_alpha 90.000000
_cell_angle_beta 90.000000
_cell_angle_gamma 90.000000
_cell_volume 3243.613456
_symmetry_space_group_name_H-M "A M M 2"
_symmetry_group_IT_number 38
_symmetry_cell_setting 'orthorhombic'
loop_
_space_group_symop_operation_xyz
x,y,z
-x,-y,z
-x,y,z
x,-y,z
x,1/2+y,1/2+z
-x,1/2-y,1/2+z
-x,1/2+y,1/2+z
x,1/2-y,1/2+z
loop_
_atom_site_type_symbol
_atom_site_label
_atom_site_fract_x
_atom_site_fract_y
_atom_site_fract_z
Si Si1 0.791163 0.276633 0.955440
Si Si2 0.207598 0.424662 0.594378
Si Si3 0.215171 0.371941 0.130683
Si Si4 0.781367 0.224759 0.085256
Si Si5 0.708282 0.574891 0.999486
Si Si6 0.200383 0.814737 0.856677
Si Si7 0.218657 0.577405 0.260901
Si Si8 0.713284 0.076322 0.953759
O O1 0.781083 0.357819 0.966658
O O2 0.714874 0.249843 0.892037
O O3 0.000000 0.258915 0.953264
O O4 0.720024 0.240005 0.016374
O O5 0.284668 0.500000 0.611890
O O6 0.280813 0.348984 0.610510
O O7 0.219115 0.421976 0.521854
O O8 0.000000 0.425767 0.612251
O O9 0.270826 0.292194 0.122847
O O10 0.272361 0.406267 0.192592
O O11 0.000000 0.372505 0.130338
O O12 0.272357 0.411466 0.070744
O O13 0.000000 0.222869 0.083703
O O14 0.500000 0.573500 0.985466
O O15 0.785987 0.500000 0.984893
O O16 0.282532 0.860372 0.803474
O O17 0.196754 0.868992 0.911401
O O18 0.000000 0.795664 0.836394
O O19 0.275522 0.500000 0.277945
O O20 0.000000 0.577758 0.263883
O O21 0.500000 0.087045 0.954541
O O22 0.749359 0.000000 0.929942
#
# Coordination Sequence:
#
# PCOD9356148 Si02
#       8
#     8   8   8   8   8   8   8   8
#     4   9  17  29  45  65  88 115 149 186 227 277
#     4   9  15  24  39  57  80 112 148 183 218 261
#     4   9  17  30  48  67  91 121 155 192 226 266
#     4   8  13  24  40  61  84 109 145 183 220 262
#     4  10  20  32  47  69  94 118 146 185 233 277
#     4  10  18  30  46  63  86 117 155 192 224 264
#     4   9  17  28  45  69  91 118 159 196 223 258
#     4  10  19  27  36  56  86 118 149 179 217 263
#
# _framework density 19.731083000000002
#
# number of rings (size 3 to 8) (size 9 to 14) (size 15 to 20)
#    0.000    2.750    1.250    2.250    0.000    3.250 
#    0.000    0.625    0.000    2.250    0.000    0.875 
#    0.000    5.000    0.000    3.375    0.000    3.250 
#
# Total GULP energy -178280.691865 kJ/mol
# GULP energy per Si atom -5571.271621 kJ/mol
# Density = 1.968617 g / cm^3
# Si number density = 19.731083 Si / 1000 Ang^3
#
#
#
# Elastic Constant Matrix: (Units=GPa)
#
#
# Indices 1 2 3 4 5 6 
#
# 1 55.6249 4.3922 -1.7607 0.0000 0.0000 0.0000
# 2 4.3922 151.7832 30.2374 0.0000 0.0000 0.0000
# 3 -1.7607 30.2374 60.7838 0.0000 0.0000 0.0000
# 4 0.0000 0.0000 0.0000 27.3071 0.0000 0.0000
# 5 0.0000 0.0000 0.0000 0.0000 -55.2165 0.0000
# 6 0.0000 0.0000 0.0000 0.0000 0.0000 62.2472
#
#
#
# Elastic Compliance Matrix: (Units=1/GPa)
#
#
# Indices 1 2 3 4 5 6 
#
# 1 0.018060 -0.000696 0.000869 0.000000 0.000000 0.000000
# 2 -0.000696 0.007340 -0.003671 0.000000 0.000000 0.000000
# 3 0.000869 -0.003671 0.018303 0.000000 0.000000 0.000000
# 4 0.000000 0.000000 0.000000 0.036620 0.000000 0.000000
# 5 0.000000 0.000000 0.000000 0.000000 -0.018111 0.000000
# 6 0.000000 0.000000 0.000000 0.000000 0.000000 0.016065
#
#
# Mechanical properties :
#
#
# Convention : Reuss Voigt Hill
#
# Bulk Modulus (GPa) = 27.24251 37.10328 32.17289
# Shear Modulus (GPa) = 51.27687 22.55575 36.91631
#
# Velocity S-wave (km/s) = 5.10336 3.38473 4.33017
# Velocity P-wave (km/s) = 6.96869 5.84128 6.42974
#
# Compressibility (1/GPa) = 0.03670734
#
# Stress axis : x y z
#
# Youngs Moduli (GPa) = 55.37089 136.24192 54.63487
#
# Poissons Ratio (x) = 0.09479 -0.04749
# Poissons Ratio (y) = 0.03853 0.20059
# Poissons Ratio (z) = -0.04813 0.50020
#
# Static dielectric constant tensor:
#      x y z
#    x 1.823130 0.000000 0.000000 
#    y 0.000000 1.782260 0.000000 
#    z 0.000000 0.000000 1.672190 
# 
# From -- ./inp_files/22274.got.cif
#   From: 2010.05.17/outbox.cif.g08.bks.cpg/sg38_12_cif.got.tgz:22274.got - 2010.06.03 18:07:57.
