data_PCOD9356536
_publ_section_title
;
Structure prediction by ZEFSAII (Michael W. Deem and Ramdas Pophale) SiO2 
 PCOD9356536
Probable space group: A M M 2
;
_chemical_formula_sum "Si O2"
_cell_formula_units_Z 64
_cell_length_a 8.500194
_cell_length_b 19.276323
_cell_length_c 22.295316
_cell_angle_alpha 90.000000
_cell_angle_beta 90.000000
_cell_angle_gamma 90.000000
_cell_volume 3653.142933
_symmetry_space_group_name_H-M "A M M 2"
_symmetry_group_IT_number 38
_symmetry_cell_setting 'orthorhombic'
loop_
_space_group_symop_operation_xyz
x,y,z
-x,-y,z
-x,y,z
x,-y,z
x,1/2+y,1/2+z
-x,1/2-y,1/2+z
-x,1/2+y,1/2+z
x,1/2-y,1/2+z
loop_
_atom_site_type_symbol
_atom_site_label
_atom_site_fract_x
_atom_site_fract_y
_atom_site_fract_z
Si Si1 0.322626 0.078881 0.026380
Si Si2 0.192273 0.578620 0.336822
Si Si3 0.686713 0.281494 0.032764
Si Si4 0.189988 0.135373 0.707476
Si Si5 0.810407 0.576719 0.078987
Si Si6 0.187230 0.923783 0.159155
Si Si7 0.180379 0.319491 0.438847
Si Si8 0.311993 0.721075 0.662074
O O1 0.500000 0.107937 0.018806
O O2 0.278557 0.077229 0.095925
O O3 0.322798 0.000000 0.004727
O O4 0.196769 0.122074 0.990083
O O5 0.243899 0.500000 0.351959
O O6 0.235758 0.597772 0.268828
O O7 0.248046 0.639914 0.381159
O O8 0.000000 0.578466 0.340741
O O9 0.500000 0.283460 0.036125
O O10 0.750832 0.359025 0.040178
O O11 0.740808 0.238611 0.092850
O O12 0.737684 0.245187 0.971122
O O13 0.236400 0.093015 0.647889
O O14 0.260391 0.212036 0.699964
O O15 0.000000 0.140889 0.707270
O O16 0.755151 0.500000 0.061410
O O17 0.000000 0.577105 0.077217
O O18 0.239091 0.850466 0.186674
O O19 0.000000 0.921591 0.149030
O O20 0.222024 0.000000 0.187355
O O21 0.000000 0.301378 0.426777
O O22 0.500000 0.714724 0.661574
#
# Coordination Sequence:
#
# PCOD9356536 Si02
#       8
#     8   8   8   8   8   8   8   8
#     4  10  19  29  41  60  90 127 162 196 238 285
#     4   9  18  32  50  74 101 131 170 212 249 285
#     4  10  20  32  46  67  97 131 164 200 246 299
#     4   9  17  31  52  73  97 129 166 206 247 293
#     4   9  17  30  51  77 100 124 157 200 249 299
#     4  10  19  29  44  67  93 123 161 201 241 290
#     4  11  20  30  47  68  95 130 170 209 242 284
#     4  10  19  31  47  68  97 130 164 204 250 297
#
# _framework density 17.519159999999999
#
# number of rings (size 3 to 8) (size 9 to 14) (size 15 to 20)
#    0.000    2.250    1.250    2.625    0.000    4.750 
#    0.000    1.250    0.000    2.625    0.000    0.875 
#    0.000    7.000    0.000    0.000    0.000    0.125 
#
# Total GULP energy -178301.666981 kJ/mol
# GULP energy per Si atom -5571.927093 kJ/mol
# Density = 1.747929 g / cm^3
# Si number density = 17.519160 Si / 1000 Ang^3
#
#
#
# Elastic Constant Matrix: (Units=GPa)
#
#
# Indices 1 2 3 4 5 6 
#
# 1 26.2121 25.7971 6.8072 0.0000 0.0000 0.0000
# 2 25.7971 152.6306 36.7175 0.0000 0.0000 0.0000
# 3 6.8072 36.7175 57.9578 0.0000 0.0000 0.0000
# 4 0.0000 0.0000 0.0000 21.9928 0.0000 0.0000
# 5 0.0000 0.0000 0.0000 0.0000 8.1542 0.0000
# 6 0.0000 0.0000 0.0000 0.0000 0.0000 10.2134
#
#
#
# Elastic Compliance Matrix: (Units=1/GPa)
#
#
# Indices 1 2 3 4 5 6 
#
# 1 0.045778 -0.007602 -0.000560 0.000000 0.000000 0.000000
# 2 -0.007602 0.008992 -0.004804 0.000000 0.000000 0.000000
# 3 -0.000560 -0.004804 0.020363 0.000000 0.000000 0.000000
# 4 0.000000 0.000000 0.000000 0.045470 0.000000 0.000000
# 5 0.000000 0.000000 0.000000 0.000000 0.122637 0.000000
# 6 0.000000 0.000000 0.000000 0.000000 0.000000 0.097911
#
#
# Mechanical properties :
#
#
# Convention : Reuss Voigt Hill
#
# Bulk Modulus (GPa) = 20.32524 41.71603 31.02063
# Shear Modulus (GPa) = 13.03835 19.23731 16.13783
#
# Velocity S-wave (km/s) = 2.73102 3.31731 3.03834
# Velocity P-wave (km/s) = 4.64452 6.20775 5.48214
#
# Compressibility (1/GPa) = 0.04919992
#
# Stress axis : x y z
#
# Youngs Moduli (GPa) = 21.84459 111.20556 49.10835
#
# Poissons Ratio (x) = 0.84543 0.02752
# Poissons Ratio (y) = 0.16607 0.23591
# Poissons Ratio (z) = 0.01224 0.53422
#
# Static dielectric constant tensor:
#      x y z
#    x 1.597770 0.000000 0.000000 
#    y 0.000000 1.641590 0.000000 
#    z 0.000000 0.000000 1.589790 
# 
# From -- ./inp_files/20078.got.cif
#   From: 2010.05.17/outbox.cif.g08.bks.cpg/sg38_11_cif.got.tgz:20078.got - 2010.06.03 18:07:57.
