data_PCOD9356082
_publ_section_title
;
Structure prediction by ZEFSAII (Michael W. Deem and Ramdas Pophale) SiO2 
 PCOD9356082
Probable space group: A M M 2
;
_chemical_formula_sum "Si O2"
_cell_formula_units_Z 64
_cell_length_a 14.707317
_cell_length_b 8.682557
_cell_length_c 32.275155
_cell_angle_alpha 90.000000
_cell_angle_beta 90.000000
_cell_angle_gamma 90.000000
_cell_volume 4121.444282
_symmetry_space_group_name_H-M "A M M 2"
_symmetry_group_IT_number 38
_symmetry_cell_setting 'orthorhombic'
loop_
_space_group_symop_operation_xyz
x,y,z
-x,-y,z
-x,y,z
x,-y,z
x,1/2+y,1/2+z
-x,1/2-y,1/2+z
-x,1/2+y,1/2+z
x,1/2-y,1/2+z
loop_
_atom_site_type_symbol
_atom_site_label
_atom_site_fract_x
_atom_site_fract_y
_atom_site_fract_z
Si Si1 0.708831 0.313634 0.781120
Si Si2 0.389558 0.321700 0.608057
Si Si3 0.605409 0.811826 0.198923
Si Si4 0.395379 0.814977 0.521060
Si Si5 0.896845 0.684215 0.409615
Si Si6 0.393470 0.184674 0.861430
Si Si7 0.285628 0.815095 0.440448
Si Si8 0.101884 0.185607 0.317100
O O1 0.703201 0.500000 0.782468
O O2 0.666173 0.262337 0.737573
O O3 0.651649 0.248785 0.819604
O O4 0.814104 0.269760 0.788069
O O5 0.500000 0.317348 0.609259
O O6 0.362165 0.500000 0.604693
O O7 0.361771 0.260238 0.653336
O O8 0.361727 0.236325 0.566282
O O9 0.500000 0.765506 0.205151
O O10 0.605700 0.000000 0.197620
O O11 0.500000 0.760081 0.515826
O O12 0.334136 0.762179 0.482751
O O13 0.397313 0.000000 0.520151
O O14 0.889086 0.500000 0.410510
O O15 0.817517 0.757992 0.436595
O O16 0.884036 0.741198 0.362342
O O17 0.000000 0.727216 0.421838
O O18 0.500000 0.226855 0.863158
O O19 0.340759 0.251377 0.901010
O O20 0.385949 0.000000 0.861793
O O21 0.287679 0.000000 0.438819
O O22 0.000000 0.227695 0.302749
O O23 0.104549 0.000000 0.321860
#
# Coordination Sequence:
#
# PCOD9356082 Si02
#       8
#     8   8   8   8   8   8   8   8
#     4  10  18  29  47  67  88 122 159 190 226 270
#     4   8  14  26  44  64  86 114 149 190 232 271
#     4   8  14  25  42  65  90 115 150 192 228 269
#     4   9  18  31  46  66  92 119 150 189 229 271
#     4  10  20  33  49  68  91 119 150 190 237 277
#     4  11  23  34  43  61  93 127 157 190 226 268
#     4  11  21  33  49  68  90 121 157 191 228 274
#     4   9  17  29  45  66  90 117 153 194 231 268
#
# _framework density 15.528537
#
# number of rings (size 3 to 8) (size 9 to 14) (size 15 to 20)
#    0.000    2.500    1.250    2.625    0.000    3.750 
#    0.000    1.875    0.000    2.250    0.000    0.875 
#    0.000    3.000    0.000    0.000    0.000    0.250 
#
# Total GULP energy -178350.781001 kJ/mol
# GULP energy per Si atom -5573.461906 kJ/mol
# Density = 1.549319 g / cm^3
# Si number density = 15.528537 Si / 1000 Ang^3
#
#
#
# Elastic Constant Matrix: (Units=GPa)
#
#
# Indices 1 2 3 4 5 6 
#
# 1 112.2738 26.9340 77.4441 0.0000 0.0000 0.0000
# 2 26.9340 14.4589 24.5143 0.0000 0.0000 0.0000
# 3 77.4441 24.5143 148.3882 0.0000 0.0000 0.0000
# 4 0.0000 0.0000 0.0000 18.8769 0.0000 0.0000
# 5 0.0000 0.0000 0.0000 0.0000 8.5398 0.0000
# 6 0.0000 0.0000 0.0000 0.0000 0.0000 18.6941
#
#
#
# Elastic Compliance Matrix: (Units=1/GPa)
#
#
# Indices 1 2 3 4 5 6 
#
# 1 0.018994 -0.025802 -0.005651 0.000000 0.000000 0.000000
# 2 -0.025802 0.131121 -0.008195 0.000000 0.000000 0.000000
# 3 -0.005651 -0.008195 0.011042 0.000000 0.000000 0.000000
# 4 0.000000 0.000000 0.000000 0.052975 0.000000 0.000000
# 5 0.000000 0.000000 0.000000 0.000000 0.117099 0.000000
# 6 0.000000 0.000000 0.000000 0.000000 0.000000 0.053493
#
#
# Mechanical properties :
#
#
# Convention : Reuss Voigt Hill
#
# Bulk Modulus (GPa) = 12.21586 59.21173 35.71380
# Shear Modulus (GPa) = 10.17693 18.97071 14.57382
#
# Velocity S-wave (km/s) = 2.56280 3.49903 3.06685
# Velocity P-wave (km/s) = 4.07934 7.38498 5.96569
#
# Compressibility (1/GPa) = 0.08186076
#
# Stress axis : x y z
#
# Youngs Moduli (GPa) = 52.64753 7.62655 90.56327
#
# Poissons Ratio (x) = 0.19678 0.51173
# Poissons Ratio (y) = 1.35843 0.74220
# Poissons Ratio (z) = 0.29749 0.06250
#
# Static dielectric constant tensor:
#      x y z
#    x 1.521940 0.000000 0.000000 
#    y 0.000000 1.528540 0.000000 
#    z 0.000000 0.000000 1.508890 
# 
# From -- ./inp_files/25039.got.cif
#   From: 2010.05.17/outbox.cif.g08.bks.cpg/sg38_13_cif.got.tgz:25039.got - 2010.06.03 18:07:57.
