data_PCOD9356349
_publ_section_title
;
Structure prediction by ZEFSAII (Michael W. Deem and Ramdas Pophale) SiO2 
 PCOD9356349
Probable space group: A M M 2
;
_chemical_formula_sum "Si O2"
_cell_formula_units_Z 64
_cell_length_a 8.747700
_cell_length_b 23.856367
_cell_length_c 19.782816
_cell_angle_alpha 90.000000
_cell_angle_beta 90.000000
_cell_angle_gamma 90.000000
_cell_volume 4128.443063
_symmetry_space_group_name_H-M "A M M 2"
_symmetry_group_IT_number 38
_symmetry_cell_setting 'orthorhombic'
loop_
_space_group_symop_operation_xyz
x,y,z
-x,-y,z
-x,y,z
x,-y,z
x,1/2+y,1/2+z
-x,1/2-y,1/2+z
-x,1/2+y,1/2+z
x,1/2-y,1/2+z
loop_
_atom_site_type_symbol
_atom_site_label
_atom_site_fract_x
_atom_site_fract_y
_atom_site_fract_z
Si Si1 0.181708 0.836377 0.469580
Si Si2 0.316140 0.223002 0.344227
Si Si3 0.685952 0.751435 0.697040
Si Si4 0.315544 0.065001 0.553616
Si Si5 0.182738 0.564112 0.333466
Si Si6 0.682877 0.160752 0.921429
Si Si7 0.685107 0.270139 0.548214
Si Si8 0.315349 0.882079 0.697929
O O1 0.238886 0.820773 0.394601
O O2 0.242853 0.895090 0.497509
O O3 0.250770 0.787604 0.517603
O O4 0.000000 0.834363 0.472535
O O5 0.500000 0.215739 0.347690
O O6 0.264630 0.222262 0.266463
O O7 0.284019 0.285358 0.373701
O O8 0.500000 0.751226 0.698235
O O9 0.733547 0.724465 0.625964
O O10 0.732052 0.816847 0.697442
O O11 0.500000 0.069196 0.549196
O O12 0.271325 0.088488 0.627660
O O13 0.272669 0.000000 0.547230
O O14 0.232985 0.500000 0.344540
O O15 0.238601 0.606251 0.391500
O O16 0.248327 0.586698 0.262604
O O17 0.000000 0.565323 0.330316
O O18 0.500000 0.152635 0.920040
O O19 0.729207 0.180487 0.996589
O O20 0.500000 0.266005 0.546016
O O21 0.500000 0.883449 0.702782
#
# Coordination Sequence:
#
# PCOD9356349 Si02
#       8
#     8   8   8   8   8   8   8   8
#     4  11  21  31  45  69  98 129 159 193 236 279
#     4   9  17  31  50  70  93 122 156 193 235 282
#     4   9  15  28  52  75  94 120 154 193 237 281
#     4  10  20  34  52  70  91 126 167 202 236 276
#     4  11  23  34  44  63  96 134 165 197 237 277
#     4   9  17  30  49  71  91 120 160 199 235 275
#     4   9  17  32  52  71  94 121 155 198 242 285
#     4  10  18  32  51  70  92 124 165 199 230 274
#
# _framework density 15.502211000000001
#
# number of rings (size 3 to 8) (size 9 to 14) (size 15 to 20)
#    0.000    2.250    2.500    2.625    0.000    4.250 
#    0.000    0.625    0.000    0.000    0.000    0.875 
#    0.000    3.000    0.000    0.000    0.000    0.000 
#
# Total GULP energy -178468.734962 kJ/mol
# GULP energy per Si atom -5577.147968 kJ/mol
# Density = 1.546693 g / cm^3
# Si number density = 15.502211 Si / 1000 Ang^3
#
#
#
# Elastic Constant Matrix: (Units=GPa)
#
#
# Indices 1 2 3 4 5 6 
#
# 1 17.7242 28.9741 32.5065 0.0000 0.0000 0.0000
# 2 28.9741 97.6428 76.5299 0.0000 0.0000 0.0000
# 3 32.5065 76.5299 157.3339 0.0000 0.0000 0.0000
# 4 0.0000 0.0000 0.0000 19.7182 0.0000 0.0000
# 5 0.0000 0.0000 0.0000 0.0000 0.1404 0.0000
# 6 0.0000 0.0000 0.0000 0.0000 0.0000 10.3201
#
#
#
# Elastic Compliance Matrix: (Units=1/GPa)
#
#
# Indices 1 2 3 4 5 6 
#
# 1 0.122842 -0.026762 -0.012363 0.000000 0.000000 0.000000
# 2 -0.026762 0.022382 -0.005358 0.000000 0.000000 0.000000
# 3 -0.012363 -0.005358 0.011516 0.000000 0.000000 0.000000
# 4 0.000000 0.000000 0.000000 0.050714 0.000000 0.000000
# 5 0.000000 0.000000 0.000000 0.000000 7.124722 0.000000
# 6 0.000000 0.000000 0.000000 0.000000 0.000000 0.096898
#
#
# Mechanical properties :
#
#
# Convention : Reuss Voigt Hill
#
# Bulk Modulus (GPa) = 14.75465 60.96910 37.86187
# Shear Modulus (GPa) = 0.66307 15.01511 7.83909
#
# Velocity S-wave (km/s) = 0.65472 3.11558 2.25116
# Velocity P-wave (km/s) = 3.17962 7.23582 5.58870
#
# Compressibility (1/GPa) = 0.06777526
#
# Stress axis : x y z
#
# Youngs Moduli (GPa) = 8.14054 44.67898 86.83450
#
# Poissons Ratio (x) = 1.19571 1.07350
# Poissons Ratio (y) = 0.21786 0.46523
# Poissons Ratio (z) = 0.10064 0.23937
#
# Static dielectric constant tensor:
#      x y z
#    x 1.515870 0.000000 0.000000 
#    y 0.000000 1.492350 0.000000 
#    z 0.000000 0.000000 1.529730 
# 
# From -- ./inp_files/20252.got.cif
#   From: 2010.05.17/outbox.cif.g08.bks.cpg/sg38_11_cif.got.tgz:20252.got - 2010.06.03 18:07:57.
