data_PCOD9356946
_publ_section_title
;
Structure prediction by ZEFSAII (Michael W. Deem and Ramdas Pophale) SiO2 
 PCOD9356946
Probable space group: A M M 2
;
_chemical_formula_sum "Si O2"
_cell_formula_units_Z 64
_cell_length_a 18.856405
_cell_length_b 8.930345
_cell_length_c 21.479583
_cell_angle_alpha 90.000000
_cell_angle_beta 90.000000
_cell_angle_gamma 90.000000
_cell_volume 3617.037241
_symmetry_space_group_name_H-M "A M M 2"
_symmetry_group_IT_number 38
_symmetry_cell_setting 'orthorhombic'
loop_
_space_group_symop_operation_xyz
x,y,z
-x,-y,z
-x,y,z
x,-y,z
x,1/2+y,1/2+z
-x,1/2-y,1/2+z
-x,1/2+y,1/2+z
x,1/2-y,1/2+z
loop_
_atom_site_type_symbol
_atom_site_label
_atom_site_fract_x
_atom_site_fract_y
_atom_site_fract_z
Si Si1 0.833440 0.327770 0.571120
Si Si2 0.660898 0.826775 0.068495
Si Si3 0.668106 0.820443 0.439063
Si Si4 0.175894 0.181882 0.934825
Si Si5 0.170153 0.320423 0.198301
Si Si6 0.582916 0.320183 0.814356
Si Si7 0.918787 0.682714 0.317123
Si Si8 0.664393 0.320430 0.198360
O O1 0.854952 0.500000 0.579087
O O2 0.747257 0.322775 0.568914
O O3 0.855290 0.274904 0.502445
O O4 0.855680 0.235962 0.631297
O O5 0.638745 0.746263 0.132312
O O6 0.639037 0.000000 0.068413
O O7 0.639991 0.746256 0.004335
O O8 0.746681 0.754106 0.428115
O O9 0.620190 0.780569 0.379680
O O10 0.672000 0.000000 0.444327
O O11 0.125291 0.225195 0.878278
O O12 0.184109 0.000000 0.935462
O O13 0.168902 0.500000 0.198379
O O14 0.122444 0.266157 0.255395
O O15 0.252634 0.275467 0.206490
O O16 0.500000 0.282352 0.816104
O O17 0.589612 0.500000 0.806792
O O18 0.620750 0.241378 0.756430
O O19 0.919359 0.500000 0.315991
O O20 0.000000 0.733198 0.318654
O O21 0.661108 0.500000 0.196027
#
# Coordination Sequence:
#
# PCOD9356946 Si02
#       8
#     8   8   8   8   8   8   8   8
#     4   8  15  27  45  70  96 121 152 193 241 289
#     4   9  17  31  52  77 104 131 162 205 253 301
#     4  10  19  32  53  78 101 129 167 210 254 300
#     4   9  17  31  51  73  96 125 163 206 249 294
#     4   9  17  29  48  73  97 122 156 199 242 285
#     4  10  22  38  52  70 101 137 169 204 248 297
#     4   9  17  30  48  69  94 127 167 205 240 286
#     4  10  19  32  53  79 103 129 166 210 253 299
#
# _framework density 17.694039
#
# number of rings (size 3 to 8) (size 9 to 14) (size 15 to 20)
#    0.000    2.750    0.000    2.625    0.000    5.750 
#    0.000    1.875    0.000    4.500    0.000    0.000 
#    0.000    0.000    0.000    0.000    0.000    0.000 
#
# Total GULP energy -178389.900853 kJ/mol
# GULP energy per Si atom -5574.684402 kJ/mol
# Density = 1.765377 g / cm^3
# Si number density = 17.694039 Si / 1000 Ang^3
#
#
#
# Elastic Constant Matrix: (Units=GPa)
#
#
# Indices 1 2 3 4 5 6 
#
# 1 74.9133 35.1971 85.6710 0.0000 0.0000 0.0000
# 2 35.1971 36.0287 60.7478 0.0000 0.0000 0.0000
# 3 85.6710 60.7478 215.3808 0.0000 0.0000 0.0000
# 4 0.0000 0.0000 0.0000 33.5464 0.0000 0.0000
# 5 0.0000 0.0000 0.0000 0.0000 -4.1596 0.0000
# 6 0.0000 0.0000 0.0000 0.0000 0.0000 12.5128
#
#
#
# Elastic Compliance Matrix: (Units=1/GPa)
#
#
# Indices 1 2 3 4 5 6 
#
# 1 0.029076 -0.016979 -0.006776 0.000000 0.000000 0.000000
# 2 -0.016979 0.062839 -0.010970 0.000000 0.000000 0.000000
# 3 -0.006776 -0.010970 0.010432 0.000000 0.000000 0.000000
# 4 0.000000 0.000000 0.000000 0.029809 0.000000 0.000000
# 5 0.000000 0.000000 0.000000 0.000000 -0.240405 0.000000
# 6 0.000000 0.000000 0.000000 0.000000 0.000000 0.079918
#
#
# Mechanical properties :
#
#
# Convention : Reuss Voigt Hill
#
# Bulk Modulus (GPa) = 30.39831 76.61718 53.50774
# Shear Modulus (GPa) = 95.99648 18.02705 57.01176
#
# Velocity S-wave (km/s) = 7.37369 3.19536 5.68250
# Velocity P-wave (km/s) = 9.47166 7.55042 8.56508
#
# Compressibility (1/GPa) = 0.03289657
#
# Stress axis : x y z
#
# Youngs Moduli (GPa) = 34.39316 15.91368 95.85460
#
# Poissons Ratio (x) = 0.27019 0.64955
# Poissons Ratio (y) = 0.58395 1.05153
# Poissons Ratio (z) = 0.23306 0.17457
#
# Static dielectric constant tensor:
#      x y z
#    x 1.580330 0.000000 0.000000 
#    y 0.000000 1.598200 0.000000 
#    z 0.000000 0.000000 1.608590 
# 
# From -- ./inp_files/21359.got.cif
#   From: 2010.05.17/outbox.cif.g08.bks.cpg/sg38_11_cif.got.tgz:21359.got - 2010.06.03 18:07:57.
