data_PCOD9356029
_publ_section_title
;
Structure prediction by ZEFSAII (Michael W. Deem and Ramdas Pophale) SiO2 
 PCOD9356029
Probable space group: A M M 2
;
_chemical_formula_sum "Si O2"
_cell_formula_units_Z 40
_cell_length_a 13.530798
_cell_length_b 7.614777
_cell_length_c 19.988868
_cell_angle_alpha 90.000000
_cell_angle_beta 90.000000
_cell_angle_gamma 90.000000
_cell_volume 2059.533213
_symmetry_space_group_name_H-M "A M M 2"
_symmetry_group_IT_number 38
_symmetry_cell_setting 'orthorhombic'
loop_
_space_group_symop_operation_xyz
x,y,z
-x,-y,z
-x,y,z
x,-y,z
x,1/2+y,1/2+z
-x,1/2-y,1/2+z
-x,1/2+y,1/2+z
x,1/2-y,1/2+z
loop_
_atom_site_type_symbol
_atom_site_label
_atom_site_fract_x
_atom_site_fract_y
_atom_site_fract_z
Si Si1 0.500000 0.698317 0.559590
Si Si2 0.500000 0.202144 0.710592
Si Si3 0.888746 0.710942 0.819701
Si Si4 0.714128 0.784032 0.070075
Si Si5 0.285741 0.211444 0.224660
Si Si6 0.110807 0.210957 0.974700
O O1 0.500000 0.500000 0.532616
O O2 0.500000 0.691007 0.641056
O O3 0.393185 0.777650 0.543701
O O4 0.603211 0.239421 0.746946
O O5 0.500000 0.000000 0.690249
O O6 0.891672 0.500000 0.812120
O O7 0.802174 0.778007 0.771623
O O8 0.867456 0.749192 0.897308
O O9 0.000000 0.777282 0.804830
O O10 0.725780 0.729950 0.147481
O O11 0.711468 0.000000 0.069743
O O12 0.804345 0.724677 0.024246
O O13 0.281172 0.000000 0.224384
O O14 0.000000 0.277685 0.989509
O O15 0.108199 0.000000 0.981647
#
# Coordination Sequence:
#
# PCOD9356029 Si02
#       6
#     4   4   8   8   8   8
#     4   8  14  28  47  64  87 119 151 185 227 270
#     4  10  18  28  45  70  97 121 149 187 231 278
#     4   9  18  32  49  68  91 122 157 190 227 273
#     4   8  14  26  46  68  86 111 149 186 221 264
#     4   9  17  31  50  69  92 122 155 191 228 268
#     4   9  17  29  45  65  91 121 150 185 230 274
#
# _framework density 19.421878
#
# number of rings (size 3 to 8) (size 9 to 14) (size 15 to 20)
#    0.000    3.200    0.000    2.100    0.000    1.600 
#    0.000    9.000    0.000    1.200    0.000    5.600 
#    0.000    0.000    0.000    0.000    0.000    0.000 
#
# Total GULP energy -111425.021233 kJ/mol
# GULP energy per Si atom -5571.251062 kJ/mol
# Density = 1.937767 g / cm^3
# Si number density = 19.421878 Si / 1000 Ang^3
#
#
#
# Elastic Constant Matrix: (Units=GPa)
#
#
# Indices 1 2 3 4 5 6 
#
# 1 233.4342 7.1889 118.0619 0.0000 0.0000 0.0000
# 2 7.1889 47.5976 2.3282 0.0000 0.0000 0.0000
# 3 118.0619 2.3282 80.0279 0.0000 0.0000 0.0000
# 4 0.0000 0.0000 0.0000 15.4367 0.0000 0.0000
# 5 0.0000 0.0000 0.0000 0.0000 -127.7488 0.0000
# 6 0.0000 0.0000 0.0000 0.0000 0.0000 3.2140
#
#
#
# Elastic Compliance Matrix: (Units=1/GPa)
#
#
# Indices 1 2 3 4 5 6 
#
# 1 0.016959 -0.001339 -0.024980 0.000000 0.000000 0.000000
# 2 -0.001339 0.021145 0.001361 0.000000 0.000000 0.000000
# 3 -0.024980 0.001361 0.049308 0.000000 0.000000 0.000000
# 4 0.000000 0.000000 0.000000 0.064781 0.000000 0.000000
# 5 0.000000 0.000000 0.000000 0.000000 -0.007828 0.000000
# 6 0.000000 0.000000 0.000000 0.000000 0.000000 0.311137
#
#
# Mechanical properties :
#
#
# Convention : Reuss Voigt Hill
#
# Bulk Modulus (GPa) = 26.67012 68.46864 47.56938
# Shear Modulus (GPa) = 9.65406 -6.25423 1.69991
#
# Velocity S-wave (km/s) = 2.23193 -1.79644 0.93657
# Velocity P-wave (km/s) = 4.51706 5.57019 5.07103
#
# Compressibility (1/GPa) = 0.03749514
#
# Stress axis : x y z
#
# Youngs Moduli (GPa) = 58.96567 47.29206 20.28066
#
# Poissons Ratio (x) = 0.06335 0.50661
# Poissons Ratio (y) = 0.07898 -0.02760
# Poissons Ratio (z) = 1.47296 -0.06436
#
# Static dielectric constant tensor:
#      x y z
#    x 1.725780 0.000000 0.000000 
#    y 0.000000 1.734020 0.000000 
#    z 0.000000 0.000000 1.627630 
# 
# From -- ./inp_files/14298.got.cif
#   From: 2010.05.17/outbox.cif.g08.bks.cpg/sg38_8_cif.got.tgz:14298.got - 2010.06.03 18:07:57.
