data_PCOD9356062
_publ_section_title
;
Structure prediction by ZEFSAII (Michael W. Deem and Ramdas Pophale) SiO2 
 PCOD9356062
Probable space group: A M M 2
;
_chemical_formula_sum "Si O2"
_cell_formula_units_Z 64
_cell_length_a 9.213710
_cell_length_b 18.725086
_cell_length_c 26.720359
_cell_angle_alpha 90.000000
_cell_angle_beta 90.000000
_cell_angle_gamma 90.000000
_cell_volume 4609.997061
_symmetry_space_group_name_H-M "A M M 2"
_symmetry_group_IT_number 38
_symmetry_cell_setting 'orthorhombic'
loop_
_space_group_symop_operation_xyz
x,y,z
-x,-y,z
-x,y,z
x,-y,z
x,1/2+y,1/2+z
-x,1/2-y,1/2+z
-x,1/2+y,1/2+z
x,1/2-y,1/2+z
loop_
_atom_site_type_symbol
_atom_site_label
_atom_site_fract_x
_atom_site_fract_y
_atom_site_fract_z
Si Si1 0.673293 0.582637 0.573500
Si Si2 0.832493 0.207616 0.520349
Si Si3 0.327271 0.584058 0.275249
Si Si4 0.166574 0.706134 0.625882
Si Si5 0.673374 0.165604 0.969842
Si Si6 0.827396 0.084790 0.879538
Si Si7 0.326234 0.832703 0.674909
Si Si8 0.326100 0.083314 0.572915
O O1 0.500000 0.587345 0.581181
O O2 0.717134 0.500000 0.575605
O O3 0.753231 0.632401 0.613588
O O4 0.702149 0.615234 0.518331
O O5 0.830762 0.250587 0.573167
O O6 0.743133 0.257708 0.482701
O O7 0.756464 0.132761 0.533109
O O8 0.000000 0.199442 0.505094
O O9 0.500000 0.593505 0.284500
O O10 0.304807 0.500000 0.263878
O O11 0.238149 0.601696 0.325025
O O12 0.285876 0.630596 0.227118
O O13 0.248136 0.757928 0.664313
O O14 0.000000 0.694836 0.640103
O O15 0.500000 0.171086 0.963918
O O16 0.747184 0.129881 0.921999
O O17 0.000000 0.096897 0.880815
O O18 0.801424 0.000000 0.888232
O O19 0.500000 0.822235 0.674444
O O20 0.292542 0.885485 0.628285
O O21 0.500000 0.090616 0.566063
O O22 0.288351 0.000000 0.569837
#
# Coordination Sequence:
#
# PCOD9356062 Si02
#       8
#     8   8   8   8   8   8   8   8
#     4   9  17  28  42  60  81 106 137 171 205 242
#     4   9  17  28  40  57  82 109 137 169 206 247
#     4   9  17  29  44  61  81 107 141 177 208 239
#     4   9  17  27  39  57  81 108 136 167 203 244
#     4  10  18  29  45  61  79 107 142 175 207 244
#     4  10  20  31  42  59  84 111 138 171 210 247
#     4   9  16  27  43  60  80 109 142 174 207 241
#     4   9  16  26  41  61  84 110 141 174 206 242
#
# _framework density 13.882872000000001
#
# number of rings (size 3 to 8) (size 9 to 14) (size 15 to 20)
#    0.000    2.750    0.000    2.250    0.000    7.250 
#    0.000    0.000    0.000    2.250    0.000    0.000 
#    0.000    1.000    0.000    8.750    0.000    4.875 
#
# Total GULP energy -178311.824102 kJ/mol
# GULP energy per Si atom -5572.244503 kJ/mol
# Density = 1.385127 g / cm^3
# Si number density = 13.882872 Si / 1000 Ang^3
#
#
#
# Elastic Constant Matrix: (Units=GPa)
#
#
# Indices 1 2 3 4 5 6 
#
# 1 67.8271 64.7127 58.0075 0.0000 0.0000 0.0000
# 2 64.7127 120.5193 61.6657 0.0000 0.0000 0.0000
# 3 58.0075 61.6657 89.3057 0.0000 0.0000 0.0000
# 4 0.0000 0.0000 0.0000 27.5215 0.0000 0.0000
# 5 0.0000 0.0000 0.0000 0.0000 17.1332 0.0000
# 6 0.0000 0.0000 0.0000 0.0000 0.0000 19.3303
#
#
#
# Elastic Compliance Matrix: (Units=1/GPa)
#
#
# Indices 1 2 3 4 5 6 
#
# 1 0.044748 -0.014157 -0.019290 0.000000 0.000000 0.000000
# 2 -0.014157 0.017310 -0.002757 0.000000 0.000000 0.000000
# 3 -0.019290 -0.002757 0.025630 0.000000 0.000000 0.000000
# 4 0.000000 0.000000 0.000000 0.036335 0.000000 0.000000
# 5 0.000000 0.000000 0.000000 0.000000 0.058366 0.000000
# 6 0.000000 0.000000 0.000000 0.000000 0.000000 0.051732
#
#
# Mechanical properties :
#
#
# Convention : Reuss Voigt Hill
#
# Bulk Modulus (GPa) = 65.44328 71.82488 68.63408
# Shear Modulus (GPa) = 16.04509 19.01476 17.52992
#
# Velocity S-wave (km/s) = 3.40332 3.70490 3.55731
# Velocity P-wave (km/s) = 7.91741 8.37558 8.14971
#
# Compressibility (1/GPa) = 0.01528041
#
# Stress axis : x y z
#
# Youngs Moduli (GPa) = 22.34757 57.77138 39.01628
#
# Poissons Ratio (x) = 0.81788 0.75261
# Poissons Ratio (y) = 0.31638 0.10755
# Poissons Ratio (z) = 0.43108 0.15925
#
# Static dielectric constant tensor:
#      x y z
#    x 1.462500 0.000000 0.000000 
#    y 0.000000 1.442630 0.000000 
#    z 0.000000 0.000000 1.429400 
# 
# From -- ./inp_files/20031.got.cif
#   From: 2010.05.17/outbox.cif.g08.bks.cpg/sg38_11_cif.got.tgz:20031.got - 2010.06.03 18:07:57.
