data_PCOD9356999
_publ_section_title
;
Structure prediction by ZEFSAII (Michael W. Deem and Ramdas Pophale) SiO2 
 PCOD9356999
Probable space group: A M M 2
;
_chemical_formula_sum "Si O2"
_cell_formula_units_Z 64
_cell_length_a 18.905563
_cell_length_b 8.690460
_cell_length_c 21.559902
_cell_angle_alpha 90.000000
_cell_angle_beta 90.000000
_cell_angle_gamma 90.000000
_cell_volume 3542.249620
_symmetry_space_group_name_H-M "A M M 2"
_symmetry_group_IT_number 38
_symmetry_cell_setting 'orthorhombic'
loop_
_space_group_symop_operation_xyz
x,y,z
-x,-y,z
-x,y,z
x,-y,z
x,1/2+y,1/2+z
-x,1/2-y,1/2+z
-x,1/2+y,1/2+z
x,1/2-y,1/2+z
loop_
_atom_site_type_symbol
_atom_site_label
_atom_site_fract_x
_atom_site_fract_y
_atom_site_fract_z
Si Si1 0.328707 0.814394 0.022300
Si Si2 0.917618 0.814324 0.909430
Si Si3 0.168819 0.684469 0.286952
Si Si4 0.326747 0.812830 0.290011
Si Si5 0.582030 0.185709 0.409396
Si Si6 0.164415 0.823054 0.155247
Si Si7 0.170689 0.183092 0.523635
Si Si8 0.663406 0.322893 0.656343
O O1 0.249224 0.752191 0.013560
O O2 0.356216 0.755720 0.089621
O O3 0.325071 0.000000 0.024566
O O4 0.378431 0.759682 0.967430
O O5 0.879854 0.769430 0.844948
O O6 0.000000 0.772569 0.908384
O O7 0.912161 0.000000 0.914520
O O8 0.878558 0.741231 0.968171
O O9 0.171756 0.500000 0.284035
O O10 0.247764 0.748846 0.298242
O O11 0.142875 0.746435 0.220181
O O12 0.376656 0.770423 0.346789
O O13 0.355831 0.755931 0.223226
O O14 0.321955 0.000000 0.287030
O O15 0.500000 0.229904 0.406858
O O16 0.585979 0.000000 0.414640
O O17 0.144475 0.739429 0.091390
O O18 0.250624 0.822599 0.156214
O O19 0.141391 0.000000 0.153191
O O20 0.175261 0.000000 0.523428
O O21 0.638726 0.500000 0.656323
#
# Coordination Sequence:
#
# PCOD9356999 Si02
#       8
#     8   8   8   8   8   8   8   8
#     4  10  19  33  54  78 104 136 173 213 262 321
#     4  10  22  39  55  74 107 148 184 220 265 316
#     4  10  19  32  54  82 106 133 175 224 269 314
#     4   9  17  32  53  74  99 133 170 211 262 317
#     4  10  21  35  50  72 104 140 178 222 268 311
#     4   9  17  32  54  79 108 139 172 214 264 319
#     4  11  21  34  56  84 110 137 175 223 270 317
#     4   7  13  27  48  73  96 121 161 209 252 299
#
# _framework density 18.067613000000001
#
# number of rings (size 3 to 8) (size 9 to 14) (size 15 to 20)
#    0.000    2.500    0.000    4.500    0.000    4.000 
#    0.000    1.875    0.000    4.500    0.000    0.000 
#    0.000    0.000    0.000    0.000    0.000    0.000 
#
# Total GULP energy -178422.606736 kJ/mol
# GULP energy per Si atom -5575.706460 kJ/mol
# Density = 1.802649 g / cm^3
# Si number density = 18.067613 Si / 1000 Ang^3
#
#
#
# Elastic Constant Matrix: (Units=GPa)
#
#
# Indices 1 2 3 4 5 6 
#
# 1 83.4989 34.7822 90.1973 0.0000 0.0000 0.0000
# 2 34.7822 46.8170 56.4455 0.0000 0.0000 0.0000
# 3 90.1973 56.4455 215.9949 0.0000 0.0000 0.0000
# 4 0.0000 0.0000 0.0000 25.7644 0.0000 0.0000
# 5 0.0000 0.0000 0.0000 0.0000 -6.2634 0.0000
# 6 0.0000 0.0000 0.0000 0.0000 0.0000 17.2978
#
#
#
# Elastic Compliance Matrix: (Units=1/GPa)
#
#
# Indices 1 2 3 4 5 6 
#
# 1 0.023859 -0.008342 -0.007783 0.000000 0.000000 0.000000
# 2 -0.008342 0.034102 -0.005428 0.000000 0.000000 0.000000
# 3 -0.007783 -0.005428 0.009299 0.000000 0.000000 0.000000
# 4 0.000000 0.000000 0.000000 0.038813 0.000000 0.000000
# 5 0.000000 0.000000 0.000000 0.000000 -0.159659 0.000000
# 6 0.000000 0.000000 0.000000 0.000000 0.000000 0.057811
#
#
# Mechanical properties :
#
#
# Convention : Reuss Voigt Hill
#
# Bulk Modulus (GPa) = 41.40343 78.79565 60.09954
# Shear Modulus (GPa) = 90.28275 18.35216 54.31745
#
# Velocity S-wave (km/s) = 7.07657 3.19054 5.48896
# Velocity P-wave (km/s) = 9.47291 7.56829 8.57365
#
# Compressibility (1/GPa) = 0.02415259
#
# Stress axis : x y z
#
# Youngs Moduli (GPa) = 41.91378 29.32392 107.54395
#
# Poissons Ratio (x) = 0.24461 0.83704
# Poissons Ratio (y) = 0.34962 0.58380
# Poissons Ratio (z) = 0.32622 0.15918
#
# Static dielectric constant tensor:
#      x y z
#    x 1.580160 0.000000 0.000000 
#    y 0.000000 1.618030 0.000000 
#    z 0.000000 0.000000 1.653580 
# 
# From -- ./inp_files/21358.got.cif
#   From: 2010.05.17/outbox.cif.g08.bks.cpg/sg38_11_cif.got.tgz:21358.got - 2010.06.03 18:07:57.
