data_PCOD9356448
_publ_section_title
;
Structure prediction by ZEFSAII (Michael W. Deem and Ramdas Pophale) SiO2 
 PCOD9356448
Probable space group: A M M 2
;
_chemical_formula_sum "Si O2"
_cell_formula_units_Z 64
_cell_length_a 15.969827
_cell_length_b 8.484601
_cell_length_c 24.466100
_cell_angle_alpha 90.000000
_cell_angle_beta 90.000000
_cell_angle_gamma 90.000000
_cell_volume 3315.098079
_symmetry_space_group_name_H-M "A M M 2"
_symmetry_group_IT_number 38
_symmetry_cell_setting 'orthorhombic'
loop_
_space_group_symop_operation_xyz
x,y,z
-x,-y,z
-x,y,z
x,-y,z
x,1/2+y,1/2+z
-x,1/2-y,1/2+z
-x,1/2+y,1/2+z
x,1/2-y,1/2+z
loop_
_atom_site_type_symbol
_atom_site_label
_atom_site_fract_x
_atom_site_fract_y
_atom_site_fract_z
Si Si1 0.093752 0.309072 0.770870
Si Si2 0.093701 0.690842 0.008494
Si Si3 0.154183 0.191455 0.389673
Si Si4 0.592378 0.689875 0.507050
Si Si5 0.750113 0.312844 0.201130
Si Si6 0.349522 0.690226 0.891071
Si Si7 0.593679 0.809332 0.270544
Si Si8 0.249530 0.688982 0.577995
O O1 0.096910 0.500000 0.770224
O O2 0.111503 0.256989 0.833373
O O3 0.167560 0.247884 0.732661
O O4 0.000000 0.260541 0.754311
O O5 0.097282 0.500000 0.009300
O O6 0.166331 0.754431 0.047092
O O7 0.000000 0.739029 0.024886
O O8 0.111532 0.742717 0.946000
O O9 0.251749 0.236977 0.389963
O O10 0.151215 0.000000 0.389417
O O11 0.500000 0.744805 0.524685
O O12 0.593052 0.500000 0.509495
O O13 0.608245 0.740070 0.444711
O O14 0.669000 0.747519 0.544393
O O15 0.751860 0.500000 0.199948
O O16 0.667844 0.256381 0.233612
O O17 0.748684 0.247995 0.139787
O O18 0.353530 0.500000 0.894711
O O19 0.390803 0.737084 0.833701
O O20 0.500000 0.761620 0.253542
O O21 0.598271 0.000000 0.268519
O O22 0.250928 0.500000 0.577940
#
# Coordination Sequence:
#
# PCOD9356448 Si02
#       8
#     8   8   8   8   8   8   8   8
#     4  10  20  38  65  92 119 156 200 241 287 349
#     4  10  20  36  60  90 122 154 189 235 292 347
#     4   9  16  31  59  91 122 152 188 233 285 347
#     4  10  22  39  59  86 119 153 190 237 293 347
#     4  12  26  42  61  85 118 155 198 250 303 352
#     4  10  18  33  61  91 121 155 192 233 281 343
#     4  10  21  39  63  90 121 158 199 241 288 346
#     4  11  24  42  62  82 111 153 203 248 293 347
#
# _framework density 19.305613999999998
#
# number of rings (size 3 to 8) (size 9 to 14) (size 15 to 20)
#    0.000    1.750    2.500    2.250    0.000    5.000 
#    0.000    1.875    0.000    1.500    0.000    0.000 
#    0.000    0.000    0.000    0.000    0.000    0.000 
#
# Total GULP energy -178774.769464 kJ/mol
# GULP energy per Si atom -5586.711546 kJ/mol
# Density = 1.926167 g / cm^3
# Si number density = 19.305614 Si / 1000 Ang^3
#
#
#
# Elastic Constant Matrix: (Units=GPa)
#
#
# Indices 1 2 3 4 5 6 
#
# 1 210.9019 40.7727 100.8007 0.0000 0.0000 0.0000
# 2 40.7727 25.7846 28.3130 0.0000 0.0000 0.0000
# 3 100.8007 28.3130 159.4601 0.0000 0.0000 0.0000
# 4 0.0000 0.0000 0.0000 19.8664 0.0000 0.0000
# 5 0.0000 0.0000 0.0000 0.0000 -3.1796 0.0000
# 6 0.0000 0.0000 0.0000 0.0000 0.0000 20.5614
#
#
#
# Elastic Compliance Matrix: (Units=1/GPa)
#
#
# Indices 1 2 3 4 5 6 
#
# 1 0.008198 -0.009035 -0.003578 0.000000 0.000000 0.000000
# 2 -0.009035 0.058132 -0.004610 0.000000 0.000000 0.000000
# 3 -0.003578 -0.004610 0.009352 0.000000 0.000000 0.000000
# 4 0.000000 0.000000 0.000000 0.050336 0.000000 0.000000
# 5 0.000000 0.000000 0.000000 0.000000 -0.314505 0.000000
# 6 0.000000 0.000000 0.000000 0.000000 0.000000 0.048635
#
#
# Mechanical properties :
#
#
# Convention : Reuss Voigt Hill
#
# Bulk Modulus (GPa) = 24.25127 81.76879 53.01003
# Shear Modulus (GPa) = -54.54941 22.53365 -16.00788
#
# Velocity S-wave (km/s) = -5.32138 3.42015 -2.88268
# Velocity P-wave (km/s) = 5.01668 7.61862 4.05440
#
# Compressibility (1/GPa) = 0.04123495
#
# Stress axis : x y z
#
# Youngs Moduli (GPa) = 121.97356 17.20228 106.93138
#
# Poissons Ratio (x) = 0.15542 0.38264
# Poissons Ratio (y) = 1.10201 0.49299
# Poissons Ratio (z) = 0.43647 0.07931
#
# Static dielectric constant tensor:
#      x y z
#    x 1.681090 0.000000 0.000000 
#    y 0.000000 1.665030 0.000000 
#    z 0.000000 0.000000 1.639750 
# 
# From -- ./inp_files/22906.got.cif
#   From: 2010.05.17/outbox.cif.g08.bks.cpg/sg38_12_cif.got.tgz:22906.got - 2010.06.03 18:07:57.
