data_PCOD9356886
_publ_section_title
;
Structure prediction by ZEFSAII (Michael W. Deem and Ramdas Pophale) SiO2 
 PCOD9356886
Probable space group: A M M 2
;
_chemical_formula_sum "Si O2"
_cell_formula_units_Z 48
_cell_length_a 7.689038
_cell_length_b 8.163563
_cell_length_c 35.716785
_cell_angle_alpha 90.000000
_cell_angle_beta 90.000000
_cell_angle_gamma 90.000000
_cell_volume 2241.940670
_symmetry_space_group_name_H-M "A M M 2"
_symmetry_group_IT_number 38
_symmetry_cell_setting 'orthorhombic'
loop_
_space_group_symop_operation_xyz
x,y,z
-x,-y,z
-x,y,z
x,-y,z
x,1/2+y,1/2+z
-x,1/2-y,1/2+z
-x,1/2+y,1/2+z
x,1/2-y,1/2+z
loop_
_atom_site_type_symbol
_atom_site_label
_atom_site_fract_x
_atom_site_fract_y
_atom_site_fract_z
Si Si1 0.290968 0.312628 0.535040
Si Si2 0.794075 0.818197 0.276890
Si Si3 0.300376 0.696595 0.617076
Si Si4 0.699632 0.804983 0.695681
Si Si5 0.213181 0.500000 0.899329
Si Si6 0.212688 0.821386 0.853812
Si Si7 0.793345 0.000000 0.484596
O O1 0.500000 0.323925 0.538704
O O2 0.230748 0.500000 0.525897
O O3 0.222785 0.262613 0.576495
O O4 0.255469 0.166957 0.506246
O O5 0.773111 0.758054 0.234670
O O6 0.730038 0.705140 0.310689
O O7 0.000000 0.829762 0.283300
O O8 0.718555 0.000000 0.280641
O O9 0.500000 0.762484 0.617285
O O10 0.307850 0.500000 0.617705
O O11 0.217911 0.751641 0.656195
O O12 0.500000 0.744323 0.694994
O O13 0.701442 0.000000 0.696733
O O14 0.268418 0.664524 0.877755
O O15 0.000000 0.500000 0.898886
O O16 0.274336 0.500000 0.942124
O O17 0.000000 0.822608 0.854914
O O18 0.270675 0.000000 0.867390
O O19 0.000000 0.000000 0.482224
#
# Coordination Sequence:
#
# PCOD9356886 Si02
#       7
#     8   8   8   8   4   8   4
#     4   9  19  37  61  84 107 145 195 238 274 328
#     4  10  19  32  51  74 102 135 175 220 264 313
#     4   8  15  30  52  75  97 129 178 227 265 306
#     4  10  20  31  47  75 106 135 172 219 266 314
#     4   9  18  33  49  75 109 139 179 219 261 331
#     4   9  16  29  51  74  99 135 176 219 261 307
#     4  11  23  35  55  87 121 149 177 229 297 349
#
# _framework density 21.410022999999999
#
# number of rings (size 3 to 8) (size 9 to 14) (size 15 to 20)
#    0.000    2.667    0.833    2.250    1.167    3.000 
#    0.000    2.500    0.000    3.000    0.000    2.333 
#    0.000    0.000    0.000    0.000    0.000    0.000 
#
# Total GULP energy -133816.752358 kJ/mol
# GULP energy per Si atom -5575.698015 kJ/mol
# Density = 2.136129 g / cm^3
# Si number density = 21.410023 Si / 1000 Ang^3
#
#
#
# Elastic Constant Matrix: (Units=GPa)
#
#
# Indices 1 2 3 4 5 6 
#
# 1 34.6493 6.4899 3.6870 0.0000 0.0000 0.0000
# 2 6.4899 144.6795 104.7620 0.0000 0.0000 0.0000
# 3 3.6870 104.7620 177.4216 0.0000 0.0000 0.0000
# 4 0.0000 0.0000 0.0000 22.9095 0.0000 0.0000
# 5 0.0000 0.0000 0.0000 0.0000 19.5922 0.0000
# 6 0.0000 0.0000 0.0000 0.0000 0.0000 -3.9407
#
#
#
# Elastic Compliance Matrix: (Units=1/GPa)
#
#
# Indices 1 2 3 4 5 6 
#
# 1 0.029114 -0.001516 0.000290 0.000000 0.000000 0.000000
# 2 -0.001516 0.012153 -0.007145 0.000000 0.000000 0.000000
# 3 0.000290 -0.007145 0.009849 0.000000 0.000000 0.000000
# 4 0.000000 0.000000 0.000000 0.043650 0.000000 0.000000
# 5 0.000000 0.000000 0.000000 0.000000 0.051041 0.000000
# 6 0.000000 0.000000 0.000000 0.000000 0.000000 -0.253759
#
#
# Mechanical properties :
#
#
# Convention : Reuss Voigt Hill
#
# Bulk Modulus (GPa) = 29.09102 65.18090 47.13596
# Shear Modulus (GPa) = -62.69314 23.83295 -19.43010
#
# Velocity S-wave (km/s) = -5.41717 3.34004 -3.01578
# Velocity P-wave (km/s) = 5.05080 6.73681 3.15231
#
# Compressibility (1/GPa) = 0.03437487
#
# Stress axis : x y z
#
# Youngs Moduli (GPa) = 34.34809 82.28275 101.53392
#
# Poissons Ratio (x) = 0.12475 -0.02946
# Poissons Ratio (y) = 0.05207 0.72542
# Poissons Ratio (z) = -0.00997 0.58788
#
# Static dielectric constant tensor:
#      x y z
#    x 1.824100 0.000000 0.000000 
#    y 0.000000 1.766670 0.000000 
#    z 0.000000 0.000000 1.799040 
# 
# From -- ./inp_files/24386.got.cif
#   From: 2010.05.17/outbox.cif.g08.bks.cpg/sg38_13_cif.got.tgz:24386.got - 2010.06.03 18:07:57.
