data_PCOD9356253
_publ_section_title
;
Structure prediction by ZEFSAII (Michael W. Deem and Ramdas Pophale) SiO2 
 PCOD9356253
Probable space group: A M M 2
;
_chemical_formula_sum "Si O2"
_cell_formula_units_Z 56
_cell_length_a 12.028168
_cell_length_b 23.549824
_cell_length_c 11.630671
_cell_angle_alpha 90.000000
_cell_angle_beta 90.000000
_cell_angle_gamma 90.000000
_cell_volume 3294.518283
_symmetry_space_group_name_H-M "A M M 2"
_symmetry_group_IT_number 38
_symmetry_cell_setting 'orthorhombic'
loop_
_space_group_symop_operation_xyz
x,y,z
-x,-y,z
-x,y,z
x,-y,z
x,1/2+y,1/2+z
-x,1/2-y,1/2+z
-x,1/2+y,1/2+z
x,1/2-y,1/2+z
loop_
_atom_site_type_symbol
_atom_site_label
_atom_site_fract_x
_atom_site_fract_y
_atom_site_fract_z
Si Si1 0.500000 0.938327 0.132350
Si Si2 0.632128 0.067881 0.451023
Si Si3 0.287740 0.636429 0.370190
Si Si4 0.867412 0.933494 0.034158
Si Si5 0.632190 0.713583 0.581117
Si Si6 0.500000 0.560999 0.359267
Si Si7 0.720090 0.879696 0.223695
Si Si8 0.367660 0.161545 0.641378
O O1 0.611866 0.907738 0.165247
O O2 0.500000 0.000000 0.188526
O O3 0.500000 0.944047 0.996554
O O4 0.500000 0.074293 0.420783
O O5 0.707088 0.098644 0.353598
O O6 0.647502 0.104647 0.566740
O O7 0.654359 0.000000 0.460141
O O8 0.189610 0.601054 0.429671
O O9 0.330522 0.680024 0.467111
O O10 0.386579 0.593145 0.337566
O O11 0.280604 0.665838 0.246624
O O12 0.822768 0.905336 0.152364
O O13 0.000000 0.930643 0.027602
O O14 0.832811 0.000000 0.030918
O O15 0.500000 0.704305 0.598541
O O16 0.699794 0.685940 0.688495
O O17 0.649198 0.780719 0.569149
O O18 0.500000 0.500000 0.301058
O O19 0.500000 0.164308 0.676300
#
# Coordination Sequence:
#
# PCOD9356253 Si02
#       8
#     4   8   8   8   8   4   8   8
#     4  11  16  24  44  76 106 133 166 207 262 321
#     4  10  20  32  46  74 113 149 180 208 256 322
#     4  11  19  35  51  75 106 142 178 218 269 325
#     4  10  21  35  55  82 106 135 180 233 279 313
#     4  10  18  31  49  75 106 134 181 218 261 317
#     4  11  18  26  46  78 106 135 168 209 264 327
#     4  11  18  31  52  78 107 140 173 217 268 319
#     4  10  22  33  48  77 113 149 175 214 263 326
#
# _framework density 16.997931999999999
#
# number of rings (size 3 to 8) (size 9 to 14) (size 15 to 20)
#    0.000    1.571    5.714    1.714    2.000    1.143 
#    0.000    0.000    0.000    4.286    0.000    2.000 
#    0.000    0.000    0.000    0.000    0.000    0.000 
#
# Total GULP energy -155910.814576 kJ/mol
# GULP energy per Si atom -5568.243378 kJ/mol
# Density = 1.695924 g / cm^3
# Si number density = 16.997932 Si / 1000 Ang^3
#
#
#
# Elastic Constant Matrix: (Units=GPa)
#
#
# Indices 1 2 3 4 5 6 
#
# 1 48.7708 18.8623 17.7253 0.0000 0.0000 0.0000
# 2 18.8623 88.0248 34.5629 0.0000 0.0000 0.0000
# 3 17.7253 34.5629 82.6104 0.0000 0.0000 0.0000
# 4 0.0000 0.0000 0.0000 17.9398 0.0000 0.0000
# 5 0.0000 0.0000 0.0000 0.0000 4.2234 0.0000
# 6 0.0000 0.0000 0.0000 0.0000 0.0000 17.7705
#
#
#
# Elastic Compliance Matrix: (Units=1/GPa)
#
#
# Indices 1 2 3 4 5 6 
#
# 1 0.023155 -0.003603 -0.003461 0.000000 0.000000 0.000000
# 2 -0.003603 0.014154 -0.005149 0.000000 0.000000 0.000000
# 3 -0.003461 -0.005149 0.015002 0.000000 0.000000 0.000000
# 4 0.000000 0.000000 0.000000 0.055742 0.000000 0.000000
# 5 0.000000 0.000000 0.000000 0.000000 0.236774 0.000000
# 6 0.000000 0.000000 0.000000 0.000000 0.000000 0.056273
#
#
# Mechanical properties :
#
#
# Convention : Reuss Voigt Hill
#
# Bulk Modulus (GPa) = 35.86026 40.18965 38.02495
# Shear Modulus (GPa) = 11.49898 17.87045 14.68472
#
# Velocity S-wave (km/s) = 2.60377 3.24594 2.94243
# Velocity P-wave (km/s) = 5.49383 6.14356 5.82776
#
# Compressibility (1/GPa) = 0.02788602
#
# Stress axis : x y z
#
# Youngs Moduli (GPa) = 43.18658 70.65068 66.65872
#
# Poissons Ratio (x) = 0.25455 0.23070
# Poissons Ratio (y) = 0.15560 0.34321
# Poissons Ratio (z) = 0.14947 0.36377
#
# Static dielectric constant tensor:
#      x y z
#    x 1.541800 0.000000 0.000000 
#    y 0.000000 1.681780 0.000000 
#    z 0.000000 0.000000 1.638390 
# 
# From -- ./inp_files/9537.got.cif
#   From: 2010.05.17/outbox.cif.g08.bks.cpg/sg38_5_cif.got.tgz:9537.got - 2010.06.03 18:07:57.
