data_PCOD9356776
_publ_section_title
;
Structure prediction by ZEFSAII (Michael W. Deem and Ramdas Pophale) SiO2 
 PCOD9356776
Probable space group: A M M 2
;
_chemical_formula_sum "Si O2"
_cell_formula_units_Z 32
_cell_length_a 7.367894
_cell_length_b 10.870723
_cell_length_c 21.781912
_cell_angle_alpha 90.000000
_cell_angle_beta 90.000000
_cell_angle_gamma 90.000000
_cell_volume 1744.607752
_symmetry_space_group_name_H-M "A M M 2"
_symmetry_group_IT_number 38
_symmetry_cell_setting 'orthorhombic'
loop_
_space_group_symop_operation_xyz
x,y,z
-x,-y,z
-x,y,z
x,-y,z
x,1/2+y,1/2+z
-x,1/2-y,1/2+z
-x,1/2+y,1/2+z
x,1/2-y,1/2+z
loop_
_atom_site_type_symbol
_atom_site_label
_atom_site_fract_x
_atom_site_fract_y
_atom_site_fract_z
Si Si1 0.000000 0.000000 0.149820
Si Si2 0.282280 0.000000 0.044444
Si Si3 0.000000 0.213665 0.247392
Si Si4 0.280194 0.000000 0.454451
Si Si5 0.000000 0.500000 0.846996
Si Si6 0.285409 0.146754 0.675376
Si Si7 0.719337 0.770796 0.538724
O O1 0.000000 0.116401 0.192604
O O2 0.820730 0.000000 0.108829
O O3 0.229480 0.866903 0.017157
O O4 0.500000 0.000000 0.051158
O O5 0.000000 0.125653 0.306603
O O6 0.174707 0.297289 0.232253
O O7 0.176047 0.000000 0.390487
O O8 0.224909 0.120128 0.493722
O O9 0.500000 0.000000 0.447677
O O10 0.500000 0.172119 0.681730
O O11 0.224502 0.201403 0.609070
O O12 0.259801 0.000000 0.672182
O O13 0.500000 0.775376 0.540045
#
# Coordination Sequence:
#
# PCOD9356776 Si02
#       7
#     2   4   4   4   2   8   8
#     4  11  20  28  48  76 112 158 181 208 290 347
#     4  10  19  31  49  84 122 146 177 231 296 360
#     4  11  23  37  51  81 117 152 203 245 272 343
#     4  10  21  41  63  84 116 156 204 252 288 346
#     4  11  28  42  58  82 112 168 221 238 276 341
#     4  10  19  34  60  91 119 149 184 240 316 367
#     4   9  17  32  58  89 118 147 184 238 305 362
#
# _framework density 18.342233
#
# number of rings (size 3 to 8) (size 9 to 14) (size 15 to 20)
#    0.000    2.000    3.750    0.375    0.000    3.000 
#    0.000    2.500    5.500    0.000    0.000    0.000 
#    0.000    0.000    0.000    0.000    0.000    0.000 
#
# Total GULP energy -89173.393214 kJ/mol
# GULP energy per Si atom -5573.337076 kJ/mol
# Density = 1.830048 g / cm^3
# Si number density = 18.342233 Si / 1000 Ang^3
#
#
#
# Elastic Constant Matrix: (Units=GPa)
#
#
# Indices 1 2 3 4 5 6 
#
# 1 80.1999 44.6243 35.2877 0.0000 0.0000 0.0000
# 2 44.6243 160.6299 60.9065 0.0000 0.0000 0.0000
# 3 35.2877 60.9065 93.3551 0.0000 0.0000 0.0000
# 4 0.0000 0.0000 0.0000 27.3089 0.0000 0.0000
# 5 0.0000 0.0000 0.0000 0.0000 27.6182 0.0000
# 6 0.0000 0.0000 0.0000 0.0000 0.0000 19.5075
#
#
#
# Elastic Compliance Matrix: (Units=1/GPa)
#
#
# Indices 1 2 3 4 5 6 
#
# 1 0.015873 -0.002836 -0.004149 0.000000 0.000000 0.000000
# 2 -0.002836 0.008779 -0.004655 0.000000 0.000000 0.000000
# 3 -0.004149 -0.004655 0.015317 0.000000 0.000000 0.000000
# 4 0.000000 0.000000 0.000000 0.036618 0.000000 0.000000
# 5 0.000000 0.000000 0.000000 0.000000 0.036208 0.000000
# 6 0.000000 0.000000 0.000000 0.000000 0.000000 0.051262
#
#
# Mechanical properties :
#
#
# Convention : Reuss Voigt Hill
#
# Bulk Modulus (GPa) = 59.92696 68.42465 64.17581
# Shear Modulus (GPa) = 25.92003 27.77800 26.84902
#
# Velocity S-wave (km/s) = 3.76325 3.89579 3.83009
# Velocity P-wave (km/s) = 7.18507 7.59089 7.39077
#
# Compressibility (1/GPa) = 0.01668698
#
# Stress axis : x y z
#
# Youngs Moduli (GPa) = 63.00136 113.91407 65.28534
#
# Poissons Ratio (x) = 0.32309 0.27089
# Poissons Ratio (y) = 0.17869 0.30392
# Poissons Ratio (z) = 0.26142 0.53029
#
# Static dielectric constant tensor:
#      x y z
#    x 1.652280 0.000000 0.000000 
#    y 0.000000 1.683990 0.000000 
#    z 0.000000 0.000000 1.585590 
# 
# From -- ./inp_files/16307.got.cif
#   From: 2010.05.17/outbox.cif.g08.bks.cpg/sg38_9_cif.got.tgz:16307.got - 2010.06.03 18:07:57.
