data_PCOD9356020
_publ_section_title
;
Structure prediction by ZEFSAII (Michael W. Deem and Ramdas Pophale) SiO2 
 PCOD9356020
Probable space group: A M M 2
;
_chemical_formula_sum "Si O2"
_cell_formula_units_Z 56
_cell_length_a 8.776014
_cell_length_b 19.070931
_cell_length_c 21.295190
_cell_angle_alpha 90.000000
_cell_angle_beta 90.000000
_cell_angle_gamma 90.000000
_cell_volume 3564.106900
_symmetry_space_group_name_H-M "A M M 2"
_symmetry_group_IT_number 38
_symmetry_cell_setting 'orthorhombic'
loop_
_space_group_symop_operation_xyz
x,y,z
-x,-y,z
-x,y,z
x,-y,z
x,1/2+y,1/2+z
-x,1/2-y,1/2+z
-x,1/2+y,1/2+z
x,1/2-y,1/2+z
loop_
_atom_site_type_symbol
_atom_site_label
_atom_site_fract_x
_atom_site_fract_y
_atom_site_fract_z
Si Si1 0.683271 0.919111 0.967620
Si Si2 0.316378 0.781963 0.401546
Si Si3 0.819384 0.788501 0.026220
Si Si4 0.817941 0.418297 0.207531
Si Si5 0.684734 0.078943 0.458933
Si Si6 0.317565 0.148030 0.832082
Si Si7 0.317420 0.158915 0.587344
O O1 0.500000 0.913681 0.972516
O O2 0.722265 0.892089 0.897132
O O3 0.727841 0.000000 0.974770
O O4 0.756520 0.867063 0.018399
O O5 0.500000 0.776549 0.411844
O O6 0.234110 0.747593 0.461135
O O7 0.275304 0.863939 0.405354
O O8 0.282146 0.730501 0.343821
O O9 0.747197 0.737235 0.078005
O O10 0.000000 0.788613 0.031701
O O11 0.771639 0.500000 0.206014
O O12 0.766102 0.384541 0.273036
O O13 0.742735 0.377449 0.149778
O O14 0.000000 0.414668 0.201850
O O15 0.500000 0.075357 0.459702
O O16 0.729620 0.112302 0.526275
O O17 0.743173 0.000000 0.450870
O O18 0.500000 0.141008 0.823405
O O19 0.500000 0.161860 0.587427
#
# Coordination Sequence:
#
# PCOD9356020 Si02
#       7
#     8   8   8   8   8   8   8
#     4   9  17  30  48  69  93 121 154 191 227 266
#     4   8  15  28  44  63  88 118 153 188 222 267
#     4  10  18  28  44  66  92 119 148 185 231 275
#     4  11  23  34  44  64  93 120 149 189 233 273
#     4   8  13  23  43  69  90 109 139 181 224 262
#     4   9  17  30  46  63  87 122 159 189 219 263
#     4  10  19  32  48  64  87 121 158 188 217 265
#
# _framework density 15.712211999999999
#
# number of rings (size 3 to 8) (size 9 to 14) (size 15 to 20)
#    0.000    2.714    0.000    4.714    0.000    4.857 
#    0.000    0.000    0.000    3.857    0.000    1.000 
#    0.000    5.714    0.000    0.000    0.000    0.000 
#
# Total GULP energy -155925.966813 kJ/mol
# GULP energy per Si atom -5568.784529 kJ/mol
# Density = 1.567645 g / cm^3
# Si number density = 15.712212 Si / 1000 Ang^3
#
#
#
# Elastic Constant Matrix: (Units=GPa)
#
#
# Indices 1 2 3 4 5 6 
#
# 1 37.4602 45.2603 32.3226 0.0000 0.0000 0.0000
# 2 45.2603 169.4116 64.7569 0.0000 0.0000 0.0000
# 3 32.3226 64.7569 67.3652 0.0000 0.0000 0.0000
# 4 0.0000 0.0000 0.0000 24.0154 0.0000 0.0000
# 5 0.0000 0.0000 0.0000 0.0000 8.0177 0.0000
# 6 0.0000 0.0000 0.0000 0.0000 0.0000 16.5251
#
#
#
# Elastic Compliance Matrix: (Units=1/GPa)
#
#
# Indices 1 2 3 4 5 6 
#
# 1 0.049819 -0.006596 -0.017563 0.000000 0.000000 0.000000
# 2 -0.006596 0.010205 -0.006645 0.000000 0.000000 0.000000
# 3 -0.017563 -0.006645 0.029659 0.000000 0.000000 0.000000
# 4 0.000000 0.000000 0.000000 0.041640 0.000000 0.000000
# 5 0.000000 0.000000 0.000000 0.000000 0.124723 0.000000
# 6 0.000000 0.000000 0.000000 0.000000 0.000000 0.060514
#
#
# Mechanical properties :
#
#
# Convention : Reuss Voigt Hill
#
# Bulk Modulus (GPa) = 35.61909 62.10186 48.86047
# Shear Modulus (GPa) = 12.90234 18.50478 15.70356
#
# Velocity S-wave (km/s) = 2.86871 3.43553 3.16484
# Velocity P-wave (km/s) = 5.80444 7.43960 6.67230
#
# Compressibility (1/GPa) = 0.02807484
#
# Stress axis : x y z
#
# Youngs Moduli (GPa) = 20.07270 97.99025 33.71674
#
# Poissons Ratio (x) = 0.64639 0.59216
# Poissons Ratio (y) = 0.13241 0.22404
# Poissons Ratio (z) = 0.35253 0.65114
#
# Static dielectric constant tensor:
#      x y z
#    x 1.522680 0.000000 0.000000 
#    y 0.000000 1.567750 0.000000 
#    z 0.000000 0.000000 1.501270 
# 
# From -- ./inp_files/19992.got.cif
#   From: 2010.05.17/outbox.cif.g08.bks.cpg/sg38_10_cif.got.tgz:19992.got - 2010.06.03 18:07:57.
