data_PCOD9356941
_publ_section_title
;
Structure prediction by ZEFSAII (Michael W. Deem and Ramdas Pophale) SiO2 
 PCOD9356941
Probable space group: A M M 2
;
_chemical_formula_sum "Si O2"
_cell_formula_units_Z 64
_cell_length_a 21.491012
_cell_length_b 8.464142
_cell_length_c 19.191515
_cell_angle_alpha 90.000000
_cell_angle_beta 90.000000
_cell_angle_gamma 90.000000
_cell_volume 3490.993717
_symmetry_space_group_name_H-M "A M M 2"
_symmetry_group_IT_number 38
_symmetry_cell_setting 'orthorhombic'
loop_
_space_group_symop_operation_xyz
x,y,z
-x,-y,z
-x,y,z
x,-y,z
x,1/2+y,1/2+z
-x,1/2-y,1/2+z
-x,1/2+y,1/2+z
x,1/2-y,1/2+z
loop_
_atom_site_type_symbol
_atom_site_label
_atom_site_fract_x
_atom_site_fract_y
_atom_site_fract_z
Si Si1 0.932220 0.688794 0.607120
Si Si2 0.201866 0.807114 0.452361
Si Si3 0.315123 0.188921 0.201485
Si Si4 0.571548 0.689042 0.111334
Si Si5 0.066643 0.689569 0.948666
Si Si6 0.680645 0.691239 0.861622
Si Si7 0.198396 0.311187 0.114357
Si Si8 0.571515 0.811016 0.957054
O O1 0.929378 0.500000 0.598278
O O2 0.932698 0.769751 0.530925
O O3 0.867963 0.745201 0.640924
O O4 0.000000 0.726346 0.639956
O O5 0.134279 0.754055 0.423531
O O6 0.259614 0.754240 0.406137
O O7 0.207477 0.758181 0.533482
O O8 0.201972 0.000000 0.452170
O O9 0.378637 0.239123 0.163677
O O10 0.315261 0.242990 0.281651
O O11 0.256424 0.257171 0.159872
O O12 0.310411 0.000000 0.200522
O O13 0.500000 0.740586 0.124412
O O14 0.573868 0.500000 0.116117
O O15 0.587733 0.739097 0.032446
O O16 0.066073 0.500000 0.940830
O O17 0.000000 0.750650 0.920770
O O18 0.680066 0.500000 0.862802
O O19 0.618877 0.751279 0.899305
O O20 0.194895 0.500000 0.113725
O O21 0.500000 0.765666 0.941539
O O22 0.574601 0.000000 0.962179
#
# Coordination Sequence:
#
# PCOD9356941 Si02
#       8
#     8   8   8   8   8   8   8   8
#     4   9  16  26  43  70 103 133 163 208 265 318
#     4   8  15  29  49  72  96 126 167 210 251 300
#     4  11  23  36  52  76 107 142 179 221 265 310
#     4  10  21  38  60  82 105 136 173 214 262 317
#     4   8  13  23  42  68  96 126 163 207 253 303
#     4  10  21  36  53  74 105 143 177 213 259 311
#     4  10  19  32  53  76 100 135 177 220 264 315
#     4  10  21  37  58  83 108 133 167 214 261 308
#
# _framework density 18.332888000000001
#
# number of rings (size 3 to 8) (size 9 to 14) (size 15 to 20)
#    0.000    2.500    0.000    3.375    0.000    4.750 
#    0.000    5.000    0.000    0.750    0.000    3.500 
#    0.000    0.000    0.000    0.000    0.000    0.000 
#
# Total GULP energy -178385.022558 kJ/mol
# GULP energy per Si atom -5574.531955 kJ/mol
# Density = 1.829116 g / cm^3
# Si number density = 18.332888 Si / 1000 Ang^3
#
#
#
# Elastic Constant Matrix: (Units=GPa)
#
#
# Indices 1 2 3 4 5 6 
#
# 1 144.0890 20.0692 81.5286 0.0000 0.0000 0.0000
# 2 20.0692 18.4304 15.6246 0.0000 0.0000 0.0000
# 3 81.5286 15.6246 85.3980 0.0000 0.0000 0.0000
# 4 0.0000 0.0000 0.0000 14.6208 0.0000 0.0000
# 5 0.0000 0.0000 0.0000 0.0000 -5.9634 0.0000
# 6 0.0000 0.0000 0.0000 0.0000 0.0000 29.0783
#
#
#
# Elastic Compliance Matrix: (Units=1/GPa)
#
#
# Indices 1 2 3 4 5 6 
#
# 1 0.015492 -0.005126 -0.013852 0.000000 0.000000 0.000000
# 2 -0.005126 0.065915 -0.007166 0.000000 0.000000 0.000000
# 3 -0.013852 -0.007166 0.026245 0.000000 0.000000 0.000000
# 4 0.000000 0.000000 0.000000 0.068396 0.000000 0.000000
# 5 0.000000 0.000000 0.000000 0.000000 -0.167691 0.000000
# 6 0.000000 0.000000 0.000000 0.000000 0.000000 0.034390
#
#
# Mechanical properties :
#
#
# Convention : Reuss Voigt Hill
#
# Bulk Modulus (GPa) = 18.06224 53.59579 35.82902
# Shear Modulus (GPa) = 44.05612 16.26014 30.15813
#
# Velocity S-wave (km/s) = 4.90748 2.98138 4.06030
# Velocity P-wave (km/s) = 6.47958 6.41481 6.44727
#
# Compressibility (1/GPa) = 0.05536411
#
# Stress axis : x y z
#
# Youngs Moduli (GPa) = 64.54951 15.17094 38.10181
#
# Poissons Ratio (x) = 0.07777 0.52779
# Poissons Ratio (y) = 0.33090 0.27304
# Poissons Ratio (z) = 0.89415 0.10872
#
# Static dielectric constant tensor:
#      x y z
#    x 1.671880 0.000000 0.000000 
#    y 0.000000 1.631080 0.000000 
#    z 0.000000 0.000000 1.596080 
# 
# From -- ./inp_files/18862.got.cif
#   From: 2010.05.17/outbox.cif.g08.bks.cpg/sg38_10_cif.got.tgz:18862.got - 2010.06.03 18:07:57.
