data_PCOD9356846
_publ_section_title
;
Structure prediction by ZEFSAII (Michael W. Deem and Ramdas Pophale) SiO2 
 PCOD9356846
Probable space group: A M M 2
;
_chemical_formula_sum "Si O2"
_cell_formula_units_Z 58
_cell_length_a 9.198314
_cell_length_b 17.780638
_cell_length_c 17.401773
_cell_angle_alpha 90.000000
_cell_angle_beta 90.000000
_cell_angle_gamma 90.000000
_cell_volume 2846.092889
_symmetry_space_group_name_H-M "A M M 2"
_symmetry_group_IT_number 38
_symmetry_cell_setting 'orthorhombic'
loop_
_space_group_symop_operation_xyz
x,y,z
-x,-y,z
-x,y,z
x,-y,z
x,1/2+y,1/2+z
-x,1/2-y,1/2+z
-x,1/2+y,1/2+z
x,1/2-y,1/2+z
loop_
_atom_site_type_symbol
_atom_site_label
_atom_site_fract_x
_atom_site_fract_y
_atom_site_fract_z
Si Si1 0.763894 0.582659 0.927070
Si Si2 0.174147 0.340708 0.331768
Si Si3 0.674012 0.184796 0.286357
Si Si4 0.175667 0.416654 0.172945
Si Si5 0.323905 0.417598 0.649778
Si Si6 0.673635 0.652684 0.490814
Si Si7 0.163316 0.700685 0.046659
Si Si8 0.500000 0.000000 0.491812
O O1 0.830965 0.500000 0.912756
O O2 0.708376 0.620479 0.849030
O O3 0.850248 0.642904 0.975828
O O4 0.626086 0.563875 0.980359
O O5 0.241555 0.259966 0.309160
O O6 0.206641 0.396572 0.261072
O O7 0.246337 0.365310 0.411476
O O8 0.000000 0.334649 0.339898
O O9 0.500000 0.198975 0.285615
O O10 0.723473 0.150121 0.204892
O O11 0.232543 0.500000 0.152066
O O12 0.221402 0.348246 0.118312
O O13 0.000000 0.419276 0.164059
O O14 0.500000 0.418098 0.656331
O O15 0.271242 0.500000 0.674671
O O16 0.290446 0.402828 0.560999
O O17 0.500000 0.654297 0.479565
O O18 0.731413 0.733366 0.519950
O O19 0.000000 0.729593 0.064652
#
# Coordination Sequence:
#
# PCOD9356846 Si02
#       8
#     8   8   8   8   8   8   8   2
#     4  10  19  31  54  82 118 153 190 225 281 343
#     4  11  23  38  61  87 115 153 199 245 291 345
#     4  11  19  35  61  87 118 154 191 234 289 354
#     4   9  20  40  61  84 115 154 195 242 296 349
#     4   9  20  37  60  89 118 153 195 242 293 350
#     4  11  23  38  60  86 119 157 197 243 293 346
#     4  11  22  37  60  87 118 154 195 239 292 353
#     4   8  20  32  46  88 120 160 186 228 284 344
#
# _framework density 20.378816
#
# number of rings (size 3 to 8) (size 9 to 14) (size 15 to 20)
#    0.414    1.379    2.069    2.483    0.966    1.931 
#    0.000    1.379    0.000    7.034    0.000    0.000 
#    0.000    0.000    0.000    0.000    0.000    0.000 
#
# Total GULP energy -161516.564306 kJ/mol
# GULP energy per Si atom -5569.536700 kJ/mol
# Density = 2.033243 g / cm^3
# Si number density = 20.378816 Si / 1000 Ang^3
#
#
#
# Elastic Constant Matrix: (Units=GPa)
#
#
# Indices 1 2 3 4 5 6 
#
# 1 62.3309 1.2150 19.0944 0.0000 0.0000 0.0000
# 2 1.2150 25.9266 -14.1069 0.0000 0.0000 0.0000
# 3 19.0944 -14.1069 91.2837 0.0000 0.0000 0.0000
# 4 0.0000 0.0000 0.0000 22.1423 0.0000 0.0000
# 5 0.0000 0.0000 0.0000 0.0000 19.5181 0.0000
# 6 0.0000 0.0000 0.0000 0.0000 0.0000 -137.5644
#
#
#
# Elastic Compliance Matrix: (Units=1/GPa)
#
#
# Indices 1 2 3 4 5 6 
#
# 1 0.017359 -0.003045 -0.004102 0.000000 0.000000 0.000000
# 2 -0.003045 0.042646 0.007227 0.000000 0.000000 0.000000
# 3 -0.004102 0.007227 0.012930 0.000000 0.000000 0.000000
# 4 0.000000 0.000000 0.000000 0.045162 0.000000 0.000000
# 5 0.000000 0.000000 0.000000 0.000000 0.051235 0.000000
# 6 0.000000 0.000000 0.000000 0.000000 0.000000 -0.007269
#
#
# Mechanical properties :
#
#
# Convention : Reuss Voigt Hill
#
# Bulk Modulus (GPa) = 13.68078 21.32737 17.50407
# Shear Modulus (GPa) = 26.84322 -7.62488 9.60917
#
# Velocity S-wave (km/s) = 3.63328 -1.93641 2.17382
# Velocity P-wave (km/s) = 4.93242 2.34277 3.86117
#
# Compressibility (1/GPa) = 0.07309527
#
# Stress axis : x y z
#
# Youngs Moduli (GPa) = 57.60599 23.44908 77.34084
#
# Poissons Ratio (x) = 0.07141 0.31724
# Poissons Ratio (y) = 0.17543 -0.55898
# Poissons Ratio (z) = 0.23629 -0.16948
#
# Static dielectric constant tensor:
#      x y z
#    x 1.716870 0.000000 0.000000 
#    y 0.000000 1.728940 0.000000 
#    z 0.000000 0.000000 1.748460 
# 
# From -- ./inp_files/16994.got.cif
#   From: 2010.05.17/outbox.cif.g08.bks.cpg/sg38_9_cif.got.tgz:16994.got - 2010.06.03 18:07:57.
