data_PCOD9356069
_publ_section_title
;
Structure prediction by ZEFSAII (Michael W. Deem and Ramdas Pophale) SiO2 
 PCOD9356069
Probable space group: A M M 2
;
_chemical_formula_sum "Si O2"
_cell_formula_units_Z 64
_cell_length_a 14.669416
_cell_length_b 8.856210
_cell_length_c 31.966848
_cell_angle_alpha 90.000000
_cell_angle_beta 90.000000
_cell_angle_gamma 90.000000
_cell_volume 4152.986761
_symmetry_space_group_name_H-M "A M M 2"
_symmetry_group_IT_number 38
_symmetry_cell_setting 'orthorhombic'
loop_
_space_group_symop_operation_xyz
x,y,z
-x,-y,z
-x,y,z
x,-y,z
x,1/2+y,1/2+z
-x,1/2-y,1/2+z
-x,1/2+y,1/2+z
x,1/2-y,1/2+z
loop_
_atom_site_type_symbol
_atom_site_label
_atom_site_fract_x
_atom_site_fract_y
_atom_site_fract_z
Si Si1 0.610557 0.326071 0.304240
Si Si2 0.896853 0.681281 0.015391
Si Si3 0.392820 0.679662 0.717325
Si Si4 0.394055 0.682586 0.396981
Si Si5 0.604665 0.183681 0.558990
Si Si6 0.717683 0.181106 0.641146
Si Si7 0.710939 0.182104 0.474799
Si Si8 0.104198 0.680457 0.607467
O O1 0.500000 0.327325 0.305712
O O2 0.640144 0.500000 0.298750
O O3 0.636538 0.230325 0.263825
O O4 0.637874 0.270314 0.350383
O O5 0.890711 0.500000 0.021925
O O6 0.881982 0.758862 0.060229
O O7 0.000000 0.716451 0.001339
O O8 0.815955 0.723470 0.984018
O O9 0.500000 0.721784 0.712300
O O10 0.385727 0.500000 0.713245
O O11 0.333656 0.759602 0.681950
O O12 0.500000 0.729747 0.403038
O O13 0.392928 0.500000 0.397313
O O14 0.332389 0.746180 0.433790
O O15 0.500000 0.235139 0.560552
O O16 0.660929 0.231096 0.599858
O O17 0.653844 0.229228 0.516054
O O18 0.604139 0.000000 0.559244
O O19 0.818964 0.245864 0.636135
O O20 0.720338 0.000000 0.641364
O O21 0.705189 0.000000 0.471603
O O22 0.113044 0.500000 0.607781
O O23 0.000000 0.719728 0.619305
#
# Coordination Sequence:
#
# PCOD9356069 Si02
#       8
#     8   8   8   8   8   8   8   8
#     4   8  15  30  49  66  88 121 159 195 233 279
#     4   9  17  31  49  67  89 119 158 200 238 281
#     4  10  20  32  47  71 101 127 156 196 239 282
#     4   9  18  31  46  67  95 125 157 193 233 278
#     4   9  17  28  41  61  91 124 158 191 220 261
#     4  11  20  32  49  68  93 129 166 195 230 280
#     4  10  18  29  45  67  92 122 158 194 233 276
#     4  10  20  33  49  69  93 120 153 200 251 287
#
# _framework density 15.410596
#
# number of rings (size 3 to 8) (size 9 to 14) (size 15 to 20)
#    0.000    2.500    1.250    2.625    0.000    3.750 
#    0.000    1.250    0.000    2.250    0.000    0.875 
#    0.000    3.000    0.000    0.000    0.000    0.000 
#
# Total GULP energy -178388.273992 kJ/mol
# GULP energy per Si atom -5574.633562 kJ/mol
# Density = 1.537552 g / cm^3
# Si number density = 15.410596 Si / 1000 Ang^3
#
#
#
# Elastic Constant Matrix: (Units=GPa)
#
#
# Indices 1 2 3 4 5 6 
#
# 1 111.0179 38.5197 72.1570 0.0000 0.0000 0.0000
# 2 38.5197 28.1667 38.2734 0.0000 0.0000 0.0000
# 3 72.1570 38.2734 131.9005 0.0000 0.0000 0.0000
# 4 0.0000 0.0000 0.0000 27.4676 0.0000 0.0000
# 5 0.0000 0.0000 0.0000 0.0000 8.9495 0.0000
# 6 0.0000 0.0000 0.0000 0.0000 0.0000 19.7770
#
#
#
# Elastic Compliance Matrix: (Units=1/GPa)
#
#
# Indices 1 2 3 4 5 6 
#
# 1 0.018718 -0.019289 -0.004642 0.000000 0.000000 0.000000
# 2 -0.019289 0.078492 -0.012224 0.000000 0.000000 0.000000
# 3 -0.004642 -0.012224 0.013668 0.000000 0.000000 0.000000
# 4 0.000000 0.000000 0.000000 0.036407 0.000000 0.000000
# 5 0.000000 0.000000 0.000000 0.000000 0.111739 0.000000
# 6 0.000000 0.000000 0.000000 0.000000 0.000000 0.050564
#
#
# Mechanical properties :
#
#
# Convention : Reuss Voigt Hill
#
# Bulk Modulus (GPa) = 25.92892 63.22058 44.57475
# Shear Modulus (GPa) = 12.66613 19.38114 16.02363
#
# Velocity S-wave (km/s) = 2.87001 3.55018 3.22806
# Velocity P-wave (km/s) = 5.27679 7.61040 6.54839
#
# Compressibility (1/GPa) = 0.03856698
#
# Stress axis : x y z
#
# Youngs Moduli (GPa) = 53.42505 12.74013 73.16323
#
# Poissons Ratio (x) = 0.24575 0.33966
# Poissons Ratio (y) = 1.03054 0.89432
# Poissons Ratio (z) = 0.24803 0.15573
#
# Static dielectric constant tensor:
#      x y z
#    x 1.513290 0.000000 0.000000 
#    y 0.000000 1.518550 0.000000 
#    z 0.000000 0.000000 1.497300 
# 
# From -- ./inp_files/25063.got.cif
#   From: 2010.05.17/outbox.cif.g08.bks.cpg/sg38_13_cif.got.tgz:25063.got - 2010.06.03 18:07:57.
