data_PCOD9356921
_publ_section_title
;
Structure prediction by ZEFSAII (Michael W. Deem and Ramdas Pophale) SiO2 
 PCOD9356921
Probable space group: A M M 2
;
_chemical_formula_sum "Si O2"
_cell_formula_units_Z 56
_cell_length_a 20.050962
_cell_length_b 7.615085
_cell_length_c 16.571616
_cell_angle_alpha 90.000000
_cell_angle_beta 90.000000
_cell_angle_gamma 90.000000
_cell_volume 2530.316401
_symmetry_space_group_name_H-M "A M M 2"
_symmetry_group_IT_number 38
_symmetry_cell_setting 'orthorhombic'
loop_
_space_group_symop_operation_xyz
x,y,z
-x,-y,z
-x,y,z
x,-y,z
x,1/2+y,1/2+z
-x,1/2-y,1/2+z
-x,1/2+y,1/2+z
x,1/2-y,1/2+z
loop_
_atom_site_type_symbol
_atom_site_label
_atom_site_fract_x
_atom_site_fract_y
_atom_site_fract_z
Si Si1 0.074800 0.792398 0.634050
Si Si2 0.572664 0.713689 0.301800
Si Si3 0.153625 0.784046 0.475401
Si Si4 0.714434 0.213933 0.735581
Si Si5 0.853710 0.702961 0.799984
Si Si6 0.427838 0.711292 0.489976
Si Si7 0.284243 0.707516 0.055694
O O1 0.112997 0.725005 0.554506
O O2 0.114133 0.775896 0.718287
O O3 0.000000 0.719664 0.641404
O O4 0.069684 0.000000 0.619794
O O5 0.500000 0.772016 0.269926
O O6 0.572647 0.500000 0.298643
O O7 0.640128 0.772590 0.259183
O O8 0.576325 0.763874 0.396000
O O9 0.128211 0.722082 0.388081
O O10 0.230192 0.726585 0.491700
O O11 0.152073 0.000000 0.472070
O O12 0.773734 0.279144 0.791855
O O13 0.729209 0.277157 0.645052
O O14 0.715586 0.000000 0.737858
O O15 0.872728 0.500000 0.799963
O O16 0.500000 0.773270 0.522099
O O17 0.428523 0.500000 0.491671
O O18 0.361115 0.767963 0.533868
O O19 0.272548 0.500000 0.060911
#
# Coordination Sequence:
#
# PCOD9356921 Si02
#       7
#     8   8   8   8   8   8   8
#     4  10  21  41  66  87 114 152 189 225 271 333
#     4   8  15  29  49  73 100 135 183 235 282 329
#     4   9  19  37  58  84 116 151 188 226 277 335
#     4  10  19  33  55  79 107 144 189 236 278 332
#     4  11  22  36  59  88 119 151 185 231 282 332
#     4   9  18  32  48  69 102 140 178 226 285 341
#     4  10  19  32  52  76 105 140 185 235 273 324
#
# _framework density 22.131619000000001
#
# number of rings (size 3 to 8) (size 9 to 14) (size 15 to 20)
#    0.000    2.429    1.429    2.143    0.000    2.286 
#    0.000    5.000    0.000    1.286    0.000    0.000 
#    0.000    0.000    0.000    0.000    0.000    0.000 
#
# Total GULP energy -156240.017971 kJ/mol
# GULP energy per Si atom -5580.000642 kJ/mol
# Density = 2.208125 g / cm^3
# Si number density = 22.131619 Si / 1000 Ang^3
#
#
#
# Elastic Constant Matrix: (Units=GPa)
#
#
# Indices 1 2 3 4 5 6 
#
# 1 120.6250 -8.9807 58.6906 0.0000 0.0000 0.0000
# 2 -8.9807 37.5247 0.7700 0.0000 0.0000 0.0000
# 3 58.6906 0.7700 142.3150 0.0000 0.0000 0.0000
# 4 0.0000 0.0000 0.0000 5.0135 0.0000 0.0000
# 5 0.0000 0.0000 0.0000 0.0000 7.9626 0.0000
# 6 0.0000 0.0000 0.0000 0.0000 0.0000 3.2407
#
#
#
# Elastic Compliance Matrix: (Units=1/GPa)
#
#
# Indices 1 2 3 4 5 6 
#
# 1 0.010625 0.002633 -0.004396 0.000000 0.000000 0.000000
# 2 0.002633 0.027305 -0.001234 0.000000 0.000000 0.000000
# 3 -0.004396 -0.001234 0.008846 0.000000 0.000000 0.000000
# 4 0.000000 0.000000 0.000000 0.199463 0.000000 0.000000
# 5 0.000000 0.000000 0.000000 0.000000 0.125588 0.000000
# 6 0.000000 0.000000 0.000000 0.000000 0.000000 0.308574
#
#
# Mechanical properties :
#
#
# Convention : Reuss Voigt Hill
#
# Bulk Modulus (GPa) = 24.52010 44.60271 34.56141
# Shear Modulus (GPa) = 7.14298 19.90900 13.52599
#
# Velocity S-wave (km/s) = 1.79847 3.00254 2.47485
# Velocity P-wave (km/s) = 3.92631 5.67604 4.88024
#
# Compressibility (1/GPa) = 0.04078286
#
# Stress axis : x y z
#
# Youngs Moduli (GPa) = 94.11682 36.62385 113.04217
#
# Poissons Ratio (x) = -0.09643 0.49694
# Poissons Ratio (y) = -0.24782 0.13945
# Poissons Ratio (z) = 0.41374 0.04518
#
# Static dielectric constant tensor:
#      x y z
#    x 1.824170 0.000000 0.000000 
#    y 0.000000 1.837110 0.000000 
#    z 0.000000 0.000000 1.807940 
# 
# From -- ./inp_files/15473.got.cif
#   From: 2010.05.17/outbox.cif.g08.bks.cpg/sg38_8_cif.got.tgz:15473.got - 2010.06.03 18:07:57.
