data_PCOD9356184
_publ_section_title
;
Structure prediction by ZEFSAII (Michael W. Deem and Ramdas Pophale) SiO2 
 PCOD9356184
Probable space group: A M M 2
;
_chemical_formula_sum "Si O2"
_cell_formula_units_Z 58
_cell_length_a 7.849475
_cell_length_b 27.541999
_cell_length_c 13.770999
_cell_angle_alpha 90.000000
_cell_angle_beta 90.000000
_cell_angle_gamma 90.000000
_cell_volume 2977.155477
_symmetry_space_group_name_H-M "A M M 2"
_symmetry_group_IT_number 38
_symmetry_cell_setting 'orthorhombic'
loop_
_space_group_symop_operation_xyz
x,y,z
-x,-y,z
-x,y,z
x,-y,z
x,1/2+y,1/2+z
-x,1/2-y,1/2+z
-x,1/2+y,1/2+z
x,1/2-y,1/2+z
loop_
_atom_site_type_symbol
_atom_site_label
_atom_site_fract_x
_atom_site_fract_y
_atom_site_fract_z
Si Si1 0.795686 0.147039 0.610860
Si Si2 0.195595 0.262592 0.414399
Si Si3 0.197286 0.418830 0.297293
Si Si4 0.690296 0.137282 0.979483
Si Si5 0.500000 0.000000 0.807283
Si Si6 0.199505 0.145904 0.189247
Si Si7 0.299856 0.257021 0.204784
Si Si8 0.792004 0.849231 0.402051
O O1 0.754634 0.114206 0.703563
O O2 0.725438 0.201312 0.625864
O O3 0.741604 0.127250 0.504635
O O4 0.000000 0.151407 0.608319
O O5 0.291609 0.304404 0.471334
O O6 0.208017 0.276750 0.301184
O O7 0.259696 0.207362 0.412290
O O8 0.000000 0.262394 0.447636
O O9 0.196526 0.387394 0.396930
O O10 0.346090 0.458273 0.306527
O O11 0.000000 0.436029 0.282328
O O12 0.500000 0.123638 0.953840
O O13 0.723644 0.124004 0.091364
O O14 0.223031 0.204331 0.183646
O O15 0.268328 0.132202 0.296750
O O16 0.000000 0.134934 0.186655
O O17 0.500000 0.250968 0.223889
O O18 0.000000 0.849472 0.395983
#
# Coordination Sequence:
#
# PCOD9356184 Si02
#       8
#     8   8   8   8   2   8   8   8
#     4  10  19  34  56  81 110 149 199 241 287 350
#     4  10  18  30  49  73 109 158 206 244 283 332
#     4  11  24  42  68  95 120 154 186 237 310 370
#     4  12  22  35  54  82 117 152 199 250 292 347
#     4  12  26  48  68  94 126 140 182 248 304 396
#     4  10  20  34  51  74 112 162 209 246 282 326
#     4  11  20  29  45  73 114 157 201 246 287 325
#     4   8  17  32  50  75 110 155 204 247 279 322
#
# _framework density 19.481681999999999
#
# number of rings (size 3 to 8) (size 9 to 14) (size 15 to 20)
#    0.000    1.655    2.069    5.172    0.966    1.103 
#    0.000    3.448    0.000    0.000    0.000    1.931 
#    0.000    4.414    0.000    0.000    0.000    0.000 
#
# Total GULP energy -161446.977432 kJ/mol
# GULP energy per Si atom -5567.137153 kJ/mol
# Density = 1.943734 g / cm^3
# Si number density = 19.481682 Si / 1000 Ang^3
#
#
#
# Elastic Constant Matrix: (Units=GPa)
#
#
# Indices 1 2 3 4 5 6 
#
# 1 65.4062 7.1230 4.3058 0.0000 0.0000 0.0000
# 2 7.1230 25.5165 15.0452 0.0000 0.0000 0.0000
# 3 4.3058 15.0452 149.0747 0.0000 0.0000 0.0000
# 4 0.0000 0.0000 0.0000 -6.7245 0.0000 0.0000
# 5 0.0000 0.0000 0.0000 0.0000 -9.3516 0.0000
# 6 0.0000 0.0000 0.0000 0.0000 0.0000 37.8932
#
#
#
# Elastic Compliance Matrix: (Units=1/GPa)
#
#
# Indices 1 2 3 4 5 6 
#
# 1 0.015768 -0.004395 -0.000012 0.000000 0.000000 0.000000
# 2 -0.004395 0.042895 -0.004202 0.000000 0.000000 0.000000
# 3 -0.000012 -0.004202 0.007132 0.000000 0.000000 0.000000
# 4 0.000000 0.000000 0.000000 -0.148710 0.000000 0.000000
# 5 0.000000 0.000000 0.000000 0.000000 -0.106933 0.000000
# 6 0.000000 0.000000 0.000000 0.000000 0.000000 0.026390
#
#
# Mechanical properties :
#
#
# Convention : Reuss Voigt Hill
#
# Bulk Modulus (GPa) = 20.58540 32.54948 26.56744
# Shear Modulus (GPa) = -38.44771 18.59831 -9.92470
#
# Velocity S-wave (km/s) = -4.44726 3.09310 -2.25952
# Velocity P-wave (km/s) = 3.97258 5.43143 2.61906
#
# Compressibility (1/GPa) = 0.04857811
#
# Stress axis : x y z
#
# Youngs Moduli (GPa) = 63.41770 23.31279 140.20343
#
# Poissons Ratio (x) = 0.10245 0.00167
# Poissons Ratio (y) = 0.27871 0.58916
# Poissons Ratio (z) = 0.00076 0.09796
#
# Static dielectric constant tensor:
#      x y z
#    x 1.693820 0.000000 0.000000 
#    y 0.000000 1.633340 0.000000 
#    z 0.000000 0.000000 1.788280 
# 
# From -- ./inp_files/12942.got.cif
#   From: 2010.05.17/outbox.cif.g08.bks.cpg/sg38_7_cif.got.tgz:12942.got - 2010.06.03 18:07:57.
