data_PCOD9356850
_publ_section_title
;
Structure prediction by ZEFSAII (Michael W. Deem and Ramdas Pophale) SiO2 
 PCOD9356850
Probable space group: A M M 2
;
_chemical_formula_sum "Si O2"
_cell_formula_units_Z 48
_cell_length_a 7.857223
_cell_length_b 9.216540
_cell_length_c 35.677177
_cell_angle_alpha 90.000000
_cell_angle_beta 90.000000
_cell_angle_gamma 90.000000
_cell_volume 2583.613080
_symmetry_space_group_name_H-M "A M M 2"
_symmetry_group_IT_number 38
_symmetry_cell_setting 'orthorhombic'
loop_
_space_group_symop_operation_xyz
x,y,z
-x,-y,z
-x,y,z
x,-y,z
x,1/2+y,1/2+z
-x,1/2-y,1/2+z
-x,1/2+y,1/2+z
x,1/2-y,1/2+z
loop_
_atom_site_type_symbol
_atom_site_label
_atom_site_fract_x
_atom_site_fract_y
_atom_site_fract_z
Si Si1 0.794162 0.665620 0.230430
Si Si2 0.500000 0.176410 0.936408
Si Si3 0.297623 0.666600 0.655314
Si Si4 0.187888 0.676679 0.573676
Si Si5 0.792588 0.166023 0.304356
Si Si6 0.500000 0.677617 0.522305
Si Si7 0.801323 0.174686 0.881227
O O1 0.734324 0.500000 0.231988
O O2 0.742746 0.740823 0.191783
O O3 0.733103 0.754475 0.266678
O O4 0.000000 0.664409 0.231798
O O5 0.669306 0.219007 0.913528
O O6 0.500000 0.000000 0.937299
O O7 0.500000 0.226508 0.979332
O O8 0.500000 0.663402 0.649335
O O9 0.239219 0.500000 0.661492
O O10 0.217786 0.723028 0.616617
O O11 0.196292 0.500000 0.574784
O O12 0.334758 0.724874 0.545625
O O13 0.000000 0.718869 0.561051
O O14 0.748780 0.251920 0.342095
O O15 0.000000 0.164909 0.303056
O O16 0.734377 0.000000 0.305613
O O17 0.500000 0.500000 0.521968
O O18 0.000000 0.211481 0.889115
O O19 0.792931 0.000000 0.877091
#
# Coordination Sequence:
#
# PCOD9356850 Si02
#       7
#     8   4   8   8   8   4   8
#     4  10  20  33  50  74 103 136 175 216 259 310
#     4   9  18  30  47  72 103 136 167 206 255 307
#     4  10  19  32  49  71 102 137 176 221 261 303
#     4   9  16  27  46  71 101 137 171 208 256 303
#     4   9  17  31  52  75  99 131 172 216 257 299
#     4   9  16  28  44  70 105 132 163 208 255 309
#     4   9  17  31  50  72 101 136 171 208 255 308
#
# _framework density 18.578631999999999
#
# number of rings (size 3 to 8) (size 9 to 14) (size 15 to 20)
#    0.000    2.667    0.833    1.500    0.000    4.667 
#    1.500    3.750    0.000    0.000    0.000    2.333 
#    0.000    2.667    0.000    0.000    0.000    0.000 
#
# Total GULP energy -133872.999984 kJ/mol
# GULP energy per Si atom -5578.041666 kJ/mol
# Density = 1.853635 g / cm^3
# Si number density = 18.578632 Si / 1000 Ang^3
#
#
#
# Elastic Constant Matrix: (Units=GPa)
#
#
# Indices 1 2 3 4 5 6 
#
# 1 96.7734 25.5899 79.0555 0.0000 0.0000 0.0000
# 2 25.5899 45.3474 45.9651 0.0000 0.0000 0.0000
# 3 79.0555 45.9651 185.9458 0.0000 0.0000 0.0000
# 4 0.0000 0.0000 0.0000 19.2706 0.0000 0.0000
# 5 0.0000 0.0000 0.0000 0.0000 33.7742 0.0000
# 6 0.0000 0.0000 0.0000 0.0000 0.0000 9.2409
#
#
#
# Elastic Compliance Matrix: (Units=1/GPa)
#
#
# Indices 1 2 3 4 5 6 
#
# 1 0.016107 -0.002866 -0.006139 0.000000 0.000000 0.000000
# 2 -0.002866 0.029935 -0.006181 0.000000 0.000000 0.000000
# 3 -0.006139 -0.006181 0.009516 0.000000 0.000000 0.000000
# 4 0.000000 0.000000 0.000000 0.051892 0.000000 0.000000
# 5 0.000000 0.000000 0.000000 0.000000 0.029608 0.000000
# 6 0.000000 0.000000 0.000000 0.000000 0.000000 0.108214
#
#
# Mechanical properties :
#
#
# Convention : Reuss Voigt Hill
#
# Bulk Modulus (GPa) = 39.70760 69.92086 54.81423
# Shear Modulus (GPa) = 17.60313 24.28755 20.94534
#
# Velocity S-wave (km/s) = 3.08148 3.61956 3.36130
# Velocity P-wave (km/s) = 5.83779 7.42867 6.68075
#
# Compressibility (1/GPa) = 0.02518410
#
# Stress axis : x y z
#
# Youngs Moduli (GPa) = 62.08649 33.40589 105.08613
#
# Poissons Ratio (x) = 0.09575 0.64515
# Poissons Ratio (y) = 0.17795 0.64956
# Poissons Ratio (z) = 0.38116 0.20649
#
# Static dielectric constant tensor:
#      x y z
#    x 1.664030 0.000000 0.000000 
#    y 0.000000 1.629190 0.000000 
#    z 0.000000 0.000000 1.609770 
# 
# From -- ./inp_files/24325.got.cif
#   From: 2010.05.17/outbox.cif.g08.bks.cpg/sg38_13_cif.got.tgz:24325.got - 2010.06.03 18:07:57.
