data_PCOD9356442
_publ_section_title
;
Structure prediction by ZEFSAII (Michael W. Deem and Ramdas Pophale) SiO2 
 PCOD9356442
Probable space group: A M M 2
;
_chemical_formula_sum "Si O2"
_cell_formula_units_Z 64
_cell_length_a 7.764288
_cell_length_b 24.549146
_cell_length_c 16.067937
_cell_angle_alpha 90.000000
_cell_angle_beta 90.000000
_cell_angle_gamma 90.000000
_cell_volume 3062.655478
_symmetry_space_group_name_H-M "A M M 2"
_symmetry_group_IT_number 38
_symmetry_cell_setting 'orthorhombic'
loop_
_space_group_symop_operation_xyz
x,y,z
-x,-y,z
-x,y,z
x,-y,z
x,1/2+y,1/2+z
-x,1/2-y,1/2+z
-x,1/2+y,1/2+z
x,1/2-y,1/2+z
loop_
_atom_site_type_symbol
_atom_site_label
_atom_site_fract_x
_atom_site_fract_y
_atom_site_fract_z
Si Si1 0.297021 0.869876 0.744120
Si Si2 0.795367 0.438752 0.083221
Si Si3 0.788926 0.867108 0.428896
Si Si4 0.294979 0.130089 0.927317
Si Si5 0.791349 0.750837 0.682544
Si Si6 0.791874 0.251144 0.489474
Si Si7 0.292909 0.061890 0.084861
Si Si8 0.792508 0.633463 0.744834
O O1 0.500000 0.880137 0.745706
O O2 0.226816 0.904839 0.667684
O O3 0.224278 0.883167 0.835665
O O4 0.268310 0.806062 0.725700
O O5 0.724751 0.500000 0.089431
O O6 0.000000 0.443022 0.069750
O O7 0.726670 0.405036 0.004125
O O8 0.736395 0.804727 0.446011
O O9 0.733682 0.884170 0.336541
O O10 0.000000 0.867576 0.430802
O O11 0.500000 0.120380 0.924363
O O12 0.268828 0.193775 0.946437
O O13 0.225217 0.095292 0.004894
O O14 0.736737 0.750059 0.585960
O O15 0.732124 0.694948 0.725101
O O16 0.000000 0.751598 0.684017
O O17 0.000000 0.252146 0.488439
O O18 0.500000 0.059789 0.077467
O O19 0.255051 0.094119 0.169463
O O20 0.227798 0.000000 0.086978
O O21 0.000000 0.635664 0.747005
#
# Coordination Sequence:
#
# PCOD9356442 Si02
#       8
#     8   8   8   8   8   8   8   8
#     4  11  23  37  57  85 115 149 186 229 280 332
#     4  10  21  39  60  80 108 149 193 235 280 330
#     4   9  18  34  56  83 113 145 179 218 274 336
#     4  10  22  38  56  81 112 147 186 226 275 334
#     4  10  19  34  58  86 116 147 180 224 278 333
#     4  10  18  33  59  85 112 145 179 223 276 330
#     4  10  22  40  58  76 106 149 189 227 276 331
#     4  10  20  35  58  87 113 141 181 228 276 327
#
# _framework density 20.896896999999999
#
# number of rings (size 3 to 8) (size 9 to 14) (size 15 to 20)
#    0.000    2.000    2.500    1.125    0.000    4.500 
#    0.000    3.750    0.000    0.000    0.000    0.000 
#    0.000    0.000    0.000    0.000    0.000    0.000 
#
# Total GULP energy -178754.437875 kJ/mol
# GULP energy per Si atom -5586.076184 kJ/mol
# Density = 2.084933 g / cm^3
# Si number density = 20.896897 Si / 1000 Ang^3
#
#
#
# Elastic Constant Matrix: (Units=GPa)
#
#
# Indices 1 2 3 4 5 6 
#
# 1 26.1640 0.9541 5.9745 0.0000 0.0000 0.0000
# 2 0.9541 167.0127 99.9866 0.0000 0.0000 0.0000
# 3 5.9745 99.9866 214.9068 0.0000 0.0000 0.0000
# 4 0.0000 0.0000 0.0000 -3.0577 0.0000 0.0000
# 5 0.0000 0.0000 0.0000 0.0000 0.7418 0.0000
# 6 0.0000 0.0000 0.0000 0.0000 0.0000 22.3418
#
#
#
# Elastic Compliance Matrix: (Units=1/GPa)
#
#
# Indices 1 2 3 4 5 6 
#
# 1 0.038506 0.000583 -0.001342 0.000000 0.000000 0.000000
# 2 0.000583 0.008308 -0.003882 0.000000 0.000000 0.000000
# 3 -0.001342 -0.003882 0.006496 0.000000 0.000000 0.000000
# 4 0.000000 0.000000 0.000000 -0.327042 0.000000 0.000000
# 5 0.000000 0.000000 0.000000 0.000000 1.348104 0.000000
# 6 0.000000 0.000000 0.000000 0.000000 0.000000 0.044759
#
#
# Mechanical properties :
#
#
# Convention : Reuss Voigt Hill
#
# Bulk Modulus (GPa) = 22.71186 69.10156 45.90671
# Shear Modulus (GPa) = 4.37411 24.08306 14.22859
#
# Velocity S-wave (km/s) = 1.44836 3.39849 2.61223
# Velocity P-wave (km/s) = 3.69988 6.96701 5.57801
#
# Compressibility (1/GPa) = 0.04402986
#
# Stress axis : x y z
#
# Youngs Moduli (GPa) = 25.97025 120.36518 153.93105
#
# Poissons Ratio (x) = -0.07022 0.20656
# Poissons Ratio (y) = -0.01515 0.59750
# Poissons Ratio (z) = 0.03485 0.46721
#
# Static dielectric constant tensor:
#      x y z
#    x 1.785190 0.000000 0.000000 
#    y 0.000000 1.713160 0.000000 
#    z 0.000000 0.000000 1.752910 
# 
# From -- ./inp_files/12718.got.cif
#   From: 2010.05.17/outbox.cif.g08.bks.cpg/sg38_7_cif.got.tgz:12718.got - 2010.06.03 18:07:57.
