data_PCOD9356803
_publ_section_title
;
Structure prediction by ZEFSAII (Michael W. Deem and Ramdas Pophale) SiO2 
 PCOD9356803
Probable space group: A M M 2
;
_chemical_formula_sum "Si O2"
_cell_formula_units_Z 64
_cell_length_a 8.003084
_cell_length_b 21.440025
_cell_length_c 20.254004
_cell_angle_alpha 90.000000
_cell_angle_beta 90.000000
_cell_angle_gamma 90.000000
_cell_volume 3475.310033
_symmetry_space_group_name_H-M "A M M 2"
_symmetry_group_IT_number 38
_symmetry_cell_setting 'orthorhombic'
loop_
_space_group_symop_operation_xyz
x,y,z
-x,-y,z
-x,y,z
x,-y,z
x,1/2+y,1/2+z
-x,1/2-y,1/2+z
-x,1/2+y,1/2+z
x,1/2-y,1/2+z
loop_
_atom_site_type_symbol
_atom_site_label
_atom_site_fract_x
_atom_site_fract_y
_atom_site_fract_z
Si Si1 0.697902 0.931548 0.676160
Si Si2 0.698094 0.254138 0.536619
Si Si3 0.199773 0.735033 0.393481
Si Si4 0.204182 0.879786 0.389873
Si Si5 0.798873 0.068333 0.250857
Si Si6 0.701149 0.311323 0.254713
Si Si7 0.194717 0.111758 0.535066
Si Si8 0.701111 0.309289 0.673533
O O1 0.500000 0.933719 0.689785
O O2 0.766400 0.873184 0.718030
O O3 0.719017 0.917479 0.598515
O O4 0.769251 0.000000 0.691368
O O5 0.500000 0.241952 0.543350
O O6 0.732427 0.283430 0.465202
O O7 0.786948 0.186881 0.539371
O O8 0.753215 0.295760 0.598378
O O9 0.255238 0.807207 0.382739
O O10 0.256112 0.694409 0.331544
O O11 0.000000 0.735140 0.396321
O O12 0.260599 0.916322 0.325270
O O13 0.259791 0.904250 0.461602
O O14 0.000000 0.880731 0.391444
O O15 0.753799 0.125123 0.203490
O O16 0.000000 0.066605 0.253981
O O17 0.738400 0.000000 0.229923
O O18 0.500000 0.311238 0.248042
O O19 0.763673 0.248630 0.218135
O O20 0.000000 0.094746 0.538421
O O21 0.500000 0.307743 0.675212
#
# Coordination Sequence:
#
# PCOD9356803 Si02
#       8
#     8   8   8   8   8   8   8   8
#     4  10  21  37  54  74 106 145 183 223 267 320
#     4  10  19  34  54  78 108 140 173 217 266 315
#     4  10  19  32  52  81 108 135 171 217 267 315
#     4   8  16  30  46  70 103 137 172 205 248 305
#     4  10  20  34  52  74 104 142 178 215 263 314
#     4  10  19  34  54  78 103 137 180 221 266 314
#     4  10  19  31  50  77 108 141 179 220 258 309
#     4  10  20  34  54  78 104 136 178 223 261 303
#
# _framework density 18.415623
#
# number of rings (size 3 to 8) (size 9 to 14) (size 15 to 20)
#    0.000    2.250    2.500    1.875    0.000    2.500 
#    0.000    1.875    0.000    0.750    0.000    1.750 
#    0.000    0.000    0.000    0.000    0.000    0.000 
#
# Total GULP energy -178530.380104 kJ/mol
# GULP energy per Si atom -5579.074378 kJ/mol
# Density = 1.837371 g / cm^3
# Si number density = 18.415623 Si / 1000 Ang^3
#
#
#
# Elastic Constant Matrix: (Units=GPa)
#
#
# Indices 1 2 3 4 5 6 
#
# 1 15.6898 5.9286 0.7521 0.0000 0.0000 0.0000
# 2 5.9286 115.0038 70.1045 0.0000 0.0000 0.0000
# 3 0.7521 70.1045 126.4319 0.0000 0.0000 0.0000
# 4 0.0000 0.0000 0.0000 18.3191 0.0000 0.0000
# 5 0.0000 0.0000 0.0000 0.0000 14.0295 0.0000
# 6 0.0000 0.0000 0.0000 0.0000 0.0000 12.8450
#
#
#
# Elastic Compliance Matrix: (Units=1/GPa)
#
#
# Indices 1 2 3 4 5 6 
#
# 1 0.065418 -0.004736 0.002237 0.000000 0.000000 0.000000
# 2 -0.004736 0.013478 -0.007445 0.000000 0.000000 0.000000
# 3 0.002237 -0.007445 0.012024 0.000000 0.000000 0.000000
# 4 0.000000 0.000000 0.000000 0.054588 0.000000 0.000000
# 5 0.000000 0.000000 0.000000 0.000000 0.071278 0.000000
# 6 0.000000 0.000000 0.000000 0.000000 0.000000 0.077851
#
#
# Mechanical properties :
#
#
# Convention : Reuss Voigt Hill
#
# Bulk Modulus (GPa) = 14.07822 45.63289 29.85555
# Shear Modulus (GPa) = 14.78401 21.06142 17.92272
#
# Velocity S-wave (km/s) = 2.83644 3.38549 3.12305
# Velocity P-wave (km/s) = 4.28818 6.33366 5.40850
#
# Compressibility (1/GPa) = 0.07103173
#
# Stress axis : x y z
#
# Youngs Moduli (GPa) = 15.28632 74.19521 83.16485
#
# Poissons Ratio (x) = 0.35139 -0.18603
# Poissons Ratio (y) = 0.07240 0.61917
# Poissons Ratio (z) = -0.03419 0.55239
#
# Static dielectric constant tensor:
#      x y z
#    x 1.668940 0.000000 0.000000 
#    y 0.000000 1.634780 0.000000 
#    z 0.000000 0.000000 1.637980 
# 
# From -- ./inp_files/17219.got.cif
#   From: 2010.05.17/outbox.cif.g08.bks.cpg/sg38_9_cif.got.tgz:17219.got - 2010.06.03 18:07:57.
