data_PCOD9356750
_publ_section_title
;
Structure prediction by ZEFSAII (Michael W. Deem and Ramdas Pophale) SiO2 
 PCOD9356750
Probable space group: A M M 2
;
_chemical_formula_sum "Si O2"
_cell_formula_units_Z 48
_cell_length_a 8.604855
_cell_length_b 14.190682
_cell_length_c 24.543583
_cell_angle_alpha 90.000000
_cell_angle_beta 90.000000
_cell_angle_gamma 90.000000
_cell_volume 2996.986510
_symmetry_space_group_name_H-M "A M M 2"
_symmetry_group_IT_number 38
_symmetry_cell_setting 'orthorhombic'
loop_
_space_group_symop_operation_xyz
x,y,z
-x,-y,z
-x,y,z
x,-y,z
x,1/2+y,1/2+z
-x,1/2-y,1/2+z
-x,1/2+y,1/2+z
x,1/2-y,1/2+z
loop_
_atom_site_type_symbol
_atom_site_label
_atom_site_fract_x
_atom_site_fract_y
_atom_site_fract_z
Si Si1 0.814202 0.890856 0.683890
Si Si2 0.313860 0.784659 0.580264
Si Si3 0.688324 0.792311 0.912755
Si Si4 0.813647 0.607742 0.519829
Si Si5 0.687188 0.609860 0.302074
Si Si6 0.688987 0.894092 0.471347
O O1 0.746533 0.825342 0.636849
O O2 0.758736 0.862515 0.744179
O O3 0.000000 0.888850 0.681641
O O4 0.762465 0.000000 0.675399
O O5 0.500000 0.781257 0.580673
O O6 0.250226 0.682416 0.563526
O O7 0.265554 0.854796 0.530862
O O8 0.500000 0.796543 0.914776
O O9 0.738231 0.828542 0.853672
O O10 0.736394 0.685790 0.928113
O O11 0.751293 0.858241 0.961064
O O12 0.765707 0.500000 0.530232
O O13 0.000000 0.612286 0.519438
O O14 0.500000 0.615745 0.297982
O O15 0.727442 0.500000 0.312149
O O16 0.500000 0.896693 0.470639
O O17 0.745765 0.000000 0.461911
#
# Coordination Sequence:
#
# PCOD9356750 Si02
#       6
#     8   8   8   8   8   8
#     4  10  20  32  47  69  96 124 155 193 238 287
#     4  10  19  31  49  70  93 123 158 194 232 279
#     4   9  17  29  47  70  94 123 159 196 233 276
#     4  10  20  32  47  69  97 126 154 189 237 288
#     4   9  17  29  45  65  90 121 158 198 237 279
#     4   8  14  25  43  68  94 118 146 183 227 271
#
# _framework density 16.016089000000001
#
# number of rings (size 3 to 8) (size 9 to 14) (size 15 to 20)
#    0.000    2.667    0.000    3.500    0.000    4.333 
#    0.000    1.667    0.000    5.500    0.000    2.333 
#    0.000    0.000    0.000    0.000    0.000    0.000 
#
# Total GULP energy -133802.579961 kJ/mol
# GULP energy per Si atom -5575.107498 kJ/mol
# Density = 1.597964 g / cm^3
# Si number density = 16.016089 Si / 1000 Ang^3
#
#
#
# Elastic Constant Matrix: (Units=GPa)
#
#
# Indices 1 2 3 4 5 6 
#
# 1 24.2629 32.6921 33.9571 0.0000 0.0000 0.0000
# 2 32.6921 143.5090 97.5543 0.0000 0.0000 0.0000
# 3 33.9571 97.5543 150.1929 0.0000 0.0000 0.0000
# 4 0.0000 0.0000 0.0000 23.4483 0.0000 0.0000
# 5 0.0000 0.0000 0.0000 0.0000 10.4730 0.0000
# 6 0.0000 0.0000 0.0000 0.0000 0.0000 17.5360
#
#
#
# Elastic Compliance Matrix: (Units=1/GPa)
#
#
# Indices 1 2 3 4 5 6 
#
# 1 0.065902 -0.008746 -0.009219 0.000000 0.000000 0.000000
# 2 -0.008746 0.013638 -0.006881 0.000000 0.000000 0.000000
# 3 -0.009219 -0.006881 0.013212 0.000000 0.000000 0.000000
# 4 0.000000 0.000000 0.000000 0.042647 0.000000 0.000000
# 5 0.000000 0.000000 0.000000 0.000000 0.095484 0.000000
# 6 0.000000 0.000000 0.000000 0.000000 0.000000 0.057026
#
#
# Mechanical properties :
#
#
# Convention : Reuss Voigt Hill
#
# Bulk Modulus (GPa) = 23.22340 71.81907 47.52123
# Shear Modulus (GPa) = 14.20643 20.54221 17.37432
#
# Velocity S-wave (km/s) = 2.98150 3.58522 3.29721
# Velocity P-wave (km/s) = 5.13654 7.87893 6.65062
#
# Compressibility (1/GPa) = 0.04306002
#
# Stress axis : x y z
#
# Youngs Moduli (GPa) = 15.17408 73.32414 75.68987
#
# Poissons Ratio (x) = 0.64128 0.69779
# Poissons Ratio (y) = 0.13271 0.52082
# Poissons Ratio (z) = 0.13989 0.50454
#
# Static dielectric constant tensor:
#      x y z
#    x 1.535470 0.000000 0.000000 
#    y 0.000000 1.538730 0.000000 
#    z 0.000000 0.000000 1.511660 
# 
# From -- ./inp_files/19622.got.cif
#   From: 2010.05.17/outbox.cif.g08.bks.cpg/sg38_10_cif.got.tgz:19622.got - 2010.06.03 18:07:57.
