data_PCOD9356736
_publ_section_title
;
Structure prediction by ZEFSAII (Michael W. Deem and Ramdas Pophale) SiO2 
 PCOD9356736
Probable space group: A M M 2
;
_chemical_formula_sum "Si O2"
_cell_formula_units_Z 48
_cell_length_a 22.037504
_cell_length_b 7.637233
_cell_length_c 14.642719
_cell_angle_alpha 90.000000
_cell_angle_beta 90.000000
_cell_angle_gamma 90.000000
_cell_volume 2464.450916
_symmetry_space_group_name_H-M "A M M 2"
_symmetry_group_IT_number 38
_symmetry_cell_setting 'orthorhombic'
loop_
_space_group_symop_operation_xyz
x,y,z
-x,-y,z
-x,y,z
x,-y,z
x,1/2+y,1/2+z
-x,1/2-y,1/2+z
-x,1/2+y,1/2+z
x,1/2-y,1/2+z
loop_
_atom_site_type_symbol
_atom_site_label
_atom_site_fract_x
_atom_site_fract_y
_atom_site_fract_z
Si Si1 0.832785 0.210250 0.125000
Si Si2 0.264662 0.289904 0.479335
Si Si3 0.931254 0.289284 0.977710
Si Si4 0.166403 0.289046 0.831616
Si Si5 0.599094 0.708158 0.467093
Si Si6 0.500000 0.290717 0.115536
Si Si7 0.500000 0.284856 0.324100
O O1 0.894233 0.247581 0.069520
O O2 0.833434 0.277625 0.228236
O O3 0.826511 0.000000 0.129589
O O4 0.777228 0.277923 0.062473
O O5 0.268010 0.500000 0.490337
O O6 0.227349 0.253987 0.387096
O O7 0.333052 0.219988 0.475884
O O8 0.933712 0.500000 0.970519
O O9 0.000000 0.222740 0.977296
O O10 0.889692 0.224115 0.893685
O O11 0.161554 0.500000 0.828232
O O12 0.604726 0.500000 0.453052
O O13 0.558709 0.734846 0.557424
O O14 0.558689 0.774069 0.382157
O O15 0.500000 0.500000 0.118290
O O16 0.500000 0.226234 0.219555
O O17 0.500000 0.500000 0.324658
#
# Coordination Sequence:
#
# PCOD9356736 Si02
#       7
#     8   8   8   8   8   4   4
#     4   9  18  32  49  71  97 124 156 195 238 281
#     4   9  18  32  50  71  95 124 159 194 229 278
#     4   9  18  32  48  67  92 123 159 195 232 280
#     4   9  18  32  49  69  96 126 154 191 238 282
#     4   9  18  34  51  67  94 130 158 186 234 288
#     4  10  19  31  48  71  94 117 155 202 234 268
#     4   8  16  31  48  65  90 123 155 186 228 280
#
# _framework density 19.476956000000001
#
# number of rings (size 3 to 8) (size 9 to 14) (size 15 to 20)
#    0.000    3.000    0.000    0.750    0.000    3.667 
#    0.000    5.000    0.000    0.000    0.000    0.000 
#    0.000    0.000    0.000    0.000    0.000    0.000 
#
# Total GULP energy -133835.559984 kJ/mol
# GULP energy per Si atom -5576.481666 kJ/mol
# Density = 1.943263 g / cm^3
# Si number density = 19.476956 Si / 1000 Ang^3
#
#
#
# Elastic Constant Matrix: (Units=GPa)
#
#
# Indices 1 2 3 4 5 6 
#
# 1 212.7177 2.4318 114.5315 0.0000 0.0000 0.0000
# 2 2.4318 32.5873 -2.3840 0.0000 0.0000 0.0000
# 3 114.5315 -2.3840 193.4827 0.0000 0.0000 0.0000
# 4 0.0000 0.0000 0.0000 8.1995 0.0000 0.0000
# 5 0.0000 0.0000 0.0000 0.0000 10.7553 0.0000
# 6 0.0000 0.0000 0.0000 0.0000 0.0000 16.1373
#
#
#
# Elastic Compliance Matrix: (Units=1/GPa)
#
#
# Indices 1 2 3 4 5 6 
#
# 1 0.006922 -0.000817 -0.004108 0.000000 0.000000 0.000000
# 2 -0.000817 0.030811 0.000863 0.000000 0.000000 0.000000
# 3 -0.004108 0.000863 0.007610 0.000000 0.000000 0.000000
# 4 0.000000 0.000000 0.000000 0.121959 0.000000 0.000000
# 5 0.000000 0.000000 0.000000 0.000000 0.092978 0.000000
# 6 0.000000 0.000000 0.000000 0.000000 0.000000 0.061968
#
#
# Mechanical properties :
#
#
# Convention : Reuss Voigt Hill
#
# Bulk Modulus (GPa) = 26.86663 74.21625 50.54144
# Shear Modulus (GPa) = 14.58670 28.63231 21.60951
#
# Velocity S-wave (km/s) = 2.73961 3.83830 3.33452
# Velocity P-wave (km/s) = 4.88173 7.60465 6.38992
#
# Compressibility (1/GPa) = 0.03722090
#
# Stress axis : x y z
#
# Youngs Moduli (GPa) = 144.46752 32.45597 131.39770
#
# Poissons Ratio (x) = 0.02652 0.53972
# Poissons Ratio (y) = 0.11804 -0.11343
# Poissons Ratio (z) = 0.59340 -0.02802
#
# Static dielectric constant tensor:
#      x y z
#    x 1.657410 0.000000 0.000000 
#    y 0.000000 1.727370 0.000000 
#    z 0.000000 0.000000 1.663040 
# 
# From -- ./inp_files/15018.got.cif
#   From: 2010.05.17/outbox.cif.g08.bks.cpg/sg38_8_cif.got.tgz:15018.got - 2010.06.03 18:07:57.
