data_PCOD9356685
_publ_section_title
;
Structure prediction by ZEFSAII (Michael W. Deem and Ramdas Pophale) SiO2 
 PCOD9356685
Probable space group: A M M 2
;
_chemical_formula_sum "Si O2"
_cell_formula_units_Z 56
_cell_length_a 9.534009
_cell_length_b 20.857770
_cell_length_c 14.440733
_cell_angle_alpha 90.000000
_cell_angle_beta 90.000000
_cell_angle_gamma 90.000000
_cell_volume 2871.657693
_symmetry_space_group_name_H-M "A M M 2"
_symmetry_group_IT_number 38
_symmetry_cell_setting 'orthorhombic'
loop_
_space_group_symop_operation_xyz
x,y,z
-x,-y,z
-x,y,z
x,-y,z
x,1/2+y,1/2+z
-x,1/2-y,1/2+z
-x,1/2+y,1/2+z
x,1/2-y,1/2+z
loop_
_atom_site_type_symbol
_atom_site_label
_atom_site_fract_x
_atom_site_fract_y
_atom_site_fract_z
Si Si1 0.663528 0.254929 0.454350
Si Si2 0.166012 0.572734 0.248255
Si Si3 0.156581 0.424986 0.962038
Si Si4 0.333536 0.849022 0.607505
Si Si5 0.336530 0.137276 0.315502
Si Si6 0.835247 0.884117 0.955259
Si Si7 0.662166 0.072443 0.128329
O O1 0.500000 0.274366 0.454561
O O2 0.690340 0.217515 0.551765
O O3 0.681312 0.205210 0.368256
O O4 0.763869 0.314828 0.445119
O O5 0.208200 0.500000 0.219505
O O6 0.252501 0.629914 0.199872
O O7 0.182712 0.578983 0.358407
O O8 0.000000 0.579610 0.225919
O O9 0.145761 0.500000 0.973030
O O10 0.222654 0.407612 0.863812
O O11 0.000000 0.396684 0.974396
O O12 0.268248 0.398778 0.034646
O O13 0.500000 0.855449 0.619900
O O14 0.500000 0.118413 0.334143
O O15 0.316309 0.126966 0.206345
O O16 0.000000 0.877784 0.972608
O O17 0.761200 0.918168 0.041169
O O18 0.500000 0.077470 0.098200
O O19 0.680286 0.000000 0.167437
#
# Coordination Sequence:
#
# PCOD9356685 Si02
#       7
#     8   8   8   8   8   8   8
#     4   9  20  39  59  83 116 150 186 230 283 339
#     4  10  22  40  59  82 115 151 187 234 290 339
#     4  10  19  30  48  78 115 151 184 224 278 337
#     4  10  21  36  57  84 112 146 188 234 282 336
#     4   9  19  36  58  83 112 147 186 232 283 335
#     4  11  24  40  59  82 113 154 196 239 283 334
#     4  10  21  38  61  88 117 150 189 235 287 339
#
# _framework density 19.500931999999999
#
# number of rings (size 3 to 8) (size 9 to 14) (size 15 to 20)
#    0.000    2.143    0.000    3.429    0.000   10.286 
#    0.000    4.286    0.000    0.000    0.000    0.000 
#    0.000    0.000    0.000    0.000    0.000    0.000 
#
# Total GULP energy -156134.952688 kJ/mol
# GULP energy per Si atom -5576.248310 kJ/mol
# Density = 1.945655 g / cm^3
# Si number density = 19.500932 Si / 1000 Ang^3
#
#
#
# Elastic Constant Matrix: (Units=GPa)
#
#
# Indices 1 2 3 4 5 6 
#
# 1 51.8428 34.0171 41.0475 0.0000 0.0000 0.0000
# 2 34.0171 61.2184 19.4749 0.0000 0.0000 0.0000
# 3 41.0475 19.4749 79.5947 0.0000 0.0000 0.0000
# 4 0.0000 0.0000 0.0000 22.8490 0.0000 0.0000
# 5 0.0000 0.0000 0.0000 0.0000 43.2389 0.0000
# 6 0.0000 0.0000 0.0000 0.0000 0.0000 27.3688
#
#
#
# Elastic Compliance Matrix: (Units=1/GPa)
#
#
# Indices 1 2 3 4 5 6 
#
# 1 0.048796 -0.020722 -0.020094 0.000000 0.000000 0.000000
# 2 -0.020722 0.026514 0.004199 0.000000 0.000000 0.000000
# 3 -0.020094 0.004199 0.021899 0.000000 0.000000 0.000000
# 4 0.000000 0.000000 0.000000 0.043766 0.000000 0.000000
# 5 0.000000 0.000000 0.000000 0.000000 0.023127 0.000000
# 6 0.000000 0.000000 0.000000 0.000000 0.000000 0.036538
#
#
# Mechanical properties :
#
#
# Convention : Reuss Voigt Hill
#
# Bulk Modulus (GPa) = 41.71086 42.41497 42.06291
# Shear Modulus (GPa) = 17.73904 25.23243 21.48574
#
# Velocity S-wave (km/s) = 3.01931 3.60100 3.32291
# Velocity P-wave (km/s) = 5.79574 6.25196 6.02817
#
# Compressibility (1/GPa) = 0.02397457
#
# Stress axis : x y z
#
# Youngs Moduli (GPa) = 20.49359 37.71655 45.66447
#
# Poissons Ratio (x) = 0.78156 0.91759
# Poissons Ratio (y) = 0.42466 -0.19175
# Poissons Ratio (z) = 0.41180 -0.15838
#
# Static dielectric constant tensor:
#      x y z
#    x 1.663660 0.000000 0.000000 
#    y 0.000000 1.684810 0.000000 
#    z 0.000000 0.000000 1.733000 
# 
# From -- ./inp_files/12389.got.cif
#   From: 2010.05.17/outbox.cif.g08.bks.cpg/sg38_7_cif.got.tgz:12389.got - 2010.06.03 18:07:57.
