data_PCOD9356773
_publ_section_title
;
Structure prediction by ZEFSAII (Michael W. Deem and Ramdas Pophale) SiO2 
 PCOD9356773
Probable space group: A M M 2
;
_chemical_formula_sum "Si O2"
_cell_formula_units_Z 64
_cell_length_a 9.853675
_cell_length_b 19.521573
_cell_length_c 18.871437
_cell_angle_alpha 90.000000
_cell_angle_beta 90.000000
_cell_angle_gamma 90.000000
_cell_volume 3630.095200
_symmetry_space_group_name_H-M "A M M 2"
_symmetry_group_IT_number 38
_symmetry_cell_setting 'orthorhombic'
loop_
_space_group_symop_operation_xyz
x,y,z
-x,-y,z
-x,y,z
x,-y,z
x,1/2+y,1/2+z
-x,1/2-y,1/2+z
-x,1/2+y,1/2+z
x,1/2-y,1/2+z
loop_
_atom_site_type_symbol
_atom_site_label
_atom_site_fract_x
_atom_site_fract_y
_atom_site_fract_z
Si Si1 0.837709 0.424269 0.275080
Si Si2 0.156724 0.104447 0.931136
Si Si3 0.279718 0.576488 0.583575
Si Si4 0.651752 0.805902 0.728955
Si Si5 0.840966 0.766124 0.453360
Si Si6 0.153301 0.419850 0.735762
Si Si7 0.352559 0.267673 0.578753
Si Si8 0.339461 0.676980 0.830844
O O1 0.812783 0.500000 0.245837
O O2 0.787394 0.422137 0.356785
O O3 0.762425 0.364472 0.234487
O O4 0.000000 0.412577 0.276306
O O5 0.163815 0.186974 0.927323
O O6 0.000000 0.084186 0.934388
O O7 0.220411 0.078868 0.004145
O O8 0.342744 0.500000 0.592369
O O9 0.178348 0.582787 0.650823
O O10 0.353585 0.649838 0.586311
O O11 0.500000 0.835754 0.734042
O O12 0.661474 0.764768 0.655825
O O13 0.666581 0.749970 0.790712
O O14 0.767685 0.759297 0.529239
O O15 0.750408 0.812944 0.401553
O O16 0.000000 0.786133 0.456324
O O17 0.162369 0.500000 0.755510
O O18 0.265076 0.376981 0.778765
O O19 0.000000 0.394974 0.750998
O O20 0.500000 0.247734 0.548053
O O21 0.500000 0.661155 0.842228
#
# Coordination Sequence:
#
# PCOD9356773 Si02
#       8
#     8   8   8   8   8   8   8   8
#     4  10  20  34  54  80 109 142 180 226 277 324
#     4   9  17  30  48  73 108 146 180 216 261 316
#     4  10  19  31  49  76 112 152 190 227 267 316
#     4  10  21  37  55  78 109 146 185 224 270 321
#     4  10  20  35  57  84 107 139 182 227 276 324
#     4  10  21  35  53  80 113 150 192 237 281 326
#     4  10  21  38  55  78 111 147 185 228 274 327
#     4  11  21  36  57  81 110 148 186 229 278 328
#
# _framework density 17.630392000000001
#
# number of rings (size 3 to 8) (size 9 to 14) (size 15 to 20)
#    0.000    2.000    2.500    1.500    0.000    3.500 
#    0.000    1.250    0.000    2.250    0.000    3.500 
#    0.000    0.000    0.000    0.000    0.000    0.000 
#
# Total GULP energy -178248.425889 kJ/mol
# GULP energy per Si atom -5570.263309 kJ/mol
# Density = 1.759026 g / cm^3
# Si number density = 17.630392 Si / 1000 Ang^3
#
#
#
# Elastic Constant Matrix: (Units=GPa)
#
#
# Indices 1 2 3 4 5 6 
#
# 1 116.6929 45.9970 44.2988 0.0000 0.0000 0.0000
# 2 45.9970 72.3785 29.8433 0.0000 0.0000 0.0000
# 3 44.2988 29.8433 59.4257 0.0000 0.0000 0.0000
# 4 0.0000 0.0000 0.0000 23.4206 0.0000 0.0000
# 5 0.0000 0.0000 0.0000 0.0000 19.0710 0.0000
# 6 0.0000 0.0000 0.0000 0.0000 0.0000 34.1150
#
#
#
# Elastic Compliance Matrix: (Units=1/GPa)
#
#
# Indices 1 2 3 4 5 6 
#
# 1 0.013542 -0.005604 -0.007281 0.000000 0.000000 0.000000
# 2 -0.005604 0.019743 -0.005737 0.000000 0.000000 0.000000
# 3 -0.007281 -0.005737 0.025136 0.000000 0.000000 0.000000
# 4 0.000000 0.000000 0.000000 0.042697 0.000000 0.000000
# 5 0.000000 0.000000 0.000000 0.000000 0.052436 0.000000
# 6 0.000000 0.000000 0.000000 0.000000 0.000000 0.029313
#
#
# Mechanical properties :
#
#
# Convention : Reuss Voigt Hill
#
# Bulk Modulus (GPa) = 47.21982 54.30836 50.76409
# Shear Modulus (GPa) = 22.00974 23.87852 22.94413
#
# Velocity S-wave (km/s) = 3.53710 3.68420 3.61140
# Velocity P-wave (km/s) = 6.59718 6.99775 6.80041
#
# Compressibility (1/GPa) = 0.02117755
#
# Stress axis : x y z
#
# Youngs Moduli (GPa) = 73.84182 50.64964 39.78292
#
# Poissons Ratio (x) = 0.28386 0.28965
# Poissons Ratio (y) = 0.41383 0.22825
# Poissons Ratio (z) = 0.53762 0.29059
#
# Static dielectric constant tensor:
#      x y z
#    x 1.617780 0.000000 0.000000 
#    y 0.000000 1.598170 0.000000 
#    z 0.000000 0.000000 1.588400 
# 
# From -- ./inp_files/17233.got.cif
#   From: 2010.05.17/outbox.cif.g08.bks.cpg/sg38_9_cif.got.tgz:17233.got - 2010.06.03 18:07:57.
