data_PCOD9356228
_publ_section_title
;
Structure prediction by ZEFSAII (Michael W. Deem and Ramdas Pophale) SiO2 
 PCOD9356228
Probable space group: A M M 2
;
_chemical_formula_sum "Si O2"
_cell_formula_units_Z 56
_cell_length_a 7.707688
_cell_length_b 16.516435
_cell_length_c 20.346313
_cell_angle_alpha 90.000000
_cell_angle_beta 90.000000
_cell_angle_gamma 90.000000
_cell_volume 2590.157424
_symmetry_space_group_name_H-M "A M M 2"
_symmetry_group_IT_number 38
_symmetry_cell_setting 'orthorhombic'
loop_
_space_group_symop_operation_xyz
x,y,z
-x,-y,z
-x,y,z
x,-y,z
x,1/2+y,1/2+z
-x,1/2-y,1/2+z
-x,1/2+y,1/2+z
x,1/2-y,1/2+z
loop_
_atom_site_type_symbol
_atom_site_label
_atom_site_fract_x
_atom_site_fract_y
_atom_site_fract_z
Si Si1 0.291124 0.877200 0.944340
Si Si2 0.803201 0.245380 0.626225
Si Si3 0.290115 0.191316 0.415015
Si Si4 0.202341 0.085673 0.087026
Si Si5 0.200192 0.913169 0.801109
Si Si6 0.292640 0.591985 0.040975
Si Si7 0.696617 0.237697 0.271999
O O1 0.500000 0.888119 0.942940
O O2 0.253545 0.780967 0.942542
O O3 0.209406 0.914352 0.879561
O O4 0.213057 0.914852 0.008914
O O5 0.711865 0.327797 0.602256
O O6 0.735918 0.159958 0.597789
O O7 0.799260 0.260778 0.704201
O O8 0.000000 0.246197 0.601628
O O9 0.500000 0.183962 0.410854
O O10 0.228120 0.127822 0.470300
O O11 0.231555 0.194153 0.338153
O O12 0.000000 0.088025 0.108314
O O13 0.276316 0.000000 0.112239
O O14 0.308476 0.833769 0.786095
O O15 0.000000 0.901779 0.780056
O O16 0.262095 0.000000 0.774930
O O17 0.500000 0.586561 0.034565
O O18 0.227689 0.500000 0.054008
O O19 0.500000 0.208355 0.260698
#
# Coordination Sequence:
#
# PCOD9356228 Si02
#       7
#     8   8   8   8   8   8   8
#     4  10  18  30  52  80 112 144 177 224 277 332
#     4  11  23  39  58  83 117 156 195 244 298 354
#     4   8  16  33  55  82 111 141 183 234 284 338
#     4  10  21  36  54  78 109 146 187 231 284 343
#     4  10  20  33  50  76 111 146 182 226 277 339
#     4  10  20  37  63  90 118 156 199 246 301 359
#     4  10  21  37  58  80 109 151 194 242 296 351
#
# _framework density 21.620308999999999
#
# number of rings (size 3 to 8) (size 9 to 14) (size 15 to 20)
#    0.000    2.143    1.429    3.000    0.000    4.571 
#    0.000    1.429    0.000    0.857    0.000    0.000 
#    0.000    0.000    0.000    0.000    0.000    0.000 
#
# Total GULP energy -155926.530547 kJ/mol
# GULP energy per Si atom -5568.804662 kJ/mol
# Density = 2.157110 g / cm^3
# Si number density = 21.620309 Si / 1000 Ang^3
#
#
#
# Elastic Constant Matrix: (Units=GPa)
#
#
# Indices 1 2 3 4 5 6 
#
# 1 50.3234 12.6322 -5.7513 0.0000 0.0000 0.0000
# 2 12.6322 133.1328 34.3697 0.0000 0.0000 0.0000
# 3 -5.7513 34.3697 85.3628 0.0000 0.0000 0.0000
# 4 0.0000 0.0000 0.0000 34.3948 0.0000 0.0000
# 5 0.0000 0.0000 0.0000 0.0000 17.1466 0.0000
# 6 0.0000 0.0000 0.0000 0.0000 0.0000 9.8320
#
#
#
# Elastic Compliance Matrix: (Units=1/GPa)
#
#
# Indices 1 2 3 4 5 6 
#
# 1 0.020806 -0.002607 0.002451 0.000000 0.000000 0.000000
# 2 -0.002607 0.008709 -0.003682 0.000000 0.000000 0.000000
# 3 0.002451 -0.003682 0.013362 0.000000 0.000000 0.000000
# 4 0.000000 0.000000 0.000000 0.029074 0.000000 0.000000
# 5 0.000000 0.000000 0.000000 0.000000 0.058321 0.000000
# 6 0.000000 0.000000 0.000000 0.000000 0.000000 0.101709
#
#
# Mechanical properties :
#
#
# Convention : Reuss Voigt Hill
#
# Bulk Modulus (GPa) = 28.40734 39.03557 33.72146
# Shear Modulus (GPa) = 19.88932 27.44591 23.66761
#
# Velocity S-wave (km/s) = 3.03634 3.56680 3.31220
# Velocity P-wave (km/s) = 5.04581 5.92089 5.50078
#
# Compressibility (1/GPa) = 0.03520216
#
# Stress axis : x y z
#
# Youngs Moduli (GPa) = 48.06288 114.82004 74.83646
#
# Poissons Ratio (x) = 0.29934 -0.18346
# Poissons Ratio (y) = 0.12530 0.27557
# Poissons Ratio (z) = -0.11783 0.42280
#
# Static dielectric constant tensor:
#      x y z
#    x 1.785440 0.000000 0.000000 
#    y 0.000000 1.876590 0.000000 
#    z 0.000000 0.000000 1.827370 
# 
# From -- ./inp_files/19803.got.cif
#   From: 2010.05.17/outbox.cif.g08.bks.cpg/sg38_10_cif.got.tgz:19803.got - 2010.06.03 18:07:57.
