data_PCOD9356676
_publ_section_title
;
Structure prediction by ZEFSAII (Michael W. Deem and Ramdas Pophale) SiO2 
 PCOD9356676
Probable space group: A M M 2
;
_chemical_formula_sum "Si O2"
_cell_formula_units_Z 56
_cell_length_a 16.253330
_cell_length_b 7.532215
_cell_length_c 20.659559
_cell_angle_alpha 90.000000
_cell_angle_beta 90.000000
_cell_angle_gamma 90.000000
_cell_volume 2529.217092
_symmetry_space_group_name_H-M "A M M 2"
_symmetry_group_IT_number 38
_symmetry_cell_setting 'orthorhombic'
loop_
_space_group_symop_operation_xyz
x,y,z
-x,-y,z
-x,y,z
x,-y,z
x,1/2+y,1/2+z
-x,1/2-y,1/2+z
-x,1/2+y,1/2+z
x,1/2-y,1/2+z
loop_
_atom_site_type_symbol
_atom_site_label
_atom_site_fract_x
_atom_site_fract_y
_atom_site_fract_z
Si Si1 0.311990 0.714061 0.945360
Si Si2 0.731667 0.719034 0.663730
Si Si3 0.869173 0.713689 0.983220
Si Si4 0.272542 0.704489 0.805379
Si Si5 0.409388 0.289765 0.567060
Si Si6 0.912004 0.706222 0.626803
Si Si7 0.911198 0.707730 0.337505
O O1 0.309056 0.500000 0.942156
O O2 0.226335 0.770721 0.978851
O O3 0.308761 0.782891 0.871711
O O4 0.385444 0.765761 0.992088
O O5 0.734025 0.500000 0.662266
O O6 0.706411 0.779178 0.735461
O O7 0.665481 0.780107 0.610881
O O8 0.824874 0.781835 0.650194
O O9 0.873842 0.500000 0.985253
O O10 0.907770 0.773152 0.915471
O O11 0.907496 0.784946 0.048778
O O12 0.299300 0.500000 0.804039
O O13 0.172962 0.707442 0.812231
O O14 0.500000 0.215893 0.580742
O O15 0.412405 0.500000 0.579740
O O16 0.912653 0.500000 0.646503
O O17 0.000000 0.785694 0.647465
O O18 0.907156 0.500000 0.321271
O O19 0.000000 0.778974 0.315190
#
# Coordination Sequence:
#
# PCOD9356676 Si02
#       7
#     8   8   8   8   8   8   8
#     4   9  18  33  53  79 107 135 172 217 269 322
#     4   9  18  35  55  78 110 142 177 222 264 313
#     4  10  19  31  49  74 104 139 180 225 271 316
#     4   9  19  35  55  77 104 142 182 220 268 322
#     4  10  20  35  59  86 107 135 176 219 268 325
#     4  10  19  30  48  75 106 143 182 218 265 318
#     4  10  20  32  47  71 104 141 183 228 272 318
#
# _framework density 22.141238000000001
#
# number of rings (size 3 to 8) (size 9 to 14) (size 15 to 20)
#    0.000    2.429    1.429    2.143    0.000    6.286 
#    0.000    3.571    0.000    2.571    0.000    0.000 
#    0.000    0.000    0.000    0.000    0.000    0.000 
#
# Total GULP energy -156304.730269 kJ/mol
# GULP energy per Si atom -5582.311795 kJ/mol
# Density = 2.209084 g / cm^3
# Si number density = 22.141238 Si / 1000 Ang^3
#
#
#
# Elastic Constant Matrix: (Units=GPa)
#
#
# Indices 1 2 3 4 5 6 
#
# 1 131.7520 5.2785 58.4747 0.0000 0.0000 0.0000
# 2 5.2785 60.7397 -6.8420 0.0000 0.0000 0.0000
# 3 58.4747 -6.8420 125.0165 0.0000 0.0000 0.0000
# 4 0.0000 0.0000 0.0000 9.7320 0.0000 0.0000
# 5 0.0000 0.0000 0.0000 0.0000 11.9664 0.0000
# 6 0.0000 0.0000 0.0000 0.0000 0.0000 -1.6818
#
#
#
# Elastic Compliance Matrix: (Units=1/GPa)
#
#
# Indices 1 2 3 4 5 6 
#
# 1 0.009689 -0.001361 -0.004606 0.000000 0.000000 0.000000
# 2 -0.001361 0.016757 0.001554 0.000000 0.000000 0.000000
# 3 -0.004606 0.001554 0.010239 0.000000 0.000000 0.000000
# 4 0.000000 0.000000 0.000000 0.102753 0.000000 0.000000
# 5 0.000000 0.000000 0.000000 0.000000 0.083568 0.000000
# 6 0.000000 0.000000 0.000000 0.000000 0.000000 -0.594611
#
#
# Mechanical properties :
#
#
# Convention : Reuss Voigt Hill
#
# Bulk Modulus (GPa) = 35.89733 47.92562 41.91148
# Shear Modulus (GPa) = -14.14457 21.37645 3.61594
#
# Velocity S-wave (km/s) = -2.53026 3.11055 1.27932
# Velocity P-wave (km/s) = 2.77701 5.88159 4.59918
#
# Compressibility (1/GPa) = 0.02785722
#
# Stress axis : x y z
#
# Youngs Moduli (GPa) = 103.21031 59.67667 97.67024
#
# Poissons Ratio (x) = 0.08121 0.44990
# Poissons Ratio (y) = 0.14046 -0.15174
# Poissons Ratio (z) = 0.47542 -0.09271
#
# Static dielectric constant tensor:
#      x y z
#    x 1.816720 0.000000 0.000000 
#    y 0.000000 1.829660 0.000000 
#    z 0.000000 0.000000 1.810650 
# 
# From -- ./inp_files/21086.got.cif
#   From: 2010.05.17/outbox.cif.g08.bks.cpg/sg38_11_cif.got.tgz:21086.got - 2010.06.03 18:07:57.
