data_PCOD9356801
_publ_section_title
;
Structure prediction by ZEFSAII (Michael W. Deem and Ramdas Pophale) SiO2 
 PCOD9356801
Probable space group: A M M 2
;
_chemical_formula_sum "Si O2"
_cell_formula_units_Z 48
_cell_length_a 29.432426
_cell_length_b 14.412112
_cell_length_c 5.181182
_cell_angle_alpha 90.000000
_cell_angle_beta 90.000000
_cell_angle_gamma 90.000000
_cell_volume 2197.771500
_symmetry_space_group_name_H-M "A M M 2"
_symmetry_group_IT_number 38
_symmetry_cell_setting 'orthorhombic'
loop_
_space_group_symop_operation_xyz
x,y,z
-x,-y,z
-x,y,z
x,-y,z
x,1/2+y,1/2+z
-x,1/2-y,1/2+z
-x,1/2+y,1/2+z
x,1/2-y,1/2+z
loop_
_atom_site_type_symbol
_atom_site_label
_atom_site_fract_x
_atom_site_fract_y
_atom_site_fract_z
Si Si1 0.500000 0.813392 0.788440
Si Si2 0.746474 0.386408 0.791777
Si Si3 0.693289 0.388838 0.294518
Si Si4 0.000000 0.804502 0.650318
Si Si5 0.849565 0.886599 0.287133
Si Si6 0.096540 0.888532 0.790772
Si Si7 0.404478 0.189909 0.668605
O O1 0.500000 0.729089 0.576333
O O2 0.548100 0.862060 0.732379
O O3 0.747329 0.500000 0.788046
O O4 0.711788 0.355680 0.569658
O O5 0.727370 0.358314 0.068909
O O6 0.797973 0.355132 0.745026
O O7 0.694956 0.500000 0.300184
O O8 0.642199 0.360938 0.228921
O O9 0.000000 0.783278 0.345733
O O10 0.046133 0.856275 0.725294
O O11 0.883995 0.855622 0.064160
O O12 0.848683 0.000000 0.279555
O O13 0.868985 0.860133 0.564718
O O14 0.096171 0.000000 0.796786
O O15 0.405088 0.224670 0.373819
#
# Coordination Sequence:
#
# PCOD9356801 Si02
#       7
#     4   8   8   4   8   8   8
#     4   8  16  30  49  70  91 126 170 210 252 300
#     4   9  17  30  50  77 106 134 166 205 251 301
#     4  10  19  31  50  76 105 135 167 205 251 303
#     4  12  25  40  57  78 110 144 168 198 257 320
#     4   9  17  31  55  82 103 129 170 216 251 285
#     4  10  20  36  59  83 103 129 174 220 248 283
#     4  10  19  33  52  72  98 131 171 213 254 302
#
# _framework density 21.840306999999999
#
# number of rings (size 3 to 8) (size 9 to 14) (size 15 to 20)
#    0.000    2.333    0.000    3.250    0.000    4.000 
#    0.000    3.750    0.000   20.000    0.000   10.500 
#    0.000    0.000    0.000    0.000    0.000    0.000 
#
# Total GULP energy -134112.659721 kJ/mol
# GULP energy per Si atom -5588.027488 kJ/mol
# Density = 2.179060 g / cm^3
# Si number density = 21.840307 Si / 1000 Ang^3
#
#
#
# Elastic Constant Matrix: (Units=GPa)
#
#
# Indices 1 2 3 4 5 6 
#
# 1 118.9182 -2.7106 -10.0576 0.0000 0.0000 0.0000
# 2 -2.7106 44.7783 -13.0811 0.0000 0.0000 0.0000
# 3 -10.0576 -13.0811 77.7887 0.0000 0.0000 0.0000
# 4 0.0000 0.0000 0.0000 6.2971 0.0000 0.0000
# 5 0.0000 0.0000 0.0000 0.0000 39.5389 0.0000
# 6 0.0000 0.0000 0.0000 0.0000 0.0000 27.2632
#
#
#
# Elastic Compliance Matrix: (Units=1/GPa)
#
#
# Indices 1 2 3 4 5 6 
#
# 1 0.008535 0.000882 0.001252 0.000000 0.000000 0.000000
# 2 0.000882 0.023577 0.004079 0.000000 0.000000 0.000000
# 3 0.001252 0.004079 0.013703 0.000000 0.000000 0.000000
# 4 0.000000 0.000000 0.000000 0.158804 0.000000 0.000000
# 5 0.000000 0.000000 0.000000 0.000000 0.025292 0.000000
# 6 0.000000 0.000000 0.000000 0.000000 0.000000 0.036679
#
#
# Mechanical properties :
#
#
# Convention : Reuss Voigt Hill
#
# Bulk Modulus (GPa) = 17.16978 21.08740 19.12859
# Shear Modulus (GPa) = 18.27630 32.44215 25.35922
#
# Velocity S-wave (km/s) = 2.89591 3.85830 3.41122
# Velocity P-wave (km/s) = 4.36581 5.43368 4.92875
#
# Compressibility (1/GPa) = 0.05824187
#
# Stress axis : x y z
#
# Youngs Moduli (GPa) = 117.16276 42.41383 72.97612
#
# Poissons Ratio (x) = -0.03743 -0.09136
# Poissons Ratio (y) = -0.10338 -0.29766
# Poissons Ratio (z) = -0.14668 -0.17300
#
# Static dielectric constant tensor:
#      x y z
#    x 1.775010 0.000000 0.000000 
#    y 0.000000 1.827650 0.000000 
#    z 0.000000 0.000000 1.757640 
# 
# From -- ./inp_files/2209.got.cif
#   From: 2010.05.17/outbox.cif.g08.bks.cpg/sg38_2_cif.got.tgz:2209.got - 2010.06.03 18:07:57.
