data_PCOD9356837
_publ_section_title
;
Structure prediction by ZEFSAII (Michael W. Deem and Ramdas Pophale) SiO2 
 PCOD9356837
Probable space group: A M M 2
;
_chemical_formula_sum "Si O2"
_cell_formula_units_Z 64
_cell_length_a 8.763899
_cell_length_b 21.236388
_cell_length_c 20.148338
_cell_angle_alpha 90.000000
_cell_angle_beta 90.000000
_cell_angle_gamma 90.000000
_cell_volume 3749.878904
_symmetry_space_group_name_H-M "A M M 2"
_symmetry_group_IT_number 38
_symmetry_cell_setting 'orthorhombic'
loop_
_space_group_symop_operation_xyz
x,y,z
-x,-y,z
-x,y,z
x,-y,z
x,1/2+y,1/2+z
-x,1/2-y,1/2+z
-x,1/2+y,1/2+z
x,1/2-y,1/2+z
loop_
_atom_site_type_symbol
_atom_site_label
_atom_site_fract_x
_atom_site_fract_y
_atom_site_fract_z
Si Si1 0.183954 0.692200 0.705940
Si Si2 0.181790 0.241573 0.347325
Si Si3 0.317071 0.618460 0.343073
Si Si4 0.317248 0.734175 0.985853
Si Si5 0.682572 0.383260 0.492210
Si Si6 0.817692 0.070853 0.708057
Si Si7 0.317017 0.312355 0.128821
Si Si8 0.816226 0.569359 0.627109
O O1 0.219245 0.698803 0.783869
O O2 0.254286 0.752008 0.668453
O O3 0.237932 0.627472 0.672322
O O4 0.000000 0.695805 0.699055
O O5 0.264771 0.308774 0.338059
O O6 0.235478 0.215074 0.417974
O O7 0.000000 0.252368 0.348151
O O8 0.500000 0.615363 0.337455
O O9 0.274381 0.596583 0.417475
O O10 0.241153 0.581681 0.282914
O O11 0.500000 0.729715 0.976776
O O12 0.272985 0.696405 0.051694
O O13 0.282953 0.808426 0.997464
O O14 0.500000 0.390667 0.498843
O O15 0.763871 0.418342 0.551893
O O16 0.746044 0.124664 0.662196
O O17 0.000000 0.077583 0.707445
O O18 0.777389 0.000000 0.686703
O O19 0.500000 0.311943 0.132746
O O20 0.763660 0.500000 0.648703
O O21 0.000000 0.570013 0.629161
#
# Coordination Sequence:
#
# PCOD9356837 Si02
#       8
#     8   8   8   8   8   8   8   8
#     4  10  20  34  53  79 108 138 178 224 269 315
#     4  10  19  31  52  80 107 138 177 222 270 318
#     4  10  20  34  52  75 107 144 181 221 263 315
#     4   9  19  34  52  79 109 136 172 219 270 322
#     4   9  18  33  50  73 106 140 177 217 260 310
#     4  11  24  39  54  77 110 144 180 223 269 323
#     4  11  21  35  58  82 105 138 180 223 271 323
#     4  10  21  35  51  74 106 144 181 218 264 315
#
# _framework density 17.067218
#
# number of rings (size 3 to 8) (size 9 to 14) (size 15 to 20)
#    0.000    2.000    2.500    2.250    0.000    5.750 
#    0.000    2.500    0.000    0.750    0.000    1.750 
#    0.000    0.000    0.000    0.000    0.000    0.000 
#
# Total GULP energy -178593.085724 kJ/mol
# GULP energy per Si atom -5581.033929 kJ/mol
# Density = 1.702837 g / cm^3
# Si number density = 17.067218 Si / 1000 Ang^3
#
#
#
# Elastic Constant Matrix: (Units=GPa)
#
#
# Indices 1 2 3 4 5 6 
#
# 1 22.9140 31.0670 33.2680 0.0000 0.0000 0.0000
# 2 31.0670 114.5864 70.8408 0.0000 0.0000 0.0000
# 3 33.2680 70.8408 122.9313 0.0000 0.0000 0.0000
# 4 0.0000 0.0000 0.0000 18.7533 0.0000 0.0000
# 5 0.0000 0.0000 0.0000 0.0000 25.1668 0.0000
# 6 0.0000 0.0000 0.0000 0.0000 0.0000 7.4090
#
#
#
# Elastic Compliance Matrix: (Units=1/GPa)
#
#
# Indices 1 2 3 4 5 6 
#
# 1 0.083386 -0.013448 -0.014817 0.000000 0.000000 0.000000
# 2 -0.013448 0.015726 -0.005423 0.000000 0.000000 0.000000
# 3 -0.014817 -0.005423 0.015269 0.000000 0.000000 0.000000
# 4 0.000000 0.000000 0.000000 0.053324 0.000000 0.000000
# 5 0.000000 0.000000 0.000000 0.000000 0.039735 0.000000
# 6 0.000000 0.000000 0.000000 0.000000 0.000000 0.134970
#
#
# Mechanical properties :
#
#
# Convention : Reuss Voigt Hill
#
# Bulk Modulus (GPa) = 21.27378 58.97593 40.12486
# Shear Modulus (GPa) = 11.75219 18.61621 15.18420
#
# Velocity S-wave (km/s) = 2.62693 3.30625 2.98597
# Velocity P-wave (km/s) = 4.65755 7.01464 5.95390
#
# Compressibility (1/GPa) = 0.04700622
#
# Stress axis : x y z
#
# Youngs Moduli (GPa) = 11.99248 63.59070 65.49083
#
# Poissons Ratio (x) = 0.85515 0.97035
# Poissons Ratio (y) = 0.16127 0.35515
# Poissons Ratio (z) = 0.17769 0.34484
#
# Static dielectric constant tensor:
#      x y z
#    x 1.575190 0.000000 0.000000 
#    y 0.000000 1.570670 0.000000 
#    z 0.000000 0.000000 1.583140 
# 
# From -- ./inp_files/20237.got.cif
#   From: 2010.05.17/outbox.cif.g08.bks.cpg/sg38_11_cif.got.tgz:20237.got - 2010.06.03 18:07:57.
