data_PCOD9356661
_publ_section_title
;
Structure prediction by ZEFSAII (Michael W. Deem and Ramdas Pophale) SiO2 
 PCOD9356661
Probable space group: A M M 2
;
_chemical_formula_sum "Si O2"
_cell_formula_units_Z 48
_cell_length_a 8.629259
_cell_length_b 14.191807
_cell_length_c 24.537268
_cell_angle_alpha 90.000000
_cell_angle_beta 90.000000
_cell_angle_gamma 90.000000
_cell_volume 3004.951085
_symmetry_space_group_name_H-M "A M M 2"
_symmetry_group_IT_number 38
_symmetry_cell_setting 'orthorhombic'
loop_
_space_group_symop_operation_xyz
x,y,z
-x,-y,z
-x,y,z
x,-y,z
x,1/2+y,1/2+z
-x,1/2-y,1/2+z
-x,1/2+y,1/2+z
x,1/2-y,1/2+z
loop_
_atom_site_type_symbol
_atom_site_label
_atom_site_fract_x
_atom_site_fract_y
_atom_site_fract_z
Si Si1 0.811589 0.394101 0.136230
Si Si2 0.685372 0.390459 0.471204
Si Si3 0.813983 0.207806 0.077071
Si Si4 0.187049 0.390469 0.353023
Si Si5 0.685796 0.392242 0.684003
Si Si6 0.187363 0.716559 0.244884
O O1 0.754802 0.500000 0.126823
O O2 0.764238 0.314135 0.093101
O O3 0.767798 0.354638 0.195884
O O4 0.000000 0.396939 0.135401
O O5 0.500000 0.386750 0.472531
O O6 0.733321 0.500000 0.479721
O O7 0.752863 0.327811 0.519506
O O8 0.744661 0.362487 0.411376
O O9 0.751654 0.141875 0.125783
O O10 0.000000 0.204338 0.077792
O O11 0.230281 0.500000 0.342707
O O12 0.237233 0.325444 0.302743
O O13 0.000000 0.386947 0.356007
O O14 0.500000 0.387854 0.681782
O O15 0.732567 0.500000 0.694788
O O16 0.746584 0.317916 0.728409
O O17 0.000000 0.722063 0.244557
#
# Coordination Sequence:
#
# PCOD9356661 Si02
#       6
#     8   8   8   8   8   8
#     4   8  14  26  45  69  94 117 143 179 224 271
#     4  10  20  32  46  66  94 126 155 186 229 277
#     4  10  19  30  48  71  92 119 155 193 231 270
#     4   9  17  30  49  72  96 121 151 188 228 271
#     4  10  20  32  46  66  94 126 155 186 229 276
#     4   9  17  29  48  72  94 119 151 186 225 269
#
# _framework density 15.973637999999999
#
# number of rings (size 3 to 8) (size 9 to 14) (size 15 to 20)
#    0.000    2.667    0.000    3.500    0.000    7.000 
#    0.000    0.000    0.000   17.500    0.000    2.333 
#    0.000    0.000    0.000    0.000    0.000    0.000 
#
# Total GULP energy -133801.113807 kJ/mol
# GULP energy per Si atom -5575.046409 kJ/mol
# Density = 1.593728 g / cm^3
# Si number density = 15.973638 Si / 1000 Ang^3
#
#
#
# Elastic Constant Matrix: (Units=GPa)
#
#
# Indices 1 2 3 4 5 6 
#
# 1 24.5729 31.3925 35.0715 0.0000 0.0000 0.0000
# 2 31.3925 143.6078 97.9469 0.0000 0.0000 0.0000
# 3 35.0715 97.9469 155.0007 0.0000 0.0000 0.0000
# 4 0.0000 0.0000 0.0000 23.2782 0.0000 0.0000
# 5 0.0000 0.0000 0.0000 0.0000 7.7983 0.0000
# 6 0.0000 0.0000 0.0000 0.0000 0.0000 13.3433
#
#
#
# Elastic Compliance Matrix: (Units=1/GPa)
#
#
# Indices 1 2 3 4 5 6 
#
# 1 0.064124 -0.007243 -0.009932 0.000000 0.000000 0.000000
# 2 -0.007243 0.013056 -0.006611 0.000000 0.000000 0.000000
# 3 -0.009932 -0.006611 0.012877 0.000000 0.000000 0.000000
# 4 0.000000 0.000000 0.000000 0.042959 0.000000 0.000000
# 5 0.000000 0.000000 0.000000 0.000000 0.128233 0.000000
# 6 0.000000 0.000000 0.000000 0.000000 0.000000 0.074944
#
#
# Mechanical properties :
#
#
# Convention : Reuss Voigt Hill
#
# Bulk Modulus (GPa) = 23.53860 72.44483 47.99171
# Shear Modulus (GPa) = 12.56512 19.46864 16.01688
#
# Velocity S-wave (km/s) = 2.80771 3.49492 3.16999
# Velocity P-wave (km/s) = 5.02781 7.85730 6.59606
#
# Compressibility (1/GPa) = 0.04248342
#
# Stress axis : x y z
#
# Youngs Moduli (GPa) = 15.59473 76.59285 77.65998
#
# Poissons Ratio (x) = 0.55480 0.77132
# Poissons Ratio (y) = 0.11296 0.51344
# Poissons Ratio (z) = 0.15489 0.50638
#
# Static dielectric constant tensor:
#      x y z
#    x 1.539450 0.000000 0.000000 
#    y 0.000000 1.536250 0.000000 
#    z 0.000000 0.000000 1.510500 
# 
# From -- ./inp_files/19636.got.cif
#   From: 2010.05.17/outbox.cif.g08.bks.cpg/sg38_10_cif.got.tgz:19636.got - 2010.06.03 18:07:57.
