data_PCOD9356395
_publ_section_title
;
Structure prediction by ZEFSAII (Michael W. Deem and Ramdas Pophale) SiO2 
 PCOD9356395
Probable space group: A M M 2
;
_chemical_formula_sum "Si O2"
_cell_formula_units_Z 48
_cell_length_a 7.778833
_cell_length_b 19.160692
_cell_length_c 15.345791
_cell_angle_alpha 90.000000
_cell_angle_beta 90.000000
_cell_angle_gamma 90.000000
_cell_volume 2287.256744
_symmetry_space_group_name_H-M "A M M 2"
_symmetry_group_IT_number 38
_symmetry_cell_setting 'orthorhombic'
loop_
_space_group_symop_operation_xyz
x,y,z
-x,-y,z
-x,y,z
x,-y,z
x,1/2+y,1/2+z
-x,1/2-y,1/2+z
-x,1/2+y,1/2+z
x,1/2-y,1/2+z
loop_
_atom_site_type_symbol
_atom_site_label
_atom_site_fract_x
_atom_site_fract_y
_atom_site_fract_z
Si Si1 0.292065 0.424646 0.327760
Si Si2 0.709063 0.000000 0.493551
Si Si3 0.197836 0.500000 0.796846
Si Si4 0.290511 0.110598 0.635062
Si Si5 0.201826 0.653107 0.763965
Si Si6 0.203232 0.727590 0.399707
Si Si7 0.701991 0.264220 0.600799
O O1 0.500000 0.423856 0.331451
O O2 0.235126 0.500000 0.365295
O O3 0.239137 0.422260 0.226468
O O4 0.233536 0.351477 0.367480
O O5 0.760039 0.066416 0.551369
O O6 0.500000 0.000000 0.483136
O O7 0.796039 0.000000 0.401070
O O8 0.277571 0.575038 0.771459
O O9 0.000000 0.500000 0.764202
O O10 0.500000 0.111063 0.634468
O O11 0.227347 0.189160 0.629578
O O12 0.270539 0.713191 0.831136
O O13 0.217130 0.679177 0.664774
O O14 0.000000 0.646656 0.785804
O O15 0.276548 0.731536 0.497209
O O16 0.000000 0.738261 0.406615
O O17 0.500000 0.266252 0.620312
#
# Coordination Sequence:
#
# PCOD9356395 Si02
#       7
#     8   4   4   8   8   8   8
#     4  10  19  36  61  86 117 152 191 239 289 344
#     4  10  18  32  56  87 118 147 184 233 292 352
#     4  10  22  40  58  81 116 155 194 239 294 344
#     4   9  17  31  55  86 116 145 182 234 291 343
#     4  10  22  41  62  84 117 158 197 245 297 349
#     4  11  23  39  60  87 121 156 196 242 297 360
#     4  11  22  37  61  88 115 153 201 246 292 348
#
# _framework density 20.985838000000001
#
# number of rings (size 3 to 8) (size 9 to 14) (size 15 to 20)
#    0.000    1.833    2.500    2.000    0.000    1.667 
#    1.500    1.667    0.000    0.000    0.000    0.000 
#    0.000    0.000    0.000    0.000    0.000    0.000 
#
# Total GULP energy -133914.269553 kJ/mol
# GULP energy per Si atom -5579.761231 kJ/mol
# Density = 2.093807 g / cm^3
# Si number density = 20.985838 Si / 1000 Ang^3
#
#
#
# Elastic Constant Matrix: (Units=GPa)
#
#
# Indices 1 2 3 4 5 6 
#
# 1 30.8065 7.0430 -5.3301 0.0000 0.0000 0.0000
# 2 7.0430 177.7092 51.1154 0.0000 0.0000 0.0000
# 3 -5.3301 51.1154 79.0544 0.0000 0.0000 0.0000
# 4 0.0000 0.0000 0.0000 165.0909 0.0000 0.0000
# 5 0.0000 0.0000 0.0000 0.0000 19.6603 0.0000
# 6 0.0000 0.0000 0.0000 0.0000 0.0000 12.5079
#
#
#
# Elastic Compliance Matrix: (Units=1/GPa)
#
#
# Indices 1 2 3 4 5 6 
#
# 1 0.033685 -0.002443 0.003851 0.000000 0.000000 0.000000
# 2 -0.002443 0.007090 -0.004749 0.000000 0.000000 0.000000
# 3 0.003851 -0.004749 0.015980 0.000000 0.000000 0.000000
# 4 0.000000 0.000000 0.000000 0.006057 0.000000 0.000000
# 5 0.000000 0.000000 0.000000 0.000000 0.050864 0.000000
# 6 0.000000 0.000000 0.000000 0.000000 0.000000 0.079949
#
#
# Mechanical properties :
#
#
# Convention : Reuss Voigt Hill
#
# Bulk Modulus (GPa) = 19.97083 43.69183 31.83133
# Shear Modulus (GPa) = 23.04163 55.10127 39.07145
#
# Velocity S-wave (km/s) = 3.31714 5.12966 4.31954
# Velocity P-wave (km/s) = 4.92019 7.47993 6.33078
#
# Compressibility (1/GPa) = 0.05007304
#
# Stress axis : x y z
#
# Youngs Moduli (GPa) = 29.68650 141.04503 62.57929
#
# Poissons Ratio (x) = 0.34451 -0.24096
# Poissons Ratio (y) = 0.07251 0.29718
# Poissons Ratio (z) = -0.11431 0.66981
#
# Static dielectric constant tensor:
#      x y z
#    x 1.778230 0.000000 0.000000 
#    y 0.000000 1.728020 0.000000 
#    z 0.000000 0.000000 1.712260 
# 
# From -- ./inp_files/12062.got.cif
#   From: 2010.05.17/outbox.cif.g08.bks.cpg/sg38_7_cif.got.tgz:12062.got - 2010.06.03 18:07:57.
