data_PCOD9356992
_publ_section_title
;
Structure prediction by ZEFSAII (Michael W. Deem and Ramdas Pophale) SiO2 
 PCOD9356992
Probable space group: A M M 2
;
_chemical_formula_sum "Si O2"
_cell_formula_units_Z 52
_cell_length_a 19.004088
_cell_length_b 10.724266
_cell_length_c 14.033362
_cell_angle_alpha 90.000000
_cell_angle_beta 90.000000
_cell_angle_gamma 90.000000
_cell_volume 2860.067866
_symmetry_space_group_name_H-M "A M M 2"
_symmetry_group_IT_number 38
_symmetry_cell_setting 'orthorhombic'
loop_
_space_group_symop_operation_xyz
x,y,z
-x,-y,z
-x,y,z
x,-y,z
x,1/2+y,1/2+z
-x,1/2-y,1/2+z
-x,1/2+y,1/2+z
x,1/2-y,1/2+z
loop_
_atom_site_type_symbol
_atom_site_label
_atom_site_fract_x
_atom_site_fract_y
_atom_site_fract_z
Si Si1 0.082845 0.000000 0.001860
Si Si2 0.081825 0.771538 0.498382
Si Si3 0.307406 0.356170 0.544677
Si Si4 0.818423 0.000000 0.818630
Si Si5 0.919395 0.500000 0.141286
Si Si6 0.583543 0.142254 0.877626
Si Si7 0.336059 0.641691 0.765900
Si Si8 0.782243 0.760052 0.389202
O O1 0.098117 0.864378 0.045197
O O2 0.124545 0.000000 0.903406
O O3 0.000000 0.000000 0.984486
O O4 0.136881 0.790231 0.412270
O O5 0.000000 0.771662 0.466349
O O6 0.089197 0.879633 0.574868
O O7 0.280905 0.500000 0.537282
O O8 0.377461 0.348432 0.479815
O O9 0.321291 0.330937 0.654974
O O10 0.253487 0.264264 0.492073
O O11 0.776272 0.127083 0.834802
O O12 0.861197 0.000000 0.721905
O O13 0.000000 0.500000 0.179350
O O14 0.500000 0.156198 0.886943
O O15 0.615179 0.251214 0.811654
O O16 0.597722 0.000000 0.842374
O O17 0.364792 0.500000 0.772326
O O18 0.263631 0.647488 0.826447
#
# Coordination Sequence:
#
# PCOD9356992 Si02
#       8
#     4   8   8   4   4   8   8   8
#     4   8  15  32  54  71  94 135 179 220 278 338
#     4   9  19  34  53  77 109 145 186 235 291 345
#     4   9  18  36  57  81 113 149 188 222 269 328
#     4  10  19  32  54  79  97 141 187 236 273 326
#     4  10  21  34  52  82 110 136 182 238 299 358
#     4   9  19  38  63  88 116 150 186 220 263 327
#     4  10  22  36  56  87 116 147 184 233 279 326
#     4  10  20  35  56  80 109 148 189 237 284 336
#
# _framework density 18.181386
#
# number of rings (size 3 to 8) (size 9 to 14) (size 15 to 20)
#    0.000    2.615    0.769    0.231    4.308    1.538 
#    0.000    4.615    0.000    0.000    0.000    7.538 
#    0.000    0.000    0.000    0.000    0.000    0.000 
#
# Total GULP energy -144843.698661 kJ/mol
# GULP energy per Si atom -5570.911487 kJ/mol
# Density = 1.814000 g / cm^3
# Si number density = 18.181386 Si / 1000 Ang^3
#
#
#
# Elastic Constant Matrix: (Units=GPa)
#
#
# Indices 1 2 3 4 5 6 
#
# 1 78.8700 36.3007 38.2770 0.0000 0.0000 0.0000
# 2 36.3007 108.5700 47.8471 0.0000 0.0000 0.0000
# 3 38.2770 47.8471 89.5540 0.0000 0.0000 0.0000
# 4 0.0000 0.0000 0.0000 14.5733 0.0000 0.0000
# 5 0.0000 0.0000 0.0000 0.0000 16.6700 0.0000
# 6 0.0000 0.0000 0.0000 0.0000 0.0000 25.9643
#
#
#
# Elastic Compliance Matrix: (Units=1/GPa)
#
#
# Indices 1 2 3 4 5 6 
#
# 1 0.016811 -0.003210 -0.005470 0.000000 0.000000 0.000000
# 2 -0.003210 0.012660 -0.005392 0.000000 0.000000 0.000000
# 3 -0.005470 -0.005392 0.016385 0.000000 0.000000 0.000000
# 4 0.000000 0.000000 0.000000 0.068619 0.000000 0.000000
# 5 0.000000 0.000000 0.000000 0.000000 0.059988 0.000000
# 6 0.000000 0.000000 0.000000 0.000000 0.000000 0.038514
#
#
# Mechanical properties :
#
#
# Convention : Reuss Voigt Hill
#
# Bulk Modulus (GPa) = 56.45899 57.98263 57.22081
# Shear Modulus (GPa) = 20.24065 21.74614 20.99339
#
# Velocity S-wave (km/s) = 3.34018 3.46217 3.40172
# Velocity P-wave (km/s) = 6.78206 6.92406 6.85343
#
# Compressibility (1/GPa) = 0.01771197
#
# Stress axis : x y z
#
# Youngs Moduli (GPa) = 59.48319 78.98715 61.02962
#
# Poissons Ratio (x) = 0.25356 0.33386
# Poissons Ratio (y) = 0.19095 0.32908
# Poissons Ratio (z) = 0.32540 0.42591
#
# Static dielectric constant tensor:
#      x y z
#    x 1.648000 0.000000 0.000000 
#    y 0.000000 1.672200 0.000000 
#    z 0.000000 0.000000 1.579050 
# 
# From -- ./inp_files/15414.got.cif
#   From: 2010.05.17/outbox.cif.g08.bks.cpg/sg38_8_cif.got.tgz:15414.got - 2010.06.03 18:07:57.
