data_PCOD9356555
_publ_section_title
;
Structure prediction by ZEFSAII (Michael W. Deem and Ramdas Pophale) SiO2 
 PCOD9356555
Probable space group: A M M 2
;
_chemical_formula_sum "Si O2"
_cell_formula_units_Z 64
_cell_length_a 7.352624
_cell_length_b 20.371560
_cell_length_c 21.534523
_cell_angle_alpha 90.000000
_cell_angle_beta 90.000000
_cell_angle_gamma 90.000000
_cell_volume 3225.536058
_symmetry_space_group_name_H-M "A M M 2"
_symmetry_group_IT_number 38
_symmetry_cell_setting 'orthorhombic'
loop_
_space_group_symop_operation_xyz
x,y,z
-x,-y,z
-x,y,z
x,-y,z
x,1/2+y,1/2+z
-x,1/2-y,1/2+z
-x,1/2+y,1/2+z
x,1/2-y,1/2+z
loop_
_atom_site_type_symbol
_atom_site_label
_atom_site_fract_x
_atom_site_fract_y
_atom_site_fract_z
Si Si1 0.723030 0.790306 0.935090
Si Si2 0.291234 0.285048 0.298989
Si Si3 0.786493 0.073042 0.754123
Si Si4 0.278955 0.927605 0.134162
Si Si5 0.721891 0.791491 0.554518
Si Si6 0.281083 0.927439 0.607127
Si Si7 0.277577 0.211711 0.177248
Si Si8 0.279004 0.072321 0.989252
O O1 0.500000 0.790646 0.934488
O O2 0.787550 0.771259 0.866666
O O3 0.780937 0.864536 0.951260
O O4 0.779627 0.742468 0.990748
O O5 0.500000 0.262771 0.301631
O O6 0.291712 0.363419 0.287635
O O7 0.212303 0.249546 0.238433
O O8 0.762575 0.082446 0.679931
O O9 0.000000 0.072732 0.767508
O O10 0.713710 0.000000 0.769401
O O11 0.500000 0.927618 0.134913
O O12 0.220688 0.864036 0.172249
O O13 0.219448 0.000000 0.155117
O O14 0.227237 0.919868 0.061686
O O15 0.500000 0.791252 0.554028
O O16 0.782532 0.865910 0.566947
O O17 0.777678 0.748818 0.614299
O O18 0.500000 0.928074 0.603228
O O19 0.214802 0.000000 0.589307
O O20 0.500000 0.213744 0.177105
O O21 0.500000 0.072300 0.988120
O O22 0.219467 0.000000 0.967732
#
# Coordination Sequence:
#
# PCOD9356555 Si02
#       8
#     8   8   8   8   8   8   8   8
#     4   9  16  24  36  58  86 113 140 174 216 256
#     4  10  19  29  43  65  89 116 151 187 221 260
#     4  10  20  32  45  63  90 122 151 181 224 274
#     4   8  12  18  31  51  76 106 137 167 205 256
#     4   9  14  23  40  60  84 114 143 177 221 263
#     4   9  16  27  46  69  89 113 149 188 224 265
#     4   9  14  22  37  57  81 111 144 177 215 258
#     4   8  12  18  28  45  71 101 130 160 198 243
#
# _framework density 19.841660999999998
#
# number of rings (size 3 to 8) (size 9 to 14) (size 15 to 20)
#    0.000    3.000    2.500    1.125    0.000    1.250 
#    0.000    1.250    0.000    1.500    0.000    5.250 
#    0.000    0.500    0.000    0.000    0.000    0.000 
#
# Total GULP energy -178526.243799 kJ/mol
# GULP energy per Si atom -5578.945119 kJ/mol
# Density = 1.979650 g / cm^3
# Si number density = 19.841661 Si / 1000 Ang^3
#
#
#
# Elastic Constant Matrix: (Units=GPa)
#
#
# Indices 1 2 3 4 5 6 
#
# 1 74.0585 1.1907 2.8123 0.0000 0.0000 0.0000
# 2 1.1907 138.2960 82.4275 0.0000 0.0000 0.0000
# 3 2.8123 82.4275 139.4307 0.0000 0.0000 0.0000
# 4 0.0000 0.0000 0.0000 23.3707 0.0000 0.0000
# 5 0.0000 0.0000 0.0000 0.0000 48.9782 0.0000
# 6 0.0000 0.0000 0.0000 0.0000 0.0000 -19.3970
#
#
#
# Elastic Compliance Matrix: (Units=1/GPa)
#
#
# Indices 1 2 3 4 5 6 
#
# 1 0.013514 0.000071 -0.000315 0.000000 0.000000 0.000000
# 2 0.000071 0.011165 -0.006602 0.000000 0.000000 0.000000
# 3 -0.000315 -0.006602 0.011081 0.000000 0.000000 0.000000
# 4 0.000000 0.000000 0.000000 0.042789 0.000000 0.000000
# 5 0.000000 0.000000 0.000000 0.000000 0.020417 0.000000
# 6 0.000000 0.000000 0.000000 0.000000 0.000000 -0.051554
#
#
# Mechanical properties :
#
#
# Convention : Reuss Voigt Hill
#
# Bulk Modulus (GPa) = 45.31198 58.29401 51.80300
# Shear Modulus (GPa) = 73.03657 28.28069 50.65863
#
# Velocity S-wave (km/s) = 6.07368 3.77943 5.05835
# Velocity P-wave (km/s) = 8.48955 6.96340 7.76406
#
# Compressibility (1/GPa) = 0.02206922
#
# Stress axis : x y z
#
# Youngs Moduli (GPa) = 73.99927 89.56420 90.24243
#
# Poissons Ratio (x) = -0.00638 0.02839
# Poissons Ratio (y) = -0.00527 0.59578
# Poissons Ratio (z) = 0.02328 0.59130
#
# Static dielectric constant tensor:
#      x y z
#    x 1.701970 0.000000 0.000000 
#    y 0.000000 1.711150 0.000000 
#    z 0.000000 0.000000 1.665590 
# 
# From -- ./inp_files/20225.got.cif
#   From: 2010.05.17/outbox.cif.g08.bks.cpg/sg38_11_cif.got.tgz:20225.got - 2010.06.03 18:07:57.
