data_PCOD9356308
_publ_section_title
;
Structure prediction by ZEFSAII (Michael W. Deem and Ramdas Pophale) SiO2 
 PCOD9356308
Probable space group: A M M 2
;
_chemical_formula_sum "Si O2"
_cell_formula_units_Z 56
_cell_length_a 21.750045
_cell_length_b 14.929314
_cell_length_c 7.021931
_cell_angle_alpha 90.000000
_cell_angle_beta 90.000000
_cell_angle_gamma 90.000000
_cell_volume 2280.114046
_symmetry_space_group_name_H-M "A M M 2"
_symmetry_group_IT_number 38
_symmetry_cell_setting 'orthorhombic'
loop_
_space_group_symop_operation_xyz
x,y,z
-x,-y,z
-x,y,z
x,-y,z
x,1/2+y,1/2+z
-x,1/2-y,1/2+z
-x,1/2+y,1/2+z
x,1/2-y,1/2+z
loop_
_atom_site_type_symbol
_atom_site_label
_atom_site_fract_x
_atom_site_fract_y
_atom_site_fract_z
Si Si1 0.569100 0.000000 0.132921
Si Si2 0.087892 0.392084 0.782129
Si Si3 0.653843 0.340445 0.634516
Si Si4 0.330196 0.355682 0.190075
Si Si5 0.067725 0.309990 0.360976
Si Si6 0.192219 0.394515 0.257565
Si Si7 0.775842 0.898900 0.205210
Si Si8 0.428306 0.000000 0.670181
O O1 0.604412 0.088542 0.197559
O O2 0.500000 0.000000 0.198589
O O3 0.568014 0.000000 0.901976
O O4 0.070858 0.500000 0.812785
O O5 0.073501 0.364730 0.561388
O O6 0.161200 0.389409 0.816185
O O7 0.066310 0.298852 0.882082
O O8 0.668665 0.367866 0.418587
O O9 0.639471 0.237844 0.635856
O O10 0.717457 0.340426 0.752307
O O11 0.256448 0.368295 0.152908
O O12 0.382114 0.421121 0.113600
O O13 0.128754 0.338282 0.241719
O O14 0.000000 0.335059 0.282372
O O15 0.180466 0.500000 0.220934
O O16 0.205850 0.385007 0.484513
O O17 0.753069 0.000000 0.223360
O O18 0.500000 0.000000 0.609964
#
# Coordination Sequence:
#
# PCOD9356308 Si02
#       8
#     4   8   8   8   8   8   8   4
#     4   9  18  32  51  75 105 142 180 213 254 323
#     4  10  22  40  61  84 116 153 192 242 296 346
#     4  10  18  31  53  78 105 135 177 220 266 319
#     4  10  19  33  55  79 104 138 176 222 266 315
#     4  11  22  36  58  86 115 151 195 238 287 348
#     4   9  17  32  55  81 109 142 185 230 275 328
#     4   8  14  29  54  80 102 135 179 222 268 323
#     4   9  18  34  55  77 102 138 180 211 251 321
#
# _framework density 24.560174
#
# number of rings (size 3 to 8) (size 9 to 14) (size 15 to 20)
#    0.000    2.429    1.429    2.571    0.000    2.571 
#    0.000    2.143    0.000    6.000    0.000    0.000 
#    0.000    0.000    0.000    0.000    0.000    0.000 
#
# Total GULP energy -156087.785201 kJ/mol
# GULP energy per Si atom -5574.563757 kJ/mol
# Density = 2.450427 g / cm^3
# Si number density = 24.560174 Si / 1000 Ang^3
#
#
#
# Elastic Constant Matrix: (Units=GPa)
#
#
# Indices 1 2 3 4 5 6 
#
# 1 207.4453 125.4534 25.2565 0.0000 0.0000 0.0000
# 2 125.4534 192.4546 2.5848 0.0000 0.0000 0.0000
# 3 25.2565 2.5848 91.2632 0.0000 0.0000 0.0000
# 4 0.0000 0.0000 0.0000 14.5750 0.0000 0.0000
# 5 0.0000 0.0000 0.0000 0.0000 -41.4720 0.0000
# 6 0.0000 0.0000 0.0000 0.0000 0.0000 8.3106
#
#
#
# Elastic Compliance Matrix: (Units=1/GPa)
#
#
# Indices 1 2 3 4 5 6 
#
# 1 0.008363 -0.005422 -0.002161 0.000000 0.000000 0.000000
# 2 -0.005422 0.008714 0.001254 0.000000 0.000000 0.000000
# 3 -0.002161 0.001254 0.011520 0.000000 0.000000 0.000000
# 4 0.000000 0.000000 0.000000 0.068611 0.000000 0.000000
# 5 0.000000 0.000000 0.000000 0.000000 -0.024113 0.000000
# 6 0.000000 0.000000 0.000000 0.000000 0.000000 0.120329
#
#
# Mechanical properties :
#
#
# Convention : Reuss Voigt Hill
#
# Bulk Modulus (GPa) = 62.74414 88.63918 75.69166
# Shear Modulus (GPa) = 23.65245 18.80727 21.22986
#
# Velocity S-wave (km/s) = 3.10666 2.77024 2.94326
# Velocity P-wave (km/s) = 6.20250 6.81185 6.51430
#
# Compressibility (1/GPa) = 0.01593774
#
# Stress axis : x y z
#
# Youngs Moduli (GPa) = 119.57690 114.76035 86.80715
#
# Poissons Ratio (x) = 0.62227 0.18757
# Poissons Ratio (y) = 0.64839 -0.10884
# Poissons Ratio (z) = 0.25838 -0.14389
#
# Static dielectric constant tensor:
#      x y z
#    x 1.927400 0.000000 0.000000 
#    y 0.000000 1.963710 0.000000 
#    z 0.000000 0.000000 2.059460 
# 
# From -- ./inp_files/6784.got.cif
#   From: 2010.05.17/outbox.cif.g08.bks.cpg/sg38_4_cif.got.tgz:6784.got - 2010.06.03 18:07:57.
