data_PCOD9356023
_publ_section_title
;
Structure prediction by ZEFSAII (Michael W. Deem and Ramdas Pophale) SiO2 
 PCOD9356023
Probable space group: A M M 2
;
_chemical_formula_sum "Si O2"
_cell_formula_units_Z 40
_cell_length_a 7.429613
_cell_length_b 27.140309
_cell_length_c 9.440984
_cell_angle_alpha 90.000000
_cell_angle_beta 90.000000
_cell_angle_gamma 90.000000
_cell_volume 1903.698826
_symmetry_space_group_name_H-M "A M M 2"
_symmetry_group_IT_number 38
_symmetry_cell_setting 'orthorhombic'
loop_
_space_group_symop_operation_xyz
x,y,z
-x,-y,z
-x,y,z
x,-y,z
x,1/2+y,1/2+z
-x,1/2-y,1/2+z
-x,1/2+y,1/2+z
x,1/2-y,1/2+z
loop_
_atom_site_type_symbol
_atom_site_label
_atom_site_fract_x
_atom_site_fract_y
_atom_site_fract_z
Si Si1 0.720845 0.606690 0.203360
Si Si2 0.719671 0.296942 0.374807
Si Si3 0.720284 0.200774 0.200176
Si Si4 0.792949 0.500000 0.906951
Si Si5 0.298173 0.500000 0.229368
Si Si6 0.284849 0.107178 0.376757
O O1 0.500000 0.605090 0.202682
O O2 0.776155 0.653271 0.295472
O O3 0.783267 0.553433 0.261025
O O4 0.778816 0.612277 0.039569
O O5 0.500000 0.296859 0.374263
O O6 0.776400 0.248488 0.289404
O O7 0.777611 0.295923 0.537558
O O8 0.500000 0.200542 0.199756
O O9 0.781357 0.150687 0.276541
O O10 0.754980 0.448702 0.829549
O O11 0.000000 0.500000 0.948270
O O12 0.689756 0.500000 0.056801
O O13 0.500000 0.500000 0.289607
O O14 0.500000 0.111941 0.381960
#
# Coordination Sequence:
#
# PCOD9356023 Si02
#       6
#     8   8   8   4   4   8
#     4   8  13  22  38  58  85 116 146 176 212 253
#     4   9  15  23  36  61  92 120 146 178 218 260
#     4   9  16  24  37  59  90 119 145 178 220 261
#     4  10  18  28  45  68  88 112 146 184 218 258
#     4   8  14  26  43  64  90 122 150 176 212 256
#     4   9  16  28  44  64  89 118 146 178 217 259
#
# _framework density 21.011727
#
# number of rings (size 3 to 8) (size 9 to 14) (size 15 to 20)
#    0.000    3.200    0.000    3.300    0.000    4.800 
#    0.000    1.000    0.000    4.800    0.000   23.800 
#    0.000    0.000    0.000    0.000    0.000    0.000 
#
# Total GULP energy -111562.895646 kJ/mol
# GULP energy per Si atom -5578.144782 kJ/mol
# Density = 2.096390 g / cm^3
# Si number density = 21.011727 Si / 1000 Ang^3
#
#
#
# Elastic Constant Matrix: (Units=GPa)
#
#
# Indices 1 2 3 4 5 6 
#
# 1 68.5769 0.2307 4.5935 0.0000 0.0000 0.0000
# 2 0.2307 266.9992 125.8181 0.0000 0.0000 0.0000
# 3 4.5935 125.8181 133.9638 0.0000 0.0000 0.0000
# 4 0.0000 0.0000 0.0000 36.7958 0.0000 0.0000
# 5 0.0000 0.0000 0.0000 0.0000 -14.9469 0.0000
# 6 0.0000 0.0000 0.0000 0.0000 0.0000 -28.2416
#
#
#
# Elastic Compliance Matrix: (Units=1/GPa)
#
#
# Indices 1 2 3 4 5 6 
#
# 1 0.014640 0.000402 -0.000879 0.000000 0.000000 0.000000
# 2 0.000402 0.006730 -0.006335 0.000000 0.000000 0.000000
# 3 -0.000879 -0.006335 0.013444 0.000000 0.000000 0.000000
# 4 0.000000 0.000000 0.000000 0.027177 0.000000 0.000000
# 5 0.000000 0.000000 0.000000 0.000000 -0.066904 0.000000
# 6 0.000000 0.000000 0.000000 0.000000 0.000000 -0.035409
#
#
# Mechanical properties :
#
#
# Convention : Reuss Voigt Hill
#
# Bulk Modulus (GPa) = 47.19268 81.20270 64.19769
# Shear Modulus (GPa) = -254.66194 21.31465 -116.67365
#
# Velocity S-wave (km/s) = -11.02103 3.18845 -7.45979
# Velocity P-wave (km/s) = 11.80855 7.23085 6.60139
#
# Compressibility (1/GPa) = 0.02118973
#
# Stress axis : x y z
#
# Youngs Moduli (GPa) = 68.30734 148.58790 74.38126
#
# Poissons Ratio (x) = -0.05968 0.06540
# Poissons Ratio (y) = -0.02744 0.47117
# Poissons Ratio (z) = 0.06006 0.94124
#
# Static dielectric constant tensor:
#      x y z
#    x 1.779570 0.000000 0.000000 
#    y 0.000000 1.762910 0.000000 
#    z 0.000000 0.000000 1.696820 
# 
# From -- ./inp_files/3495.got.cif
#   From: 2010.05.17/outbox.cif.g08.bks.cpg/sg38_2_cif.got.tgz:3495.got - 2010.06.03 18:07:57.
