data_PCOD9356735
_publ_section_title
;
Structure prediction by ZEFSAII (Michael W. Deem and Ramdas Pophale) SiO2 
 PCOD9356735
Probable space group: A M M 2
;
_chemical_formula_sum "Si O2"
_cell_formula_units_Z 64
_cell_length_a 20.326893
_cell_length_b 7.981171
_cell_length_c 21.179494
_cell_angle_alpha 90.000000
_cell_angle_beta 90.000000
_cell_angle_gamma 90.000000
_cell_volume 3436.000332
_symmetry_space_group_name_H-M "A M M 2"
_symmetry_group_IT_number 38
_symmetry_cell_setting 'orthorhombic'
loop_
_space_group_symop_operation_xyz
x,y,z
-x,-y,z
-x,y,z
x,-y,z
x,1/2+y,1/2+z
-x,1/2-y,1/2+z
-x,1/2+y,1/2+z
x,1/2-y,1/2+z
loop_
_atom_site_type_symbol
_atom_site_label
_atom_site_fract_x
_atom_site_fract_y
_atom_site_fract_z
Si Si1 0.848258 0.198532 0.881080
Si Si2 0.851110 0.797831 0.630417
Si Si3 0.570770 0.303208 0.672395
Si Si4 0.712919 0.699635 0.827346
Si Si5 0.075759 0.295067 0.256978
Si Si6 0.571260 0.800157 0.817407
Si Si7 0.924992 0.200351 0.505637
Si Si8 0.712967 0.202342 0.181194
O O1 0.771465 0.235284 0.870875
O O2 0.885144 0.264373 0.818448
O O3 0.857424 0.000000 0.882747
O O4 0.882274 0.267608 0.943483
O O5 0.889465 0.738317 0.692858
O O6 0.886719 0.734395 0.567385
O O7 0.775270 0.750540 0.639711
O O8 0.854583 0.000000 0.629813
O O9 0.500000 0.229544 0.651658
O O10 0.569780 0.500000 0.655891
O O11 0.571857 0.286772 0.748670
O O12 0.642601 0.234260 0.654681
O O13 0.717014 0.500000 0.825572
O O14 0.639608 0.749308 0.849105
O O15 0.721714 0.762159 0.754303
O O16 0.077300 0.500000 0.256909
O O17 0.000000 0.243949 0.259300
O O18 0.500000 0.758726 0.847256
O O19 0.572850 0.000000 0.807412
O O20 0.000000 0.265856 0.500289
O O21 0.930020 0.000000 0.513133
O O22 0.709164 0.000000 0.184049
#
# Coordination Sequence:
#
# PCOD9356735 Si02
#       8
#     8   8   8   8   8   8   8   8
#     4  11  21  34  54  78 103 132 168 214 263 309
#     4  10  19  33  53  74  98 133 171 208 251 305
#     4   8  14  25  40  61  94 136 173 203 246 303
#     4  10  19  31  48  71 103 139 173 210 256 310
#     4   9  17  30  50  75  98 123 161 205 250 303
#     4   9  16  25  40  66 100 135 171 211 253 297
#     4  10  22  39  56  74 100 134 171 211 257 312
#     4   9  17  28  45  71 102 132 164 209 255 297
#
# _framework density 18.626308000000002
#
# number of rings (size 3 to 8) (size 9 to 14) (size 15 to 20)
#    0.000    2.500    1.250    2.625    0.000    5.500 
#    0.000    0.000    0.000    1.875    0.000    0.875 
#    0.000    3.000    0.000    0.000    0.000    0.000 
#
# Total GULP energy -178332.376041 kJ/mol
# GULP energy per Si atom -5572.886751 kJ/mol
# Density = 1.858391 g / cm^3
# Si number density = 18.626308 Si / 1000 Ang^3
#
#
#
# Elastic Constant Matrix: (Units=GPa)
#
#
# Indices 1 2 3 4 5 6 
#
# 1 194.2861 -2.6578 70.8957 0.0000 0.0000 0.0000
# 2 -2.6578 16.1699 5.0830 0.0000 0.0000 0.0000
# 3 70.8957 5.0830 97.4658 0.0000 0.0000 0.0000
# 4 0.0000 0.0000 0.0000 14.0695 0.0000 0.0000
# 5 0.0000 0.0000 0.0000 0.0000 159.1169 0.0000
# 6 0.0000 0.0000 0.0000 0.0000 0.0000 17.2135
#
#
#
# Elastic Compliance Matrix: (Units=1/GPa)
#
#
# Indices 1 2 3 4 5 6 
#
# 1 0.007134 0.002850 -0.005338 0.000000 0.000000 0.000000
# 2 0.002850 0.064013 -0.005412 0.000000 0.000000 0.000000
# 3 -0.005338 -0.005412 0.014425 0.000000 0.000000 0.000000
# 4 0.000000 0.000000 0.000000 0.071076 0.000000 0.000000
# 5 0.000000 0.000000 0.000000 0.000000 0.006285 0.000000
# 6 0.000000 0.000000 0.000000 0.000000 0.000000 0.058094
#
#
# Mechanical properties :
#
#
# Convention : Reuss Voigt Hill
#
# Bulk Modulus (GPa) = 14.33209 50.50706 32.41958
# Shear Modulus (GPa) = 19.22473 53.72006 36.47239
#
# Velocity S-wave (km/s) = 3.21616 5.37620 4.42986
# Velocity P-wave (km/s) = 4.63711 8.10635 6.60363
#
# Compressibility (1/GPa) = 0.06977348
#
# Stress axis : x y z
#
# Youngs Moduli (GPa) = 140.17800 15.62186 69.32489
#
# Poissons Ratio (x) = -0.04453 0.37004
# Poissons Ratio (y) = -0.39957 0.37517
# Poissons Ratio (z) = 0.74823 0.08454
#
# Static dielectric constant tensor:
#      x y z
#    x 1.686150 0.000000 0.000000 
#    y 0.000000 1.680080 0.000000 
#    z 0.000000 0.000000 1.614140 
# 
# From -- ./inp_files/21350.got.cif
#   From: 2010.05.17/outbox.cif.g08.bks.cpg/sg38_11_cif.got.tgz:21350.got - 2010.06.03 18:07:57.
