data_PCOD9356785
_publ_section_title
;
Structure prediction by ZEFSAII (Michael W. Deem and Ramdas Pophale) SiO2 
 PCOD9356785
Probable space group: A M M 2
;
_chemical_formula_sum "Si O2"
_cell_formula_units_Z 64
_cell_length_a 9.569551
_cell_length_b 16.361031
_cell_length_c 22.748471
_cell_angle_alpha 90.000000
_cell_angle_beta 90.000000
_cell_angle_gamma 90.000000
_cell_volume 3561.676251
_symmetry_space_group_name_H-M "A M M 2"
_symmetry_group_IT_number 38
_symmetry_cell_setting 'orthorhombic'
loop_
_space_group_symop_operation_xyz
x,y,z
-x,-y,z
-x,y,z
x,-y,z
x,1/2+y,1/2+z
-x,1/2-y,1/2+z
-x,1/2+y,1/2+z
x,1/2-y,1/2+z
loop_
_atom_site_type_symbol
_atom_site_label
_atom_site_fract_x
_atom_site_fract_y
_atom_site_fract_z
Si Si1 0.167984 0.094469 0.105050
Si Si2 0.334754 0.591357 0.052534
Si Si3 0.668616 0.724884 0.525264
Si Si4 0.333812 0.233272 0.891929
Si Si5 0.347208 0.405088 0.193152
Si Si6 0.333072 0.413132 0.855231
Si Si7 0.839958 0.377263 0.741554
Si Si8 0.158900 0.189577 0.780750
O O1 0.200595 0.104077 0.174624
O O2 0.000000 0.106880 0.098836
O O3 0.199199 0.000000 0.088046
O O4 0.251793 0.162339 0.068068
O O5 0.500000 0.589240 0.036499
O O6 0.278649 0.500000 0.036416
O O7 0.324973 0.598252 0.123291
O O8 0.283026 0.679898 0.030811
O O9 0.500000 0.723270 0.536654
O O10 0.692370 0.701319 0.457297
O O11 0.500000 0.227378 0.880530
O O12 0.294618 0.329976 0.888583
O O13 0.248785 0.190284 0.840262
O O14 0.500000 0.366946 0.205606
O O15 0.353425 0.500000 0.208680
O O16 0.228714 0.364914 0.231233
O O17 0.500000 0.410890 0.848331
O O18 0.296674 0.500000 0.884593
O O19 0.260769 0.411291 0.791664
O O20 0.839302 0.280649 0.753885
O O21 0.000000 0.405797 0.749919
O O22 0.000000 0.166369 0.793226
#
# Coordination Sequence:
#
# PCOD9356785 Si02
#       8
#     8   8   8   8   8   8   8   8
#     4  10  21  36  53  73 100 135 170 207 256 306
#     4   8  15  29  51  80 109 134 162 197 243 302
#     4  10  20  34  54  77 100 132 173 213 248 286
#     4   9  19  34  49  68  97 131 165 201 244 292
#     4   9  17  30  49  73 101 130 157 191 242 300
#     4   9  17  29  47  73 102 129 158 195 239 288
#     4   9  18  32  50  73 100 129 160 195 243 303
#     4  10  19  31  50  74  97 125 162 203 245 289
#
# _framework density 17.969066999999999
#
# number of rings (size 3 to 8) (size 9 to 14) (size 15 to 20)
#    0.000    2.750    0.000    2.250    0.000    3.250 
#    0.000    3.125    0.000    1.875    0.000    1.750 
#    0.000    0.000    0.000    0.000    0.000    0.000 
#
# Total GULP energy -178235.440377 kJ/mol
# GULP energy per Si atom -5569.857512 kJ/mol
# Density = 1.792817 g / cm^3
# Si number density = 17.969067 Si / 1000 Ang^3
#
#
#
# Elastic Constant Matrix: (Units=GPa)
#
#
# Indices 1 2 3 4 5 6 
#
# 1 31.7240 20.1808 26.9782 0.0000 0.0000 0.0000
# 2 20.1808 57.2505 28.8184 0.0000 0.0000 0.0000
# 3 26.9782 28.8184 57.2182 0.0000 0.0000 0.0000
# 4 0.0000 0.0000 0.0000 -5.8736 0.0000 0.0000
# 5 0.0000 0.0000 0.0000 0.0000 16.2793 0.0000
# 6 0.0000 0.0000 0.0000 0.0000 0.0000 13.5855
#
#
#
# Elastic Compliance Matrix: (Units=1/GPa)
#
#
# Indices 1 2 3 4 5 6 
#
# 1 0.055596 -0.008577 -0.021894 0.000000 0.000000 0.000000
# 2 -0.008577 0.024723 -0.008408 0.000000 0.000000 0.000000
# 3 -0.021894 -0.008408 0.032034 0.000000 0.000000 0.000000
# 4 0.000000 0.000000 0.000000 -0.170253 0.000000 0.000000
# 5 0.000000 0.000000 0.000000 0.000000 0.061428 0.000000
# 6 0.000000 0.000000 0.000000 0.000000 0.000000 0.073608
#
#
# Mechanical properties :
#
#
# Convention : Reuss Voigt Hill
#
# Bulk Modulus (GPa) = 28.90449 33.12749 31.01599
# Shear Modulus (GPa) = 30.04354 9.47926 19.76140
#
# Velocity S-wave (km/s) = 4.09340 2.29930 3.31984
# Velocity P-wave (km/s) = 6.20176 5.05222 5.65627
#
# Compressibility (1/GPa) = 0.03459670
#
# Stress axis : x y z
#
# Youngs Moduli (GPa) = 17.98674 40.44856 31.21648
#
# Poissons Ratio (x) = 0.34693 0.68344
# Poissons Ratio (y) = 0.15427 0.26246
# Poissons Ratio (z) = 0.39380 0.34008
#
# Static dielectric constant tensor:
#      x y z
#    x 1.610750 0.000000 0.000000 
#    y 0.000000 1.688140 0.000000 
#    z 0.000000 0.000000 1.592770 
# 
# From -- ./inp_files/20102.got.cif
#   From: 2010.05.17/outbox.cif.g08.bks.cpg/sg38_11_cif.got.tgz:20102.got - 2010.06.03 18:07:57.
