data_PCOD9356549
_publ_section_title
;
Structure prediction by ZEFSAII (Michael W. Deem and Ramdas Pophale) SiO2 
 PCOD9356549
Probable space group: A M M 2
;
_chemical_formula_sum "Si O2"
_cell_formula_units_Z 64
_cell_length_a 14.187062
_cell_length_b 27.541626
_cell_length_c 10.652053
_cell_angle_alpha 90.000000
_cell_angle_beta 90.000000
_cell_angle_gamma 90.000000
_cell_volume 4162.127326
_symmetry_space_group_name_H-M "A M M 2"
_symmetry_group_IT_number 38
_symmetry_cell_setting 'orthorhombic'
loop_
_space_group_symop_operation_xyz
x,y,z
-x,-y,z
-x,y,z
x,-y,z
x,1/2+y,1/2+z
-x,1/2-y,1/2+z
-x,1/2+y,1/2+z
x,1/2-y,1/2+z
loop_
_atom_site_type_symbol
_atom_site_label
_atom_site_fract_x
_atom_site_fract_y
_atom_site_fract_z
Si Si1 0.389110 0.557969 0.557580
Si Si2 0.105481 0.058150 0.906150
Si Si3 0.205937 0.102316 0.143249
Si Si4 0.112926 0.278489 0.892748
Si Si5 0.796733 0.941235 0.647344
Si Si6 0.604822 0.941189 0.762684
Si Si7 0.885236 0.707477 0.613343
Si Si8 0.886184 0.608400 0.906117
O O1 0.500000 0.565322 0.585739
O O2 0.369576 0.500000 0.572774
O O3 0.316788 0.590022 0.637918
O O4 0.375527 0.570084 0.409262
O O5 0.149592 0.074317 0.774495
O O6 0.000000 0.077823 0.919032
O O7 0.102162 0.000000 0.899790
O O8 0.163892 0.072040 0.027799
O O9 0.171851 0.157249 0.116444
O O10 0.159257 0.089362 0.276669
O O11 0.134128 0.267000 0.747539
O O12 0.140314 0.334462 0.916003
O O13 0.000000 0.277906 0.903800
O O14 0.145577 0.240638 0.997063
O O15 0.688621 0.925773 0.671401
O O16 0.845276 0.919198 0.525737
O O17 0.800115 0.000000 0.639692
O O18 0.500000 0.923600 0.730344
O O19 0.603121 0.000000 0.758672
O O20 0.000000 0.698195 0.608319
O O21 0.000000 0.604638 0.900102
#
# Coordination Sequence:
#
# PCOD9356549 Si02
#       8
#     8   8   8   8   8   8   8   8
#     4   9  17  31  51  73  97 125 160 206 252 285
#     4  10  19  29  42  63  93 125 161 198 225 267
#     4  11  19  31  49  72  95 123 160 200 244 288
#     4   8  16  31  47  65  91 123 158 196 235 278
#     4  10  19  31  45  66  94 129 167 199 235 283
#     4   8  14  28  49  68  88 118 157 204 248 275
#     4   9  17  30  48  69  94 122 157 198 239 288
#     4  10  21  34  46  65 102 140 161 187 238 301
#
# _framework density 15.376752
#
# number of rings (size 3 to 8) (size 9 to 14) (size 15 to 20)
#    0.000    2.625    1.250    3.375    0.000    2.750 
#    0.000    3.125    0.000    1.500    0.000    4.375 
#    0.000    0.000    0.000    0.000    0.000    0.000 
#
# Total GULP energy -178162.048719 kJ/mol
# GULP energy per Si atom -5567.564022 kJ/mol
# Density = 1.534175 g / cm^3
# Si number density = 15.376752 Si / 1000 Ang^3
#
#
#
# Elastic Constant Matrix: (Units=GPa)
#
#
# Indices 1 2 3 4 5 6 
#
# 1 95.3196 28.3254 51.4453 0.0000 0.0000 0.0000
# 2 28.3254 28.7794 33.8555 0.0000 0.0000 0.0000
# 3 51.4453 33.8555 104.6256 0.0000 0.0000 0.0000
# 4 0.0000 0.0000 0.0000 25.0477 0.0000 0.0000
# 5 0.0000 0.0000 0.0000 0.0000 23.9689 0.0000
# 6 0.0000 0.0000 0.0000 0.0000 0.0000 13.7279
#
#
#
# Elastic Compliance Matrix: (Units=1/GPa)
#
#
# Indices 1 2 3 4 5 6 
#
# 1 0.016033 -0.010505 -0.004484 0.000000 0.000000 0.000000
# 2 -0.010505 0.062986 -0.015216 0.000000 0.000000 0.000000
# 3 -0.004484 -0.015216 0.016687 0.000000 0.000000 0.000000
# 4 0.000000 0.000000 0.000000 0.039924 0.000000 0.000000
# 5 0.000000 0.000000 0.000000 0.000000 0.041721 0.000000
# 6 0.000000 0.000000 0.000000 0.000000 0.000000 0.072844
#
#
# Mechanical properties :
#
#
# Convention : Reuss Voigt Hill
#
# Bulk Modulus (GPa) = 28.33255 50.66411 39.49833
# Shear Modulus (GPa) = 15.51016 20.22215 17.86615
#
# Velocity S-wave (km/s) = 3.17941 3.63038 3.41235
# Velocity P-wave (km/s) = 5.65188 7.11287 6.42405
#
# Compressibility (1/GPa) = 0.03529509
#
# Stress axis : x y z
#
# Youngs Moduli (GPa) = 62.37192 15.87656 59.92817
#
# Poissons Ratio (x) = 0.16678 0.26874
# Poissons Ratio (y) = 0.65519 0.91188
# Poissons Ratio (z) = 0.27970 0.24158
#
# Static dielectric constant tensor:
#      x y z
#    x 1.540000 0.000000 0.000000 
#    y 0.000000 1.509540 0.000000 
#    z 0.000000 0.000000 1.515290 
# 
# From -- ./inp_files/5993.got.cif
#   From: 2010.05.17/outbox.cif.g08.bks.cpg/sg38_3_cif.got.tgz:5993.got - 2010.06.03 18:07:57.
