data_PCOD9356288
_publ_section_title
;
Structure prediction by ZEFSAII (Michael W. Deem and Ramdas Pophale) SiO2 
 PCOD9356288
Probable space group: A M M 2
;
_chemical_formula_sum "Si O2"
_cell_formula_units_Z 48
_cell_length_a 7.394260
_cell_length_b 12.752715
_cell_length_c 23.010670
_cell_angle_alpha 90.000000
_cell_angle_beta 90.000000
_cell_angle_gamma 90.000000
_cell_volume 2169.834627
_symmetry_space_group_name_H-M "A M M 2"
_symmetry_group_IT_number 38
_symmetry_cell_setting 'orthorhombic'
loop_
_space_group_symop_operation_xyz
x,y,z
-x,-y,z
-x,y,z
x,-y,z
x,1/2+y,1/2+z
-x,1/2-y,1/2+z
-x,1/2+y,1/2+z
x,1/2-y,1/2+z
loop_
_atom_site_type_symbol
_atom_site_label
_atom_site_fract_x
_atom_site_fract_y
_atom_site_fract_z
Si Si1 0.779367 0.500000 0.673380
Si Si2 0.282076 0.883860 0.625777
Si Si3 0.718578 0.882060 0.759736
Si Si4 0.207663 0.717775 0.857893
Si Si5 0.221757 0.384018 0.449569
Si Si6 0.789890 0.162242 0.078546
Si Si7 0.777373 0.500000 0.807484
O O1 0.718956 0.599907 0.634790
O O2 0.718578 0.500000 0.739977
O O3 0.000000 0.500000 0.676916
O O4 0.500000 0.884630 0.625709
O O5 0.225110 0.867350 0.692778
O O6 0.223143 0.785986 0.587993
O O7 0.221213 0.000000 0.607296
O O8 0.500000 0.878466 0.761423
O O9 0.789387 0.792418 0.801443
O O10 0.773967 0.000000 0.777573
O O11 0.287240 0.789625 0.908963
O O12 0.284393 0.605492 0.839829
O O13 0.000000 0.697264 0.874637
O O14 0.274677 0.500000 0.428416
O O15 0.284152 0.370103 0.515969
O O16 0.000000 0.381374 0.448639
O O17 0.000000 0.132462 0.075979
O O18 0.000000 0.500000 0.806725
#
# Coordination Sequence:
#
# PCOD9356288 Si02
#       7
#     4   8   8   8   8   8   4
#     4   9  16  28  49  73 103 133 162 209 260 300
#     4   9  19  35  51  70 102 137 165 203 259 311
#     4   9  18  33  52  74 101 132 166 208 259 305
#     4  10  19  32  51  75 104 136 171 208 246 299
#     4   9  17  31  50  74 103 133 167 210 261 302
#     4  10  18  31  52  76  99 130 173 215 252 301
#     4   9  18  30  45  73 105 135 166 203 254 300
#
# _framework density 22.121503000000001
#
# number of rings (size 3 to 8) (size 9 to 14) (size 15 to 20)
#    0.000    2.667    0.833    2.500    0.000    3.333 
#    1.500    3.333    0.000    4.000    0.000    0.000 
#    0.000    0.000    0.000    0.000    0.000    0.000 
#
# Total GULP energy -134022.864348 kJ/mol
# GULP energy per Si atom -5584.286014 kJ/mol
# Density = 2.207115 g / cm^3
# Si number density = 22.121503 Si / 1000 Ang^3
#
#
#
# Elastic Constant Matrix: (Units=GPa)
#
#
# Indices 1 2 3 4 5 6 
#
# 1 74.6554 0.4010 5.8500 0.0000 0.0000 0.0000
# 2 0.4010 198.3351 93.2864 0.0000 0.0000 0.0000
# 3 5.8500 93.2864 113.6956 0.0000 0.0000 0.0000
# 4 0.0000 0.0000 0.0000 35.6756 0.0000 0.0000
# 5 0.0000 0.0000 0.0000 0.0000 2494.7327 0.0000
# 6 0.0000 0.0000 0.0000 0.0000 0.0000 15.5677
#
#
#
# Elastic Compliance Matrix: (Units=1/GPa)
#
#
# Indices 1 2 3 4 5 6 
#
# 1 0.013478 0.000487 -0.001093 0.000000 0.000000 0.000000
# 2 0.000487 0.008228 -0.006776 0.000000 0.000000 0.000000
# 3 -0.001093 -0.006776 0.014411 0.000000 0.000000 0.000000
# 4 0.000000 0.000000 0.000000 0.028030 0.000000 0.000000
# 5 0.000000 0.000000 0.000000 0.000000 0.000401 0.000000
# 6 0.000000 0.000000 0.000000 0.000000 0.000000 0.064236
#
#
# Mechanical properties :
#
#
# Convention : Reuss Voigt Hill
#
# Bulk Modulus (GPa) = 46.83197 65.08456 55.95826
# Shear Modulus (GPa) = 33.18588 528.33846 280.76217
#
# Velocity S-wave (km/s) = 3.87740 15.47105 11.27802
# Velocity P-wave (km/s) = 6.42354 18.67145 13.96218
#
# Compressibility (1/GPa) = 0.02135293
#
# Stress axis : x y z
#
# Youngs Moduli (GPa) = 74.19555 121.53407 69.38929
#
# Poissons Ratio (x) = -0.05916 0.07583
# Poissons Ratio (y) = -0.03612 0.47019
# Poissons Ratio (z) = 0.08109 0.82354
#
# Static dielectric constant tensor:
#      x y z
#    x 1.695860 0.000000 0.000000 
#    y 0.000000 1.795560 0.000000 
#    z 0.000000 0.000000 1.778790 
# 
# From -- ./inp_files/20627.got.cif
#   From: 2010.05.17/outbox.cif.g08.bks.cpg/sg38_11_cif.got.tgz:20627.got - 2010.06.03 18:07:57.
