data_PCOD9356817
_publ_section_title
;
Structure prediction by ZEFSAII (Michael W. Deem and Ramdas Pophale) SiO2 
 PCOD9356817
Probable space group: A M M 2
;
_chemical_formula_sum "Si O2"
_cell_formula_units_Z 64
_cell_length_a 9.022350
_cell_length_b 14.629104
_cell_length_c 28.827368
_cell_angle_alpha 90.000000
_cell_angle_beta 90.000000
_cell_angle_gamma 90.000000
_cell_volume 3804.892491
_symmetry_space_group_name_H-M "A M M 2"
_symmetry_group_IT_number 38
_symmetry_cell_setting 'orthorhombic'
loop_
_space_group_symop_operation_xyz
x,y,z
-x,-y,z
-x,y,z
x,-y,z
x,1/2+y,1/2+z
-x,1/2-y,1/2+z
-x,1/2+y,1/2+z
x,1/2-y,1/2+z
loop_
_atom_site_type_symbol
_atom_site_label
_atom_site_fract_x
_atom_site_fract_y
_atom_site_fract_z
Si Si1 0.178481 0.225560 0.565340
Si Si2 0.323562 0.893048 0.377024
Si Si3 0.177456 0.106320 0.653927
Si Si4 0.174275 0.108190 0.475186
Si Si5 0.174933 0.607690 0.425183
Si Si6 0.177575 0.775836 0.834079
Si Si7 0.322847 0.606789 0.253186
Si Si8 0.323227 0.894114 0.023044
O O1 0.221848 0.172028 0.611848
O O2 0.219303 0.165548 0.520088
O O3 0.251127 0.323998 0.558796
O O4 0.000000 0.233529 0.565306
O O5 0.500000 0.881145 0.374691
O O6 0.265978 0.871344 0.428963
O O7 0.242946 0.824725 0.342050
O O8 0.288750 0.000000 0.368558
O O9 0.261089 0.125835 0.701767
O O10 0.000000 0.115383 0.661138
O O11 0.205289 0.000000 0.641298
O O12 0.000000 0.126761 0.465584
O O13 0.188359 0.000000 0.485171
O O14 0.196814 0.500000 0.415037
O O15 0.216133 0.666835 0.380617
O O16 0.264221 0.630207 0.471604
O O17 0.000000 0.622071 0.434664
O O18 0.247296 0.827879 0.790584
O O19 0.000000 0.773519 0.830146
O O20 0.500000 0.616845 0.254313
O O21 0.287040 0.500000 0.263589
O O22 0.500000 0.887290 0.024044
O O23 0.280986 0.000000 0.031402
#
# Coordination Sequence:
#
# PCOD9356817 Si02
#       8
#     8   8   8   8   8   8   8   8
#     4  10  19  31  51  76  99 129 168 206 246 291
#     4  10  21  35  49  69 101 138 173 210 252 296
#     4   9  18  34  55  78 104 131 160 198 245 297
#     4   9  17  30  48  72 103 135 167 203 244 294
#     4   9  18  32  49  71 100 132 166 204 246 293
#     4  11  21  33  53  77 100 131 171 211 251 297
#     4  10  21  36  54  78 107 135 162 197 246 302
#     4  10  21  34  47  67  98 135 171 207 248 291
#
# _framework density 16.820450000000001
#
# number of rings (size 3 to 8) (size 9 to 14) (size 15 to 20)
#    0.000    2.250    0.000    3.000    0.000    9.250 
#    0.000    1.250    0.000    4.500    0.000    3.500 
#    0.000    0.000    0.000    0.000    0.000    0.000 
#
# Total GULP energy -178660.070035 kJ/mol
# GULP energy per Si atom -5583.127189 kJ/mol
# Density = 1.678217 g / cm^3
# Si number density = 16.820450 Si / 1000 Ang^3
#
#
#
# Elastic Constant Matrix: (Units=GPa)
#
#
# Indices 1 2 3 4 5 6 
#
# 1 46.3517 56.4600 56.4538 0.0000 0.0000 0.0000
# 2 56.4600 109.2474 93.0818 0.0000 0.0000 0.0000
# 3 56.4538 93.0818 116.0058 0.0000 0.0000 0.0000
# 4 0.0000 0.0000 0.0000 33.4647 0.0000 0.0000
# 5 0.0000 0.0000 0.0000 0.0000 281.4121 0.0000
# 6 0.0000 0.0000 0.0000 0.0000 0.0000 25.1103
#
#
#
# Elastic Compliance Matrix: (Units=1/GPa)
#
#
# Indices 1 2 3 4 5 6 
#
# 1 0.065473 -0.021146 -0.014894 0.000000 0.000000 0.000000
# 2 -0.021146 0.035765 -0.018407 0.000000 0.000000 0.000000
# 3 -0.014894 -0.018407 0.030638 0.000000 0.000000 0.000000
# 4 0.000000 0.000000 0.000000 0.029882 0.000000 0.000000
# 5 0.000000 0.000000 0.000000 0.000000 0.003554 0.000000
# 6 0.000000 0.000000 0.000000 0.000000 0.000000 0.039824
#
#
# Mechanical properties :
#
#
# Convention : Reuss Voigt Hill
#
# Bulk Modulus (GPa) = 43.51481 75.95511 59.73496
# Shear Modulus (GPa) = 15.54283 72.37140 43.95711
#
# Velocity S-wave (km/s) = 3.04311 6.56652 5.11760
# Velocity P-wave (km/s) = 6.18657 10.13641 8.39704
#
# Compressibility (1/GPa) = 0.02298068
#
# Stress axis : x y z
#
# Youngs Moduli (GPa) = 15.27357 27.95999 32.63908
#
# Poissons Ratio (x) = 0.59125 0.48614
# Poissons Ratio (y) = 0.32298 0.60079
# Poissons Ratio (z) = 0.22749 0.51466
#
# Static dielectric constant tensor:
#      x y z
#    x 1.558470 0.000000 0.000000 
#    y 0.000000 1.579380 0.000000 
#    z 0.000000 0.000000 1.533720 
# 
# From -- ./inp_files/22146.got.cif
#   From: 2010.05.17/outbox.cif.g08.bks.cpg/sg38_12_cif.got.tgz:22146.got - 2010.06.03 18:07:57.
