data_PCOD9356507
_publ_section_title
;
Structure prediction by ZEFSAII (Michael W. Deem and Ramdas Pophale) SiO2 
 PCOD9356507
Probable space group: A M M 2
;
_chemical_formula_sum "Si O2"
_cell_formula_units_Z 48
_cell_length_a 18.478677
_cell_length_b 7.347433
_cell_length_c 15.644395
_cell_angle_alpha 90.000000
_cell_angle_beta 90.000000
_cell_angle_gamma 90.000000
_cell_volume 2124.052669
_symmetry_space_group_name_H-M "A M M 2"
_symmetry_group_IT_number 38
_symmetry_cell_setting 'orthorhombic'
loop_
_space_group_symop_operation_xyz
x,y,z
-x,-y,z
-x,y,z
x,-y,z
x,1/2+y,1/2+z
-x,1/2-y,1/2+z
-x,1/2+y,1/2+z
x,1/2-y,1/2+z
loop_
_atom_site_type_symbol
_atom_site_label
_atom_site_fract_x
_atom_site_fract_y
_atom_site_fract_z
Si Si1 0.344965 0.293320 0.581930
Si Si2 0.500000 0.789387 0.124936
Si Si3 0.655806 0.293729 0.377629
Si Si4 0.918246 0.716807 0.731241
Si Si5 0.811190 0.718054 0.385806
Si Si6 0.187618 0.723257 0.582384
Si Si7 0.500000 0.220966 0.823550
O O1 0.349443 0.500000 0.617540
O O2 0.422982 0.207334 0.598443
O O3 0.337768 0.304033 0.479895
O O4 0.268208 0.215301 0.610959
O O5 0.500000 0.778155 0.225984
O O6 0.500000 0.000000 0.091613
O O7 0.653252 0.500000 0.341625
O O8 0.733114 0.210665 0.351852
O O9 0.576989 0.212634 0.359690
O O10 0.922927 0.500000 0.719809
O O11 0.874157 0.745940 0.818626
O O12 0.871901 0.784446 0.650244
O O13 0.000000 0.788328 0.735013
O O14 0.802714 0.500000 0.391299
O O15 0.825411 0.779681 0.483609
O O16 0.189493 0.500000 0.582446
O O17 0.500000 0.000000 0.835052
#
# Coordination Sequence:
#
# PCOD9356507 Si02
#       7
#     8   4   8   8   8   8   4
#     4   8  14  27  47  69  91 121 164 206 235 271
#     4  10  19  27  43  73  99 122 160 204 238 276
#     4   8  15  29  49  70  93 127 167 202 238 284
#     4  10  21  35  52  76 105 135 163 199 258 320
#     4   9  18  34  56  79 100 129 174 216 247 290
#     4   8  16  32  53  74  99 133 170 205 245 298
#     4  10  19  29  43  67 101 134 158 190 242 292
#
# _framework density 22.598307999999999
#
# number of rings (size 3 to 8) (size 9 to 14) (size 15 to 20)
#    0.000    3.167    0.000    2.500    2.333    3.000 
#    0.000    2.500    0.000    6.000    0.000    0.000 
#    0.000    0.000    0.000    0.000    0.000    0.000 
#
# Total GULP energy -133782.254671 kJ/mol
# GULP energy per Si atom -5574.260611 kJ/mol
# Density = 2.254687 g / cm^3
# Si number density = 22.598308 Si / 1000 Ang^3
#
#
#
# Elastic Constant Matrix: (Units=GPa)
#
#
# Indices 1 2 3 4 5 6 
#
# 1 282.4078 13.8866 99.7542 0.0000 0.0000 0.0000
# 2 13.8866 87.6399 -2.0210 0.0000 0.0000 0.0000
# 3 99.7542 -2.0210 86.6161 0.0000 0.0000 0.0000
# 4 0.0000 0.0000 0.0000 30.4225 0.0000 0.0000
# 5 0.0000 0.0000 0.0000 0.0000 44.2803 0.0000
# 6 0.0000 0.0000 0.0000 0.0000 0.0000 -11.8099
#
#
#
# Elastic Compliance Matrix: (Units=1/GPa)
#
#
# Indices 1 2 3 4 5 6 
#
# 1 0.006078 -0.001125 -0.007026 0.000000 0.000000 0.000000
# 2 -0.001125 0.011625 0.001567 0.000000 0.000000 0.000000
# 3 -0.007026 0.001567 0.019674 0.000000 0.000000 0.000000
# 4 0.000000 0.000000 0.000000 0.032870 0.000000 0.000000
# 5 0.000000 0.000000 0.000000 0.000000 0.022583 0.000000
# 6 0.000000 0.000000 0.000000 0.000000 0.000000 -0.084675
#
#
# Mechanical properties :
#
#
# Convention : Reuss Voigt Hill
#
# Bulk Modulus (GPa) = 41.30886 75.54481 58.42684
# Shear Modulus (GPa) = 170.10178 35.58152 102.84165
#
# Velocity S-wave (km/s) = 8.68535 3.97233 6.75332
# Velocity P-wave (km/s) = 10.90412 7.38520 9.31238
#
# Compressibility (1/GPa) = 0.02420788
#
# Stress axis : x y z
#
# Youngs Moduli (GPa) = 164.52126 86.02342 50.82852
#
# Poissons Ratio (x) = 0.09679 0.35714
# Poissons Ratio (y) = 0.18511 -0.07965
# Poissons Ratio (z) = 1.15600 -0.13480
#
# Static dielectric constant tensor:
#      x y z
#    x 1.901660 0.000000 0.000000 
#    y 0.000000 1.747200 0.000000 
#    z 0.000000 0.000000 1.779700 
# 
# From -- ./inp_files/15025.got.cif
#   From: 2010.05.17/outbox.cif.g08.bks.cpg/sg38_8_cif.got.tgz:15025.got - 2010.06.03 18:07:57.
