data_PCOD9356246
_publ_section_title
;
Structure prediction by ZEFSAII (Michael W. Deem and Ramdas Pophale) SiO2 
 PCOD9356246
Probable space group: A M M 2
;
_chemical_formula_sum "Si O2"
_cell_formula_units_Z 58
_cell_length_a 7.676788
_cell_length_b 26.787940
_cell_length_c 14.323282
_cell_angle_alpha 90.000000
_cell_angle_beta 90.000000
_cell_angle_gamma 90.000000
_cell_volume 2945.516144
_symmetry_space_group_name_H-M "A M M 2"
_symmetry_group_IT_number 38
_symmetry_cell_setting 'orthorhombic'
loop_
_space_group_symop_operation_xyz
x,y,z
-x,-y,z
-x,y,z
x,-y,z
x,1/2+y,1/2+z
-x,1/2-y,1/2+z
-x,1/2+y,1/2+z
x,1/2-y,1/2+z
loop_
_atom_site_type_symbol
_atom_site_label
_atom_site_fract_x
_atom_site_fract_y
_atom_site_fract_z
Si Si1 0.208639 0.558564 0.356460
Si Si2 0.713483 0.160055 0.574477
Si Si3 0.797138 0.683273 0.627421
Si Si4 0.707335 0.056375 0.642458
Si Si5 0.000000 0.500000 0.583436
Si Si6 0.701105 0.225889 0.747837
Si Si7 0.712443 0.249796 0.950773
Si Si8 0.308182 0.579615 0.553447
O O1 0.255790 0.500000 0.372494
O O2 0.264085 0.570388 0.251348
O O3 0.288294 0.589296 0.441495
O O4 0.000000 0.561767 0.362342
O O5 0.500000 0.160013 0.576260
O O6 0.772781 0.102669 0.580661
O O7 0.774710 0.188709 0.668955
O O8 0.763822 0.194691 0.486771
O O9 0.709725 0.719139 0.702998
O O10 0.776634 0.712747 0.530348
O O11 0.712271 0.630017 0.611513
O O12 0.000000 0.677746 0.650180
O O13 0.500000 0.053286 0.627937
O O14 0.779126 0.000000 0.628454
O O15 0.847484 0.456988 0.578568
O O16 0.500000 0.210614 0.759227
O O17 0.778300 0.231373 0.850616
O O18 0.500000 0.249062 0.949693
O O19 0.500000 0.558685 0.568859
#
# Coordination Sequence:
#
# PCOD9356246 Si02
#       8
#     8   8   8   8   2   8   8   8
#     4  10  18  31  44  67 103 137 182 226 266 323
#     4   8  15  29  47  73 104 132 175 233 280 341
#     4  11  22  36  52  81 116 142 187 236 281 350
#     4   9  17  27  43  69  99 139 182 220 279 343
#     4  12  22  40  52  86 108 144 196 236 274 338
#     4   9  18  34  54  76 102 138 184 231 291 350
#     4   9  18  34  56  78 103 142 189 232 287 347
#     4  12  22  36  56  77 112 152 185 231 285 337
#
# _framework density 19.690946
#
# number of rings (size 3 to 8) (size 9 to 14) (size 15 to 20)
#    0.000    2.207    2.069    2.690    1.931    1.103 
#    0.000    2.759    0.000    0.000    1.793    0.000 
#    0.000    0.000    0.000    0.000    0.000    0.000 
#
# Total GULP energy -161498.481468 kJ/mol
# GULP energy per Si atom -5568.913154 kJ/mol
# Density = 1.964613 g / cm^3
# Si number density = 19.690946 Si / 1000 Ang^3
#
#
#
# Elastic Constant Matrix: (Units=GPa)
#
#
# Indices 1 2 3 4 5 6 
#
# 1 73.4528 13.8050 -5.5896 0.0000 0.0000 0.0000
# 2 13.8050 77.0105 -13.4150 0.0000 0.0000 0.0000
# 3 -5.5896 -13.4150 32.4982 0.0000 0.0000 0.0000
# 4 0.0000 0.0000 0.0000 12.9407 0.0000 0.0000
# 5 0.0000 0.0000 0.0000 0.0000 21.4715 0.0000
# 6 0.0000 0.0000 0.0000 0.0000 0.0000 20.9572
#
#
#
# Elastic Compliance Matrix: (Units=1/GPa)
#
#
# Indices 1 2 3 4 5 6 
#
# 1 0.014156 -0.002277 0.001495 0.000000 0.000000 0.000000
# 2 -0.002277 0.014358 0.005535 0.000000 0.000000 0.000000
# 3 0.001495 0.005535 0.033313 0.000000 0.000000 0.000000
# 4 0.000000 0.000000 0.000000 0.077276 0.000000 0.000000
# 5 0.000000 0.000000 0.000000 0.000000 0.046573 0.000000
# 6 0.000000 0.000000 0.000000 0.000000 0.000000 0.047716
#
#
# Mechanical properties :
#
#
# Convention : Reuss Voigt Hill
#
# Bulk Modulus (GPa) = 14.01902 19.17359 16.59631
# Shear Modulus (GPa) = 20.18865 23.61794 21.90329
#
# Velocity S-wave (km/s) = 3.20547 3.46704 3.33881
# Velocity P-wave (km/s) = 4.56454 5.07795 4.82807
#
# Compressibility (1/GPa) = 0.07133165
#
# Stress axis : x y z
#
# Youngs Moduli (GPa) = 70.64183 69.64921 30.01839
#
# Poissons Ratio (x) = 0.15861 -0.04487
# Poissons Ratio (y) = 0.16087 -0.16615
# Poissons Ratio (z) = -0.10559 -0.38551
#
# Static dielectric constant tensor:
#      x y z
#    x 1.695350 0.000000 0.000000 
#    y 0.000000 1.642470 0.000000 
#    z 0.000000 0.000000 1.688480 
# 
# From -- ./inp_files/12971.got.cif
#   From: 2010.05.17/outbox.cif.g08.bks.cpg/sg38_7_cif.got.tgz:12971.got - 2010.06.03 18:07:57.
