data_PCOD9356196
_publ_section_title
;
Structure prediction by ZEFSAII (Michael W. Deem and Ramdas Pophale) SiO2 
 PCOD9356196
Probable space group: A M M 2
;
_chemical_formula_sum "Si O2"
_cell_formula_units_Z 56
_cell_length_a 11.917066
_cell_length_b 23.534417
_cell_length_c 11.971442
_cell_angle_alpha 90.000000
_cell_angle_beta 90.000000
_cell_angle_gamma 90.000000
_cell_volume 3357.524997
_symmetry_space_group_name_H-M "A M M 2"
_symmetry_group_IT_number 38
_symmetry_cell_setting 'orthorhombic'
loop_
_space_group_symop_operation_xyz
x,y,z
-x,-y,z
-x,y,z
x,-y,z
x,1/2+y,1/2+z
-x,1/2-y,1/2+z
-x,1/2+y,1/2+z
x,1/2-y,1/2+z
loop_
_atom_site_type_symbol
_atom_site_label
_atom_site_fract_x
_atom_site_fract_y
_atom_site_fract_z
Si Si1 0.631226 0.358569 0.911340
Si Si2 0.635166 0.272131 0.107166
Si Si3 0.000000 0.431648 0.413903
Si Si4 0.239117 0.433012 0.066537
Si Si5 0.365358 0.626619 0.263909
Si Si6 0.632659 0.646699 0.646910
Si Si7 0.000000 0.069506 0.656840
Si Si8 0.249468 0.931106 0.978309
O O1 0.500000 0.372315 0.933950
O O2 0.642648 0.349542 0.780382
O O3 0.659404 0.305661 0.992627
O O4 0.712186 0.407777 0.953510
O O5 0.500000 0.268325 0.115901
O O6 0.668814 0.311206 0.213882
O O7 0.676320 0.207737 0.103736
O O8 0.000000 0.411219 0.285548
O O9 0.117124 0.416991 0.471770
O O10 0.000000 0.500000 0.406944
O O11 0.234188 0.500000 0.061738
O O12 0.324114 0.414269 0.164282
O O13 0.114710 0.411687 0.098121
O O14 0.500000 0.626141 0.276452
O O15 0.308694 0.602419 0.375607
O O16 0.500000 0.641003 0.619719
O O17 0.696664 0.594685 0.589911
O O18 0.000000 0.000000 0.657317
O O19 0.263742 0.000000 0.967898
#
# Coordination Sequence:
#
# PCOD9356196 Si02
#       8
#     8   8   4   8   8   8   4   8
#     4   9  19  34  50  75 107 139 175 212 262 325
#     4   8  17  33  53  77 104 138 181 215 256 315
#     4   9  18  36  55  72 104 147 185 223 266 327
#     4  10  18  30  50  75 103 136 174 218 266 313
#     4  10  19  30  50  82 110 134 171 221 266 315
#     4  10  21  35  54  78 110 146 175 216 267 327
#     4   9  16  30  51  74  98 133 183 225 262 313
#     4  11  22  35  54  81 110 143 182 224 277 328
#
# _framework density 16.678954000000001
#
# number of rings (size 3 to 8) (size 9 to 14) (size 15 to 20)
#    0.000    2.429    1.429    2.143    2.000    3.429 
#    0.000    2.143    0.000    6.857    0.000    0.000 
#    0.000    0.000    0.000    0.000    0.000    0.000 
#
# Total GULP energy -155930.707882 kJ/mol
# GULP energy per Si atom -5568.953853 kJ/mol
# Density = 1.664099 g / cm^3
# Si number density = 16.678954 Si / 1000 Ang^3
#
#
#
# Elastic Constant Matrix: (Units=GPa)
#
#
# Indices 1 2 3 4 5 6 
#
# 1 77.3937 24.8290 32.2776 0.0000 0.0000 0.0000
# 2 24.8290 53.8944 20.5673 0.0000 0.0000 0.0000
# 3 32.2776 20.5673 58.2433 0.0000 0.0000 0.0000
# 4 0.0000 0.0000 0.0000 16.8746 0.0000 0.0000
# 5 0.0000 0.0000 0.0000 0.0000 17.7354 0.0000
# 6 0.0000 0.0000 0.0000 0.0000 0.0000 -11.2400
#
#
#
# Elastic Compliance Matrix: (Units=1/GPa)
#
#
# Indices 1 2 3 4 5 6 
#
# 1 0.017973 -0.005177 -0.008133 0.000000 0.000000 0.000000
# 2 -0.005177 0.022936 -0.005230 0.000000 0.000000 0.000000
# 3 -0.008133 -0.005230 0.023523 0.000000 0.000000 0.000000
# 4 0.000000 0.000000 0.000000 0.059261 0.000000 0.000000
# 5 0.000000 0.000000 0.000000 0.000000 0.056384 0.000000
# 6 0.000000 0.000000 0.000000 0.000000 0.000000 -0.088968
#
#
# Mechanical properties :
#
#
# Convention : Reuss Voigt Hill
#
# Bulk Modulus (GPa) = 36.55890 38.31992 37.43941
# Shear Modulus (GPa) = 36.41489 12.13117 24.27303
#
# Velocity S-wave (km/s) = 4.67763 2.69984 3.81899
# Velocity P-wave (km/s) = 7.15125 5.72221 6.47627
#
# Compressibility (1/GPa) = 0.02735312
#
# Stress axis : x y z
#
# Youngs Moduli (GPa) = 55.63752 43.60003 42.51105
#
# Poissons Ratio (x) = 0.22571 0.34572
# Poissons Ratio (y) = 0.28802 0.22235
# Poissons Ratio (z) = 0.45248 0.22804
#
# Static dielectric constant tensor:
#      x y z
#    x 1.557790 0.000000 0.000000 
#    y 0.000000 1.579810 0.000000 
#    z 0.000000 0.000000 1.571090 
# 
# From -- ./inp_files/9529.got.cif
#   From: 2010.05.17/outbox.cif.g08.bks.cpg/sg38_5_cif.got.tgz:9529.got - 2010.06.03 18:07:57.
