data_PCOD9356250
_publ_section_title
;
Structure prediction by ZEFSAII (Michael W. Deem and Ramdas Pophale) SiO2 
 PCOD9356250
Probable space group: A M M 2
;
_chemical_formula_sum "Si O2"
_cell_formula_units_Z 56
_cell_length_a 8.856887
_cell_length_b 19.564279
_cell_length_c 18.618221
_cell_angle_alpha 90.000000
_cell_angle_beta 90.000000
_cell_angle_gamma 90.000000
_cell_volume 3226.139425
_symmetry_space_group_name_H-M "A M M 2"
_symmetry_group_IT_number 38
_symmetry_cell_setting 'orthorhombic'
loop_
_space_group_symop_operation_xyz
x,y,z
-x,-y,z
-x,y,z
x,-y,z
x,1/2+y,1/2+z
-x,1/2-y,1/2+z
-x,1/2+y,1/2+z
x,1/2-y,1/2+z
loop_
_atom_site_type_symbol
_atom_site_label
_atom_site_fract_x
_atom_site_fract_y
_atom_site_fract_z
Si Si1 0.828770 0.290505 0.496400
Si Si2 0.181147 0.795322 0.240542
Si Si3 0.173109 0.341363 0.896181
Si Si4 0.320724 0.075024 0.986664
Si Si5 0.317850 0.421398 0.024865
Si Si6 0.821166 0.926225 0.143438
Si Si7 0.680239 0.706963 0.121883
O O1 0.831091 0.228003 0.441976
O O2 0.762884 0.357863 0.459036
O O3 0.731314 0.264004 0.563619
O O4 0.000000 0.303308 0.521373
O O5 0.237018 0.817627 0.319398
O O6 0.211671 0.861984 0.192322
O O7 0.250848 0.730992 0.197878
O O8 0.000000 0.784802 0.245212
O O9 0.000000 0.365657 0.885119
O O10 0.258403 0.394804 0.947587
O O11 0.500000 0.081654 0.979168
O O12 0.273595 0.075669 0.070490
O O13 0.275172 0.000000 0.958127
O O14 0.500000 0.419682 0.023456
O O15 0.270416 0.500000 0.038372
O O16 0.270049 0.365637 0.085892
O O17 0.000000 0.924569 0.125802
O O18 0.792171 0.000000 0.179184
O O19 0.500000 0.706157 0.127479
#
# Coordination Sequence:
#
# PCOD9356250 Si02
#       7
#     8   8   8   8   8   8   8
#     4  10  18  31  49  69  95 128 164 203 244 292
#     4  10  19  32  49  72 103 135 166 205 248 299
#     4   9  20  34  50  74 102 132 167 205 250 302
#     4  10  19  29  44  68  95 121 154 198 240 280
#     4   9  19  36  55  76 103 135 172 214 260 307
#     4   9  17  28  43  65  94 128 159 186 226 280
#     4  10  19  31  51  75  98 129 169 212 253 296
#
# _framework density 17.358207
#
# number of rings (size 3 to 8) (size 9 to 14) (size 15 to 20)
#    0.000    2.429    1.429    1.286    0.000    3.429 
#    0.000    1.429    0.000    2.571    0.000    4.000 
#    0.000    0.000    0.000    0.000    0.000    0.000 
#
# Total GULP energy -155885.300836 kJ/mol
# GULP energy per Si atom -5567.332173 kJ/mol
# Density = 1.731870 g / cm^3
# Si number density = 17.358207 Si / 1000 Ang^3
#
#
#
# Elastic Constant Matrix: (Units=GPa)
#
#
# Indices 1 2 3 4 5 6 
#
# 1 28.6850 25.7257 7.2664 0.0000 0.0000 0.0000
# 2 25.7257 127.9915 26.3194 0.0000 0.0000 0.0000
# 3 7.2664 26.3194 56.7711 0.0000 0.0000 0.0000
# 4 0.0000 0.0000 0.0000 1.0088 0.0000 0.0000
# 5 0.0000 0.0000 0.0000 0.0000 38.6255 0.0000
# 6 0.0000 0.0000 0.0000 0.0000 0.0000 22.6607
#
#
#
# Elastic Compliance Matrix: (Units=1/GPa)
#
#
# Indices 1 2 3 4 5 6 
#
# 1 0.042665 -0.008238 -0.001642 0.000000 0.000000 0.000000
# 2 -0.008238 0.010227 -0.003687 0.000000 0.000000 0.000000
# 3 -0.001642 -0.003687 0.019534 0.000000 0.000000 0.000000
# 4 0.000000 0.000000 0.000000 0.991233 0.000000 0.000000
# 5 0.000000 0.000000 0.000000 0.000000 0.025890 0.000000
# 6 0.000000 0.000000 0.000000 0.000000 0.000000 0.044129
#
#
# Mechanical properties :
#
#
# Convention : Reuss Voigt Hill
#
# Bulk Modulus (GPa) = 22.07839 36.89674 29.48757
# Shear Modulus (GPa) = 4.25203 22.73473 13.49338
#
# Velocity S-wave (km/s) = 1.56681 3.62296 2.79112
# Velocity P-wave (km/s) = 4.00251 6.22923 5.23562
#
# Compressibility (1/GPa) = 0.04529315
#
# Stress axis : x y z
#
# Youngs Moduli (GPa) = 23.43815 97.78080 51.19283
#
# Poissons Ratio (x) = 0.80551 0.08405
# Poissons Ratio (y) = 0.19308 0.18874
# Poissons Ratio (z) = 0.03848 0.36050
#
# Static dielectric constant tensor:
#      x y z
#    x 1.596830 0.000000 0.000000 
#    y 0.000000 1.636890 0.000000 
#    z 0.000000 0.000000 1.585550 
# 
# From -- ./inp_files/17105.got.cif
#   From: 2010.05.17/outbox.cif.g08.bks.cpg/sg38_9_cif.got.tgz:17105.got - 2010.06.03 18:07:57.
