data_PCOD9356687
_publ_section_title
;
Structure prediction by ZEFSAII (Michael W. Deem and Ramdas Pophale) SiO2 
 PCOD9356687
Probable space group: A M M 2
;
_chemical_formula_sum "Si O2"
_cell_formula_units_Z 64
_cell_length_a 8.947892
_cell_length_b 14.707942
_cell_length_c 28.761132
_cell_angle_alpha 90.000000
_cell_angle_beta 90.000000
_cell_angle_gamma 90.000000
_cell_volume 3785.110979
_symmetry_space_group_name_H-M "A M M 2"
_symmetry_group_IT_number 38
_symmetry_cell_setting 'orthorhombic'
loop_
_space_group_symop_operation_xyz
x,y,z
-x,-y,z
-x,y,z
x,-y,z
x,1/2+y,1/2+z
-x,1/2-y,1/2+z
-x,1/2+y,1/2+z
x,1/2-y,1/2+z
loop_
_atom_site_type_symbol
_atom_site_label
_atom_site_fract_x
_atom_site_fract_y
_atom_site_fract_z
Si Si1 0.321416 0.106096 0.700300
Si Si2 0.676995 0.891798 0.863719
Si Si3 0.179187 0.605744 0.100179
Si Si4 0.819863 0.223056 0.511469
Si Si5 0.177547 0.722464 0.281980
Si Si6 0.679864 0.895733 0.971205
Si Si7 0.823658 0.607501 0.921287
Si Si8 0.678063 0.105853 0.322377
O O1 0.500000 0.115762 0.702120
O O2 0.261314 0.124835 0.648544
O O3 0.245776 0.171214 0.737692
O O4 0.285234 0.000000 0.710884
O O5 0.500000 0.871181 0.858290
O O6 0.769690 0.834069 0.827250
O O7 0.720062 0.874446 0.917358
O O8 0.694824 0.000000 0.855461
O O9 0.207456 0.500000 0.087587
O O10 0.226441 0.671050 0.058227
O O11 0.000000 0.614914 0.106792
O O12 0.752721 0.322528 0.504749
O O13 0.775781 0.164619 0.466020
O O14 0.000000 0.227263 0.511666
O O15 0.242617 0.823460 0.288457
O O16 0.000000 0.724526 0.279268
O O17 0.500000 0.891116 0.973835
O O18 0.724230 0.000000 0.980615
O O19 0.808432 0.500000 0.931336
O O20 0.731727 0.627879 0.874838
O O21 0.000000 0.625121 0.912286
O O22 0.500000 0.115550 0.319366
O O23 0.717228 0.000000 0.313797
#
# Coordination Sequence:
#
# PCOD9356687 Si02
#       8
#     8   8   8   8   8   8   8   8
#     4  10  21  37  56  78 104 132 163 202 248 298
#     4   9  18  33  51  72 102 138 173 210 251 295
#     4   9  18  34  54  76 104 133 160 196 246 302
#     4  10  19  30  49  76 102 132 168 204 246 294
#     4  12  23  33  51  77 103 133 168 206 251 303
#     4   9  19  34  49  67  96 135 174 211 251 290
#     4   9  17  30  48  73 106 138 167 201 244 296
#     4  10  21  36  52  71  99 136 175 213 251 291
#
# _framework density 16.908355
#
# number of rings (size 3 to 8) (size 9 to 14) (size 15 to 20)
#    0.000    2.250    0.000    4.125    0.000    8.500 
#    0.000    1.250    0.000    4.500    0.000    3.500 
#    0.000    0.000    0.000    0.000    0.000    0.000 
#
# Total GULP energy -178666.324129 kJ/mol
# GULP energy per Si atom -5583.322629 kJ/mol
# Density = 1.686987 g / cm^3
# Si number density = 16.908355 Si / 1000 Ang^3
#
#
#
# Elastic Constant Matrix: (Units=GPa)
#
#
# Indices 1 2 3 4 5 6 
#
# 1 57.6029 57.8900 56.6526 0.0000 0.0000 0.0000
# 2 57.8900 114.6144 97.9925 0.0000 0.0000 0.0000
# 3 56.6526 97.9925 110.9263 0.0000 0.0000 0.0000
# 4 0.0000 0.0000 0.0000 33.1630 0.0000 0.0000
# 5 0.0000 0.0000 0.0000 0.0000 97.4975 0.0000
# 6 0.0000 0.0000 0.0000 0.0000 0.0000 27.6442
#
#
#
# Elastic Compliance Matrix: (Units=1/GPa)
#
#
# Indices 1 2 3 4 5 6 
#
# 1 0.037770 -0.010562 -0.009960 0.000000 0.000000 0.000000
# 2 -0.010562 0.038607 -0.028711 0.000000 0.000000 0.000000
# 3 -0.009960 -0.028711 0.039465 0.000000 0.000000 0.000000
# 4 0.000000 0.000000 0.000000 0.030154 0.000000 0.000000
# 5 0.000000 0.000000 0.000000 0.000000 0.010257 0.000000
# 6 0.000000 0.000000 0.000000 0.000000 0.000000 0.036174
#
#
# Mechanical properties :
#
#
# Convention : Reuss Voigt Hill
#
# Bulk Modulus (GPa) = 57.54843 78.69042 68.11942
# Shear Modulus (GPa) = 16.85286 36.36816 26.61051
#
# Velocity S-wave (km/s) = 3.16051 4.64281 3.97143
# Velocity P-wave (km/s) = 6.88679 8.68224 7.83611
#
# Compressibility (1/GPa) = 0.01737667
#
# Stress axis : x y z
#
# Youngs Moduli (GPa) = 26.47595 25.90206 25.33859
#
# Poissons Ratio (x) = 0.27357 0.25237
# Poissons Ratio (y) = 0.27963 0.72751
# Poissons Ratio (z) = 0.26370 0.74368
#
# Static dielectric constant tensor:
#      x y z
#    x 1.563550 0.000000 0.000000 
#    y 0.000000 1.576250 0.000000 
#    z 0.000000 0.000000 1.545110 
# 
# From -- ./inp_files/22176.got.cif
#   From: 2010.05.17/outbox.cif.g08.bks.cpg/sg38_12_cif.got.tgz:22176.got - 2010.06.03 18:07:57.
