data_PCOD9356035
_publ_section_title
;
Structure prediction by ZEFSAII (Michael W. Deem and Ramdas Pophale) SiO2 
 PCOD9356035
Probable space group: A M M 2
;
_chemical_formula_sum "Si O2"
_cell_formula_units_Z 64
_cell_length_a 7.592946
_cell_length_b 31.541882
_cell_length_c 14.863830
_cell_angle_alpha 90.000000
_cell_angle_beta 90.000000
_cell_angle_gamma 90.000000
_cell_volume 3559.824957
_symmetry_space_group_name_H-M "A M M 2"
_symmetry_group_IT_number 38
_symmetry_cell_setting 'orthorhombic'
loop_
_space_group_symop_operation_xyz
x,y,z
-x,-y,z
-x,y,z
x,-y,z
x,1/2+y,1/2+z
-x,1/2-y,1/2+z
-x,1/2+y,1/2+z
x,1/2-y,1/2+z
loop_
_atom_site_type_symbol
_atom_site_label
_atom_site_fract_x
_atom_site_fract_y
_atom_site_fract_z
Si Si1 0.212617 0.229699 0.482300
Si Si2 0.209411 0.866388 0.151259
Si Si3 0.299643 0.369284 0.278288
Si Si4 0.715479 0.951423 0.865468
Si Si5 0.288231 0.047723 0.071240
Si Si6 0.294845 0.714309 0.188260
Si Si7 0.207817 0.300401 0.793810
Si Si8 0.786671 0.671736 0.463343
O O1 0.278359 0.217908 0.581067
O O2 0.279810 0.204709 0.394685
O O3 0.254190 0.278716 0.463543
O O4 0.000000 0.226450 0.486302
O O5 0.237275 0.916450 0.142303
O O6 0.281582 0.838895 0.233905
O O7 0.000000 0.858823 0.150752
O O8 0.276599 0.847372 0.057347
O O9 0.500000 0.375263 0.244772
O O10 0.221015 0.416021 0.295021
O O11 0.216954 0.330752 0.221414
O O12 0.299623 0.350844 0.379213
O O13 0.500000 0.949663 0.865475
O O14 0.765143 0.000000 0.845722
O O15 0.772739 0.941960 0.968800
O O16 0.500000 0.047013 0.067554
O O17 0.227718 0.000000 0.092377
O O18 0.500000 0.713750 0.213700
O O19 0.221878 0.756207 0.237966
O O20 0.000000 0.308114 0.805574
O O21 0.000000 0.666933 0.456021
#
# Coordination Sequence:
#
# PCOD9356035 Si02
#       8
#     8   8   8   8   8   8   8   8
#     4  10  20  35  51  64  89 129 166 199 228 270
#     4  10  19  30  45  69  95 120 156 196 233 269
#     4  10  19  30  45  68  95 124 156 190 230 277
#     4   8  14  26  44  64  88 119 153 185 218 268
#     4   9  17  29  46  68  93 124 157 185 224 282
#     4  11  22  31  45  71  99 123 153 197 243 283
#     4  10  20  35  51  67  90 125 168 199 226 279
#     4  10  18  28  46  68  91 123 158 191 227 268
#
# _framework density 17.978411999999999
#
# number of rings (size 3 to 8) (size 9 to 14) (size 15 to 20)
#    0.000    2.250    3.750    1.125    0.000    2.250 
#    0.000    0.000    0.000    0.375    0.000    0.875 
#    0.000    3.000    0.000    0.000    0.000    0.000 
#
# Total GULP energy -178402.883774 kJ/mol
# GULP energy per Si atom -5575.090118 kJ/mol
# Density = 1.793749 g / cm^3
# Si number density = 17.978412 Si / 1000 Ang^3
#
#
#
# Elastic Constant Matrix: (Units=GPa)
#
#
# Indices 1 2 3 4 5 6 
#
# 1 33.4081 -6.8103 -8.1482 0.0000 0.0000 0.0000
# 2 -6.8103 102.5715 22.0619 0.0000 0.0000 0.0000
# 3 -8.1482 22.0619 64.6729 0.0000 0.0000 0.0000
# 4 0.0000 0.0000 0.0000 28.1607 0.0000 0.0000
# 5 0.0000 0.0000 0.0000 0.0000 12.0830 0.0000
# 6 0.0000 0.0000 0.0000 0.0000 0.0000 13.6283
#
#
#
# Elastic Compliance Matrix: (Units=1/GPa)
#
#
# Indices 1 2 3 4 5 6 
#
# 1 0.031046 0.001317 0.003462 0.000000 0.000000 0.000000
# 2 0.001317 0.010577 -0.003442 0.000000 0.000000 0.000000
# 3 0.003462 -0.003442 0.017073 0.000000 0.000000 0.000000
# 4 0.000000 0.000000 0.000000 0.035511 0.000000 0.000000
# 5 0.000000 0.000000 0.000000 0.000000 0.082761 0.000000
# 6 0.000000 0.000000 0.000000 0.000000 0.000000 0.073377
#
#
# Mechanical properties :
#
#
# Convention : Reuss Voigt Hill
#
# Bulk Modulus (GPa) = 16.29485 23.87325 20.08405
# Shear Modulus (GPa) = 18.64787 23.67767 21.16277
#
# Velocity S-wave (km/s) = 3.22411 3.63299 3.43464
# Velocity P-wave (km/s) = 4.78989 5.55930 5.18888
#
# Compressibility (1/GPa) = 0.06136910
#
# Stress axis : x y z
#
# Youngs Moduli (GPa) = 32.21052 94.54382 58.57229
#
# Poissons Ratio (x) = -0.12448 -0.20280
# Poissons Ratio (y) = -0.04241 0.20162
# Poissons Ratio (z) = -0.11152 0.32545
#
# Static dielectric constant tensor:
#      x y z
#    x 1.667790 0.000000 0.000000 
#    y 0.000000 1.658990 0.000000 
#    z 0.000000 0.000000 1.607340 
# 
# From -- ./inp_files/13064.got.cif
#   From: 2010.05.17/outbox.cif.g08.bks.cpg/sg38_7_cif.got.tgz:13064.got - 2010.06.03 18:07:57.
