data_PCOD9356393
_publ_section_title
;
Structure prediction by ZEFSAII (Michael W. Deem and Ramdas Pophale) SiO2 
 PCOD9356393
Probable space group: A M M 2
;
_chemical_formula_sum "Si O2"
_cell_formula_units_Z 48
_cell_length_a 17.651001
_cell_length_b 8.380084
_cell_length_c 15.471872
_cell_angle_alpha 90.000000
_cell_angle_beta 90.000000
_cell_angle_gamma 90.000000
_cell_volume 2288.550896
_symmetry_space_group_name_H-M "A M M 2"
_symmetry_group_IT_number 38
_symmetry_cell_setting 'orthorhombic'
loop_
_space_group_symop_operation_xyz
x,y,z
-x,-y,z
-x,y,z
x,-y,z
x,1/2+y,1/2+z
-x,1/2-y,1/2+z
-x,1/2+y,1/2+z
x,1/2-y,1/2+z
loop_
_atom_site_type_symbol
_atom_site_label
_atom_site_fract_x
_atom_site_fract_y
_atom_site_fract_z
Si Si1 0.165752 0.188693 0.685730
Si Si2 0.836886 0.194648 0.383377
Si Si3 0.675583 0.182311 0.139970
Si Si4 0.000000 0.807253 0.703212
Si Si5 0.323633 0.813239 0.460673
Si Si6 0.412419 0.686347 0.299556
Si Si7 0.000000 0.812655 0.398933
O O1 0.169192 0.229741 0.788017
O O2 0.234927 0.279306 0.642476
O O3 0.079702 0.229468 0.657805
O O4 0.176644 0.000000 0.672464
O O5 0.762072 0.236239 0.436094
O O6 0.916908 0.248334 0.425038
O O7 0.838437 0.000000 0.374083
O O8 0.633997 0.286755 0.211854
O O9 0.663056 0.000000 0.164011
O O10 0.647912 0.218936 0.043821
O O11 0.000000 0.715441 0.794794
O O12 0.000000 0.000000 0.720532
O O13 0.373969 0.783890 0.376529
O O14 0.322161 0.000000 0.482721
O O15 0.500000 0.731317 0.287388
O O16 0.408534 0.500000 0.322924
O O17 0.000000 0.000000 0.420005
#
# Coordination Sequence:
#
# PCOD9356393 Si02
#       7
#     8   8   8   4   8   8   4
#     4  10  18  32  56  84 120 161 207 258 309 362
#     4   9  17  31  54  84 118 159 203 249 302 361
#     4  12  25  41  63  92 127 167 211 254 304 363
#     4   8  16  28  47  80 115 156 204 254 307 358
#     4  11  23  40  64  94 128 165 207 250 303 366
#     4  11  25  46  71  97 124 156 197 249 311 375
#     4   8  14  26  47  78 115 154 200 248 295 352
#
# _framework density 20.973972
#
# number of rings (size 3 to 8) (size 9 to 14) (size 15 to 20)
#    0.000    1.833    1.667    3.000    0.000    3.333 
#    0.000    0.833    0.000    3.000    0.000    0.000 
#    0.000    0.000    0.000    0.000    0.000    0.000 
#
# Total GULP energy -134042.215317 kJ/mol
# GULP energy per Si atom -5585.092305 kJ/mol
# Density = 2.092623 g / cm^3
# Si number density = 20.973972 Si / 1000 Ang^3
#
#
#
# Elastic Constant Matrix: (Units=GPa)
#
#
# Indices 1 2 3 4 5 6 
#
# 1 98.3215 5.8944 14.8451 0.0000 0.0000 0.0000
# 2 5.8944 21.3574 -7.9764 0.0000 0.0000 0.0000
# 3 14.8451 -7.9764 58.6278 0.0000 0.0000 0.0000
# 4 0.0000 0.0000 0.0000 23.2802 0.0000 0.0000
# 5 0.0000 0.0000 0.0000 0.0000 -12.4489 0.0000
# 6 0.0000 0.0000 0.0000 0.0000 0.0000 23.6366
#
#
#
# Elastic Compliance Matrix: (Units=1/GPa)
#
#
# Indices 1 2 3 4 5 6 
#
# 1 0.010932 -0.004268 -0.003349 0.000000 0.000000 0.000000
# 2 -0.004268 0.050995 0.008019 0.000000 0.000000 0.000000
# 3 -0.003349 0.008019 0.018996 0.000000 0.000000 0.000000
# 4 0.000000 0.000000 0.000000 0.042955 0.000000 0.000000
# 5 0.000000 0.000000 0.000000 0.000000 -0.080328 0.000000
# 6 0.000000 0.000000 0.000000 0.000000 0.000000 0.042307
#
#
# Mechanical properties :
#
#
# Convention : Reuss Voigt Hill
#
# Bulk Modulus (GPa) = 12.23595 22.64810 17.44202
# Shear Modulus (GPa) = 44.52574 17.92983 31.22779
#
# Velocity S-wave (km/s) = 4.61250 2.92697 3.86279
# Velocity P-wave (km/s) = 5.84922 4.71641 5.31309
#
# Compressibility (1/GPa) = 0.08172638
#
# Stress axis : x y z
#
# Youngs Moduli (GPa) = 91.47304 19.60989 52.64369
#
# Poissons Ratio (x) = 0.08369 0.17629
# Poissons Ratio (y) = 0.39039 -0.42213
# Poissons Ratio (z) = 0.30632 -0.15724
#
# Static dielectric constant tensor:
#      x y z
#    x 1.781720 0.000000 0.000000 
#    y 0.000000 1.719670 0.000000 
#    z 0.000000 0.000000 1.734200 
# 
# From -- ./inp_files/14992.got.cif
#   From: 2010.05.17/outbox.cif.g08.bks.cpg/sg38_8_cif.got.tgz:14992.got - 2010.06.03 18:07:57.
