data_PCOD9356542
_publ_section_title
;
Structure prediction by ZEFSAII (Michael W. Deem and Ramdas Pophale) SiO2 
 PCOD9356542
Probable space group: A M M 2
;
_chemical_formula_sum "Si O2"
_cell_formula_units_Z 64
_cell_length_a 8.807578
_cell_length_b 14.089946
_cell_length_c 35.725898
_cell_angle_alpha 90.000000
_cell_angle_beta 90.000000
_cell_angle_gamma 90.000000
_cell_volume 4433.523151
_symmetry_space_group_name_H-M "A M M 2"
_symmetry_group_IT_number 38
_symmetry_cell_setting 'orthorhombic'
loop_
_space_group_symop_operation_xyz
x,y,z
-x,-y,z
-x,y,z
x,-y,z
x,1/2+y,1/2+z
-x,1/2-y,1/2+z
-x,1/2+y,1/2+z
x,1/2-y,1/2+z
loop_
_atom_site_type_symbol
_atom_site_label
_atom_site_fract_x
_atom_site_fract_y
_atom_site_fract_z
Si Si1 0.682210 0.612594 0.314240
Si Si2 0.816576 0.608834 0.545190
Si Si3 0.819512 0.388001 0.154147
Si Si4 0.184132 0.207609 0.967873
Si Si5 0.677048 0.384700 0.232331
Si Si6 0.183173 0.888767 0.891812
Si Si7 0.680738 0.789979 0.582482
Si Si8 0.183646 0.607940 0.010618
O O1 0.500000 0.621608 0.315870
O O2 0.718322 0.500000 0.314368
O O3 0.731174 0.649687 0.273302
O O4 0.754839 0.649954 0.352376
O O5 0.773971 0.500000 0.552119
O O6 0.773758 0.640341 0.502868
O O7 0.743007 0.685341 0.572726
O O8 0.000000 0.616696 0.547741
O O9 0.778757 0.500000 0.150123
O O10 0.770302 0.356850 0.195787
O O11 0.737730 0.328282 0.122166
O O12 0.000000 0.380078 0.149834
O O13 0.238170 0.168746 0.928117
O O14 0.230096 0.313814 0.979830
O O15 0.000000 0.206352 0.966258
O O16 0.500000 0.358592 0.227645
O O17 0.681881 0.500000 0.233933
O O18 0.000000 0.886006 0.890770
O O19 0.227273 0.000000 0.895943
O O20 0.500000 0.790956 0.580759
O O21 0.748032 0.857737 0.549960
O O22 0.227152 0.500000 0.002089
O O23 0.000000 0.612007 0.013812
#
# Coordination Sequence:
#
# PCOD9356542 Si02
#       8
#     8   8   8   8   8   8   8   8
#     4   8  14  24  36  51  75 106 134 159 192 236
#     4   9  17  31  49  63  79 107 140 173 208 243
#     4  10  19  29  42  60  82 108 139 173 204 239
#     4   8  14  25  41  61  81 102 133 170 206 242
#     4   8  14  25  39  54  75 104 134 162 197 241
#     4   9  15  22  35  55  78 104 133 163 194 234
#     4  11  21  30  42  61  85 110 136 168 205 247
#     4   9  17  30  46  60  77 105 141 178 212 246
#
# _framework density 14.435472000000001
#
# number of rings (size 3 to 8) (size 9 to 14) (size 15 to 20)
#    0.000    3.000    0.000    3.750    0.000    4.750 
#    0.000    5.000    0.000    3.000    0.000    0.000 
#    0.000    1.000    0.000    9.250    0.000    3.000 
#
# Total GULP energy -178143.837900 kJ/mol
# GULP energy per Si atom -5566.994934 kJ/mol
# Density = 1.440262 g / cm^3
# Si number density = 14.435472 Si / 1000 Ang^3
#
#
#
# Elastic Constant Matrix: (Units=GPa)
#
#
# Indices 1 2 3 4 5 6 
#
# 1 19.4718 24.5305 29.3300 0.0000 0.0000 0.0000
# 2 24.5305 79.0919 53.8649 0.0000 0.0000 0.0000
# 3 29.3300 53.8649 132.5575 0.0000 0.0000 0.0000
# 4 0.0000 0.0000 0.0000 18.4723 0.0000 0.0000
# 5 0.0000 0.0000 0.0000 0.0000 52.5319 0.0000
# 6 0.0000 0.0000 0.0000 0.0000 0.0000 8.7149
#
#
#
# Elastic Compliance Matrix: (Units=1/GPa)
#
#
# Indices 1 2 3 4 5 6 
#
# 1 0.098025 -0.021612 -0.012907 0.000000 0.000000 0.000000
# 2 -0.021612 0.022246 -0.004258 0.000000 0.000000 0.000000
# 3 -0.012907 -0.004258 0.012130 0.000000 0.000000 0.000000
# 4 0.000000 0.000000 0.000000 0.054135 0.000000 0.000000
# 5 0.000000 0.000000 0.000000 0.000000 0.019036 0.000000
# 6 0.000000 0.000000 0.000000 0.000000 0.000000 0.114745
#
#
# Mechanical properties :
#
#
# Convention : Reuss Voigt Hill
#
# Bulk Modulus (GPa) = 18.23261 49.61912 33.92586
# Shear Modulus (GPa) = 12.01476 24.17023 18.09249
#
# Velocity S-wave (km/s) = 2.88810 4.09634 3.54409
# Velocity P-wave (km/s) = 4.87641 7.53797 6.34824
#
# Compressibility (1/GPa) = 0.05484680
#
# Stress axis : x y z
#
# Youngs Moduli (GPa) = 10.20147 44.95106 82.44087
#
# Poissons Ratio (x) = 0.97150 1.06407
# Poissons Ratio (y) = 0.22048 0.35102
# Poissons Ratio (z) = 0.13167 0.19139
#
# Static dielectric constant tensor:
#      x y z
#    x 1.483610 0.000000 0.000000 
#    y 0.000000 1.462890 0.000000 
#    z 0.000000 0.000000 1.490830 
# 
# From -- ./inp_files/24760.got.cif
#   From: 2010.05.17/outbox.cif.g08.bks.cpg/sg38_13_cif.got.tgz:24760.got - 2010.06.03 18:07:57.
