data_PCOD9356558
_publ_section_title
;
Structure prediction by ZEFSAII (Michael W. Deem and Ramdas Pophale) SiO2 
 PCOD9356558
Probable space group: A M M 2
;
_chemical_formula_sum "Si O2"
_cell_formula_units_Z 64
_cell_length_a 15.510511
_cell_length_b 7.361190
_cell_length_c 25.246920
_cell_angle_alpha 90.000000
_cell_angle_beta 90.000000
_cell_angle_gamma 90.000000
_cell_volume 2882.587755
_symmetry_space_group_name_H-M "A M M 2"
_symmetry_group_IT_number 38
_symmetry_cell_setting 'orthorhombic'
loop_
_space_group_symop_operation_xyz
x,y,z
-x,-y,z
-x,y,z
x,-y,z
x,1/2+y,1/2+z
-x,1/2-y,1/2+z
-x,1/2+y,1/2+z
x,1/2-y,1/2+z
loop_
_atom_site_type_symbol
_atom_site_label
_atom_site_fract_x
_atom_site_fract_y
_atom_site_fract_z
Si Si1 0.827430 0.281905 0.526690
Si Si2 0.593179 0.787830 0.681010
Si Si3 0.777261 0.777943 0.712878
Si Si4 0.215373 0.221638 0.910561
Si Si5 0.639585 0.780964 0.060573
Si Si6 0.909465 0.212372 0.630038
Si Si7 0.899389 0.278535 0.310594
Si Si8 0.406142 0.221094 0.942013
O O1 0.825518 0.500000 0.525221
O O2 0.827128 0.221139 0.466255
O O3 0.738091 0.220362 0.553278
O O4 0.900433 0.227488 0.567269
O O5 0.500000 0.707312 0.694436
O O6 0.678935 0.712568 0.708886
O O7 0.604364 0.780141 0.617054
O O8 0.590213 0.000000 0.695223
O O9 0.826862 0.714325 0.660178
O O10 0.839805 0.724851 0.760857
O O11 0.772269 0.000000 0.713861
O O12 0.155088 0.279186 0.862254
O O13 0.316584 0.278665 0.913821
O O14 0.217121 0.000000 0.909222
O O15 0.635568 0.000000 0.061752
O O16 0.597920 0.726307 0.004379
O O17 0.000000 0.292518 0.648137
O O18 0.911334 0.000000 0.643566
O O19 0.902154 0.500000 0.310615
O O20 0.000000 0.219753 0.308991
O O21 0.500000 0.278062 0.920545
O O22 0.404323 0.000000 0.941010
#
# Coordination Sequence:
#
# PCOD9356558 Si02
#       8
#     8   8   8   8   8   8   8   8
#     4   9  17  29  45  68  98 124 146 185 237 278
#     4  10  19  29  43  65  93 123 151 184 231 275
#     4   9  17  30  44  60  87 117 149 193 230 263
#     4   8  15  26  40  63  91 115 147 189 229 270
#     4   9  16  27  44  65  90 124 160 185 213 266
#     4  10  19  30  46  67  90 121 157 187 225 280
#     4   9  16  27  44  62  81 114 158 195 227 267
#     4   8  13  22  37  58  86 118 148 180 220 265
#
# _framework density 22.202272000000001
#
# number of rings (size 3 to 8) (size 9 to 14) (size 15 to 20)
#    0.000    3.000    1.250    2.250    0.000    3.000 
#    0.000    1.875    0.000    3.750    0.000    1.750 
#    0.000    2.000    0.000    3.500    0.000    4.500 
#
# Total GULP energy -178410.507493 kJ/mol
# GULP energy per Si atom -5575.328359 kJ/mol
# Density = 2.215174 g / cm^3
# Si number density = 22.202272 Si / 1000 Ang^3
#
#
#
# Elastic Constant Matrix: (Units=GPa)
#
#
# Indices 1 2 3 4 5 6 
#
# 1 228.4293 7.9558 95.5280 0.0000 0.0000 0.0000
# 2 7.9558 79.8227 -4.4347 0.0000 0.0000 0.0000
# 3 95.5280 -4.4347 116.4792 0.0000 0.0000 0.0000
# 4 0.0000 0.0000 0.0000 8.3359 0.0000 0.0000
# 5 0.0000 0.0000 0.0000 0.0000 20.7991 0.0000
# 6 0.0000 0.0000 0.0000 0.0000 0.0000 -5.7340
#
#
#
# Elastic Compliance Matrix: (Units=1/GPa)
#
#
# Indices 1 2 3 4 5 6 
#
# 1 0.006739 -0.000981 -0.005564 0.000000 0.000000 0.000000
# 2 -0.000981 0.012697 0.001288 0.000000 0.000000 0.000000
# 3 -0.005564 0.001288 0.013197 0.000000 0.000000 0.000000
# 4 0.000000 0.000000 0.000000 0.119963 0.000000 0.000000
# 5 0.000000 0.000000 0.000000 0.000000 0.048079 0.000000
# 6 0.000000 0.000000 0.000000 0.000000 0.000000 -0.174397
#
#
# Mechanical properties :
#
#
# Convention : Reuss Voigt Hill
#
# Bulk Modulus (GPa) = 45.20938 69.20325 57.20631
# Shear Modulus (GPa) = 113.21089 26.39233 69.80161
#
# Velocity S-wave (km/s) = 7.14852 3.45153 5.61313
# Velocity P-wave (km/s) = 9.40967 6.86448 8.23599
#
# Compressibility (1/GPa) = 0.02211930
#
# Stress axis : x y z
#
# Youngs Moduli (GPa) = 148.39671 78.75835 75.77245
#
# Poissons Ratio (x) = 0.07724 0.42159
# Poissons Ratio (y) = 0.14554 -0.09758
# Poissons Ratio (z) = 0.82567 -0.10142
#
# Static dielectric constant tensor:
#      x y z
#    x 1.846170 0.000000 0.000000 
#    y 0.000000 1.962870 0.000000 
#    z 0.000000 0.000000 1.784750 
# 
# From -- ./inp_files/25125.got.cif
#   From: 2010.05.17/outbox.cif.g08.bks.cpg/sg38_13_cif.got.tgz:25125.got - 2010.06.03 18:07:57.
