data_PCOD9356959
_publ_section_title
;
Structure prediction by ZEFSAII (Michael W. Deem and Ramdas Pophale) SiO2 
 PCOD9356959
Probable space group: A M M 2
;
_chemical_formula_sum "Si O2"
_cell_formula_units_Z 64
_cell_length_a 8.638963
_cell_length_b 21.196164
_cell_length_c 20.221299
_cell_angle_alpha 90.000000
_cell_angle_beta 90.000000
_cell_angle_gamma 90.000000
_cell_volume 3702.780227
_symmetry_space_group_name_H-M "A M M 2"
_symmetry_group_IT_number 38
_symmetry_cell_setting 'orthorhombic'
loop_
_space_group_symop_operation_xyz
x,y,z
-x,-y,z
-x,y,z
x,-y,z
x,1/2+y,1/2+z
-x,1/2-y,1/2+z
-x,1/2+y,1/2+z
x,1/2-y,1/2+z
loop_
_atom_site_type_symbol
_atom_site_label
_atom_site_fract_x
_atom_site_fract_y
_atom_site_fract_z
Si Si1 0.815083 0.429440 0.207310
Si Si2 0.815252 0.190235 0.207627
Si Si3 0.314516 0.689110 0.286229
Si Si4 0.314738 0.115549 0.570259
Si Si5 0.184428 0.256628 0.567349
Si Si6 0.312676 0.429973 0.782792
Si Si7 0.687426 0.117641 0.424005
Si Si8 0.686376 0.265745 0.428518
O O1 0.768524 0.500000 0.228205
O O2 0.742878 0.374386 0.251623
O O3 0.763004 0.418760 0.131648
O O4 0.000000 0.424256 0.210621
O O5 0.750707 0.250453 0.247308
O O6 0.776544 0.200841 0.130542
O O7 0.748391 0.126369 0.237887
O O8 0.000000 0.189877 0.214115
O O9 0.500000 0.691933 0.283076
O O10 0.268603 0.695992 0.363175
O O11 0.500000 0.108429 0.574838
O O12 0.271454 0.189661 0.574787
O O13 0.261987 0.094898 0.496640
O O14 0.235014 0.284907 0.497092
O O15 0.000000 0.244740 0.567794
O O16 0.500000 0.427158 0.782861
O O17 0.265419 0.500000 0.761305
O O18 0.259865 0.418159 0.858625
O O19 0.500000 0.114148 0.424912
O O20 0.727223 0.191797 0.417288
O O21 0.500000 0.268604 0.436039
#
# Coordination Sequence:
#
# PCOD9356959 Si02
#       8
#     8   8   8   8   8   8   8   8
#     4  11  24  39  53  76 113 150 184 226 277 333
#     4  11  22  35  54  81 112 144 181 224 272 324
#     4  11  21  36  60  84 107 139 184 231 273 323
#     4  10  19  32  53  78 107 145 187 227 264 314
#     4  10  20  33  52  80 112 143 177 222 274 324
#     4  10  20  35  55  78 107 145 186 227 270 318
#     4   8  15  30  49  75 108 139 177 220 265 313
#     4   9  18  33  54  81 109 137 175 224 274 323
#
# _framework density 17.284309
#
# number of rings (size 3 to 8) (size 9 to 14) (size 15 to 20)
#    0.000    2.000    2.500    2.625    0.000    4.250 
#    0.000    1.875    0.000    0.750    0.000    0.000 
#    0.000    0.000    0.000    0.000    0.000    0.000 
#
# Total GULP energy -178579.058245 kJ/mol
# GULP energy per Si atom -5580.595570 kJ/mol
# Density = 1.724497 g / cm^3
# Si number density = 17.284309 Si / 1000 Ang^3
#
#
#
# Elastic Constant Matrix: (Units=GPa)
#
#
# Indices 1 2 3 4 5 6 
#
# 1 27.8525 28.0116 31.6406 0.0000 0.0000 0.0000
# 2 28.0116 114.2226 68.8654 0.0000 0.0000 0.0000
# 3 31.6406 68.8654 126.5220 0.0000 0.0000 0.0000
# 4 0.0000 0.0000 0.0000 20.7175 0.0000 0.0000
# 5 0.0000 0.0000 0.0000 0.0000 -76.7474 0.0000
# 6 0.0000 0.0000 0.0000 0.0000 0.0000 21.2868
#
#
#
# Elastic Compliance Matrix: (Units=1/GPa)
#
#
# Indices 1 2 3 4 5 6 
#
# 1 0.054281 -0.007632 -0.009420 0.000000 0.000000 0.000000
# 2 -0.007632 0.014104 -0.005768 0.000000 0.000000 0.000000
# 3 -0.009420 -0.005768 0.013399 0.000000 0.000000 0.000000
# 4 0.000000 0.000000 0.000000 0.048268 0.000000 0.000000
# 5 0.000000 0.000000 0.000000 0.000000 -0.013030 0.000000
# 6 0.000000 0.000000 0.000000 0.000000 0.000000 0.046977
#
#
# Mechanical properties :
#
#
# Convention : Reuss Voigt Hill
#
# Bulk Modulus (GPa) = 27.66809 58.40359 43.03584
# Shear Modulus (GPa) = 22.55412 2.39002 12.47207
#
# Velocity S-wave (km/s) = 3.61625 1.17719 2.68914
# Velocity P-wave (km/s) = 5.78608 5.97587 5.88174
#
# Compressibility (1/GPa) = 0.03614272
#
# Stress axis : x y z
#
# Youngs Moduli (GPa) = 18.42280 70.90103 74.63098
#
# Poissons Ratio (x) = 0.54111 0.70306
# Poissons Ratio (y) = 0.14060 0.43049
# Poissons Ratio (z) = 0.17355 0.40897
#
# Static dielectric constant tensor:
#      x y z
#    x 1.588440 0.000000 0.000000 
#    y 0.000000 1.568620 0.000000 
#    z 0.000000 0.000000 1.602400 
# 
# From -- ./inp_files/20257.got.cif
#   From: 2010.05.17/outbox.cif.g08.bks.cpg/sg38_11_cif.got.tgz:20257.got - 2010.06.03 18:07:57.
