data_PCOD9356990
_publ_section_title
;
Structure prediction by ZEFSAII (Michael W. Deem and Ramdas Pophale) SiO2 
 PCOD9356990
Probable space group: A M M 2
;
_chemical_formula_sum "Si O2"
_cell_formula_units_Z 64
_cell_length_a 14.772405
_cell_length_b 8.954594
_cell_length_c 25.377450
_cell_angle_alpha 90.000000
_cell_angle_beta 90.000000
_cell_angle_gamma 90.000000
_cell_volume 3356.951651
_symmetry_space_group_name_H-M "A M M 2"
_symmetry_group_IT_number 38
_symmetry_cell_setting 'orthorhombic'
loop_
_space_group_symop_operation_xyz
x,y,z
-x,-y,z
-x,y,z
x,-y,z
x,1/2+y,1/2+z
-x,1/2-y,1/2+z
-x,1/2+y,1/2+z
x,1/2-y,1/2+z
loop_
_atom_site_type_symbol
_atom_site_label
_atom_site_fract_x
_atom_site_fract_y
_atom_site_fract_z
Si Si1 0.605978 0.319609 0.242730
Si Si2 0.275861 0.322865 0.140487
Si Si3 0.287869 0.679441 0.840299
Si Si4 0.899552 0.178710 0.873772
Si Si5 0.602335 0.829244 0.055982
Si Si6 0.897838 0.822387 0.097582
Si Si7 0.136298 0.671970 0.984653
Si Si8 0.347542 0.669815 0.955978
O O1 0.500000 0.276354 0.238736
O O2 0.608941 0.500000 0.247831
O O3 0.663403 0.279446 0.190670
O O4 0.655786 0.245279 0.292136
O O5 0.261883 0.500000 0.141257
O O6 0.333010 0.276784 0.089179
O O7 0.179554 0.242496 0.135251
O O8 0.280989 0.500000 0.837395
O O9 0.186522 0.746662 0.845201
O O10 0.339894 0.714944 0.895093
O O11 0.898292 0.238095 0.933949
O O12 0.000000 0.213940 0.851776
O O13 0.888197 0.000000 0.873541
O O14 0.500000 0.817986 0.076392
O O15 0.633664 0.000000 0.060934
O O16 0.602762 0.780024 0.995274
O O17 0.000000 0.791934 0.116344
O O18 0.886463 0.000000 0.092134
O O19 0.886941 0.747941 0.039915
O O20 0.105170 0.500000 0.983634
O O21 0.244281 0.668646 0.976695
O O22 0.382969 0.500000 0.959626
#
# Coordination Sequence:
#
# PCOD9356990 Si02
#       8
#     8   8   8   8   8   8   8   8
#     4  10  23  44  68  91 115 150 198 250 305 363
#     4  11  23  41  64  88 117 154 198 249 301 355
#     4  10  22  39  61  89 120 155 199 250 303 356
#     4  10  20  34  55  85 122 164 206 247 294 349
#     4  11  23  36  55  86 120 156 196 240 296 358
#     4  11  23  37  56  85 121 160 200 244 297 354
#     4  10  19  32  53  83 119 161 204 245 291 347
#     4   9  19  35  54  81 118 158 195 237 291 350
#
# _framework density 19.064914999999999
#
# number of rings (size 3 to 8) (size 9 to 14) (size 15 to 20)
#    0.000    1.750    1.250    3.750    0.000    9.250 
#    0.000    3.125    0.000    0.750    0.000    0.000 
#    0.000    0.000    0.000    0.000    0.000    0.000 
#
# Total GULP energy -178707.510008 kJ/mol
# GULP energy per Si atom -5584.609688 kJ/mol
# Density = 1.902152 g / cm^3
# Si number density = 19.064915 Si / 1000 Ang^3
#
#
#
# Elastic Constant Matrix: (Units=GPa)
#
#
# Indices 1 2 3 4 5 6 
#
# 1 136.8061 48.9051 69.6608 0.0000 0.0000 0.0000
# 2 48.9051 57.0160 42.1487 0.0000 0.0000 0.0000
# 3 69.6608 42.1487 112.4417 0.0000 0.0000 0.0000
# 4 0.0000 0.0000 0.0000 30.0712 0.0000 0.0000
# 5 0.0000 0.0000 0.0000 0.0000 11.0337 0.0000
# 6 0.0000 0.0000 0.0000 0.0000 0.0000 -6.1958
#
#
#
# Elastic Compliance Matrix: (Units=1/GPa)
#
#
# Indices 1 2 3 4 5 6 
#
# 1 0.012339 -0.006823 -0.005087 0.000000 0.000000 0.000000
# 2 -0.006823 0.028035 -0.006282 0.000000 0.000000 0.000000
# 3 -0.005087 -0.006282 0.014399 0.000000 0.000000 0.000000
# 4 0.000000 0.000000 0.000000 0.033254 0.000000 0.000000
# 5 0.000000 0.000000 0.000000 0.000000 0.090632 0.000000
# 6 0.000000 0.000000 0.000000 0.000000 0.000000 -0.161399
#
#
# Mechanical properties :
#
#
# Convention : Reuss Voigt Hill
#
# Bulk Modulus (GPa) = 54.37634 69.74366 62.06000
# Shear Modulus (GPa) = 83.64822 16.68510 50.16666
#
# Velocity S-wave (km/s) = 6.63104 2.96154 5.13524
# Velocity P-wave (km/s) = 9.33870 6.95384 8.23308
#
# Compressibility (1/GPa) = 0.01839035
#
# Stress axis : x y z
#
# Youngs Moduli (GPa) = 81.04486 35.66921 69.44704
#
# Poissons Ratio (x) = 0.24338 0.35324
# Poissons Ratio (y) = 0.55300 0.43625
# Poissons Ratio (z) = 0.41224 0.22407
#
# Static dielectric constant tensor:
#      x y z
#    x 1.690070 0.000000 0.000000 
#    y 0.000000 1.641720 0.000000 
#    z 0.000000 0.000000 1.637300 
# 
# From -- ./inp_files/22886.got.cif
#   From: 2010.05.17/outbox.cif.g08.bks.cpg/sg38_12_cif.got.tgz:22886.got - 2010.06.03 18:07:57.
