data_PCOD9356827
_publ_section_title
;
Structure prediction by ZEFSAII (Michael W. Deem and Ramdas Pophale) SiO2 
 PCOD9356827
Probable space group: A M M 2
;
_chemical_formula_sum "Si O2"
_cell_formula_units_Z 34
_cell_length_a 7.563582
_cell_length_b 8.085215
_cell_length_c 27.855379
_cell_angle_alpha 90.000000
_cell_angle_beta 90.000000
_cell_angle_gamma 90.000000
_cell_volume 1703.445191
_symmetry_space_group_name_H-M "A M M 2"
_symmetry_group_IT_number 38
_symmetry_cell_setting 'orthorhombic'
loop_
_space_group_symop_operation_xyz
x,y,z
-x,-y,z
-x,y,z
x,-y,z
x,1/2+y,1/2+z
-x,1/2-y,1/2+z
-x,1/2+y,1/2+z
x,1/2-y,1/2+z
loop_
_atom_site_type_symbol
_atom_site_label
_atom_site_fract_x
_atom_site_fract_y
_atom_site_fract_z
Si Si1 0.000000 0.300114 0.115180
Si Si2 0.285965 0.191599 0.432663
Si Si3 0.000000 0.000000 0.188737
Si Si4 0.792155 0.822514 0.829920
Si Si5 0.701100 0.799311 0.538006
Si Si6 0.796131 0.000000 0.281718
O O1 0.830994 0.263221 0.081458
O O2 0.000000 0.500000 0.126871
O O3 0.000000 0.168815 0.158269
O O4 0.500000 0.192343 0.432720
O O5 0.222838 0.290702 0.386692
O O6 0.233107 0.255784 0.485344
O O7 0.228377 0.000000 0.427168
O O8 0.831937 0.000000 0.225062
O O9 0.713151 0.666178 0.802224
O O10 0.000000 0.829941 0.817283
O O11 0.713010 0.000000 0.817868
O O12 0.500000 0.741118 0.545736
O O13 0.695110 0.000000 0.534155
O O14 0.000000 0.000000 0.301858
#
# Coordination Sequence:
#
# PCOD9356827 Si02
#       6
#     4   8   2   8   8   4
#     4  10  20  36  59  83 105 147 190 236 288 331
#     4   9  17  30  50  76 112 153 182 214 265 327
#     4  10  22  38  58  84 108 130 198 246 278 338
#     4  10  19  31  51  79 105 138 181 214 267 329
#     4   8  16  32  53  81 116 151 187 225 274 334
#     4   8  18  36  53  74 107 138 171 233 283 312
#
# _framework density 19.95955
#
# number of rings (size 3 to 8) (size 9 to 14) (size 15 to 20)
#    0.353    2.588    1.176    1.412    1.647    1.412 
#    2.118    0.588    0.000    2.824    0.000    3.294 
#    0.000    0.000    0.000    0.000    0.000    0.000 
#
# Total GULP energy -94719.644761 kJ/mol
# GULP energy per Si atom -5571.743809 kJ/mol
# Density = 1.991412 g / cm^3
# Si number density = 19.959550 Si / 1000 Ang^3
#
#
#
# Elastic Constant Matrix: (Units=GPa)
#
#
# Indices 1 2 3 4 5 6 
#
# 1 59.1187 20.8253 22.0608 0.0000 0.0000 0.0000
# 2 20.8253 141.5111 78.4427 0.0000 0.0000 0.0000
# 3 22.0608 78.4427 127.1223 0.0000 0.0000 0.0000
# 4 0.0000 0.0000 0.0000 -12.6133 0.0000 0.0000
# 5 0.0000 0.0000 0.0000 0.0000 122.6501 0.0000
# 6 0.0000 0.0000 0.0000 0.0000 0.0000 0.6647
#
#
#
# Elastic Compliance Matrix: (Units=1/GPa)
#
#
# Indices 1 2 3 4 5 6 
#
# 1 0.018271 -0.001415 -0.002297 0.000000 0.000000 0.000000
# 2 -0.001415 0.010850 -0.006450 0.000000 0.000000 0.000000
# 3 -0.002297 -0.006450 0.012245 0.000000 0.000000 0.000000
# 4 0.000000 0.000000 0.000000 -0.079281 0.000000 0.000000
# 5 0.000000 0.000000 0.000000 0.000000 0.008153 0.000000
# 6 0.000000 0.000000 0.000000 0.000000 0.000000 1.504498
#
#
# Mechanical properties :
#
#
# Convention : Reuss Voigt Hill
#
# Bulk Modulus (GPa) = 47.52540 63.37885 55.45213
# Shear Modulus (GPa) = 3.32873 35.90184 19.61529
#
# Velocity S-wave (km/s) = 1.29281 4.24574 3.13829
# Velocity P-wave (km/s) = 5.10794 7.47380 6.40112
#
# Compressibility (1/GPa) = 0.02104138
#
# Stress axis : x y z
#
# Youngs Moduli (GPa) = 54.73156 92.16608 81.66658
#
# Poissons Ratio (x) = 0.13045 0.18762
# Poissons Ratio (y) = 0.07746 0.52671
# Poissons Ratio (z) = 0.12574 0.59443
#
# Static dielectric constant tensor:
#      x y z
#    x 1.709030 0.000000 0.000000 
#    y 0.000000 1.758750 0.000000 
#    z 0.000000 0.000000 1.680670 
# 
# From -- ./inp_files/23169.got.cif
#   From: 2010.05.17/outbox.cif.g08.bks.cpg/sg38_12_cif.got.tgz:23169.got - 2010.06.03 18:07:57.
