data_PCOD9356136
_publ_section_title
;
Structure prediction by ZEFSAII (Michael W. Deem and Ramdas Pophale) SiO2 
 PCOD9356136
Probable space group: A M M 2
;
_chemical_formula_sum "Si O2"
_cell_formula_units_Z 64
_cell_length_a 9.276776
_cell_length_b 29.052875
_cell_length_c 12.281306
_cell_angle_alpha 90.000000
_cell_angle_beta 90.000000
_cell_angle_gamma 90.000000
_cell_volume 3310.020915
_symmetry_space_group_name_H-M "A M M 2"
_symmetry_group_IT_number 38
_symmetry_cell_setting 'orthorhombic'
loop_
_space_group_symop_operation_xyz
x,y,z
-x,-y,z
-x,y,z
x,-y,z
x,1/2+y,1/2+z
-x,1/2-y,1/2+z
-x,1/2+y,1/2+z
x,1/2-y,1/2+z
loop_
_atom_site_type_symbol
_atom_site_label
_atom_site_fract_x
_atom_site_fract_y
_atom_site_fract_z
Si Si1 0.326481 0.051832 0.527730
Si Si2 0.338089 0.841781 0.216378
Si Si3 0.663525 0.728132 0.901517
Si Si4 0.666457 0.868449 0.979246
Si Si5 0.672920 0.656122 0.096327
Si Si6 0.839495 0.448905 0.565006
Si Si7 0.829562 0.312957 0.312919
Si Si8 0.165970 0.575499 0.810560
O O1 0.500000 0.052907 0.524127
O O2 0.284097 0.101756 0.581469
O O3 0.261724 0.055334 0.406513
O O4 0.286130 0.000000 0.571417
O O5 0.500000 0.862541 0.226604
O O6 0.339877 0.795085 0.282480
O O7 0.309697 0.837910 0.088304
O O8 0.225069 0.874643 0.275449
O O9 0.500000 0.744532 0.927348
O O10 0.771488 0.769965 0.884278
O O11 0.698660 0.687853 0.988688
O O12 0.500000 0.864825 0.946186
O O13 0.710894 0.918670 0.019988
O O14 0.773400 0.855591 0.883755
O O15 0.500000 0.656598 0.114568
O O16 0.753521 0.680525 0.196228
O O17 0.835579 0.500000 0.520156
O O18 0.826473 0.450528 0.695682
O O19 0.000000 0.428623 0.543542
O O20 0.000000 0.310900 0.300810
O O21 0.000000 0.576965 0.846214
#
# Coordination Sequence:
#
# PCOD9356136 Si02
#       8
#     8   8   8   8   8   8   8   8
#     4  10  20  36  60  89 121 160 207 257 306 359
#     4   9  18  35  59  87 117 152 196 241 291 349
#     4  10  21  40  66  91 118 156 200 246 303 362
#     4  10  21  38  61  87 117 155 204 250 294 352
#     4  10  22  43  67  90 122 162 206 255 307 367
#     4   9  18  33  53  81 120 163 202 246 305 361
#     4  12  27  43  61  88 123 160 203 253 310 369
#     4  10  18  29  50  83 125 163 194 235 294 360
#
# _framework density 19.335224
#
# number of rings (size 3 to 8) (size 9 to 14) (size 15 to 20)
#    0.000    2.000    1.250    2.250    1.750    3.500 
#    0.000    0.625    0.000    2.250    0.000    0.000 
#    0.000    0.000    0.000    0.000    0.000    0.000 
#
# Total GULP energy -178304.876336 kJ/mol
# GULP energy per Si atom -5572.027386 kJ/mol
# Density = 1.929122 g / cm^3
# Si number density = 19.335224 Si / 1000 Ang^3
#
#
#
# Elastic Constant Matrix: (Units=GPa)
#
#
# Indices 1 2 3 4 5 6 
#
# 1 48.0842 41.4412 33.4983 0.0000 0.0000 0.0000
# 2 41.4412 77.9954 26.7471 0.0000 0.0000 0.0000
# 3 33.4983 26.7471 62.6078 0.0000 0.0000 0.0000
# 4 0.0000 0.0000 0.0000 -7.5462 0.0000 0.0000
# 5 0.0000 0.0000 0.0000 0.0000 23.9917 0.0000
# 6 0.0000 0.0000 0.0000 0.0000 0.0000 10.7764
#
#
#
# Elastic Compliance Matrix: (Units=1/GPa)
#
#
# Indices 1 2 3 4 5 6 
#
# 1 0.052345 -0.021333 -0.018893 0.000000 0.000000 0.000000
# 2 -0.021333 0.023717 0.001282 0.000000 0.000000 0.000000
# 3 -0.018893 0.001282 0.025534 0.000000 0.000000 0.000000
# 4 0.000000 0.000000 0.000000 -0.132517 0.000000 0.000000
# 5 0.000000 0.000000 0.000000 0.000000 0.041681 0.000000
# 6 0.000000 0.000000 0.000000 0.000000 0.000000 0.092795
#
#
# Mechanical properties :
#
#
# Convention : Reuss Voigt Hill
#
# Bulk Modulus (GPa) = 42.18257 43.56228 42.87242
# Shear Modulus (GPa) = 26.40679 11.24444 18.82561
#
# Velocity S-wave (km/s) = 3.69959 2.41416 3.12371
# Velocity P-wave (km/s) = 6.33349 5.50906 5.93561
#
# Compressibility (1/GPa) = 0.02370647
#
# Stress axis : x y z
#
# Youngs Moduli (GPa) = 19.10398 42.16471 39.16419
#
# Poissons Ratio (x) = 0.89951 0.73994
# Poissons Ratio (y) = 0.40755 -0.05022
# Poissons Ratio (z) = 0.36094 -0.05407
#
# Static dielectric constant tensor:
#      x y z
#    x 1.662520 0.000000 0.000000 
#    y 0.000000 1.730520 0.000000 
#    z 0.000000 0.000000 1.674930 
# 
# From -- ./inp_files/8523.got.cif
#   From: 2010.05.17/outbox.cif.g08.bks.cpg/sg38_5_cif.got.tgz:8523.got - 2010.06.03 18:07:57.
