data_PCOD9356670
_publ_section_title
;
Structure prediction by ZEFSAII (Michael W. Deem and Ramdas Pophale) SiO2 
 PCOD9356670
Probable space group: A M M 2
;
_chemical_formula_sum "Si O2"
_cell_formula_units_Z 64
_cell_length_a 7.713896
_cell_length_b 21.425367
_cell_length_c 20.200269
_cell_angle_alpha 90.000000
_cell_angle_beta 90.000000
_cell_angle_gamma 90.000000
_cell_volume 3338.560125
_symmetry_space_group_name_H-M "A M M 2"
_symmetry_group_IT_number 38
_symmetry_cell_setting 'orthorhombic'
loop_
_space_group_symop_operation_xyz
x,y,z
-x,-y,z
-x,y,z
x,-y,z
x,1/2+y,1/2+z
-x,1/2-y,1/2+z
-x,1/2+y,1/2+z
x,1/2-y,1/2+z
loop_
_atom_site_type_symbol
_atom_site_label
_atom_site_fract_x
_atom_site_fract_y
_atom_site_fract_z
Si Si1 0.798166 0.234533 0.966950
Si Si2 0.201966 0.314710 0.186952
Si Si3 0.790866 0.568475 0.104809
Si Si4 0.703121 0.108742 0.320022
Si Si5 0.211866 0.245739 0.820028
Si Si6 0.700170 0.806187 0.107451
Si Si7 0.292691 0.378962 0.964355
Si Si8 0.287417 0.431525 0.677692
O O1 0.732957 0.222164 0.892526
O O2 0.780616 0.309420 0.975460
O O3 0.000000 0.218170 0.969700
O O4 0.710856 0.200821 0.028585
O O5 0.278226 0.374021 0.148571
O O6 0.273927 0.295334 0.258442
O O7 0.210905 0.253637 0.140615
O O8 0.000000 0.328959 0.198459
O O9 0.729147 0.500000 0.125511
O O10 0.000000 0.569278 0.109157
O O11 0.747177 0.580431 0.028196
O O12 0.500000 0.092043 0.321569
O O13 0.723028 0.183434 0.311626
O O14 0.773714 0.095402 0.393625
O O15 0.773677 0.077834 0.253529
O O16 0.000000 0.248707 0.819781
O O17 0.500000 0.801649 0.128117
O O18 0.769215 0.871872 0.134938
O O19 0.500000 0.371970 0.958722
O O20 0.500000 0.430502 0.677769
O O21 0.234321 0.500000 0.653560
#
# Coordination Sequence:
#
# PCOD9356670 Si02
#       8
#     8   8   8   8   8   8   8   8
#     4  10  19  32  50  73 103 134 164 206 254 300
#     4  10  19  33  53  74  98 130 166 207 252 296
#     4  10  21  35  50  70 100 138 172 203 249 305
#     4   9  17  30  48  71  99 132 167 204 243 289
#     4   9  18  31  50  74  99 129 164 203 253 300
#     4  11  20  31  52  78 100 129 170 210 249 294
#     4  10  19  30  48  74 102 132 169 207 246 293
#     4   9  18  32  49  71 101 135 168 203 247 297
#
# _framework density 19.16994
#
# number of rings (size 3 to 8) (size 9 to 14) (size 15 to 20)
#    0.000    2.250    2.500    1.125    0.000    1.750 
#    0.000    1.250    0.000    4.125    0.000    1.750 
#    0.000    0.000    0.000    0.000    0.000    0.000 
#
# Total GULP energy -178516.889370 kJ/mol
# GULP energy per Si atom -5578.652793 kJ/mol
# Density = 1.912631 g / cm^3
# Si number density = 19.169940 Si / 1000 Ang^3
#
#
#
# Elastic Constant Matrix: (Units=GPa)
#
#
# Indices 1 2 3 4 5 6 
#
# 1 30.1439 -7.5821 -5.6455 0.0000 0.0000 0.0000
# 2 -7.5821 106.7447 58.9205 0.0000 0.0000 0.0000
# 3 -5.6455 58.9205 113.1657 0.0000 0.0000 0.0000
# 4 0.0000 0.0000 0.0000 22.7806 0.0000 0.0000
# 5 0.0000 0.0000 0.0000 0.0000 10.9614 0.0000
# 6 0.0000 0.0000 0.0000 0.0000 0.0000 11.1920
#
#
#
# Elastic Compliance Matrix: (Units=1/GPa)
#
#
# Indices 1 2 3 4 5 6 
#
# 1 0.033808 0.002063 0.000612 0.000000 0.000000 0.000000
# 2 0.002063 0.013272 -0.006807 0.000000 0.000000 0.000000
# 3 0.000612 -0.006807 0.012411 0.000000 0.000000 0.000000
# 4 0.000000 0.000000 0.000000 0.043897 0.000000 0.000000
# 5 0.000000 0.000000 0.000000 0.000000 0.091229 0.000000
# 6 0.000000 0.000000 0.000000 0.000000 0.000000 0.089350
#
#
# Mechanical properties :
#
#
# Convention : Reuss Voigt Hill
#
# Bulk Modulus (GPa) = 19.52049 37.93778 28.72914
# Shear Modulus (GPa) = 16.16519 22.61090 19.38805
#
# Velocity S-wave (km/s) = 2.90704 3.43811 3.18367
# Velocity P-wave (km/s) = 4.63388 5.96607 5.34167
#
# Compressibility (1/GPa) = 0.05122822
#
# Stress axis : x y z
#
# Youngs Moduli (GPa) = 29.57889 75.34559 80.57106
#
# Poissons Ratio (x) = -0.15547 -0.04933
# Poissons Ratio (y) = -0.06103 0.54847
# Poissons Ratio (z) = -0.01811 0.51290
#
# Static dielectric constant tensor:
#      x y z
#    x 1.721680 0.000000 0.000000 
#    y 0.000000 1.657040 0.000000 
#    z 0.000000 0.000000 1.689270 
# 
# From -- ./inp_files/20022.got.cif
#   From: 2010.05.17/outbox.cif.g08.bks.cpg/sg38_11_cif.got.tgz:20022.got - 2010.06.03 18:07:57.
