data_PCOD9356804
_publ_section_title
;
Structure prediction by ZEFSAII (Michael W. Deem and Ramdas Pophale) SiO2 
 PCOD9356804
Probable space group: A M M 2
;
_chemical_formula_sum "Si O2"
_cell_formula_units_Z 48
_cell_length_a 8.207044
_cell_length_b 7.527465
_cell_length_c 35.025646
_cell_angle_alpha 90.000000
_cell_angle_beta 90.000000
_cell_angle_gamma 90.000000
_cell_volume 2163.822641
_symmetry_space_group_name_H-M "A M M 2"
_symmetry_group_IT_number 38
_symmetry_cell_setting 'orthorhombic'
loop_
_space_group_symop_operation_xyz
x,y,z
-x,-y,z
-x,y,z
x,-y,z
x,1/2+y,1/2+z
-x,1/2-y,1/2+z
-x,1/2+y,1/2+z
x,1/2-y,1/2+z
loop_
_atom_site_type_symbol
_atom_site_label
_atom_site_fract_x
_atom_site_fract_y
_atom_site_fract_z
Si Si1 0.500000 0.286181 0.736210
Si Si2 0.500000 0.213390 0.825747
Si Si3 0.824989 0.791217 0.865195
Si Si4 0.184811 0.294357 0.692696
Si Si5 0.802265 0.294925 0.107470
Si Si6 0.681934 0.214801 0.443902
Si Si7 0.810113 0.717177 0.025255
O O1 0.500000 0.500000 0.730082
O O2 0.500000 0.249732 0.780979
O O3 0.333244 0.215821 0.716993
O O4 0.335409 0.285239 0.845191
O O5 0.500000 0.000000 0.831715
O O6 0.801218 0.775220 0.910676
O O7 0.000000 0.713735 0.854046
O O8 0.829086 0.000000 0.855689
O O9 0.170488 0.500000 0.704059
O O10 0.235021 0.290297 0.648017
O O11 0.000000 0.217157 0.695944
O O12 0.750748 0.500000 0.110326
O O13 0.744263 0.222035 0.066556
O O14 0.000000 0.291182 0.104429
O O15 0.500000 0.272938 0.433398
O O16 0.722720 0.274958 0.486690
O O17 0.686547 0.000000 0.444407
O O18 0.803855 0.500000 0.026544
O O19 0.000000 0.766548 0.021877
#
# Coordination Sequence:
#
# PCOD9356804 Si02
#       7
#     4   4   8   8   8   8   8
#     4  10  22  38  56  79 106 133 165 206 255 314
#     4  10  22  40  58  79 108 133 163 212 261 312
#     4  10  21  38  59  80 105 140 175 211 263 318
#     4   9  18  34  54  75 103 137 169 207 256 304
#     4   8  14  27  48  72 100 136 176 216 255 297
#     4  10  19  31  50  77 109 143 180 221 262 306
#     4   8  14  26  44  68 101 138 175 217 260 296
#
# _framework density 22.182964999999999
#
# number of rings (size 3 to 8) (size 9 to 14) (size 15 to 20)
#    0.000    2.833    0.833    1.500    0.000    3.000 
#    1.500    0.833    0.000    3.000    0.000    0.000 
#    0.000    0.000    0.000    0.000    0.000    0.000 
#
# Total GULP energy -133866.410334 kJ/mol
# GULP energy per Si atom -5577.767097 kJ/mol
# Density = 2.213248 g / cm^3
# Si number density = 22.182965 Si / 1000 Ang^3
#
#
#
# Elastic Constant Matrix: (Units=GPa)
#
#
# Indices 1 2 3 4 5 6 
#
# 1 153.2324 11.0000 84.1117 0.0000 0.0000 0.0000
# 2 11.0000 54.7138 -7.1954 0.0000 0.0000 0.0000
# 3 84.1117 -7.1954 136.9131 0.0000 0.0000 0.0000
# 4 0.0000 0.0000 0.0000 15.4503 0.0000 0.0000
# 5 0.0000 0.0000 0.0000 0.0000 38.7624 0.0000
# 6 0.0000 0.0000 0.0000 0.0000 0.0000 -1.1521
#
#
#
# Elastic Compliance Matrix: (Units=1/GPa)
#
#
# Indices 1 2 3 4 5 6 
#
# 1 0.010290 -0.002920 -0.006475 0.000000 0.000000 0.000000
# 2 -0.002920 0.019233 0.002805 0.000000 0.000000 0.000000
# 3 -0.006475 0.002805 0.011429 0.000000 0.000000 0.000000
# 4 0.000000 0.000000 0.000000 0.064724 0.000000 0.000000
# 5 0.000000 0.000000 0.000000 0.000000 0.025798 0.000000
# 6 0.000000 0.000000 0.000000 0.000000 0.000000 -0.867987
#
#
# Mechanical properties :
#
#
# Convention : Reuss Voigt Hill
#
# Bulk Modulus (GPa) = 36.00869 57.85464 46.93167
# Shear Modulus (GPa) = -7.00207 27.74167 10.36980
#
# Velocity S-wave (km/s) = -1.77858 3.54020 2.16444
# Velocity P-wave (km/s) = 3.47131 6.54583 5.23918
#
# Compressibility (1/GPa) = 0.02777107
#
# Stress axis : x y z
#
# Youngs Moduli (GPa) = 97.18255 51.99428 87.49524
#
# Poissons Ratio (x) = 0.15184 0.56653
# Poissons Ratio (y) = 0.28380 -0.24541
# Poissons Ratio (z) = 0.62926 -0.14583
#
# Static dielectric constant tensor:
#      x y z
#    x 1.833520 0.000000 0.000000 
#    y 0.000000 1.851830 0.000000 
#    z 0.000000 0.000000 1.784110 
# 
# From -- ./inp_files/24425.got.cif
#   From: 2010.05.17/outbox.cif.g08.bks.cpg/sg38_13_cif.got.tgz:24425.got - 2010.06.03 18:07:57.
