data_PCOD9356365
_publ_section_title
;
Structure prediction by ZEFSAII (Michael W. Deem and Ramdas Pophale) SiO2 
 PCOD9356365
Probable space group: A M M 2
;
_chemical_formula_sum "Si O2"
_cell_formula_units_Z 64
_cell_length_a 7.705908
_cell_length_b 20.383077
_cell_length_c 21.076813
_cell_angle_alpha 90.000000
_cell_angle_beta 90.000000
_cell_angle_gamma 90.000000
_cell_volume 3310.537465
_symmetry_space_group_name_H-M "A M M 2"
_symmetry_group_IT_number 38
_symmetry_cell_setting 'orthorhombic'
loop_
_space_group_symop_operation_xyz
x,y,z
-x,-y,z
-x,y,z
x,-y,z
x,1/2+y,1/2+z
-x,1/2-y,1/2+z
-x,1/2+y,1/2+z
x,1/2-y,1/2+z
loop_
_atom_site_type_symbol
_atom_site_label
_atom_site_fract_x
_atom_site_fract_y
_atom_site_fract_z
Si Si1 0.209203 0.927999 0.465090
Si Si2 0.798997 0.797648 0.028871
Si Si3 0.707670 0.928086 0.614361
Si Si4 0.789244 0.572767 0.591524
Si Si5 0.199968 0.284224 0.774388
Si Si6 0.701754 0.287332 0.147606
Si Si7 0.213885 0.210155 0.413224
Si Si8 0.296391 0.572753 0.739794
O O1 0.255534 0.920161 0.539322
O O2 0.271500 0.864299 0.427677
O O3 0.000000 0.928652 0.460895
O O4 0.273153 0.000000 0.444103
O O5 0.725397 0.757037 0.970012
O O6 0.000000 0.809646 0.012504
O O7 0.722712 0.867763 0.048709
O O8 0.792962 0.753373 0.092067
O O9 0.500000 0.930702 0.622976
O O10 0.770160 0.862068 0.648753
O O11 0.777978 0.000000 0.633263
O O12 0.743033 0.500000 0.568509
O O13 0.723963 0.579018 0.663626
O O14 0.000000 0.576905 0.595080
O O15 0.286266 0.250282 0.714059
O O16 0.270729 0.267294 0.843752
O O17 0.209331 0.363242 0.768769
O O18 0.000000 0.264162 0.771204
O O19 0.500000 0.290026 0.128770
O O20 0.000000 0.209121 0.413303
O O21 0.500000 0.575088 0.755143
O O22 0.228502 0.500000 0.757446
#
# Coordination Sequence:
#
# PCOD9356365 Si02
#       8
#     8   8   8   8   8   8   8   8
#     4   9  16  28  48  73 100 129 162 200 242 294
#     4  10  18  32  54  76 100 131 167 211 256 303
#     4   9  18  32  50  74 102 130 162 203 252 303
#     4   9  17  29  49  77 103 130 166 205 251 308
#     4  11  22  35  51  72 102 142 178 212 251 303
#     4  11  21  33  52  77 102 131 169 213 258 304
#     4   9  19  33  49  72 101 134 172 209 253 300
#     4  10  20  33  49  72 104 137 170 212 256 299
#
# _framework density 19.332208000000001
#
# number of rings (size 3 to 8) (size 9 to 14) (size 15 to 20)
#    0.000    2.250    2.500    1.125    0.000    1.750 
#    0.000    3.750    0.000    2.250    0.000    1.750 
#    0.000    0.000    0.000    0.000    0.000    0.000 
#
# Total GULP energy -178520.770945 kJ/mol
# GULP energy per Si atom -5578.774092 kJ/mol
# Density = 1.928821 g / cm^3
# Si number density = 19.332208 Si / 1000 Ang^3
#
#
#
# Elastic Constant Matrix: (Units=GPa)
#
#
# Indices 1 2 3 4 5 6 
#
# 1 33.4241 -1.5282 -8.3797 0.0000 0.0000 0.0000
# 2 -1.5282 111.9081 42.2842 0.0000 0.0000 0.0000
# 3 -8.3797 42.2842 86.9055 0.0000 0.0000 0.0000
# 4 0.0000 0.0000 0.0000 55.0672 0.0000 0.0000
# 5 0.0000 0.0000 0.0000 0.0000 49.8122 0.0000
# 6 0.0000 0.0000 0.0000 0.0000 0.0000 10.7914
#
#
#
# Elastic Compliance Matrix: (Units=1/GPa)
#
#
# Indices 1 2 3 4 5 6 
#
# 1 0.030727 -0.000858 0.003380 0.000000 0.000000 0.000000
# 2 -0.000858 0.010973 -0.005421 0.000000 0.000000 0.000000
# 3 0.003380 -0.005421 0.014470 0.000000 0.000000 0.000000
# 4 0.000000 0.000000 0.000000 0.018160 0.000000 0.000000
# 5 0.000000 0.000000 0.000000 0.000000 0.020075 0.000000
# 6 0.000000 0.000000 0.000000 0.000000 0.000000 0.092666
#
#
# Mechanical properties :
#
#
# Convention : Reuss Voigt Hill
#
# Bulk Modulus (GPa) = 19.85235 32.99892 26.42564
# Shear Modulus (GPa) = 23.84816 36.45825 30.15321
#
# Velocity S-wave (km/s) = 3.51607 4.34739 3.95364
# Velocity P-wave (km/s) = 5.17446 6.50432 5.87712
#
# Compressibility (1/GPa) = 0.05037187
#
# Stress axis : x y z
#
# Youngs Moduli (GPa) = 32.54497 91.13539 69.10612
#
# Poissons Ratio (x) = 0.07815 -0.23358
# Poissons Ratio (y) = 0.02791 0.37466
# Poissons Ratio (z) = -0.11000 0.49409
#
# Static dielectric constant tensor:
#      x y z
#    x 1.725340 0.000000 0.000000 
#    y 0.000000 1.717050 0.000000 
#    z 0.000000 0.000000 1.645870 
# 
# From -- ./inp_files/20213.got.cif
#   From: 2010.05.17/outbox.cif.g08.bks.cpg/sg38_11_cif.got.tgz:20213.got - 2010.06.03 18:07:57.
