data_PCOD9356482
_publ_section_title
;
Structure prediction by ZEFSAII (Michael W. Deem and Ramdas Pophale) SiO2 
 PCOD9356482
Probable space group: A M M 2
;
_chemical_formula_sum "Si O2"
_cell_formula_units_Z 48
_cell_length_a 8.527154
_cell_length_b 14.890953
_cell_length_c 20.962405
_cell_angle_alpha 90.000000
_cell_angle_beta 90.000000
_cell_angle_gamma 90.000000
_cell_volume 2661.752721
_symmetry_space_group_name_H-M "A M M 2"
_symmetry_group_IT_number 38
_symmetry_cell_setting 'orthorhombic'
loop_
_space_group_symop_operation_xyz
x,y,z
-x,-y,z
-x,y,z
x,-y,z
x,1/2+y,1/2+z
-x,1/2-y,1/2+z
-x,1/2+y,1/2+z
x,1/2-y,1/2+z
loop_
_atom_site_type_symbol
_atom_site_label
_atom_site_fract_x
_atom_site_fract_y
_atom_site_fract_z
Si Si1 0.688173 0.312302 0.457360
Si Si2 0.688279 0.190870 0.201159
Si Si3 0.188042 0.500000 0.659363
Si Si4 0.309027 0.694658 0.077024
Si Si5 0.810569 0.000000 0.762878
Si Si6 0.811964 0.692393 0.317666
Si Si7 0.689798 0.000000 0.618336
Si Si8 0.811775 0.000000 0.010055
O O1 0.500000 0.313266 0.457061
O O2 0.742560 0.244020 0.512736
O O3 0.749165 0.286761 0.387792
O O4 0.748634 0.410863 0.476379
O O5 0.500000 0.190939 0.202458
O O6 0.748506 0.090006 0.191975
O O7 0.740250 0.248501 0.139140
O O8 0.751062 0.239424 0.264150
O O9 0.236948 0.500000 0.584602
O O10 0.000000 0.500000 0.661325
O O11 0.500000 0.694785 0.076843
O O12 0.257048 0.591948 0.084990
O O13 0.760317 0.091296 0.798031
O O14 0.746170 0.000000 0.691233
O O15 0.000000 0.000000 0.760531
O O16 0.000000 0.693786 0.318199
O O17 0.500000 0.000000 0.618726
O O18 0.000000 0.000000 0.006988
#
# Coordination Sequence:
#
# PCOD9356482 Si02
#       8
#     8   8   4   8   4   8   4   4
#     4  11  22  38  58  85 118 157 199 243 296 356
#     4  11  21  38  62  88 116 154 202 249 292 348
#     4  11  23  38  59  90 122 156 194 242 303 362
#     4   9  19  34  58  87 115 146 192 247 290 338
#     4  10  21  35  54  82 118 150 185 234 289 348
#     4  11  23  39  57  85 123 160 196 242 299 359
#     4  10  18  35  60  87 114 144 186 237 288 342
#     4  11  22  36  57  87 120 154 191 243 306 362
#
# _framework density 18.033232000000002
#
# number of rings (size 3 to 8) (size 9 to 14) (size 15 to 20)
#    0.000    1.500    3.333    2.500    0.000    2.000 
#    0.000    2.500    0.000    2.000    0.000    0.000 
#    0.000    0.000    0.000    0.000    0.000    0.000 
#
# Total GULP energy -134108.549526 kJ/mol
# GULP energy per Si atom -5587.856230 kJ/mol
# Density = 1.799219 g / cm^3
# Si number density = 18.033232 Si / 1000 Ang^3
#
#
#
# Elastic Constant Matrix: (Units=GPa)
#
#
# Indices 1 2 3 4 5 6 
#
# 1 40.2794 29.8349 37.3172 0.0000 0.0000 0.0000
# 2 29.8349 164.9504 99.7918 0.0000 0.0000 0.0000
# 3 37.3172 99.7918 186.2018 0.0000 0.0000 0.0000
# 4 0.0000 0.0000 0.0000 12.7742 0.0000 0.0000
# 5 0.0000 0.0000 0.0000 0.0000 26.0647 0.0000
# 6 0.0000 0.0000 0.0000 0.0000 0.0000 17.2402
#
#
#
# Elastic Compliance Matrix: (Units=1/GPa)
#
#
# Indices 1 2 3 4 5 6 
#
# 1 0.031316 -0.002763 -0.004795 0.000000 0.000000 0.000000
# 2 -0.002763 0.009215 -0.004385 0.000000 0.000000 0.000000
# 3 -0.004795 -0.004385 0.008682 0.000000 0.000000 0.000000
# 4 0.000000 0.000000 0.000000 0.078283 0.000000 0.000000
# 5 0.000000 0.000000 0.000000 0.000000 0.038366 0.000000
# 6 0.000000 0.000000 0.000000 0.000000 0.000000 0.058004
#
#
# Mechanical properties :
#
#
# Convention : Reuss Voigt Hill
#
# Bulk Modulus (GPa) = 39.48530 80.59105 60.03817
# Shear Modulus (GPa) = 19.51649 26.18166 22.84908
#
# Velocity S-wave (km/s) = 3.29333 3.81446 3.56343
# Velocity P-wave (km/s) = 6.03363 8.01171 7.09197
#
# Compressibility (1/GPa) = 0.02532588
#
# Stress axis : x y z
#
# Youngs Moduli (GPa) = 31.93277 108.51944 115.18722
#
# Poissons Ratio (x) = 0.29985 0.55235
# Poissons Ratio (y) = 0.08823 0.50508
# Poissons Ratio (z) = 0.15312 0.47584
#
# Static dielectric constant tensor:
#      x y z
#    x 1.609920 0.000000 0.000000 
#    y 0.000000 1.608660 0.000000 
#    z 0.000000 0.000000 1.591930 
# 
# From -- ./inp_files/16707.got.cif
#   From: 2010.05.17/outbox.cif.g08.bks.cpg/sg38_9_cif.got.tgz:16707.got - 2010.06.03 18:07:57.
