data_PCOD9356061
_publ_section_title
;
Structure prediction by ZEFSAII (Michael W. Deem and Ramdas Pophale) SiO2 
 PCOD9356061
Probable space group: A M M 2
;
_chemical_formula_sum "Si O2"
_cell_formula_units_Z 64
_cell_length_a 9.066927
_cell_length_b 27.067542
_cell_length_c 18.806028
_cell_angle_alpha 90.000000
_cell_angle_beta 90.000000
_cell_angle_gamma 90.000000
_cell_volume 4615.364623
_symmetry_space_group_name_H-M "A M M 2"
_symmetry_group_IT_number 38
_symmetry_cell_setting 'orthorhombic'
loop_
_space_group_symop_operation_xyz
x,y,z
-x,-y,z
-x,y,z
x,-y,z
x,1/2+y,1/2+z
-x,1/2-y,1/2+z
-x,1/2+y,1/2+z
x,1/2-y,1/2+z
loop_
_atom_site_type_symbol
_atom_site_label
_atom_site_fract_x
_atom_site_fract_y
_atom_site_fract_z
Si Si1 0.826127 0.708765 0.851410
Si Si2 0.825521 0.240885 0.990488
Si Si3 0.676659 0.263117 0.641634
Si Si4 0.175002 0.144562 0.223009
Si Si5 0.823931 0.145659 0.891116
Si Si6 0.176922 0.942617 0.991231
Si Si7 0.674444 0.201155 0.771957
Si Si8 0.324249 0.942187 0.142745
O O1 0.799403 0.714002 0.935289
O O2 0.802776 0.659437 0.805818
O O3 0.725564 0.749907 0.814408
O O4 0.000000 0.722601 0.841275
O O5 0.791448 0.190981 0.945550
O O6 0.000000 0.239383 0.007915
O O7 0.732311 0.243179 0.061734
O O8 0.500000 0.270125 0.644530
O O9 0.755453 0.310864 0.676473
O O10 0.714034 0.215556 0.691036
O O11 0.251126 0.094259 0.199181
O O12 0.000000 0.142375 0.209505
O O13 0.777900 0.095221 0.929645
O O14 0.751640 0.157391 0.815272
O O15 0.000000 0.145064 0.881895
O O16 0.000000 0.937411 0.001590
O O17 0.207394 0.000000 0.974200
O O18 0.256944 0.930388 0.065169
O O19 0.500000 0.194884 0.776286
O O20 0.500000 0.935500 0.141334
O O21 0.292377 0.000000 0.156828
#
# Coordination Sequence:
#
# PCOD9356061 Si02
#       8
#     8   8   8   8   8   8   8   8
#     4   8  16  29  42  57  77 101 131 165 197 233
#     4   9  16  26  40  58  80 106 135 164 195 235
#     4  10  19  28  39  59  84 107 134 166 198 235
#     4  10  18  29  45  60  77 106 139 167 199 237
#     4   9  17  28  41  57  78 105 136 166 197 234
#     4   9  17  29  44  61  81 106 137 171 203 235
#     4   9  17  27  39  56  78 104 133 164 196 232
#     4  10  20  31  42  59  83 108 135 168 201 232
#
# _framework density 13.866726
#
# number of rings (size 3 to 8) (size 9 to 14) (size 15 to 20)
#    0.000    2.750    0.000    3.000    0.000    6.250 
#    0.000    0.000    0.000    0.000    0.000    0.000 
#    0.000    1.000    0.000    4.500    0.000    3.750 
#
# Total GULP energy -178159.663387 kJ/mol
# GULP energy per Si atom -5567.489481 kJ/mol
# Density = 1.383516 g / cm^3
# Si number density = 13.866726 Si / 1000 Ang^3
#
#
#
# Elastic Constant Matrix: (Units=GPa)
#
#
# Indices 1 2 3 4 5 6 
#
# 1 34.5377 28.1405 33.8411 0.0000 0.0000 0.0000
# 2 28.1405 60.2462 34.5454 0.0000 0.0000 0.0000
# 3 33.8411 34.5454 73.3670 0.0000 0.0000 0.0000
# 4 0.0000 0.0000 0.0000 26.9840 0.0000 0.0000
# 5 0.0000 0.0000 0.0000 0.0000 18.3820 0.0000
# 6 0.0000 0.0000 0.0000 0.0000 0.0000 18.3562
#
#
#
# Elastic Compliance Matrix: (Units=1/GPa)
#
#
# Indices 1 2 3 4 5 6 
#
# 1 0.064348 -0.017859 -0.021272 0.000000 0.000000 0.000000
# 2 -0.017859 0.027694 -0.004802 0.000000 0.000000 0.000000
# 3 -0.021272 -0.004802 0.025703 0.000000 0.000000 0.000000
# 4 0.000000 0.000000 0.000000 0.037059 0.000000 0.000000
# 5 0.000000 0.000000 0.000000 0.000000 0.054401 0.000000
# 6 0.000000 0.000000 0.000000 0.000000 0.000000 0.054477
#
#
# Mechanical properties :
#
#
# Convention : Reuss Voigt Hill
#
# Bulk Modulus (GPa) = 33.46878 40.13386 36.80132
# Shear Modulus (GPa) = 13.83093 17.51937 15.67515
#
# Velocity S-wave (km/s) = 3.16162 3.55830 3.36581
# Velocity P-wave (km/s) = 6.12505 6.77403 6.45770
#
# Compressibility (1/GPa) = 0.02987859
#
# Stress axis : x y z
#
# Youngs Moduli (GPa) = 15.54052 36.10888 38.90566
#
# Poissons Ratio (x) = 0.64487 0.82760
# Poissons Ratio (y) = 0.27754 0.18684
# Poissons Ratio (z) = 0.33058 0.17341
#
# Static dielectric constant tensor:
#      x y z
#    x 1.463250 0.000000 0.000000 
#    y 0.000000 1.455230 0.000000 
#    z 0.000000 0.000000 1.461810 
# 
# From -- ./inp_files/13123.got.cif
#   From: 2010.05.17/outbox.cif.g08.bks.cpg/sg38_7_cif.got.tgz:13123.got - 2010.06.03 18:07:57.
