data_PCOD9356907
_publ_section_title
;
Structure prediction by ZEFSAII (Michael W. Deem and Ramdas Pophale) SiO2 
 PCOD9356907
Probable space group: A M M 2
;
_chemical_formula_sum "Si O2"
_cell_formula_units_Z 64
_cell_length_a 9.499939
_cell_length_b 16.778316
_cell_length_c 22.758086
_cell_angle_alpha 90.000000
_cell_angle_beta 90.000000
_cell_angle_gamma 90.000000
_cell_volume 3627.479113
_symmetry_space_group_name_H-M "A M M 2"
_symmetry_group_IT_number 38
_symmetry_cell_setting 'orthorhombic'
loop_
_space_group_symop_operation_xyz
x,y,z
-x,-y,z
-x,y,z
x,-y,z
x,1/2+y,1/2+z
-x,1/2-y,1/2+z
-x,1/2+y,1/2+z
x,1/2-y,1/2+z
loop_
_atom_site_type_symbol
_atom_site_label
_atom_site_fract_x
_atom_site_fract_y
_atom_site_fract_z
Si Si1 0.657166 0.593186 0.664600
Si Si2 0.330320 0.589905 0.802492
Si Si3 0.666209 0.860857 0.633213
Si Si4 0.835140 0.291303 0.593243
Si Si5 0.664087 0.589751 0.000919
Si Si6 0.329455 0.088202 0.763074
Si Si7 0.166660 0.241099 0.461189
Si Si8 0.329115 0.235155 0.847603
O O1 0.500000 0.628655 0.657017
O O2 0.648125 0.500000 0.653070
O O3 0.696654 0.601172 0.733028
O O4 0.767724 0.631706 0.621651
O O5 0.500000 0.586898 0.809812
O O6 0.278812 0.500000 0.819725
O O7 0.285100 0.673451 0.831589
O O8 0.500000 0.842493 0.638037
O O9 0.755285 0.781702 0.623919
O O10 0.682912 0.907889 0.571779
O O11 0.708053 0.901952 0.694201
O O12 0.812466 0.285003 0.523466
O O13 0.000000 0.285502 0.604284
O O14 0.500000 0.611147 0.989090
O O15 0.687386 0.500000 0.979767
O O16 0.766549 0.653630 0.972127
O O17 0.500000 0.087187 0.765673
O O18 0.287821 0.166598 0.800436
O O19 0.280900 0.000000 0.783645
O O20 0.253189 0.281602 0.409076
O O21 0.000000 0.236677 0.448962
O O22 0.500000 0.234352 0.852270
#
# Coordination Sequence:
#
# PCOD9356907 Si02
#       8
#     8   8   8   8   8   8   8   8
#     4   9  17  31  53  79 103 126 156 198 249 305
#     4   8  15  29  50  77 105 129 156 194 244 302
#     4   9  16  29  52  78 103 129 157 194 244 302
#     4  10  20  33  49  70  99 134 167 202 248 297
#     4   9  17  30  51  79 105 128 158 197 242 296
#     4   9  17  30  51  79 105 128 161 208 259 306
#     4  10  22  37  49  65  95 135 174 209 247 291
#     4  10  19  32  52  74  97 131 172 212 251 291
#
# _framework density 17.643107000000001
#
# number of rings (size 3 to 8) (size 9 to 14) (size 15 to 20)
#    0.000    2.750    0.000    2.625    0.000    6.000 
#    0.000    4.375    0.000    5.250    0.000    0.000 
#    0.000    0.000    0.000    0.000    0.000    0.000 
#
# Total GULP energy -178230.550775 kJ/mol
# GULP energy per Si atom -5569.704712 kJ/mol
# Density = 1.760295 g / cm^3
# Si number density = 17.643107 Si / 1000 Ang^3
#
#
#
# Elastic Constant Matrix: (Units=GPa)
#
#
# Indices 1 2 3 4 5 6 
#
# 1 25.8172 23.9901 30.2796 0.0000 0.0000 0.0000
# 2 23.9901 72.0133 48.6711 0.0000 0.0000 0.0000
# 3 30.2796 48.6711 59.8503 0.0000 0.0000 0.0000
# 4 0.0000 0.0000 0.0000 0.4824 0.0000 0.0000
# 5 0.0000 0.0000 0.0000 0.0000 12.1970 0.0000
# 6 0.0000 0.0000 0.0000 0.0000 0.0000 3.3282
#
#
#
# Elastic Compliance Matrix: (Units=1/GPa)
#
#
# Indices 1 2 3 4 5 6 
#
# 1 0.095368 0.001863 -0.049764 0.000000 0.000000 0.000000
# 2 0.001863 0.030869 -0.026046 0.000000 0.000000 0.000000
# 3 -0.049764 -0.026046 0.063065 0.000000 0.000000 0.000000
# 4 0.000000 0.000000 0.000000 2.072796 0.000000 0.000000
# 5 0.000000 0.000000 0.000000 0.000000 0.081987 0.000000
# 6 0.000000 0.000000 0.000000 0.000000 0.000000 0.300463
#
#
# Mechanical properties :
#
#
# Convention : Reuss Voigt Hill
#
# Bulk Modulus (GPa) = 24.14891 40.39583 32.27237
# Shear Modulus (GPa) = 1.78174 6.85086 4.31630
#
# Velocity S-wave (km/s) = 1.00602 1.97268 1.56581
# Velocity P-wave (km/s) = 3.88157 5.30419 4.64763
#
# Compressibility (1/GPa) = 0.04140974
#
# Stress axis : x y z
#
# Youngs Moduli (GPa) = 10.48575 32.39500 15.85655
#
# Poissons Ratio (x) = -0.06035 0.78908
# Poissons Ratio (y) = -0.01954 0.41299
# Poissons Ratio (z) = 0.52181 0.84375
#
# Static dielectric constant tensor:
#      x y z
#    x 1.577140 0.000000 0.000000 
#    y 0.000000 1.651370 0.000000 
#    z 0.000000 0.000000 1.611350 
# 
# From -- ./inp_files/20067.got.cif
#   From: 2010.05.17/outbox.cif.g08.bks.cpg/sg38_11_cif.got.tgz:20067.got - 2010.06.03 18:07:57.
