data_PCOD9356427
_publ_section_title
;
Structure prediction by ZEFSAII (Michael W. Deem and Ramdas Pophale) SiO2 
 PCOD9356427
Probable space group: A M M 2
;
_chemical_formula_sum "Si O2"
_cell_formula_units_Z 56
_cell_length_a 7.584398
_cell_length_b 22.242275
_cell_length_c 14.355515
_cell_angle_alpha 90.000000
_cell_angle_beta 90.000000
_cell_angle_gamma 90.000000
_cell_volume 2421.693066
_symmetry_space_group_name_H-M "A M M 2"
_symmetry_group_IT_number 38
_symmetry_cell_setting 'orthorhombic'
loop_
_space_group_symop_operation_xyz
x,y,z
-x,-y,z
-x,y,z
x,-y,z
x,1/2+y,1/2+z
-x,1/2-y,1/2+z
-x,1/2+y,1/2+z
x,1/2-y,1/2+z
loop_
_atom_site_type_symbol
_atom_site_label
_atom_site_fract_x
_atom_site_fract_y
_atom_site_fract_z
Si Si1 0.698139 0.500000 0.500000
Si Si2 0.282595 0.138267 0.010306
Si Si3 0.799439 0.500000 0.293277
Si Si4 0.713796 0.791689 0.823046
Si Si5 0.697235 0.188870 0.198929
Si Si6 0.712139 0.614850 0.169819
Si Si7 0.201090 0.433542 0.770199
Si Si8 0.291964 0.569330 0.980897
O O1 0.500000 0.500000 0.539132
O O2 0.774274 0.432427 0.520743
O O3 0.688990 0.500000 0.387279
O O4 0.500000 0.136292 0.010593
O O5 0.222523 0.180847 0.096041
O O6 0.225750 0.171194 0.914085
O O7 0.764663 0.557277 0.229663
O O8 0.000000 0.500000 0.325587
O O9 0.500000 0.790418 0.834830
O O10 0.771728 0.725480 0.787954
O O11 0.764688 0.829054 0.731226
O O12 0.500000 0.213913 0.183892
O O13 0.689269 0.120018 0.229563
O O14 0.500000 0.614555 0.163739
O O15 0.777513 0.610119 0.064390
O O16 0.268482 0.500000 0.747518
O O17 0.000000 0.428760 0.737139
O O18 0.201950 0.427163 0.881736
O O19 0.500000 0.581399 0.965237
O O20 0.277706 0.500000 0.013898
#
# Coordination Sequence:
#
# PCOD9356427 Si02
#       8
#     4   8   4   8   8   8   8   8
#     4  10  18  34  58  79 110 153 194 237 284 342
#     4   9  18  32  57  88 114 145 187 235 287 333
#     4  12  22  30  48  83 118 149 188 241 292 334
#     4   9  18  33  56  84 114 145 183 232 284 340
#     4  10  21  36  58  87 111 139 186 239 286 339
#     4  10  18  33  56  81 112 152 190 230 284 339
#     4  10  22  39  56  76 108 150 186 225 286 348
#     4   9  17  30  53  84 110 138 182 230 272 320
#
# _framework density 23.124316
#
# number of rings (size 3 to 8) (size 9 to 14) (size 15 to 20)
#    0.000    2.286    2.143    1.071    1.000    2.571 
#    0.000    5.714    0.000    1.714    0.000    0.000 
#    0.000    0.000    0.000    0.000    0.000    0.000 
#
# Total GULP energy -156122.984154 kJ/mol
# GULP energy per Si atom -5575.820863 kJ/mol
# Density = 2.307168 g / cm^3
# Si number density = 23.124316 Si / 1000 Ang^3
#
#
#
# Elastic Constant Matrix: (Units=GPa)
#
#
# Indices 1 2 3 4 5 6 
#
# 1 -1.8004 8.4154 31.4094 0.0000 0.0000 0.0000
# 2 8.4154 104.6004 34.8225 0.0000 0.0000 0.0000
# 3 31.4094 34.8225 82.2313 0.0000 0.0000 0.0000
# 4 0.0000 0.0000 0.0000 29.2493 0.0000 0.0000
# 5 0.0000 0.0000 0.0000 0.0000 -64.2084 0.0000
# 6 0.0000 0.0000 0.0000 0.0000 0.0000 68.2992
#
#
#
# Elastic Compliance Matrix: (Units=1/GPa)
#
#
# Indices 1 2 3 4 5 6 
#
# 1 -0.071107 -0.003866 0.028798 0.000000 0.000000 0.000000
# 2 -0.003866 0.010919 -0.003147 0.000000 0.000000 0.000000
# 3 0.028798 -0.003147 0.002494 0.000000 0.000000 0.000000
# 4 0.000000 0.000000 0.000000 0.034189 0.000000 0.000000
# 5 0.000000 0.000000 0.000000 0.000000 -0.015574 0.000000
# 6 0.000000 0.000000 0.000000 0.000000 0.000000 0.014641
#
#
# Mechanical properties :
#
#
# Convention : Reuss Voigt Hill
#
# Bulk Modulus (GPa) = -70.79275 37.14731 -16.82272
# Shear Modulus (GPa) = -68.76154 14.02697 -27.36728
#
# Velocity S-wave (km/s) = -5.45895 2.46558 -3.44391
# Velocity P-wave (km/s) = 8.39130 4.91980 4.80674
#
# Compressibility (1/GPa) = -0.01412574
#
# Stress axis : x y z
#
# Youngs Moduli (GPa) = -14.06332 91.58396 400.97656
#
# Poissons Ratio (x) = 0.35409 -11.54713
# Poissons Ratio (y) = -0.05437 1.26191
# Poissons Ratio (z) = 0.40499 0.28822
#
# Static dielectric constant tensor:
#      x y z
#    x 2.001970 0.000000 0.000000 
#    y 0.000000 1.898280 0.000000 
#    z 0.000000 0.000000 1.895630 
# 
# From -- ./inp_files/12489.got.cif
#   From: 2010.05.17/outbox.cif.g08.bks.cpg/sg38_7_cif.got.tgz:12489.got - 2010.06.03 18:07:57.
