data_PCOD9356210
_publ_section_title
;
Structure prediction by ZEFSAII (Michael W. Deem and Ramdas Pophale) SiO2 
 PCOD9356210
Probable space group: A M M 2
;
_chemical_formula_sum "Si O2"
_cell_formula_units_Z 48
_cell_length_a 16.222832
_cell_length_b 7.715309
_cell_length_c 18.720919
_cell_angle_alpha 90.000000
_cell_angle_beta 90.000000
_cell_angle_gamma 90.000000
_cell_volume 2343.188134
_symmetry_space_group_name_H-M "A M M 2"
_symmetry_group_IT_number 38
_symmetry_cell_setting 'orthorhombic'
loop_
_space_group_symop_operation_xyz
x,y,z
-x,-y,z
-x,y,z
x,-y,z
x,1/2+y,1/2+z
-x,1/2-y,1/2+z
-x,1/2+y,1/2+z
x,1/2-y,1/2+z
loop_
_atom_site_type_symbol
_atom_site_label
_atom_site_fract_x
_atom_site_fract_y
_atom_site_fract_z
Si Si1 0.322691 0.206716 0.434490
Si Si2 0.678100 0.712698 0.099424
Si Si3 0.161905 0.212754 0.686712
Si Si4 0.500000 0.698656 0.449416
Si Si5 0.841366 0.793455 0.849460
Si Si6 0.000000 0.792315 0.603235
Si Si7 0.000000 0.790693 0.936471
Si Si8 0.500000 0.196602 0.609855
O O1 0.311610 0.267706 0.516791
O O2 0.413810 0.266026 0.410351
O O3 0.246221 0.263517 0.386856
O O4 0.323163 0.000000 0.435672
O O5 0.675571 0.500000 0.099089
O O6 0.754523 0.767282 0.147318
O O7 0.588893 0.774853 0.127399
O O8 0.157674 0.272635 0.768421
O O9 0.082398 0.271416 0.642221
O O10 0.162195 0.000000 0.686672
O O11 0.500000 0.500000 0.472542
O O12 0.500000 0.808227 0.522753
O O13 0.917447 0.725750 0.896879
O O14 0.853200 0.000000 0.844572
O O15 0.000000 0.754530 0.519554
O O16 0.000000 0.000000 0.611393
O O17 0.000000 0.000000 0.932349
O O18 0.500000 0.000000 0.637697
#
# Coordination Sequence:
#
# PCOD9356210 Si02
#       8
#     8   8   8   4   8   4   4   4
#     4  10  19  33  53  77 105 135 171 217 262 304
#     4   8  14  26  46  70  94 124 164 208 250 292
#     4   9  17  30  49  73  99 128 168 213 251 295
#     4  10  18  30  51  78 105 135 173 213 255 306
#     4  10  20  34  51  73 104 140 174 211 260 314
#     4  10  19  33  55  77  95 126 174 218 252 298
#     4  10  21  35  51  75 107 138 168 212 268 314
#     4   8  14  26  45  70  99 129 163 209 261 300
#
# _framework density 20.484911
#
# number of rings (size 3 to 8) (size 9 to 14) (size 15 to 20)
#    0.000    2.667    0.000    3.750    0.000    4.000 
#    0.000    1.667    0.000    9.000    0.000    0.000 
#    0.000    0.000    0.000    0.000    0.000    0.000 
#
# Total GULP energy -133908.168375 kJ/mol
# GULP energy per Si atom -5579.507016 kJ/mol
# Density = 2.043829 g / cm^3
# Si number density = 20.484911 Si / 1000 Ang^3
#
#
#
# Elastic Constant Matrix: (Units=GPa)
#
#
# Indices 1 2 3 4 5 6 
#
# 1 243.0264 -3.5749 120.4356 0.0000 0.0000 0.0000
# 2 -3.5749 33.3665 1.8797 0.0000 0.0000 0.0000
# 3 120.4356 1.8797 143.2732 0.0000 0.0000 0.0000
# 4 0.0000 0.0000 0.0000 -2.9633 0.0000 0.0000
# 5 0.0000 0.0000 0.0000 0.0000 -10.6083 0.0000
# 6 0.0000 0.0000 0.0000 0.0000 0.0000 12.0359
#
#
#
# Elastic Compliance Matrix: (Units=1/GPa)
#
#
# Indices 1 2 3 4 5 6 
#
# 1 0.007093 0.001097 -0.005976 0.000000 0.000000 0.000000
# 2 0.001097 0.030162 -0.001318 0.000000 0.000000 0.000000
# 3 -0.005976 -0.001318 0.012021 0.000000 0.000000 0.000000
# 4 0.000000 0.000000 0.000000 -0.337459 0.000000 0.000000
# 5 0.000000 0.000000 0.000000 0.000000 -0.094266 0.000000
# 6 0.000000 0.000000 0.000000 0.000000 0.000000 0.083085
#
#
# Mechanical properties :
#
#
# Convention : Reuss Voigt Hill
#
# Bulk Modulus (GPa) = 27.11457 73.01632 50.06544
# Shear Modulus (GPa) = -18.20328 19.75456 0.77564
#
# Velocity S-wave (km/s) = -2.98420 3.10876 0.61601
# Velocity P-wave (km/s) = 1.17946 6.97189 4.99992
#
# Compressibility (1/GPa) = 0.03688055
#
# Stress axis : x y z
#
# Youngs Moduli (GPa) = 140.99111 33.15440 83.18921
#
# Poissons Ratio (x) = -0.03636 0.49718
# Poissons Ratio (y) = -0.15461 0.10960
# Poissons Ratio (z) = 0.84263 0.04368
#
# Static dielectric constant tensor:
#      x y z
#    x 1.742830 0.000000 0.000000 
#    y 0.000000 1.764010 0.000000 
#    z 0.000000 0.000000 1.685680 
# 
# From -- ./inp_files/18264.got.cif
#   From: 2010.05.17/outbox.cif.g08.bks.cpg/sg38_10_cif.got.tgz:18264.got - 2010.06.03 18:07:57.
