data_PCOD9356241
_publ_section_title
;
Structure prediction by ZEFSAII (Michael W. Deem and Ramdas Pophale) SiO2 
 PCOD9356241
Probable space group: A M M 2
;
_chemical_formula_sum "Si O2"
_cell_formula_units_Z 56
_cell_length_a 8.818576
_cell_length_b 16.088663
_cell_length_c 20.160157
_cell_angle_alpha 90.000000
_cell_angle_beta 90.000000
_cell_angle_gamma 90.000000
_cell_volume 2860.304879
_symmetry_space_group_name_H-M "A M M 2"
_symmetry_group_IT_number 38
_symmetry_cell_setting 'orthorhombic'
loop_
_space_group_symop_operation_xyz
x,y,z
-x,-y,z
-x,y,z
x,-y,z
x,1/2+y,1/2+z
-x,1/2-y,1/2+z
-x,1/2+y,1/2+z
x,1/2-y,1/2+z
loop_
_atom_site_type_symbol
_atom_site_label
_atom_site_fract_x
_atom_site_fract_y
_atom_site_fract_z
Si Si1 0.817855 0.095592 0.761280
Si Si2 0.329646 0.128013 0.160021
Si Si3 0.326749 0.591812 0.507508
Si Si4 0.181892 0.697776 0.130709
Si Si5 0.175466 0.761060 0.482441
Si Si6 0.322358 0.748375 0.343134
Si Si7 0.823742 0.089554 0.284367
O O1 0.787053 0.126116 0.685039
O O2 0.753624 0.164997 0.812228
O O3 0.000000 0.096402 0.768747
O O4 0.765351 0.000000 0.771573
O O5 0.500000 0.118607 0.187773
O O6 0.332198 0.090568 0.086952
O O7 0.282692 0.224072 0.152413
O O8 0.204886 0.087185 0.206008
O O9 0.500000 0.614111 0.485349
O O10 0.290968 0.500000 0.481454
O O11 0.205842 0.662923 0.493448
O O12 0.000000 0.716432 0.135354
O O13 0.212672 0.690554 0.051270
O O14 0.275940 0.773771 0.417798
O O15 0.000000 0.777209 0.467100
O O16 0.500000 0.736501 0.337866
O O17 0.267317 0.829090 0.303799
O O18 0.000000 0.100978 0.300127
O O19 0.773995 0.000000 0.312577
#
# Coordination Sequence:
#
# PCOD9356241 Si02
#       7
#     8   8   8   8   8   8   8
#     4  10  21  39  65  94 125 163 207 258 313 371
#     4  10  18  30  53  84 117 151 184 227 286 345
#     4   9  18  32  50  77 114 151 189 234 286 349
#     4   9  18  35  59  86 117 154 199 247 298 358
#     4  10  21  37  58  82 113 157 202 248 305 367
#     4  12  25  41  61  87 121 162 204 254 310 368
#     4  11  23  38  58  84 115 151 191 239 295 356
#
# _framework density 19.578333000000001
#
# number of rings (size 3 to 8) (size 9 to 14) (size 15 to 20)
#    0.000    1.857    1.429    3.000    0.000    4.000 
#    0.000    0.714    0.000    2.571    0.000    0.000 
#    0.000    0.000    0.000    0.000    0.000    0.000 
#
# Total GULP energy -155997.915613 kJ/mol
# GULP energy per Si atom -5571.354129 kJ/mol
# Density = 1.953377 g / cm^3
# Si number density = 19.578333 Si / 1000 Ang^3
#
#
#
# Elastic Constant Matrix: (Units=GPa)
#
#
# Indices 1 2 3 4 5 6 
#
# 1 46.9626 27.0640 21.1925 0.0000 0.0000 0.0000
# 2 27.0640 80.3536 15.9108 0.0000 0.0000 0.0000
# 3 21.1925 15.9108 58.3211 0.0000 0.0000 0.0000
# 4 0.0000 0.0000 0.0000 3.4873 0.0000 0.0000
# 5 0.0000 0.0000 0.0000 0.0000 27.9663 0.0000
# 6 0.0000 0.0000 0.0000 0.0000 0.0000 -53.5410
#
#
#
# Elastic Compliance Matrix: (Units=1/GPa)
#
#
# Indices 1 2 3 4 5 6 
#
# 1 0.030027 -0.008407 -0.008618 0.000000 0.000000 0.000000
# 2 -0.008407 0.015510 -0.001176 0.000000 0.000000 0.000000
# 3 -0.008618 -0.001176 0.020599 0.000000 0.000000 0.000000
# 4 0.000000 0.000000 0.000000 0.286755 0.000000 0.000000
# 5 0.000000 0.000000 0.000000 0.000000 0.035757 0.000000
# 6 0.000000 0.000000 0.000000 0.000000 0.000000 -0.018677
#
#
# Mechanical properties :
#
#
# Convention : Reuss Voigt Hill
#
# Bulk Modulus (GPa) = 33.63202 34.88576 34.25889
# Shear Modulus (GPa) = 12.01103 3.68052 7.84577
#
# Velocity S-wave (km/s) = 2.47955 1.37258 2.00401
# Velocity P-wave (km/s) = 5.04114 4.51323 4.78447
#
# Compressibility (1/GPa) = 0.02973357
#
# Stress axis : x y z
#
# Youngs Moduli (GPa) = 33.30309 64.47655 48.54655
#
# Poissons Ratio (x) = 0.54206 0.41835
# Poissons Ratio (y) = 0.27998 0.05710
# Poissons Ratio (z) = 0.28699 0.07584
#
# Static dielectric constant tensor:
#      x y z
#    x 1.664820 0.000000 0.000000 
#    y 0.000000 1.730280 0.000000 
#    z 0.000000 0.000000 1.766100 
# 
# From -- ./inp_files/19758.got.cif
#   From: 2010.05.17/outbox.cif.g08.bks.cpg/sg38_10_cif.got.tgz:19758.got - 2010.06.03 18:07:57.
