data_PCOD9356381
_publ_section_title
;
Structure prediction by ZEFSAII (Michael W. Deem and Ramdas Pophale) SiO2 
 PCOD9356381
Probable space group: A M M 2
;
_chemical_formula_sum "Si O2"
_cell_formula_units_Z 40
_cell_length_a 8.440298
_cell_length_b 26.982407
_cell_length_c 9.405530
_cell_angle_alpha 90.000000
_cell_angle_beta 90.000000
_cell_angle_gamma 90.000000
_cell_volume 2142.011225
_symmetry_space_group_name_H-M "A M M 2"
_symmetry_group_IT_number 38
_symmetry_cell_setting 'orthorhombic'
loop_
_space_group_symop_operation_xyz
x,y,z
-x,-y,z
-x,y,z
x,-y,z
x,1/2+y,1/2+z
-x,1/2-y,1/2+z
-x,1/2+y,1/2+z
x,1/2-y,1/2+z
loop_
_atom_site_type_symbol
_atom_site_label
_atom_site_fract_x
_atom_site_fract_y
_atom_site_fract_z
Si Si1 0.317520 0.000000 0.450351
Si Si2 0.309528 0.892440 0.117456
Si Si3 0.810682 0.393967 0.939681
Si Si4 0.316028 0.000000 0.104479
Si Si5 0.193485 0.200757 0.619728
Si Si6 0.808315 0.702186 0.446346
O O1 0.237965 0.948455 0.493800
O O2 0.313281 0.000000 0.277226
O O3 0.500000 0.000000 0.494236
O O4 0.500000 0.893979 0.113943
O O5 0.258014 0.886565 0.281497
O O6 0.247357 0.946438 0.064207
O O7 0.248226 0.847116 0.025084
O O8 0.000000 0.391873 0.928587
O O9 0.756080 0.349684 0.041923
O O10 0.500000 0.000000 0.059053
O O11 0.244856 0.248945 0.531411
O O12 0.245496 0.203407 0.782946
O O13 0.000000 0.200906 0.619947
O O14 0.000000 0.702379 0.446807
#
# Coordination Sequence:
#
# PCOD9356381 Si02
#       6
#     4   8   8   4   8   8
#     4   9  17  31  50  77 110 142 172 212 258 305
#     4  10  19  33  52  77 106 138 172 214 261 309
#     4  10  18  32  55  81 105 138 178 216 257 310
#     4   7  14  29  48  67  96 132 166 200 242 291
#     4   9  19  34  55  78 102 132 173 221 268 313
#     4  10  19  35  55  76 101 134 173 218 268 318
#
# _framework density 18.674036999999998
#
# number of rings (size 3 to 8) (size 9 to 14) (size 15 to 20)
#    0.000    2.600    0.000    3.900    0.000    3.200 
#    0.000    9.500    0.000    3.600    0.000    0.000 
#    0.000    0.000    0.000    0.000    0.000    0.000 
#
# Total GULP energy -111526.853449 kJ/mol
# GULP energy per Si atom -5576.342672 kJ/mol
# Density = 1.863153 g / cm^3
# Si number density = 18.674037 Si / 1000 Ang^3
#
#
#
# Elastic Constant Matrix: (Units=GPa)
#
#
# Indices 1 2 3 4 5 6 
#
# 1 24.8475 24.1523 15.8883 0.0000 0.0000 0.0000
# 2 24.1523 226.0278 108.2346 0.0000 0.0000 0.0000
# 3 15.8883 108.2346 118.1082 0.0000 0.0000 0.0000
# 4 0.0000 0.0000 0.0000 32.3916 0.0000 0.0000
# 5 0.0000 0.0000 0.0000 0.0000 3.3401 0.0000
# 6 0.0000 0.0000 0.0000 0.0000 0.0000 17.2015
#
#
#
# Elastic Compliance Matrix: (Units=1/GPa)
#
#
# Indices 1 2 3 4 5 6 
#
# 1 0.045486 -0.003440 -0.002967 0.000000 0.000000 0.000000
# 2 -0.003440 0.008144 -0.007000 0.000000 0.000000 0.000000
# 3 -0.002967 -0.007000 0.015281 0.000000 0.000000 0.000000
# 4 0.000000 0.000000 0.000000 0.030872 0.000000 0.000000
# 5 0.000000 0.000000 0.000000 0.000000 0.299389 0.000000
# 6 0.000000 0.000000 0.000000 0.000000 0.000000 0.058134
#
#
# Mechanical properties :
#
#
# Convention : Reuss Voigt Hill
#
# Bulk Modulus (GPa) = 23.75446 73.94822 48.85134
# Shear Modulus (GPa) = 10.03708 25.30054 17.66881
#
# Velocity S-wave (km/s) = 2.32090 3.68482 3.07932
# Velocity P-wave (km/s) = 4.46433 7.60193 6.23376
#
# Compressibility (1/GPa) = 0.04209736
#
# Stress axis : x y z
#
# Youngs Moduli (GPa) = 21.98472 122.78981 65.44027
#
# Poissons Ratio (x) = 0.42238 0.19414
# Poissons Ratio (y) = 0.07562 0.45811
# Poissons Ratio (z) = 0.06522 0.85958
#
# Static dielectric constant tensor:
#      x y z
#    x 1.646980 0.000000 0.000000 
#    y 0.000000 1.664550 0.000000 
#    z 0.000000 0.000000 1.616910 
# 
# From -- ./inp_files/3489.got.cif
#   From: 2010.05.17/outbox.cif.g08.bks.cpg/sg38_2_cif.got.tgz:3489.got - 2010.06.03 18:07:57.
