data_PCOD9356318
_publ_section_title
;
Structure prediction by ZEFSAII (Michael W. Deem and Ramdas Pophale) SiO2 
 PCOD9356318
Probable space group: A M M 2
;
_chemical_formula_sum "Si O2"
_cell_formula_units_Z 64
_cell_length_a 15.104854
_cell_length_b 8.709824
_cell_length_c 25.064175
_cell_angle_alpha 90.000000
_cell_angle_beta 90.000000
_cell_angle_gamma 90.000000
_cell_volume 3297.458400
_symmetry_space_group_name_H-M "A M M 2"
_symmetry_group_IT_number 38
_symmetry_cell_setting 'orthorhombic'
loop_
_space_group_symop_operation_xyz
x,y,z
-x,-y,z
-x,y,z
x,-y,z
x,1/2+y,1/2+z
-x,1/2-y,1/2+z
-x,1/2+y,1/2+z
x,1/2-y,1/2+z
loop_
_atom_site_type_symbol
_atom_site_label
_atom_site_fract_x
_atom_site_fract_y
_atom_site_fract_z
Si Si1 0.714803 0.681622 0.501440
Si Si2 0.595985 0.181836 0.714635
Si Si3 0.902409 0.814524 0.532916
Si Si4 0.683513 0.178487 0.123596
Si Si5 0.396619 0.183939 0.404919
Si Si6 0.901527 0.683199 0.769278
Si Si7 0.277550 0.184076 0.809603
Si Si8 0.864285 0.319763 0.153890
O O1 0.716792 0.500000 0.490177
O O2 0.816216 0.742738 0.505026
O O3 0.675449 0.705037 0.560820
O O4 0.652944 0.764410 0.458832
O O5 0.500000 0.204524 0.740504
O O6 0.602150 0.276538 0.660347
O O7 0.671547 0.230699 0.755486
O O8 0.605246 0.000000 0.703678
O O9 0.901237 0.770328 0.595988
O O10 0.000000 0.773212 0.511311
O O11 0.893717 0.000000 0.531190
O O12 0.760736 0.287309 0.145911
O O13 0.708303 0.000000 0.131032
O O14 0.500000 0.235641 0.402844
O O15 0.335751 0.250809 0.357730
O O16 0.396602 0.000000 0.401420
O O17 0.893059 0.500000 0.771540
O O18 0.822317 0.756550 0.803245
O O19 0.894040 0.734669 0.707263
O O20 0.000000 0.727217 0.788131
O O21 0.277150 0.000000 0.812599
O O22 0.882660 0.500000 0.160773
#
# Coordination Sequence:
#
# PCOD9356318 Si02
#       8
#     8   8   8   8   8   8   8   8
#     4  10  22  39  60  88 121 157 200 251 302 355
#     4  10  21  36  56  85 119 156 195 237 295 363
#     4   9  18  33  55  85 122 163 205 248 295 351
#     4  10  20  34  54  83 121 161 198 242 299 353
#     4  11  25  45  69  93 116 151 199 250 305 363
#     4  11  23  37  56  86 124 163 202 246 296 351
#     4  11  23  41  65  90 119 156 199 250 302 356
#     4  10  18  31  53  82 118 162 207 246 290 347
#
# _framework density 19.408888000000001
#
# number of rings (size 3 to 8) (size 9 to 14) (size 15 to 20)
#    0.000    1.750    1.250    3.000    0.000    6.500 
#    0.000    3.125    0.000    3.750    0.000    0.000 
#    0.000    0.000    0.000    0.000    0.000    0.000 
#
# Total GULP energy -178599.170915 kJ/mol
# GULP energy per Si atom -5581.224091 kJ/mol
# Density = 1.936471 g / cm^3
# Si number density = 19.408888 Si / 1000 Ang^3
#
#
#
# Elastic Constant Matrix: (Units=GPa)
#
#
# Indices 1 2 3 4 5 6 
#
# 1 163.1189 46.3622 65.8720 0.0000 0.0000 0.0000
# 2 46.3622 44.0471 34.9567 0.0000 0.0000 0.0000
# 3 65.8720 34.9567 79.2997 0.0000 0.0000 0.0000
# 4 0.0000 0.0000 0.0000 31.6683 0.0000 0.0000
# 5 0.0000 0.0000 0.0000 0.0000 10.2931 0.0000
# 6 0.0000 0.0000 0.0000 0.0000 0.0000 22.0223
#
#
#
# Elastic Compliance Matrix: (Units=1/GPa)
#
#
# Indices 1 2 3 4 5 6 
#
# 1 0.010212 -0.006178 -0.005760 0.000000 0.000000 0.000000
# 2 -0.006178 0.038657 -0.011909 0.000000 0.000000 0.000000
# 3 -0.005760 -0.011909 0.022644 0.000000 0.000000 0.000000
# 4 0.000000 0.000000 0.000000 0.031577 0.000000 0.000000
# 5 0.000000 0.000000 0.000000 0.000000 0.097152 0.000000
# 6 0.000000 0.000000 0.000000 0.000000 0.000000 0.045408
#
#
# Mechanical properties :
#
#
# Convention : Reuss Voigt Hill
#
# Bulk Modulus (GPa) = 41.98042 64.53859 53.25950
# Shear Modulus (GPa) = 16.59561 22.08173 19.33867
#
# Velocity S-wave (km/s) = 2.92730 3.37666 3.15998
# Velocity P-wave (km/s) = 5.75342 6.96611 6.38861
#
# Compressibility (1/GPa) = 0.02382063
#
# Stress axis : x y z
#
# Youngs Moduli (GPa) = 97.92012 25.86874 44.16122
#
# Poissons Ratio (x) = 0.15982 0.25436
# Poissons Ratio (y) = 0.60496 0.52590
# Poissons Ratio (z) = 0.56399 0.30806
#
# Static dielectric constant tensor:
#      x y z
#    x 1.735580 0.000000 0.000000 
#    y 0.000000 1.655310 0.000000 
#    z 0.000000 0.000000 1.671830 
# 
# From -- ./inp_files/23000.got.cif
#   From: 2010.05.17/outbox.cif.g08.bks.cpg/sg38_12_cif.got.tgz:23000.got - 2010.06.03 18:07:57.
