data_PCOD9356467
_publ_section_title
;
Structure prediction by ZEFSAII (Michael W. Deem and Ramdas Pophale) SiO2 
 PCOD9356467
Probable space group: A M M 2
;
_chemical_formula_sum "Si O2"
_cell_formula_units_Z 48
_cell_length_a 8.259296
_cell_length_b 15.006370
_cell_length_c 21.070785
_cell_angle_alpha 90.000000
_cell_angle_beta 90.000000
_cell_angle_gamma 90.000000
_cell_volume 2611.556324
_symmetry_space_group_name_H-M "A M M 2"
_symmetry_group_IT_number 38
_symmetry_cell_setting 'orthorhombic'
loop_
_space_group_symop_operation_xyz
x,y,z
-x,-y,z
-x,y,z
x,-y,z
x,1/2+y,1/2+z
-x,1/2-y,1/2+z
-x,1/2+y,1/2+z
x,1/2-y,1/2+z
loop_
_atom_site_type_symbol
_atom_site_label
_atom_site_fract_x
_atom_site_fract_y
_atom_site_fract_z
Si Si1 0.695476 0.193502 0.058060
Si Si2 0.302366 0.000000 0.246707
Si Si3 0.306193 0.500000 0.992167
Si Si4 0.302105 0.693167 0.181334
Si Si5 0.697806 0.500000 0.139237
Si Si6 0.808443 0.310678 0.940647
Si Si7 0.697771 0.000000 0.098615
Si Si8 0.695506 0.809993 0.299936
O O1 0.500000 0.192957 0.059425
O O2 0.748795 0.249923 0.119767
O O3 0.751485 0.091582 0.065832
O O4 0.747475 0.243120 0.994494
O O5 0.248458 0.090429 0.280888
O O6 0.500000 0.000000 0.247535
O O7 0.254560 0.000000 0.172765
O O8 0.500000 0.500000 0.992705
O O9 0.250322 0.500000 0.065564
O O10 0.250728 0.590000 0.958254
O O11 0.500000 0.693651 0.181409
O O12 0.249536 0.591263 0.172476
O O13 0.248829 0.741522 0.245612
O O14 0.500000 0.500000 0.138882
O O15 0.748022 0.286777 0.870574
O O16 0.000000 0.310534 0.941201
O O17 0.500000 0.000000 0.098091
O O18 0.500000 0.811201 0.298178
#
# Coordination Sequence:
#
# PCOD9356467 Si02
#       8
#     8   4   4   8   4   8   4   8
#     4  10  18  34  59  85 111 144 188 237 287 334
#     4   9  15  27  53  85 109 129 167 230 295 335
#     4  11  20  36  63  87 111 143 185 237 290 336
#     4   9  16  29  54  84 110 137 181 236 281 330
#     4   9  16  28  53  88 112 132 171 234 291 328
#     4  12  25  38  52  79 121 158 190 227 276 343
#     4   9  16  29  57  92 114 130 177 245 288 323
#     4  10  19  33  55  81 109 144 186 231 282 335
#
# _framework density 18.379846000000001
#
# number of rings (size 3 to 8) (size 9 to 14) (size 15 to 20)
#    0.000    2.000    3.333    2.250    0.000    0.667 
#    0.000    2.083    0.000    4.000    0.000    0.000 
#    0.000    0.000    0.000    0.000    0.000    0.000 
#
# Total GULP energy -133988.507842 kJ/mol
# GULP energy per Si atom -5582.854493 kJ/mol
# Density = 1.833801 g / cm^3
# Si number density = 18.379846 Si / 1000 Ang^3
#
#
#
# Elastic Constant Matrix: (Units=GPa)
#
#
# Indices 1 2 3 4 5 6 
#
# 1 14.6851 20.1457 15.9056 0.0000 0.0000 0.0000
# 2 20.1457 173.9817 106.7063 0.0000 0.0000 0.0000
# 3 15.9056 106.7063 186.4305 0.0000 0.0000 0.0000
# 4 0.0000 0.0000 0.0000 24.5937 0.0000 0.0000
# 5 0.0000 0.0000 0.0000 0.0000 -24.7104 0.0000
# 6 0.0000 0.0000 0.0000 0.0000 0.0000 2.9056
#
#
#
# Elastic Compliance Matrix: (Units=1/GPa)
#
#
# Indices 1 2 3 4 5 6 
#
# 1 0.081644 -0.007985 -0.002396 0.000000 0.000000 0.000000
# 2 -0.007985 0.009638 -0.004835 0.000000 0.000000 0.000000
# 3 -0.002396 -0.004835 0.008336 0.000000 0.000000 0.000000
# 4 0.000000 0.000000 0.000000 0.040661 0.000000 0.000000
# 5 0.000000 0.000000 0.000000 0.000000 -0.040469 0.000000
# 6 0.000000 0.000000 0.000000 0.000000 0.000000 0.344169
#
#
# Mechanical properties :
#
#
# Convention : Reuss Voigt Hill
#
# Bulk Modulus (GPa) = 14.45349 73.40139 43.92744
# Shear Modulus (GPa) = 10.05083 16.04708 13.04895
#
# Velocity S-wave (km/s) = 2.34100 2.95800 2.66740
# Velocity P-wave (km/s) = 3.89716 7.18949 5.78259
#
# Compressibility (1/GPa) = 0.06918746
#
# Stress axis : x y z
#
# Youngs Moduli (GPa) = 12.24825 103.75889 119.96526
#
# Poissons Ratio (x) = 0.82847 0.28738
# Poissons Ratio (y) = 0.09780 0.58004
# Poissons Ratio (z) = 0.02934 0.50168
#
# Static dielectric constant tensor:
#      x y z
#    x 1.629590 0.000000 0.000000 
#    y 0.000000 1.618810 0.000000 
#    z 0.000000 0.000000 1.613600 
# 
# From -- ./inp_files/16710.got.cif
#   From: 2010.05.17/outbox.cif.g08.bks.cpg/sg38_9_cif.got.tgz:16710.got - 2010.06.03 18:07:57.
