data_PCOD9356616
_publ_section_title
;
Structure prediction by ZEFSAII (Michael W. Deem and Ramdas Pophale) SiO2 
 PCOD9356616
Probable space group: A M M 2
;
_chemical_formula_sum "Si O2"
_cell_formula_units_Z 64
_cell_length_a 14.744654
_cell_length_b 7.442487
_cell_length_c 29.357552
_cell_angle_alpha 90.000000
_cell_angle_beta 90.000000
_cell_angle_gamma 90.000000
_cell_volume 3221.606622
_symmetry_space_group_name_H-M "A M M 2"
_symmetry_group_IT_number 38
_symmetry_cell_setting 'orthorhombic'
loop_
_space_group_symop_operation_xyz
x,y,z
-x,-y,z
-x,y,z
x,-y,z
x,1/2+y,1/2+z
-x,1/2-y,1/2+z
-x,1/2+y,1/2+z
x,1/2-y,1/2+z
loop_
_atom_site_type_symbol
_atom_site_label
_atom_site_fract_x
_atom_site_fract_y
_atom_site_fract_z
Si Si1 0.749996 0.718960 0.010500
Si Si2 0.249996 0.219402 0.363771
Si Si3 0.398264 0.213269 0.685801
Si Si4 0.249998 0.786668 0.260639
Si Si5 0.898264 0.213270 0.685798
Si Si6 0.396514 0.719094 0.937191
Si Si7 0.749997 0.779525 0.614714
Si Si8 0.103486 0.780906 0.437195
O O1 0.749995 0.500000 0.011009
O O2 0.749994 0.779050 0.062548
O O3 0.661916 0.773836 0.981333
O O4 0.838079 0.773837 0.981335
O O5 0.249994 0.284612 0.312016
O O6 0.338111 0.273504 0.393024
O O7 0.161883 0.273504 0.393027
O O8 0.249995 0.000000 0.363224
O O9 0.500000 0.286766 0.688835
O O10 0.338198 0.237142 0.731091
O O11 0.337558 0.280856 0.643651
O O12 0.405590 0.000000 0.678977
O O13 0.161799 0.737152 0.231089
O O14 0.250001 0.000000 0.263950
O O15 0.837555 0.280853 0.643648
O O16 0.000000 0.286767 0.688830
O O17 0.905589 0.000000 0.678976
O O18 0.500000 0.780818 0.937164
O O19 0.397911 0.500000 0.937265
O O20 0.749996 0.000000 0.614902
O O21 0.000000 0.719182 0.437171
O O22 0.102089 0.000000 0.437269
#
# Coordination Sequence:
#
# PCOD9356616 Si02
#       8
#     8   8   8   8   8   8   8   8
#     4   8  13  20  32  53  77 102 137 173 203 245
#     4   8  15  25  35  52  79 110 141 171 209 257
#     4   9  18  32  47  63  88 121 151 180 219 265
#     4  10  19  30  46  67  89 114 149 190 224 257
#     4   9  18  32  47  63  88 121 151 180 219 265
#     4   8  13  21  32  48  76 111 139 165 203 252
#     4   8  14  25  40  58  81 110 145 180 212 253
#     4   8  13  21  32  48  76 111 139 165 203 252
#
# _framework density 19.865863999999998
#
# number of rings (size 3 to 8) (size 9 to 14) (size 15 to 20)
#    0.000    3.500    0.000    2.625    0.000    2.500 
#    0.000    7.500    0.000    0.000    0.000    0.000 
#    0.000   32.000    0.000   16.000    0.000   16.000 
#
# Total GULP energy -178411.089246 kJ/mol
# GULP energy per Si atom -5575.346539 kJ/mol
# Density = 1.982065 g / cm^3
# Si number density = 19.865864 Si / 1000 Ang^3
#
#
#
# Elastic Constant Matrix: (Units=GPa)
#
#
# Indices 1 2 3 4 5 6 
#
# 1 236.9887 7.2411 131.4593 0.0000 0.0000 0.0000
# 2 7.2411 60.1297 2.0393 0.0000 0.0000 0.0000
# 3 131.4593 2.0393 227.5940 0.0000 0.0000 0.0000
# 4 0.0000 0.0000 0.0000 10.7501 0.0000 0.0000
# 5 0.0000 0.0000 0.0000 0.0000 6.8153 0.0000
# 6 0.0000 0.0000 0.0000 0.0000 0.0000 -4.8103
#
#
#
# Elastic Compliance Matrix: (Units=1/GPa)
#
#
# Indices 1 2 3 4 5 6 
#
# 1 0.006233 -0.000629 -0.003594 0.000000 0.000000 0.000000
# 2 -0.000629 0.016699 0.000213 0.000000 0.000000 0.000000
# 3 -0.003594 0.000213 0.006468 0.000000 0.000000 0.000000
# 4 0.000000 0.000000 0.000000 0.093022 0.000000 0.000000
# 5 0.000000 0.000000 0.000000 0.000000 0.146728 0.000000
# 6 0.000000 0.000000 0.000000 0.000000 0.000000 -0.207888
#
#
# Mechanical properties :
#
#
# Convention : Reuss Voigt Hill
#
# Bulk Modulus (GPa) = 46.77107 89.57687 68.17397
# Shear Modulus (GPa) = 65.43832 28.14921 46.79377
#
# Velocity S-wave (km/s) = 5.74557 3.76834 4.85860
# Velocity P-wave (km/s) = 8.22253 8.00766 8.11581
#
# Compressibility (1/GPa) = 0.02138074
#
# Stress axis : x y z
#
# Youngs Moduli (GPa) = 160.44563 59.88319 154.60730
#
# Poissons Ratio (x) = 0.03765 0.55572
# Poissons Ratio (y) = 0.10087 -0.03301
# Poissons Ratio (z) = 0.57670 -0.01278
#
# Static dielectric constant tensor:
#      x y z
#    x 1.675340 0.000000 0.000000 
#    y 0.000000 1.798680 0.000000 
#    z 0.000000 0.000000 1.672180 
# 
# From -- ./inp_files/25080.got.cif
#   From: 2010.05.17/outbox.cif.g08.bks.cpg/sg38_13_cif.got.tgz:25080.got - 2010.06.03 18:07:57.
