data_PCOD9356269
_publ_section_title
;
Structure prediction by ZEFSAII (Michael W. Deem and Ramdas Pophale) SiO2 
 PCOD9356269
Probable space group: A M M 2
;
_chemical_formula_sum "Si O2"
_cell_formula_units_Z 64
_cell_length_a 7.899631
_cell_length_b 21.671254
_cell_length_c 20.053097
_cell_angle_alpha 90.000000
_cell_angle_beta 90.000000
_cell_angle_gamma 90.000000
_cell_volume 3432.988134
_symmetry_space_group_name_H-M "A M M 2"
_symmetry_group_IT_number 38
_symmetry_cell_setting 'orthorhombic'
loop_
_space_group_symop_operation_xyz
x,y,z
-x,-y,z
-x,y,z
x,-y,z
x,1/2+y,1/2+z
-x,1/2-y,1/2+z
-x,1/2+y,1/2+z
x,1/2-y,1/2+z
loop_
_atom_site_type_symbol
_atom_site_label
_atom_site_fract_x
_atom_site_fract_y
_atom_site_fract_z
Si Si1 0.301163 0.883500 0.617570
Si Si2 0.198296 0.122944 0.469344
Si Si3 0.796752 0.258476 0.625888
Si Si4 0.296654 0.690389 0.765203
Si Si5 0.707499 0.431849 0.258481
Si Si6 0.204020 0.764454 0.977352
Si Si7 0.699198 0.932574 0.335035
Si Si8 0.297811 0.813260 0.839275
O O1 0.500000 0.895639 0.610442
O O2 0.220071 0.896911 0.545987
O O3 0.274965 0.810819 0.633127
O O4 0.237811 0.919776 0.682220
O O5 0.263565 0.193772 0.464993
O O6 0.285072 0.081774 0.413603
O O7 0.000000 0.123463 0.453644
O O8 0.741074 0.299832 0.687569
O O9 0.743256 0.281504 0.552460
O O10 0.000000 0.253208 0.626198
O O11 0.500000 0.690072 0.774217
O O12 0.228824 0.626781 0.796154
O O13 0.229891 0.751051 0.803926
O O14 0.500000 0.430428 0.258173
O O15 0.759529 0.500000 0.280698
O O16 0.767029 0.375322 0.304351
O O17 0.000000 0.762983 0.976371
O O18 0.263479 0.807214 0.917558
O O19 0.500000 0.935107 0.318658
O O20 0.773628 0.000000 0.320159
O O21 0.500000 0.813135 0.829326
#
# Coordination Sequence:
#
# PCOD9356269 Si02
#       8
#     8   8   8   8   8   8   8   8
#     4  10  18  31  51  74 103 140 176 210 250 299
#     4  10  20  33  49  74 106 139 174 211 252 304
#     4  10  20  33  51  77 106 135 169 211 260 308
#     4  10  19  33  53  79 102 127 173 219 255 303
#     4   9  18  32  49  72 102 132 164 204 250 299
#     4   9  19  33  49  74 104 132 164 204 253 302
#     4  10  21  36  53  74 103 138 173 214 264 315
#     4  10  18  31  53  78  98 126 169 212 250 292
#
# _framework density 18.642651999999998
#
# number of rings (size 3 to 8) (size 9 to 14) (size 15 to 20)
#    0.000    2.250    2.500    1.875    0.000    4.250 
#    0.000    1.250    0.000    3.750    0.000    5.250 
#    0.000    0.000    0.000    0.000    0.000    0.000 
#
# Total GULP energy -178539.811960 kJ/mol
# GULP energy per Si atom -5579.369124 kJ/mol
# Density = 1.860022 g / cm^3
# Si number density = 18.642652 Si / 1000 Ang^3
#
#
#
# Elastic Constant Matrix: (Units=GPa)
#
#
# Indices 1 2 3 4 5 6 
#
# 1 15.4595 7.6206 -7.1455 0.0000 0.0000 0.0000
# 2 7.6206 129.7533 76.2699 0.0000 0.0000 0.0000
# 3 -7.1455 76.2699 109.9074 0.0000 0.0000 0.0000
# 4 0.0000 0.0000 0.0000 20.4075 0.0000 0.0000
# 5 0.0000 0.0000 0.0000 0.0000 46.0551 0.0000
# 6 0.0000 0.0000 0.0000 0.0000 0.0000 3.4228
#
#
#
# Elastic Compliance Matrix: (Units=1/GPa)
#
#
# Indices 1 2 3 4 5 6 
#
# 1 0.077308 -0.012658 0.013810 0.000000 0.000000 0.000000
# 2 -0.012658 0.015089 -0.011294 0.000000 0.000000 0.000000
# 3 0.013810 -0.011294 0.017834 0.000000 0.000000 0.000000
# 4 0.000000 0.000000 0.000000 0.049002 0.000000 0.000000
# 5 0.000000 0.000000 0.000000 0.000000 0.021713 0.000000
# 6 0.000000 0.000000 0.000000 0.000000 0.000000 0.292162
#
#
# Mechanical properties :
#
#
# Convention : Reuss Voigt Hill
#
# Bulk Modulus (GPa) = 11.11768 45.40114 28.25941
# Shear Modulus (GPa) = 9.55340 25.86875 17.71108
#
# Velocity S-wave (km/s) = 2.26619 3.72911 3.08560
# Velocity P-wave (km/s) = 3.58106 6.55346 5.28071
#
# Compressibility (1/GPa) = 0.08994680
#
# Stress axis : x y z
#
# Youngs Moduli (GPa) = 12.93530 66.27347 56.07337
#
# Poissons Ratio (x) = 0.83889 -0.77438
# Poissons Ratio (y) = 0.16374 0.63329
# Poissons Ratio (z) = -0.17864 0.74849
#
# Static dielectric constant tensor:
#      x y z
#    x 1.667320 0.000000 0.000000 
#    y 0.000000 1.653630 0.000000 
#    z 0.000000 0.000000 1.645130 
# 
# From -- ./inp_files/17182.got.cif
#   From: 2010.05.17/outbox.cif.g08.bks.cpg/sg38_9_cif.got.tgz:17182.got - 2010.06.03 18:07:57.
