data_PCOD9356268
_publ_section_title
;
Structure prediction by ZEFSAII (Michael W. Deem and Ramdas Pophale) SiO2 
 PCOD9356268
Probable space group: A M M 2
;
_chemical_formula_sum "Si O2"
_cell_formula_units_Z 64
_cell_length_a 9.492505
_cell_length_b 33.920669
_cell_length_c 11.890509
_cell_angle_alpha 90.000000
_cell_angle_beta 90.000000
_cell_angle_gamma 90.000000
_cell_volume 3828.650202
_symmetry_space_group_name_H-M "A M M 2"
_symmetry_group_IT_number 38
_symmetry_cell_setting 'orthorhombic'
loop_
_space_group_symop_operation_xyz
x,y,z
-x,-y,z
-x,y,z
x,-y,z
x,1/2+y,1/2+z
-x,1/2-y,1/2+z
-x,1/2+y,1/2+z
x,1/2-y,1/2+z
loop_
_atom_site_type_symbol
_atom_site_label
_atom_site_fract_x
_atom_site_fract_y
_atom_site_fract_z
Si Si1 0.337564 0.111161 0.375000
Si Si2 0.834045 0.171529 0.509685
Si Si3 0.840907 0.953857 0.268355
Si Si4 0.832317 0.545745 0.500123
Si Si5 0.330129 0.876761 0.934385
Si Si6 0.336381 0.829595 0.162927
Si Si7 0.168535 0.229801 0.308283
Si Si8 0.832390 0.819222 0.773553
O O1 0.500000 0.106977 0.404081
O O2 0.253928 0.133899 0.471220
O O3 0.267110 0.070365 0.341684
O O4 0.326177 0.138315 0.263027
O O5 0.796340 0.206808 0.423636
O O6 0.811489 0.181224 0.639418
O O7 0.000000 0.163779 0.493283
O O8 0.000000 0.938808 0.287391
O O9 0.837326 0.000000 0.294567
O O10 0.812020 0.950189 0.135021
O O11 0.797931 0.500000 0.470631
O O12 0.739791 0.579977 0.444442
O O13 0.000000 0.551386 0.478353
O O14 0.500000 0.879467 0.926343
O O15 0.260183 0.852388 0.833308
O O16 0.295624 0.851489 0.047725
O O17 0.500000 0.817500 0.153498
O O18 0.243247 0.793088 0.205656
O O19 0.206993 0.275566 0.316197
O O20 0.000000 0.227779 0.291203
O O21 0.000000 0.825705 0.795392
#
# Coordination Sequence:
#
# PCOD9356268 Si02
#       8
#     8   8   8   8   8   8   8   8
#     4  10  18  31  51  74 103 138 172 209 254 308
#     4   9  19  36  53  74 102 134 175 218 264 313
#     4   9  17  29  48  77 109 138 169 208 258 314
#     4   9  18  33  54  80 110 143 179 220 268 322
#     4  11  22  35  52  79 113 146 179 218 267 325
#     4   9  19  33  48  73 107 139 172 209 256 314
#     4   9  19  34  56  79 100 132 175 223 267 310
#     4  10  22  37  55  78 104 137 180 228 270 315
#
# _framework density 16.716075
#
# number of rings (size 3 to 8) (size 9 to 14) (size 15 to 20)
#    0.000    2.500    1.250    1.500    1.750    3.000 
#    0.000    1.250    0.000    0.750    0.000    5.250 
#    0.000    0.000    0.000    0.000    0.000    0.000 
#
# Total GULP energy -178413.474108 kJ/mol
# GULP energy per Si atom -5575.421066 kJ/mol
# Density = 1.667803 g / cm^3
# Si number density = 16.716075 Si / 1000 Ang^3
#
#
#
# Elastic Constant Matrix: (Units=GPa)
#
#
# Indices 1 2 3 4 5 6 
#
# 1 61.4772 66.6722 45.5744 0.0000 0.0000 0.0000
# 2 66.6722 119.7143 43.5722 0.0000 0.0000 0.0000
# 3 45.5744 43.5722 56.7254 0.0000 0.0000 0.0000
# 4 0.0000 0.0000 0.0000 22.9979 0.0000 0.0000
# 5 0.0000 0.0000 0.0000 0.0000 21.9621 0.0000
# 6 0.0000 0.0000 0.0000 0.0000 0.0000 10.9029
#
#
#
# Elastic Compliance Matrix: (Units=1/GPa)
#
#
# Indices 1 2 3 4 5 6 
#
# 1 0.075553 -0.027740 -0.039394 0.000000 0.000000 0.000000
# 2 -0.027740 0.021780 0.005557 0.000000 0.000000 0.000000
# 3 -0.039394 0.005557 0.045010 0.000000 0.000000 0.000000
# 4 0.000000 0.000000 0.000000 0.043482 0.000000 0.000000
# 5 0.000000 0.000000 0.000000 0.000000 0.045533 0.000000
# 6 0.000000 0.000000 0.000000 0.000000 0.000000 0.091718
#
#
# Mechanical properties :
#
#
# Convention : Reuss Voigt Hill
#
# Bulk Modulus (GPa) = 52.10898 61.06164 56.58531
# Shear Modulus (GPa) = 11.04667 16.64580 13.84624
#
# Velocity S-wave (km/s) = 2.57347 3.15905 2.88117
# Velocity P-wave (km/s) = 6.33017 7.06499 6.70765
#
# Compressibility (1/GPa) = 0.01919055
#
# Stress axis : x y z
#
# Youngs Moduli (GPa) = 13.23571 45.91469 22.21738
#
# Poissons Ratio (x) = 1.27366 0.87522
# Poissons Ratio (y) = 0.36715 -0.12347
# Poissons Ratio (z) = 0.52140 -0.25516
#
# Static dielectric constant tensor:
#      x y z
#    x 1.559600 0.000000 0.000000 
#    y 0.000000 1.553550 0.000000 
#    z 0.000000 0.000000 1.545280 
# 
# From -- ./inp_files/8650.got.cif
#   From: 2010.05.17/outbox.cif.g08.bks.cpg/sg38_5_cif.got.tgz:8650.got - 2010.06.03 18:07:57.
