data_PCOD9356133
_publ_section_title
;
Structure prediction by ZEFSAII (Michael W. Deem and Ramdas Pophale) SiO2 
 PCOD9356133
Probable space group: A M M 2
;
_chemical_formula_sum "Si O2"
_cell_formula_units_Z 56
_cell_length_a 21.067573
_cell_length_b 7.513005
_cell_length_c 15.530944
_cell_angle_alpha 90.000000
_cell_angle_beta 90.000000
_cell_angle_gamma 90.000000
_cell_volume 2458.249950
_symmetry_space_group_name_H-M "A M M 2"
_symmetry_group_IT_number 38
_symmetry_cell_setting 'orthorhombic'
loop_
_space_group_symop_operation_xyz
x,y,z
-x,-y,z
-x,y,z
x,-y,z
x,1/2+y,1/2+z
-x,1/2-y,1/2+z
-x,1/2+y,1/2+z
x,1/2-y,1/2+z
loop_
_atom_site_type_symbol
_atom_site_label
_atom_site_fract_x
_atom_site_fract_y
_atom_site_fract_z
Si Si1 0.431907 0.708089 0.203650
Si Si2 0.845172 0.703878 0.479255
Si Si3 0.703670 0.216943 0.720784
Si Si4 0.160878 0.204158 0.667874
Si Si5 0.568713 0.283662 0.908036
Si Si6 0.705672 0.292654 0.924438
Si Si7 0.072566 0.281585 0.318197
O O1 0.500000 0.785935 0.175926
O O2 0.432887 0.500000 0.178618
O O3 0.362733 0.781837 0.180092
O O4 0.431357 0.720539 0.308437
O O5 0.864095 0.500000 0.489778
O O6 0.859034 0.793661 0.569551
O O7 0.769990 0.710470 0.460024
O O8 0.884508 0.776129 0.398738
O O9 0.768233 0.280993 0.676730
O O10 0.707672 0.273187 0.820680
O O11 0.700212 0.000000 0.718682
O O12 0.108930 0.280312 0.732413
O O13 0.168656 0.000000 0.696338
O O14 0.500000 0.231640 0.945640
O O15 0.570815 0.500000 0.906195
O O16 0.635290 0.223972 0.949221
O O17 0.708616 0.500000 0.948931
O O18 0.071100 0.500000 0.318138
O O19 0.000000 0.222281 0.323117
#
# Coordination Sequence:
#
# PCOD9356133 Si02
#       7
#     8   8   8   8   8   8   8
#     4   8  13  21  37  64  96 130 171 217 263 316
#     4  11  22  37  57  83 113 147 184 224 271 323
#     4   9  16  29  49  73 104 141 179 221 273 325
#     4  10  20  36  57  82 110 144 182 223 269 320
#     4   8  14  24  39  64  98 134 174 221 271 319
#     4  10  18  29  50  77 106 142 184 228 272 322
#     4   9  19  38  62  84 110 145 180 217 270 330
#
# _framework density 22.780434
#
# number of rings (size 3 to 8) (size 9 to 14) (size 15 to 20)
#    0.000    2.714    1.429    0.857    0.000    1.714 
#    0.000    0.000    0.000    3.857    0.000    4.000 
#    0.000    0.000    0.000    0.000    0.000    0.000 
#
# Total GULP energy -156172.712517 kJ/mol
# GULP energy per Si atom -5577.596876 kJ/mol
# Density = 2.272858 g / cm^3
# Si number density = 22.780434 Si / 1000 Ang^3
#
#
#
# Elastic Constant Matrix: (Units=GPa)
#
#
# Indices 1 2 3 4 5 6 
#
# 1 213.0496 7.8342 72.5590 0.0000 0.0000 0.0000
# 2 7.8342 60.6549 -10.5310 0.0000 0.0000 0.0000
# 3 72.5590 -10.5310 80.8281 0.0000 0.0000 0.0000
# 4 0.0000 0.0000 0.0000 0.4726 0.0000 0.0000
# 5 0.0000 0.0000 0.0000 0.0000 -12.3525 0.0000
# 6 0.0000 0.0000 0.0000 0.0000 0.0000 2.0531
#
#
#
# Elastic Compliance Matrix: (Units=1/GPa)
#
#
# Indices 1 2 3 4 5 6 
#
# 1 0.006999 -0.002041 -0.006549 0.000000 0.000000 0.000000
# 2 -0.002041 0.017464 0.004108 0.000000 0.000000 0.000000
# 3 -0.006549 0.004108 0.018786 0.000000 0.000000 0.000000
# 4 0.000000 0.000000 0.000000 2.115900 0.000000 0.000000
# 5 0.000000 0.000000 0.000000 0.000000 -0.080955 0.000000
# 6 0.000000 0.000000 0.000000 0.000000 0.000000 0.487075
#
#
# Mechanical properties :
#
#
# Convention : Reuss Voigt Hill
#
# Bulk Modulus (GPa) = 29.16838 54.91744 42.04291
# Shear Modulus (GPa) = 1.93374 17.01266 9.47320
#
# Velocity S-wave (km/s) = 0.92234 2.73575 2.04145
# Velocity P-wave (km/s) = 3.73714 5.84283 4.90433
#
# Compressibility (1/GPa) = 0.03428370
#
# Stress axis : x y z
#
# Youngs Moduli (GPa) = 142.87228 57.26226 53.23049
#
# Poissons Ratio (x) = 0.11688 0.34861
# Poissons Ratio (y) = 0.29162 -0.21865
# Poissons Ratio (z) = 0.93569 -0.23521
#
# Static dielectric constant tensor:
#      x y z
#    x 1.886340 0.000000 0.000000 
#    y 0.000000 2.058430 0.000000 
#    z 0.000000 0.000000 1.811720 
# 
# From -- ./inp_files/15426.got.cif
#   From: 2010.05.17/outbox.cif.g08.bks.cpg/sg38_8_cif.got.tgz:15426.got - 2010.06.03 18:07:57.
