data_PCOD9356204
_publ_section_title
;
Structure prediction by ZEFSAII (Michael W. Deem and Ramdas Pophale) SiO2 
 PCOD9356204
Probable space group: A M M 2
;
_chemical_formula_sum "Si O2"
_cell_formula_units_Z 56
_cell_length_a 20.658301
_cell_length_b 7.650955
_cell_length_c 15.983019
_cell_angle_alpha 90.000000
_cell_angle_beta 90.000000
_cell_angle_gamma 90.000000
_cell_volume 2526.207757
_symmetry_space_group_name_H-M "A M M 2"
_symmetry_group_IT_number 38
_symmetry_cell_setting 'orthorhombic'
loop_
_space_group_symop_operation_xyz
x,y,z
-x,-y,z
-x,y,z
x,-y,z
x,1/2+y,1/2+z
-x,1/2-y,1/2+z
-x,1/2+y,1/2+z
x,1/2-y,1/2+z
loop_
_atom_site_type_symbol
_atom_site_label
_atom_site_fract_x
_atom_site_fract_y
_atom_site_fract_z
Si Si1 0.430086 0.708923 0.082670
Si Si2 0.151910 0.702882 0.151173
Si Si3 0.708308 0.285630 0.400662
Si Si4 0.430388 0.296384 0.386850
Si Si5 0.926324 0.789049 0.492669
Si Si6 0.289931 0.793454 0.095409
Si Si7 0.844245 0.290477 0.330512
O O1 0.500000 0.759140 0.120711
O O2 0.429716 0.500000 0.073338
O O3 0.362895 0.758114 0.126347
O O4 0.428742 0.788355 0.988801
O O5 0.132254 0.500000 0.152392
O O6 0.117776 0.779154 0.069187
O O7 0.229604 0.710774 0.142582
O O8 0.134047 0.780831 0.240829
O O9 0.706653 0.500000 0.400113
O O10 0.639821 0.223406 0.362837
O O11 0.712472 0.232571 0.498295
O O12 0.772770 0.224754 0.355002
O O13 0.500000 0.218218 0.361592
O O14 0.431452 0.500000 0.361633
O O15 0.893042 0.742979 0.405478
O O16 0.000000 0.726390 0.498682
O O17 0.927334 0.000000 0.496092
O O18 0.279302 0.000000 0.095960
O O19 0.837881 0.500000 0.322374
#
# Coordination Sequence:
#
# PCOD9356204 Si02
#       7
#     8   8   8   8   8   8   8
#     4   9  16  25  40  67 103 140 182 232 283 332
#     4  10  21  36  57  83 113 148 184 226 276 329
#     4   8  14  26  46  72 100 133 176 225 266 310
#     4   8  13  22  38  63  96 134 176 222 272 323
#     4  10  22  40  59  82 113 144 177 223 278 333
#     4  10  18  30  51  75 105 144 187 233 277 328
#     4  10  20  36  58  84 112 145 186 228 270 325
#
# _framework density 22.167615999999999
#
# number of rings (size 3 to 8) (size 9 to 14) (size 15 to 20)
#    0.000    2.714    1.429    1.714    0.000    2.286 
#    0.000    1.429    0.000    0.857    0.000    4.000 
#    0.000    0.000    0.000    0.000    0.000    0.143 
#
# Total GULP energy -156178.753645 kJ/mol
# GULP energy per Si atom -5577.812630 kJ/mol
# Density = 2.211716 g / cm^3
# Si number density = 22.167616 Si / 1000 Ang^3
#
#
#
# Elastic Constant Matrix: (Units=GPa)
#
#
# Indices 1 2 3 4 5 6 
#
# 1 138.1142 -9.3725 59.9024 0.0000 0.0000 0.0000
# 2 -9.3725 45.2289 3.2309 0.0000 0.0000 0.0000
# 3 59.9024 3.2309 108.5974 0.0000 0.0000 0.0000
# 4 0.0000 0.0000 0.0000 -30.2458 0.0000 0.0000
# 5 0.0000 0.0000 0.0000 0.0000 -10.0423 0.0000
# 6 0.0000 0.0000 0.0000 0.0000 0.0000 17.3241
#
#
#
# Elastic Compliance Matrix: (Units=1/GPa)
#
#
# Indices 1 2 3 4 5 6 
#
# 1 0.009774 0.002416 -0.005463 0.000000 0.000000 0.000000
# 2 0.002416 0.022754 -0.002009 0.000000 0.000000 0.000000
# 3 -0.005463 -0.002009 0.012282 0.000000 0.000000 0.000000
# 4 0.000000 0.000000 0.000000 -0.033062 0.000000 0.000000
# 5 0.000000 0.000000 0.000000 0.000000 -0.099579 0.000000
# 6 0.000000 0.000000 0.000000 0.000000 0.000000 0.057723
#
#
# Mechanical properties :
#
#
# Convention : Reuss Voigt Hill
#
# Bulk Modulus (GPa) = 28.82229 44.38468 36.60349
# Shear Modulus (GPa) = -593.11158 11.28586 -290.91286
#
# Velocity S-wave (km/s) = -16.37494 2.25880 -11.46814
# Velocity P-wave (km/s) = 18.56038 5.18350 12.60197
#
# Compressibility (1/GPa) = 0.03469537
#
# Stress axis : x y z
#
# Youngs Moduli (GPa) = 102.31514 43.94862 81.42306
#
# Poissons Ratio (x) = -0.10616 0.44482
# Poissons Ratio (y) = -0.24715 0.16361
# Poissons Ratio (z) = 0.55895 0.08831
#
# Static dielectric constant tensor:
#      x y z
#    x 1.841630 0.000000 0.000000 
#    y 0.000000 1.961880 0.000000 
#    z 0.000000 0.000000 1.825330 
# 
# From -- ./inp_files/18805.got.cif
#   From: 2010.05.17/outbox.cif.g08.bks.cpg/sg38_10_cif.got.tgz:18805.got - 2010.06.03 18:07:57.
