data_PCOD9356524
_publ_section_title
;
Structure prediction by ZEFSAII (Michael W. Deem and Ramdas Pophale) SiO2 
 PCOD9356524
Probable space group: A M M 2
;
_chemical_formula_sum "Si O2"
_cell_formula_units_Z 56
_cell_length_a 16.380832
_cell_length_b 7.334017
_cell_length_c 20.602413
_cell_angle_alpha 90.000000
_cell_angle_beta 90.000000
_cell_angle_gamma 90.000000
_cell_volume 2475.118279
_symmetry_space_group_name_H-M "A M M 2"
_symmetry_group_IT_number 38
_symmetry_cell_setting 'orthorhombic'
loop_
_space_group_symop_operation_xyz
x,y,z
-x,-y,z
-x,y,z
x,-y,z
x,1/2+y,1/2+z
-x,1/2-y,1/2+z
-x,1/2+y,1/2+z
x,1/2-y,1/2+z
loop_
_atom_site_type_symbol
_atom_site_label
_atom_site_fract_x
_atom_site_fract_y
_atom_site_fract_z
Si Si1 0.765937 0.278229 0.019410
Si Si2 0.910208 0.786610 0.282008
Si Si3 0.365892 0.220237 0.701313
Si Si4 0.813788 0.280740 0.159717
Si Si5 0.588827 0.291349 0.845081
Si Si6 0.413049 0.221317 0.557200
Si Si7 0.230429 0.222970 0.376787
O O1 0.765973 0.500000 0.021037
O O2 0.811191 0.217902 0.085030
O O3 0.671168 0.219383 0.024991
O O4 0.797851 0.225835 0.949066
O O5 0.886728 0.773761 0.206377
O O6 0.834547 0.711523 0.323734
O O7 0.000000 0.708744 0.294360
O O8 0.913951 0.000000 0.298699
O O9 0.271441 0.277679 0.693295
O O10 0.404556 0.293024 0.766772
O O11 0.407144 0.270910 0.633295
O O12 0.368965 0.000000 0.705580
O O13 0.811837 0.500000 0.158191
O O14 0.500000 0.211236 0.862297
O O15 0.587814 0.500000 0.869622
O O16 0.676304 0.212560 0.866312
O O17 0.500000 0.282611 0.530073
O O18 0.412112 0.000000 0.554584
O O19 0.234287 0.000000 0.372543
#
# Coordination Sequence:
#
# PCOD9356524 Si02
#       7
#     8   8   8   8   8   8   8
#     4   8  15  27  45  68  96 129 160 195 242 287
#     4  10  20  34  54  76  97 128 164 195 241 301
#     4   9  16  27  44  66  94 127 161 199 243 287
#     4   9  17  31  52  77  99 122 159 205 250 291
#     4  10  19  28  42  68  99 131 165 199 240 284
#     4   8  13  21  36  61  91 122 159 199 235 274
#     4   9  17  31  47  67 100 132 160 200 240 283
#
# _framework density 22.625181000000001
#
# number of rings (size 3 to 8) (size 9 to 14) (size 15 to 20)
#    0.000    3.000    1.429    2.143    0.000    1.714 
#    0.000    3.571    0.000    4.286    0.000    0.000 
#    0.000    0.000    0.000    0.000    0.000    0.000 
#
# Total GULP energy -156260.095757 kJ/mol
# GULP energy per Si atom -5580.717706 kJ/mol
# Density = 2.257368 g / cm^3
# Si number density = 22.625181 Si / 1000 Ang^3
#
#
#
# Elastic Constant Matrix: (Units=GPa)
#
#
# Indices 1 2 3 4 5 6 
#
# 1 139.2936 7.9667 61.7555 0.0000 0.0000 0.0000
# 2 7.9667 86.2859 -5.2961 0.0000 0.0000 0.0000
# 3 61.7555 -5.2961 129.2249 0.0000 0.0000 0.0000
# 4 0.0000 0.0000 0.0000 8.4711 0.0000 0.0000
# 5 0.0000 0.0000 0.0000 0.0000 -5.6131 0.0000
# 6 0.0000 0.0000 0.0000 0.0000 0.0000 -1.3117
#
#
#
# Elastic Compliance Matrix: (Units=1/GPa)
#
#
# Indices 1 2 3 4 5 6 
#
# 1 0.009217 -0.001124 -0.004451 0.000000 0.000000 0.000000
# 2 -0.001124 0.011756 0.001019 0.000000 0.000000 0.000000
# 3 -0.004451 0.001019 0.009907 0.000000 0.000000 0.000000
# 4 0.000000 0.000000 0.000000 0.118049 0.000000 0.000000
# 5 0.000000 0.000000 0.000000 0.000000 -0.178156 0.000000
# 6 0.000000 0.000000 0.000000 0.000000 0.000000 -0.762388
#
#
# Mechanical properties :
#
#
# Convention : Reuss Voigt Hill
#
# Bulk Modulus (GPa) = 45.93910 53.73963 49.83937
# Shear Modulus (GPa) = -6.44954 19.66782 6.60914
#
# Velocity S-wave (km/s) = -1.69020 2.95157 1.71099
# Velocity P-wave (km/s) = 4.06687 5.95142 5.09700
#
# Compressibility (1/GPa) = 0.02176795
#
# Stress axis : x y z
#
# Youngs Moduli (GPa) = 108.50083 85.06500 100.93778
#
# Poissons Ratio (x) = 0.09562 0.44923
# Poissons Ratio (y) = 0.12197 -0.10286
# Poissons Ratio (z) = 0.48289 -0.08668
#
# Static dielectric constant tensor:
#      x y z
#    x 1.832720 0.000000 0.000000 
#    y 0.000000 1.913680 0.000000 
#    z 0.000000 0.000000 1.818920 
# 
# From -- ./inp_files/21091.got.cif
#   From: 2010.05.17/outbox.cif.g08.bks.cpg/sg38_11_cif.got.tgz:21091.got - 2010.06.03 18:07:57.
