data_PCOD9356680
_publ_section_title
;
Structure prediction by ZEFSAII (Michael W. Deem and Ramdas Pophale) SiO2 
 PCOD9356680
Probable space group: A M M 2
;
_chemical_formula_sum "Si O2"
_cell_formula_units_Z 48
_cell_length_a 7.786080
_cell_length_b 14.325933
_cell_length_c 19.288458
_cell_angle_alpha 90.000000
_cell_angle_beta 90.000000
_cell_angle_gamma 90.000000
_cell_volume 2151.489778
_symmetry_space_group_name_H-M "A M M 2"
_symmetry_group_IT_number 38
_symmetry_cell_setting 'orthorhombic'
loop_
_space_group_symop_operation_xyz
x,y,z
-x,-y,z
-x,y,z
x,-y,z
x,1/2+y,1/2+z
-x,1/2-y,1/2+z
-x,1/2+y,1/2+z
x,1/2-y,1/2+z
loop_
_atom_site_type_symbol
_atom_site_label
_atom_site_fract_x
_atom_site_fract_y
_atom_site_fract_z
Si Si1 0.294166 0.303545 0.600720
Si Si2 0.307400 0.747131 0.857689
Si Si3 0.203078 0.104609 0.749425
Si Si4 0.298461 0.100778 0.589360
Si Si5 0.202352 0.895341 0.246057
Si Si6 0.710554 0.396902 0.464084
O O1 0.500000 0.295292 0.597775
O O2 0.224226 0.203130 0.574101
O O3 0.254950 0.333770 0.679171
O O4 0.242910 0.379960 0.544137
O O5 0.500000 0.723569 0.879926
O O6 0.302551 0.823188 0.796177
O O7 0.236242 0.656187 0.819138
O O8 0.225275 0.808493 0.919287
O O9 0.279120 0.101345 0.672654
O O10 0.000000 0.129711 0.746017
O O11 0.216283 0.000000 0.778013
O O12 0.500000 0.100090 0.570343
O O13 0.224821 0.000000 0.565505
O O14 0.000000 0.903288 0.239878
O O15 0.278811 0.000000 0.243040
O O16 0.500000 0.396239 0.458394
O O17 0.768466 0.500000 0.441858
#
# Coordination Sequence:
#
# PCOD9356680 Si02
#       6
#     8   8   8   8   8   8
#     4  10  19  35  60  87 115 151 191 233 284 342
#     4  11  21  35  56  82 111 148 191 236 286 337
#     4  10  19  30  48  76 110 145 181 226 278 329
#     4   9  17  29  48  78 112 144 181 225 275 330
#     4  11  24  40  58  82 113 149 190 239 293 346
#     4   9  19  35  56  85 119 151 186 233 287 340
#
# _framework density 22.310122
#
# number of rings (size 3 to 8) (size 9 to 14) (size 15 to 20)
#    0.000    2.000    1.667    2.500    0.000    3.667 
#    0.000    2.500    0.000    7.000    0.000    2.333 
#    0.000    0.000    0.000    0.000    0.000    0.000 
#
# Total GULP energy -133760.228959 kJ/mol
# GULP energy per Si atom -5573.342873 kJ/mol
# Density = 2.225934 g / cm^3
# Si number density = 22.310122 Si / 1000 Ang^3
#
#
#
# Elastic Constant Matrix: (Units=GPa)
#
#
# Indices 1 2 3 4 5 6 
#
# 1 37.4493 10.8687 -5.0729 0.0000 0.0000 0.0000
# 2 10.8687 148.5504 35.6889 0.0000 0.0000 0.0000
# 3 -5.0729 35.6889 74.3844 0.0000 0.0000 0.0000
# 4 0.0000 0.0000 0.0000 21.4198 0.0000 0.0000
# 5 0.0000 0.0000 0.0000 0.0000 77.4392 0.0000
# 6 0.0000 0.0000 0.0000 0.0000 0.0000 91.3779
#
#
#
# Elastic Compliance Matrix: (Units=1/GPa)
#
#
# Indices 1 2 3 4 5 6 
#
# 1 0.027967 -0.002831 0.003265 0.000000 0.000000 0.000000
# 2 -0.002831 0.007895 -0.003981 0.000000 0.000000 0.000000
# 3 0.003265 -0.003981 0.015576 0.000000 0.000000 0.000000
# 4 0.000000 0.000000 0.000000 0.046686 0.000000 0.000000
# 5 0.000000 0.000000 0.000000 0.000000 0.012913 0.000000
# 6 0.000000 0.000000 0.000000 0.000000 0.000000 0.010944
#
#
# Mechanical properties :
#
#
# Convention : Reuss Voigt Hill
#
# Bulk Modulus (GPa) = 22.55015 38.15041 30.35028
# Shear Modulus (GPa) = 34.75702 52.64066 43.69884
#
# Velocity S-wave (km/s) = 3.95131 4.86273 4.43052
# Velocity P-wave (km/s) = 5.56297 6.97606 6.30920
#
# Compressibility (1/GPa) = 0.04434560
#
# Stress axis : x y z
#
# Youngs Moduli (GPa) = 35.75686 126.65778 64.19933
#
# Poissons Ratio (x) = 0.35853 -0.20964
# Poissons Ratio (y) = 0.10122 0.25559
# Poissons Ratio (z) = -0.11676 0.50424
#
# Static dielectric constant tensor:
#      x y z
#    x 1.802110 0.000000 0.000000 
#    y 0.000000 1.919030 0.000000 
#    z 0.000000 0.000000 1.799470 
# 
# From -- ./inp_files/16638.got.cif
#   From: 2010.05.17/outbox.cif.g08.bks.cpg/sg38_9_cif.got.tgz:16638.got - 2010.06.03 18:07:57.
