data_PCOD9356863
_publ_section_title
;
Structure prediction by ZEFSAII (Michael W. Deem and Ramdas Pophale) SiO2 
 PCOD9356863
Probable space group: A M M 2
;
_chemical_formula_sum "Si O2"
_cell_formula_units_Z 40
_cell_length_a 8.584163
_cell_length_b 26.534836
_cell_length_c 9.991283
_cell_angle_alpha 90.000000
_cell_angle_beta 90.000000
_cell_angle_gamma 90.000000
_cell_volume 2275.808021
_symmetry_space_group_name_H-M "A M M 2"
_symmetry_group_IT_number 38
_symmetry_cell_setting 'orthorhombic'
loop_
_space_group_symop_operation_xyz
x,y,z
-x,-y,z
-x,y,z
x,-y,z
x,1/2+y,1/2+z
-x,1/2-y,1/2+z
-x,1/2+y,1/2+z
x,1/2-y,1/2+z
loop_
_atom_site_type_symbol
_atom_site_label
_atom_site_fract_x
_atom_site_fract_y
_atom_site_fract_z
Si Si1 0.188375 0.166082 0.735930
Si Si2 0.812019 0.782447 0.225842
Si Si3 0.688080 0.942415 0.234327
Si Si4 0.313683 0.639515 0.517945
Si Si5 0.187945 0.365146 0.943000
O O1 0.238726 0.224743 0.736775
O O2 0.238769 0.141485 0.595819
O O3 0.000000 0.165614 0.739695
O O4 0.250841 0.139409 0.868077
O O5 0.747190 0.811124 0.096242
O O6 0.766675 0.816173 0.354344
O O7 0.000000 0.782743 0.217021
O O8 0.500000 0.942482 0.235598
O O9 0.738347 0.908163 0.107997
O O10 0.746354 0.913371 0.365869
O O11 0.742345 0.000000 0.226906
O O12 0.500000 0.640368 0.516512
O O13 0.000000 0.367466 0.940999
#
# Coordination Sequence:
#
# PCOD9356863 Si02
#       5
#     8   8   8   8   8
#     4  10  19  32  50  73 104 137 163 192 237 292
#     4   9  17  32  52  71  97 136 171 194 228 284
#     4   9  19  37  56  70  90 125 165 203 248 300
#     4  10  20  32  49  75 102 128 163 205 243 283
#     4   9  18  31  50  76 100 125 163 205 238 277
#
# _framework density 17.576174000000002
#
# number of rings (size 3 to 8) (size 9 to 14) (size 15 to 20)
#    0.000    2.600    0.000    1.800    0.000    6.000 
#    0.000    5.000    0.000    3.600    0.000    0.000 
#    0.000    0.000    0.000    0.000    0.000    0.000 
#
# Total GULP energy -111574.150653 kJ/mol
# GULP energy per Si atom -5578.707533 kJ/mol
# Density = 1.753617 g / cm^3
# Si number density = 17.576174 Si / 1000 Ang^3
#
#
#
# Elastic Constant Matrix: (Units=GPa)
#
#
# Indices 1 2 3 4 5 6 
#
# 1 3.2854 17.0723 22.4248 0.0000 0.0000 0.0000
# 2 17.0723 130.7030 74.5595 0.0000 0.0000 0.0000
# 3 22.4248 74.5595 176.7189 0.0000 0.0000 0.0000
# 4 0.0000 0.0000 0.0000 5.7216 0.0000 0.0000
# 5 0.0000 0.0000 0.0000 0.0000 24.4578 0.0000
# 6 0.0000 0.0000 0.0000 0.0000 0.0000 24.7467
#
#
#
# Elastic Compliance Matrix: (Units=1/GPa)
#
#
# Indices 1 2 3 4 5 6 
#
# 1 -6.947715 0.532818 0.656830 0.000000 0.000000 0.000000
# 2 0.532818 -0.030786 -0.054623 0.000000 0.000000 0.000000
# 3 0.656830 -0.054623 -0.054644 0.000000 0.000000 0.000000
# 4 0.000000 0.000000 0.000000 0.174775 0.000000 0.000000
# 5 0.000000 0.000000 0.000000 0.000000 0.040887 0.000000
# 6 0.000000 0.000000 0.000000 0.000000 0.000000 0.040409
#
#
# Mechanical properties :
#
#
# Convention : Reuss Voigt Hill
#
# Bulk Modulus (GPa) = -0.20995 59.86894 29.82950
# Shear Modulus (GPa) = -0.47015 24.09527 11.81256
#
# Velocity S-wave (km/s) = -0.51776 3.70659 2.59526
# Velocity P-wave (km/s) = 0.69076 7.24258 5.09793
#
# Compressibility (1/GPa) = -4.76309488
#
# Stress axis : x y z
#
# Youngs Moduli (GPa) = -0.14393 -32.48277 -18.30035
#
# Poissons Ratio (x) = 17.30739 12.02022
# Poissons Ratio (y) = 0.07669 -0.99962
# Poissons Ratio (z) = 0.09454 -1.77431
#
# Static dielectric constant tensor:
#      x y z
#    x 1.600890 0.000000 0.000000 
#    y 0.000000 1.584800 0.000000 
#    z 0.000000 0.000000 1.590360 
# 
# From -- ./inp_files/3294.got.cif
#   From: 2010.05.17/outbox.cif.g08.bks.cpg/sg38_2_cif.got.tgz:3294.got - 2010.06.03 18:07:57.
