data_PCOD9356326
_publ_section_title
;
Structure prediction by ZEFSAII (Michael W. Deem and Ramdas Pophale) SiO2 
 PCOD9356326
Probable space group: A M M 2
;
_chemical_formula_sum "Si O2"
_cell_formula_units_Z 64
_cell_length_a 7.633501
_cell_length_b 26.059810
_cell_length_c 15.499357
_cell_angle_alpha 90.000000
_cell_angle_beta 90.000000
_cell_angle_gamma 90.000000
_cell_volume 3083.249668
_symmetry_space_group_name_H-M "A M M 2"
_symmetry_group_IT_number 38
_symmetry_cell_setting 'orthorhombic'
loop_
_space_group_symop_operation_xyz
x,y,z
-x,-y,z
-x,y,z
x,-y,z
x,1/2+y,1/2+z
-x,1/2-y,1/2+z
-x,1/2+y,1/2+z
x,1/2-y,1/2+z
loop_
_atom_site_type_symbol
_atom_site_label
_atom_site_fract_x
_atom_site_fract_y
_atom_site_fract_z
Si Si1 0.792263 0.237121 0.154400
Si Si2 0.206831 0.394982 0.421094
Si Si3 0.215193 0.557850 0.242759
Si Si4 0.790877 0.862348 0.247076
Si Si5 0.290177 0.718493 0.455806
Si Si6 0.785188 0.940764 0.102519
Si Si7 0.207851 0.849535 0.626021
Si Si8 0.708444 0.831829 0.429631
O O1 0.718168 0.192659 0.214945
O O2 0.718175 0.294760 0.158856
O O3 0.000000 0.240825 0.171337
O O4 0.769185 0.218680 0.055652
O O5 0.275128 0.424785 0.337886
O O6 0.229257 0.333864 0.412150
O O7 0.275822 0.414372 0.513362
O O8 0.000000 0.405507 0.423563
O O9 0.270393 0.500000 0.223125
O O10 0.276120 0.600734 0.175107
O O11 0.000000 0.557999 0.242629
O O12 0.725922 0.907273 0.184453
O O13 0.758818 0.866203 0.348473
O O14 0.000000 0.860783 0.234340
O O15 0.500000 0.718386 0.454070
O O16 0.225416 0.772912 0.418094
O O17 0.000000 0.940224 0.102347
O O18 0.731322 0.000000 0.106344
O O19 0.231128 0.850789 0.523091
O O20 0.000000 0.847999 0.642532
O O21 0.500000 0.829294 0.433089
#
# Coordination Sequence:
#
# PCOD9356326 Si02
#       8
#     8   8   8   8   8   8   8   8
#     4   9  17  31  51  78 105 133 172 213 261 314
#     4  10  18  31  54  81 109 141 172 212 260 312
#     4   9  18  32  54  84 109 133 174 222 267 312
#     4  10  19  32  53  81 108 137 174 219 264 308
#     4  10  20  33  49  74 108 143 176 210 255 311
#     4   9  17  31  52  79 109 139 173 211 256 311
#     4   9  18  34  55  78 105 136 173 222 268 309
#     4  10  22  37  52  74 106 144 180 218 265 316
#
# _framework density 20.75732
#
# number of rings (size 3 to 8) (size 9 to 14) (size 15 to 20)
#    0.000    2.500    1.250    1.125    1.750    3.500 
#    0.000    1.250    0.000    7.500    0.000    0.000 
#    0.000    0.000    0.000    0.000    0.000    0.000 
#
# Total GULP energy -178617.267583 kJ/mol
# GULP energy per Si atom -5581.789612 kJ/mol
# Density = 2.071008 g / cm^3
# Si number density = 20.757320 Si / 1000 Ang^3
#
#
#
# Elastic Constant Matrix: (Units=GPa)
#
#
# Indices 1 2 3 4 5 6 
#
# 1 38.4978 9.2630 0.8154 0.0000 0.0000 0.0000
# 2 9.2630 161.1562 89.1796 0.0000 0.0000 0.0000
# 3 0.8154 89.1796 102.8401 0.0000 0.0000 0.0000
# 4 0.0000 0.0000 0.0000 53.6166 0.0000 0.0000
# 5 0.0000 0.0000 0.0000 0.0000 -144.5680 0.0000
# 6 0.0000 0.0000 0.0000 0.0000 0.0000 -1.2915
#
#
#
# Elastic Compliance Matrix: (Units=1/GPa)
#
#
# Indices 1 2 3 4 5 6 
#
# 1 0.026583 -0.002713 0.002142 0.000000 0.000000 0.000000
# 2 -0.002713 0.012207 -0.010564 0.000000 0.000000 0.000000
# 3 0.002142 -0.010564 0.018868 0.000000 0.000000 0.000000
# 4 0.000000 0.000000 0.000000 0.018651 0.000000 0.000000
# 5 0.000000 0.000000 0.000000 0.000000 -0.006917 0.000000
# 6 0.000000 0.000000 0.000000 0.000000 0.000000 -0.774317
#
#
# Mechanical properties :
#
#
# Convention : Reuss Voigt Hill
#
# Bulk Modulus (GPa) = 28.25879 55.66779 41.96329
# Shear Modulus (GPa) = -7.45313 -4.89951 -6.17632
#
# Velocity S-wave (km/s) = -1.89694 -1.53802 -1.72683
# Velocity P-wave (km/s) = 2.97415 4.87059 4.03536
#
# Compressibility (1/GPa) = 0.03538722
#
# Stress axis : x y z
#
# Youngs Moduli (GPa) = 37.61804 81.92066 53.00100
#
# Poissons Ratio (x) = 0.22228 -0.11354
# Poissons Ratio (y) = 0.10207 0.55990
# Poissons Ratio (z) = -0.08059 0.86541
#
# Static dielectric constant tensor:
#      x y z
#    x 1.762860 0.000000 0.000000 
#    y 0.000000 1.726830 0.000000 
#    z 0.000000 0.000000 1.715340 
# 
# From -- ./inp_files/12749.got.cif
#   From: 2010.05.17/outbox.cif.g08.bks.cpg/sg38_7_cif.got.tgz:12749.got - 2010.06.03 18:07:57.
