data_PCOD9356844
_publ_section_title
;
Structure prediction by ZEFSAII (Michael W. Deem and Ramdas Pophale) SiO2 
 PCOD9356844
Probable space group: A M M 2
;
_chemical_formula_sum "Si O2"
_cell_formula_units_Z 64
_cell_length_a 7.686507
_cell_length_b 28.939815
_cell_length_c 12.939972
_cell_angle_alpha 90.000000
_cell_angle_beta 90.000000
_cell_angle_gamma 90.000000
_cell_volume 2878.446184
_symmetry_space_group_name_H-M "A M M 2"
_symmetry_group_IT_number 38
_symmetry_cell_setting 'orthorhombic'
loop_
_space_group_symop_operation_xyz
x,y,z
-x,-y,z
-x,y,z
x,-y,z
x,1/2+y,1/2+z
-x,1/2-y,1/2+z
-x,1/2+y,1/2+z
x,1/2-y,1/2+z
loop_
_atom_site_type_symbol
_atom_site_label
_atom_site_fract_x
_atom_site_fract_y
_atom_site_fract_z
Si Si1 0.704527 0.691127 0.050720
Si Si2 0.288214 0.589013 0.996905
Si Si3 0.797165 0.624757 0.610082
Si Si4 0.206519 0.051673 0.273051
Si Si5 0.711290 0.949893 0.943579
Si Si6 0.200044 0.211062 0.991502
Si Si7 0.299707 0.179410 0.770597
Si Si8 0.299262 0.429523 0.219980
O O1 0.500000 0.682398 0.067913
O O2 0.777235 0.700829 0.165805
O O3 0.770074 0.643071 0.002127
O O4 0.721601 0.737940 0.987905
O O5 0.500000 0.587880 0.997723
O O6 0.229384 0.564585 0.892869
O O7 0.226709 0.565587 0.104515
O O8 0.720134 0.593435 0.702350
O O9 0.785904 0.591253 0.510808
O O10 0.720938 0.673940 0.572683
O O11 0.000000 0.633257 0.635001
O O12 0.000000 0.049826 0.250703
O O13 0.277928 0.000000 0.253183
O O14 0.500000 0.944439 0.941226
O O15 0.776134 0.949556 0.825345
O O16 0.751572 0.000000 0.990262
O O17 0.208627 0.189312 0.877743
O O18 0.000000 0.217546 0.019960
O O19 0.500000 0.194428 0.785974
O O20 0.300281 0.125190 0.743737
O O21 0.500000 0.445477 0.214774
#
# Coordination Sequence:
#
# PCOD9356844 Si02
#       8
#     8   8   8   8   8   8   8   8
#     4   9  20  37  57  83 112 148 190 232 285 345
#     4   9  19  37  60  84 110 143 188 235 282 337
#     4  10  22  39  55  75 109 152 192 230 279 339
#     4  10  22  40  59  79 112 159 200 237 288 344
#     4  10  19  31  53  84 110 135 174 223 275 331
#     4  11  22  34  54  84 113 146 190 237 287 341
#     4   9  17  34  57  76 104 144 180 222 277 336
#     4   8  15  31  54  79 107 138 170 216 278 333
#
# _framework density 22.234217999999998
#
# number of rings (size 3 to 8) (size 9 to 14) (size 15 to 20)
#    0.000    2.500    1.250    2.250    0.000    4.500 
#    0.000    6.250    0.000    0.000    0.000    0.000 
#    0.000    0.000    0.000    0.000    0.000    0.000 
#
# Total GULP energy -178438.034894 kJ/mol
# GULP energy per Si atom -5576.188590 kJ/mol
# Density = 2.218361 g / cm^3
# Si number density = 22.234218 Si / 1000 Ang^3
#
#
#
# Elastic Constant Matrix: (Units=GPa)
#
#
# Indices 1 2 3 4 5 6 
#
# 1 39.7419 -1.2932 -10.5303 0.0000 0.0000 0.0000
# 2 -1.2932 58.0408 10.7957 0.0000 0.0000 0.0000
# 3 -10.5303 10.7957 94.8048 0.0000 0.0000 0.0000
# 4 0.0000 0.0000 0.0000 702.9917 0.0000 0.0000
# 5 0.0000 0.0000 0.0000 0.0000 28.2383 0.0000
# 6 0.0000 0.0000 0.0000 0.0000 0.0000 5.9791
#
#
#
# Elastic Compliance Matrix: (Units=1/GPa)
#
#
# Indices 1 2 3 4 5 6 
#
# 1 0.025925 0.000043 0.002875 0.000000 0.000000 0.000000
# 2 0.000043 0.017602 -0.002000 0.000000 0.000000 0.000000
# 3 0.002875 -0.002000 0.011095 0.000000 0.000000 0.000000
# 4 0.000000 0.000000 0.000000 0.001422 0.000000 0.000000
# 5 0.000000 0.000000 0.000000 0.000000 0.035413 0.000000
# 6 0.000000 0.000000 0.000000 0.000000 0.000000 0.167250
#
#
# Mechanical properties :
#
#
# Convention : Reuss Voigt Hill
#
# Bulk Modulus (GPa) = 17.71205 21.17021 19.44113
# Shear Modulus (GPa) = 18.13622 160.34949 89.24286
#
# Velocity S-wave (km/s) = 2.85913 8.50146 6.34230
# Velocity P-wave (km/s) = 4.34544 10.29119 7.89910
#
# Compressibility (1/GPa) = 0.05645873
#
# Stress axis : x y z
#
# Youngs Moduli (GPa) = 38.57208 56.81127 90.13070
#
# Poissons Ratio (x) = -0.00244 -0.25910
# Poissons Ratio (y) = -0.00166 0.18023
# Poissons Ratio (z) = -0.11088 0.11360
#
# Static dielectric constant tensor:
#      x y z
#    x 1.835400 0.000000 0.000000 
#    y 0.000000 -0.582720 0.000000 
#    z 0.000000 0.000000 1.825330 
# 
# From -- ./inp_files/8614.got.cif
#   From: 2010.05.17/outbox.cif.g08.bks.cpg/sg38_5_cif.got.tgz:8614.got - 2010.06.03 18:07:57.
