data_PCOD9356390
_publ_section_title
;
Structure prediction by ZEFSAII (Michael W. Deem and Ramdas Pophale) SiO2 
 PCOD9356390
Probable space group: A M M 2
;
_chemical_formula_sum "Si O2"
_cell_formula_units_Z 48
_cell_length_a 19.573478
_cell_length_b 7.856371
_cell_length_c 15.594617
_cell_angle_alpha 90.000000
_cell_angle_beta 90.000000
_cell_angle_gamma 90.000000
_cell_volume 2398.085698
_symmetry_space_group_name_H-M "A M M 2"
_symmetry_group_IT_number 38
_symmetry_cell_setting 'orthorhombic'
loop_
_space_group_symop_operation_xyz
x,y,z
-x,-y,z
-x,y,z
x,-y,z
x,1/2+y,1/2+z
-x,1/2-y,1/2+z
-x,1/2+y,1/2+z
x,1/2-y,1/2+z
loop_
_atom_site_type_symbol
_atom_site_label
_atom_site_fract_x
_atom_site_fract_y
_atom_site_fract_z
Si Si1 0.578536 0.000000 0.310830
Si Si2 0.672225 0.187713 0.810117
Si Si3 0.822728 0.703365 0.863187
Si Si4 0.421698 0.000000 0.100714
Si Si5 0.077747 0.205663 0.709071
Si Si6 0.675569 0.195564 0.602369
Si Si7 0.829291 0.792962 0.553548
O O1 0.620948 0.834662 0.338841
O O2 0.578192 0.000000 0.205844
O O3 0.500000 0.000000 0.338887
O O4 0.748952 0.218459 0.842343
O O5 0.675545 0.193811 0.706225
O O6 0.648773 0.000000 0.835851
O O7 0.813313 0.500000 0.864254
O O8 0.877663 0.748001 0.791475
O O9 0.846327 0.759936 0.957310
O O10 0.380635 0.168761 0.073633
O O11 0.500000 0.000000 0.072475
O O12 0.118772 0.269316 0.625685
O O13 0.000000 0.268110 0.713176
O O14 0.075550 0.000000 0.704235
O O15 0.750991 0.253017 0.573886
O O16 0.663917 0.000000 0.573607
O O17 0.830903 0.000000 0.556945
#
# Coordination Sequence:
#
# PCOD9356390 Si02
#       7
#     4   8   8   4   8   8   8
#     4   9  18  32  52  84 120 155 194 245 307 358
#     4  10  18  32  56  83 114 153 199 249 295 352
#     4  11  21  35  59  88 116 151 204 251 291 353
#     4   9  18  30  50  84 116 147 190 241 301 352
#     4  10  21  39  60  83 118 156 192 243 306 361
#     4   9  17  32  54  78 111 151 194 242 288 349
#     4   9  19  36  58  84 111 153 202 240 289 356
#
# _framework density 20.015965000000001
#
# number of rings (size 3 to 8) (size 9 to 14) (size 15 to 20)
#    0.000    2.333    2.500    0.500    0.000    1.667 
#    3.000    5.000    0.000    1.000    0.000    0.000 
#    0.000    0.000    0.000    0.000    0.000    0.000 
#
# Total GULP energy -134040.009107 kJ/mol
# GULP energy per Si atom -5585.000379 kJ/mol
# Density = 1.997041 g / cm^3
# Si number density = 20.015965 Si / 1000 Ang^3
#
#
#
# Elastic Constant Matrix: (Units=GPa)
#
#
# Indices 1 2 3 4 5 6 
#
# 1 178.9262 66.4856 69.6135 0.0000 0.0000 0.0000
# 2 66.4856 96.5361 36.3757 0.0000 0.0000 0.0000
# 3 69.6135 36.3757 85.2326 0.0000 0.0000 0.0000
# 4 0.0000 0.0000 0.0000 14.2942 0.0000 0.0000
# 5 0.0000 0.0000 0.0000 0.0000 -9.3173 0.0000
# 6 0.0000 0.0000 0.0000 0.0000 0.0000 25.8167
#
#
#
# Elastic Compliance Matrix: (Units=1/GPa)
#
#
# Indices 1 2 3 4 5 6 
#
# 1 0.009490 -0.004308 -0.005912 0.000000 0.000000 0.000000
# 2 -0.004308 0.014300 -0.002584 0.000000 0.000000 0.000000
# 3 -0.005912 -0.002584 0.017664 0.000000 0.000000 0.000000
# 4 0.000000 0.000000 0.000000 0.069959 0.000000 0.000000
# 5 0.000000 0.000000 0.000000 0.000000 -0.107328 0.000000
# 6 0.000000 0.000000 0.000000 0.000000 0.000000 0.038735
#
#
# Mechanical properties :
#
#
# Convention : Reuss Voigt Hill
#
# Bulk Modulus (GPa) = 63.11233 78.40495 70.75864
# Shear Modulus (GPa) = 67.83354 18.70674 43.27014
#
# Velocity S-wave (km/s) = 5.82780 3.06042 4.65454
# Velocity P-wave (km/s) = 8.76834 7.19337 8.01961
#
# Compressibility (1/GPa) = 0.01584476
#
# Stress axis : x y z
#
# Youngs Moduli (GPa) = 105.37492 69.93223 56.61116
#
# Poissons Ratio (x) = 0.30127 0.33470
# Poissons Ratio (y) = 0.45396 0.14630
# Poissons Ratio (z) = 0.62301 0.18072
#
# Static dielectric constant tensor:
#      x y z
#    x 1.654360 0.000000 0.000000 
#    y 0.000000 1.730530 0.000000 
#    z 0.000000 0.000000 1.711540 
# 
# From -- ./inp_files/15023.got.cif
#   From: 2010.05.17/outbox.cif.g08.bks.cpg/sg38_8_cif.got.tgz:15023.got - 2010.06.03 18:07:57.
