data_PCOD9356265
_publ_section_title
;
Structure prediction by ZEFSAII (Michael W. Deem and Ramdas Pophale) SiO2 
 PCOD9356265
Probable space group: A M M 2
;
_chemical_formula_sum "Si O2"
_cell_formula_units_Z 64
_cell_length_a 7.578274
_cell_length_b 20.012306
_cell_length_c 21.788681
_cell_angle_alpha 90.000000
_cell_angle_beta 90.000000
_cell_angle_gamma 90.000000
_cell_volume 3304.443868
_symmetry_space_group_name_H-M "A M M 2"
_symmetry_group_IT_number 38
_symmetry_cell_setting 'orthorhombic'
loop_
_space_group_symop_operation_xyz
x,y,z
-x,-y,z
-x,y,z
x,-y,z
x,1/2+y,1/2+z
-x,1/2-y,1/2+z
-x,1/2+y,1/2+z
x,1/2-y,1/2+z
loop_
_atom_site_type_symbol
_atom_site_label
_atom_site_fract_x
_atom_site_fract_y
_atom_site_fract_z
Si Si1 0.791459 0.214562 0.900560
Si Si2 0.707727 0.925302 0.719475
Si Si3 0.786792 0.925882 0.575659
Si Si4 0.783516 0.787836 0.522075
Si Si5 0.713022 0.925243 0.097398
Si Si6 0.792742 0.714871 0.644985
Si Si7 0.205176 0.283071 0.266569
Si Si8 0.286927 0.074606 0.955692
O O1 0.715677 0.230412 0.833537
O O2 0.772851 0.135961 0.914790
O O3 0.000000 0.229018 0.898359
O O4 0.719490 0.254776 0.959121
O O5 0.500000 0.924934 0.733209
O O6 0.731693 0.914908 0.646321
O O7 0.789084 0.862338 0.753570
O O8 0.776816 0.000000 0.733647
O O9 0.730027 0.864320 0.533703
O O10 0.000000 0.925949 0.575643
O O11 0.725865 0.000000 0.557305
O O12 0.721629 0.746615 0.581880
O O13 0.000000 0.785138 0.521182
O O14 0.500000 0.924466 0.097273
O O15 0.775117 0.864515 0.139029
O O16 0.769850 0.000000 0.115448
O O17 0.770463 0.914244 0.026535
O O18 0.715762 0.746057 0.707164
O O19 0.000000 0.732743 0.645091
O O20 0.000000 0.262607 0.269503
O O21 0.500000 0.074610 0.955558
O O22 0.229191 0.000000 0.937014
#
# Coordination Sequence:
#
# PCOD9356265 Si02
#       8
#     8   8   8   8   8   8   8   8
#     4  10  20  33  49  69  96 128 161 198 236 280
#     4  10  20  32  47  70  99 129 162 199 237 280
#     4   9  16  29  51  74  97 126 158 194 239 287
#     4   9  16  29  49  73  96 121 158 200 235 274
#     4   9  18  32  50  74 101 127 158 198 242 285
#     4  10  18  31  51  73  96 125 162 202 240 280
#     4  10  21  35  49  68  97 132 163 196 242 288
#     4   9  18  32  48  68  98 130 158 193 236 281
#
# _framework density 19.367857999999998
#
# number of rings (size 3 to 8) (size 9 to 14) (size 15 to 20)
#    0.000    2.500    2.500    1.125    0.000    2.750 
#    0.000    4.375    0.000    0.750    0.000    3.500 
#    0.000    2.000    0.000    0.000    0.000    0.000 
#
# Total GULP energy -178525.133890 kJ/mol
# GULP energy per Si atom -5578.910434 kJ/mol
# Density = 1.932378 g / cm^3
# Si number density = 19.367858 Si / 1000 Ang^3
#
#
#
# Elastic Constant Matrix: (Units=GPa)
#
#
# Indices 1 2 3 4 5 6 
#
# 1 42.8137 -6.0601 7.1781 0.0000 0.0000 0.0000
# 2 -6.0601 106.4931 77.9009 0.0000 0.0000 0.0000
# 3 7.1781 77.9009 148.5551 0.0000 0.0000 0.0000
# 4 0.0000 0.0000 0.0000 17.4195 0.0000 0.0000
# 5 0.0000 0.0000 0.0000 0.0000 -12.0224 0.0000
# 6 0.0000 0.0000 0.0000 0.0000 0.0000 25.3992
#
#
#
# Elastic Compliance Matrix: (Units=1/GPa)
#
#
# Indices 1 2 3 4 5 6 
#
# 1 0.024392 0.003651 -0.003093 0.000000 0.000000 0.000000
# 2 0.003651 0.015780 -0.008451 0.000000 0.000000 0.000000
# 3 -0.003093 -0.008451 0.011313 0.000000 0.000000 0.000000
# 4 0.000000 0.000000 0.000000 0.057407 0.000000 0.000000
# 5 0.000000 0.000000 0.000000 0.000000 -0.083178 0.000000
# 6 0.000000 0.000000 0.000000 0.000000 0.000000 0.039371
#
#
# Mechanical properties :
#
#
# Convention : Reuss Voigt Hill
#
# Bulk Modulus (GPa) = 28.01288 50.65554 39.33421
# Shear Modulus (GPa) = 53.89514 20.74878 37.32196
#
# Velocity S-wave (km/s) = 5.28086 3.27662 4.39453
# Velocity P-wave (km/s) = 7.18877 6.36602 6.78987
#
# Compressibility (1/GPa) = 0.03569786
#
# Stress axis : x y z
#
# Youngs Moduli (GPa) = 40.99648 63.36986 88.39514
#
# Poissons Ratio (x) = -0.23134 0.27340
# Poissons Ratio (y) = -0.14966 0.74707
# Poissons Ratio (z) = 0.12680 0.53557
#
# Static dielectric constant tensor:
#      x y z
#    x 1.726920 0.000000 0.000000 
#    y 0.000000 1.680380 0.000000 
#    z 0.000000 0.000000 1.681470 
# 
# From -- ./inp_files/17176.got.cif
#   From: 2010.05.17/outbox.cif.g08.bks.cpg/sg38_9_cif.got.tgz:17176.got - 2010.06.03 18:07:57.
