data_PCOD9356982
_publ_section_title
;
Structure prediction by ZEFSAII (Michael W. Deem and Ramdas Pophale) SiO2 
 PCOD9356982
Probable space group: A M M 2
;
_chemical_formula_sum "Si O2"
_cell_formula_units_Z 48
_cell_length_a 16.034359
_cell_length_b 8.781979
_cell_length_c 18.521409
_cell_angle_alpha 90.000000
_cell_angle_beta 90.000000
_cell_angle_gamma 90.000000
_cell_volume 2608.062648
_symmetry_space_group_name_H-M "A M M 2"
_symmetry_group_IT_number 38
_symmetry_cell_setting 'orthorhombic'
loop_
_space_group_symop_operation_xyz
x,y,z
-x,-y,z
-x,y,z
x,-y,z
x,1/2+y,1/2+z
-x,1/2-y,1/2+z
-x,1/2+y,1/2+z
x,1/2-y,1/2+z
loop_
_atom_site_type_symbol
_atom_site_label
_atom_site_fract_x
_atom_site_fract_y
_atom_site_fract_z
Si Si1 0.500000 0.680972 0.274010
Si Si2 0.000000 0.175254 0.439488
Si Si3 0.654449 0.316634 0.687170
Si Si4 0.000000 0.675312 0.763548
Si Si5 0.824524 0.182345 0.934234
Si Si6 0.342815 0.316441 0.518607
Si Si7 0.820278 0.315160 0.774079
Si Si8 0.500000 0.818571 0.434009
O O1 0.500000 0.500000 0.280785
O O2 0.580830 0.736638 0.230453
O O3 0.500000 0.754292 0.353106
O O4 0.000000 0.176647 0.351362
O O5 0.913823 0.255440 0.461021
O O6 0.000000 0.000000 0.462343
O O7 0.643726 0.500000 0.692745
O O8 0.652899 0.276037 0.602908
O O9 0.742878 0.277715 0.723425
O O10 0.909870 0.741252 0.743812
O O11 0.000000 0.500000 0.738411
O O12 0.808961 0.248600 0.854129
O O13 0.828981 0.000000 0.930021
O O14 0.746596 0.225131 0.984521
O O15 0.351285 0.500000 0.512789
O O16 0.418059 0.240747 0.475243
O O17 0.825220 0.500000 0.780466
O O18 0.500000 0.000000 0.432083
#
# Coordination Sequence:
#
# PCOD9356982 Si02
#       8
#     4   4   8   4   8   8   8   4
#     4  12  25  40  59  83 109 139 179 230 283 328
#     4   9  17  31  52  77 107 143 183 229 274 317
#     4  10  21  38  58  81 112 149 185 221 269 331
#     4   7  12  25  46  73 101 129 169 219 262 301
#     4  10  19  32  53  81 111 143 181 226 276 327
#     4  10  22  39  57  81 116 151 181 224 280 329
#     4   9  17  31  53  79 106 141 184 224 265 317
#     4  12  25  40  61  85 107 141 189 232 273 330
#
# _framework density 18.404464999999998
#
# number of rings (size 3 to 8) (size 9 to 14) (size 15 to 20)
#    0.000    2.167    0.000    4.750    0.000    7.333 
#    0.000    0.833    0.000    4.000    0.000    0.000 
#    0.000    0.000    0.000    0.000    0.000    0.000 
#
# Total GULP energy -133958.431029 kJ/mol
# GULP energy per Si atom -5581.601293 kJ/mol
# Density = 1.836258 g / cm^3
# Si number density = 18.404465 Si / 1000 Ang^3
#
#
#
# Elastic Constant Matrix: (Units=GPa)
#
#
# Indices 1 2 3 4 5 6 
#
# 1 214.8234 71.5178 106.6895 0.0000 0.0000 0.0000
# 2 71.5178 48.8760 52.3170 0.0000 0.0000 0.0000
# 3 106.6895 52.3170 130.1771 0.0000 0.0000 0.0000
# 4 0.0000 0.0000 0.0000 21.8689 0.0000 0.0000
# 5 0.0000 0.0000 0.0000 0.0000 -18.9421 0.0000
# 6 0.0000 0.0000 0.0000 0.0000 0.0000 21.2022
#
#
#
# Elastic Compliance Matrix: (Units=1/GPa)
#
#
# Indices 1 2 3 4 5 6 
#
# 1 0.010211 -0.010501 -0.004149 0.000000 0.000000 0.000000
# 2 -0.010501 0.046705 -0.010164 0.000000 0.000000 0.000000
# 3 -0.004149 -0.010164 0.015167 0.000000 0.000000 0.000000
# 4 0.000000 0.000000 0.000000 0.045727 0.000000 0.000000
# 5 0.000000 0.000000 0.000000 0.000000 -0.052792 0.000000
# 6 0.000000 0.000000 0.000000 0.000000 0.000000 0.047165
#
#
# Mechanical properties :
#
#
# Convention : Reuss Voigt Hill
#
# Bulk Modulus (GPa) = 44.53176 94.99169 69.76173
# Shear Modulus (GPa) = 29.53414 15.71594 22.62504
#
# Velocity S-wave (km/s) = 4.01025 2.92536 3.50997
# Velocity P-wave (km/s) = 6.75955 7.94580 7.37656
#
# Compressibility (1/GPa) = 0.02245588
#
# Stress axis : x y z
#
# Youngs Moduli (GPa) = 97.93099 21.41089 65.93340
#
# Poissons Ratio (x) = 0.22483 0.27353
# Poissons Ratio (y) = 1.02837 0.67016
# Poissons Ratio (z) = 0.40628 0.21762
#
# Static dielectric constant tensor:
#      x y z
#    x 1.645490 0.000000 0.000000 
#    y 0.000000 1.622040 0.000000 
#    z 0.000000 0.000000 1.596310 
# 
# From -- ./inp_files/18225.got.cif
#   From: 2010.05.17/outbox.cif.g08.bks.cpg/sg38_10_cif.got.tgz:18225.got - 2010.06.03 18:07:57.
