data_PCOD9356141
_publ_section_title
;
Structure prediction by ZEFSAII (Michael W. Deem and Ramdas Pophale) SiO2 
 PCOD9356141
Probable space group: A M M 2
;
_chemical_formula_sum "Si O2"
_cell_formula_units_Z 58
_cell_length_a 15.641105
_cell_length_b 7.610134
_cell_length_c 25.890034
_cell_angle_alpha 90.000000
_cell_angle_beta 90.000000
_cell_angle_gamma 90.000000
_cell_volume 3081.714176
_symmetry_space_group_name_H-M "A M M 2"
_symmetry_group_IT_number 38
_symmetry_cell_setting 'orthorhombic'
loop_
_space_group_symop_operation_xyz
x,y,z
-x,-y,z
-x,y,z
x,-y,z
x,1/2+y,1/2+z
-x,1/2-y,1/2+z
-x,1/2+y,1/2+z
x,1/2-y,1/2+z
loop_
_atom_site_type_symbol
_atom_site_label
_atom_site_fract_x
_atom_site_fract_y
_atom_site_fract_z
Si Si1 0.500000 0.500000 0.064101
Si Si2 0.595014 0.710151 0.720717
Si Si3 0.189352 0.294235 0.071556
Si Si4 0.623931 0.297930 0.601316
Si Si5 0.221291 0.210186 0.760020
Si Si6 0.098167 0.214684 0.850662
Si Si7 0.905242 0.714373 0.171101
Si Si8 0.903085 0.211961 0.968010
O O1 0.573369 0.656170 0.067978
O O2 0.500000 0.776795 0.735807
O O3 0.590843 0.500000 0.720787
O O4 0.612391 0.762603 0.661136
O O5 0.677950 0.755223 0.754551
O O6 0.202991 0.500000 0.081309
O O7 0.277663 0.203459 0.085314
O O8 0.118080 0.234163 0.112764
O O9 0.158953 0.270068 0.013273
O O10 0.593804 0.500000 0.597743
O O11 0.169271 0.275483 0.810016
O O12 0.169238 0.274846 0.709711
O O13 0.212916 0.000000 0.760428
O O14 0.117210 0.269469 0.909539
O O15 0.000000 0.266833 0.837767
O O16 0.098051 0.000000 0.850012
O O17 0.906673 0.500000 0.173311
O O18 0.000000 0.774085 0.186238
O O19 0.000000 0.270944 0.979660
O O20 0.903038 0.000000 0.967559
#
# Coordination Sequence:
#
# PCOD9356141 Si02
#       8
#     2   8   8   8   8   8   8   8
#     4  12  22  36  60  82 110 148 194 236 280 342
#     4  10  21  35  50  72 104 144 179 219 276 334
#     4  11  20  32  50  78 111 146 186 228 275 336
#     4  11  22  36  55  81 115 149 184 233 283 335
#     4  10  18  29  52  78 103 134 177 227 278 333
#     4   8  15  30  52  78 105 137 182 230 277 332
#     4   9  17  27  43  71 108 143 174 215 271 335
#     4   9  18  33  52  74 105 145 188 234 279 327
#
# _framework density 18.820695000000001
#
# number of rings (size 3 to 8) (size 9 to 14) (size 15 to 20)
#    0.000    2.207    2.759    2.276    0.966    2.759 
#    0.000    0.690    0.000    3.310    1.793    0.000 
#    0.000    0.000    0.000    0.000    0.000    0.000 
#
# Total GULP energy -161505.714644 kJ/mol
# GULP energy per Si atom -5569.162574 kJ/mol
# Density = 1.877786 g / cm^3
# Si number density = 18.820695 Si / 1000 Ang^3
#
#
#
# Elastic Constant Matrix: (Units=GPa)
#
#
# Indices 1 2 3 4 5 6 
#
# 1 160.3112 9.2615 69.0870 0.0000 0.0000 0.0000
# 2 9.2615 58.8329 3.8465 0.0000 0.0000 0.0000
# 3 69.0870 3.8465 87.8241 0.0000 0.0000 0.0000
# 4 0.0000 0.0000 0.0000 10.3626 0.0000 0.0000
# 5 0.0000 0.0000 0.0000 0.0000 36.6816 0.0000
# 6 0.0000 0.0000 0.0000 0.0000 0.0000 -2.3800
#
#
#
# Elastic Compliance Matrix: (Units=1/GPa)
#
#
# Indices 1 2 3 4 5 6 
#
# 1 0.009497 -0.001009 -0.007426 0.000000 0.000000 0.000000
# 2 -0.001009 0.017153 0.000043 0.000000 0.000000 0.000000
# 3 -0.007426 0.000043 0.017226 0.000000 0.000000 0.000000
# 4 0.000000 0.000000 0.000000 0.096501 0.000000 0.000000
# 5 0.000000 0.000000 0.000000 0.000000 0.027262 0.000000
# 6 0.000000 0.000000 0.000000 0.000000 0.000000 -0.420176
#
#
# Mechanical properties :
#
#
# Convention : Reuss Voigt Hill
#
# Bulk Modulus (GPa) = 36.91322 52.37311 44.64316
# Shear Modulus (GPa) = -22.05358 23.91772 0.93207
#
# Velocity S-wave (km/s) = -3.42683 3.56872 0.70450
# Velocity P-wave (km/s) = 1.99953 6.69842 4.94303
#
# Compressibility (1/GPa) = 0.02709057
#
# Stress axis : x y z
#
# Youngs Moduli (GPa) = 105.30101 58.29744 58.05034
#
# Poissons Ratio (x) = 0.05885 0.43110
# Poissons Ratio (y) = 0.10629 -0.00248
# Poissons Ratio (z) = 0.78200 -0.00249
#
# Static dielectric constant tensor:
#      x y z
#    x 1.654180 0.000000 0.000000 
#    y 0.000000 1.709700 0.000000 
#    z 0.000000 0.000000 1.639390 
# 
# From -- ./inp_files/22794.got.cif
#   From: 2010.05.17/outbox.cif.g08.bks.cpg/sg38_12_cif.got.tgz:22794.got - 2010.06.03 18:07:57.
