data_PCOD9356334
_publ_section_title
;
Structure prediction by ZEFSAII (Michael W. Deem and Ramdas Pophale) SiO2 
 PCOD9356334
Probable space group: A M M 2
;
_chemical_formula_sum "Si O2"
_cell_formula_units_Z 48
_cell_length_a 19.621786
_cell_length_b 7.843624
_cell_length_c 15.512616
_cell_angle_alpha 90.000000
_cell_angle_beta 90.000000
_cell_angle_gamma 90.000000
_cell_volume 2387.483307
_symmetry_space_group_name_H-M "A M M 2"
_symmetry_group_IT_number 38
_symmetry_cell_setting 'orthorhombic'
loop_
_space_group_symop_operation_xyz
x,y,z
-x,-y,z
-x,y,z
x,-y,z
x,1/2+y,1/2+z
-x,1/2-y,1/2+z
-x,1/2+y,1/2+z
x,1/2-y,1/2+z
loop_
_atom_site_type_symbol
_atom_site_label
_atom_site_fract_x
_atom_site_fract_y
_atom_site_fract_z
Si Si1 0.577961 0.000000 0.300520
Si Si2 0.671808 0.188984 0.800976
Si Si3 0.823356 0.707226 0.850822
Si Si4 0.421567 0.000000 0.089328
Si Si5 0.923262 0.297206 0.701721
Si Si6 0.676828 0.196471 0.592153
Si Si7 0.830169 0.794801 0.543496
O O1 0.619616 0.165901 0.329086
O O2 0.500000 0.000000 0.329054
O O3 0.577897 0.000000 0.195016
O O4 0.747463 0.226198 0.834430
O O5 0.675789 0.194752 0.696544
O O6 0.649917 0.000000 0.826932
O O7 0.819631 0.500000 0.846738
O O8 0.875134 0.770509 0.777984
O O9 0.846680 0.756417 0.946223
O O10 0.379792 0.168763 0.062728
O O11 0.500000 0.000000 0.060981
O O12 0.928278 0.500000 0.716002
O O13 0.883393 0.270693 0.612926
O O14 0.000000 0.227158 0.700624
O O15 0.752323 0.255619 0.564738
O O16 0.666127 0.000000 0.563049
O O17 0.831051 0.000000 0.548642
#
# Coordination Sequence:
#
# PCOD9356334 Si02
#       7
#     4   8   8   4   8   8   8
#     4   9  18  32  52  82 118 155 192 243 307 356
#     4  10  18  31  55  83 113 151 198 248 293 351
#     4  10  20  36  59  84 115 155 203 246 290 355
#     4   9  18  30  52  84 114 155 194 233 305 360
#     4  10  22  38  58  85 119 155 191 241 304 357
#     4   9  18  32  53  82 114 147 195 250 289 345
#     4  10  21  36  58  87 112 152 203 244 292 351
#
# _framework density 20.104852999999999
#
# number of rings (size 3 to 8) (size 9 to 14) (size 15 to 20)
#    0.000    2.333    2.500    0.000    1.167    2.333 
#    0.000    5.000    0.000    1.000    0.000    0.000 
#    0.000    0.000    0.000    0.000    0.000    0.000 
#
# Total GULP energy -134037.550813 kJ/mol
# GULP energy per Si atom -5584.897951 kJ/mol
# Density = 2.005909 g / cm^3
# Si number density = 20.104853 Si / 1000 Ang^3
#
#
#
# Elastic Constant Matrix: (Units=GPa)
#
#
# Indices 1 2 3 4 5 6 
#
# 1 174.5661 63.9901 52.1508 0.0000 0.0000 0.0000
# 2 63.9901 85.4108 33.6886 0.0000 0.0000 0.0000
# 3 52.1508 33.6886 68.0736 0.0000 0.0000 0.0000
# 4 0.0000 0.0000 0.0000 11.0483 0.0000 0.0000
# 5 0.0000 0.0000 0.0000 0.0000 -8.7383 0.0000
# 6 0.0000 0.0000 0.0000 0.0000 0.0000 9.6046
#
#
#
# Elastic Compliance Matrix: (Units=1/GPa)
#
#
# Indices 1 2 3 4 5 6 
#
# 1 0.008818 -0.004898 -0.004331 0.000000 0.000000 0.000000
# 2 -0.004898 0.017268 -0.004794 0.000000 0.000000 0.000000
# 3 -0.004331 -0.004794 0.020381 0.000000 0.000000 0.000000
# 4 0.000000 0.000000 0.000000 0.090511 0.000000 0.000000
# 5 0.000000 0.000000 0.000000 0.000000 -0.114438 0.000000
# 6 0.000000 0.000000 0.000000 0.000000 0.000000 0.104117
#
#
# Mechanical properties :
#
#
# Convention : Reuss Voigt Hill
#
# Bulk Modulus (GPa) = 54.28609 69.74550 62.01579
# Shear Modulus (GPa) = 31.08627 14.26433 22.67530
#
# Velocity S-wave (km/s) = 3.93645 2.66653 3.36199
# Velocity P-wave (km/s) = 6.90804 6.65182 6.78114
#
# Compressibility (1/GPa) = 0.01842092
#
# Stress axis : x y z
#
# Youngs Moduli (GPa) = 113.40555 57.90917 49.06648
#
# Poissons Ratio (x) = 0.28364 0.21253
# Poissons Ratio (y) = 0.55546 0.23520
# Poissons Ratio (z) = 0.49121 0.27759
#
# Static dielectric constant tensor:
#      x y z
#    x 1.665100 0.000000 0.000000 
#    y 0.000000 1.732590 0.000000 
#    z 0.000000 0.000000 1.711540 
# 
# From -- ./inp_files/15022.got.cif
#   From: 2010.05.17/outbox.cif.g08.bks.cpg/sg38_8_cif.got.tgz:15022.got - 2010.06.03 18:07:57.
