data_PCOD9356541
_publ_section_title
;
Structure prediction by ZEFSAII (Michael W. Deem and Ramdas Pophale) SiO2 
 PCOD9356541
Probable space group: A M M 2
;
_chemical_formula_sum "Si O2"
_cell_formula_units_Z 56
_cell_length_a 7.731440
_cell_length_b 19.167993
_cell_length_c 21.763971
_cell_angle_alpha 90.000000
_cell_angle_beta 90.000000
_cell_angle_gamma 90.000000
_cell_volume 3225.337534
_symmetry_space_group_name_H-M "A M M 2"
_symmetry_group_IT_number 38
_symmetry_cell_setting 'orthorhombic'
loop_
_space_group_symop_operation_xyz
x,y,z
-x,-y,z
-x,y,z
x,-y,z
x,1/2+y,1/2+z
-x,1/2-y,1/2+z
-x,1/2+y,1/2+z
x,1/2-y,1/2+z
loop_
_atom_site_type_symbol
_atom_site_label
_atom_site_fract_x
_atom_site_fract_y
_atom_site_fract_z
Si Si1 0.704321 0.655601 0.590350
Si Si2 0.212780 0.655018 0.345152
Si Si3 0.209890 0.420692 0.717825
Si Si4 0.802066 0.792258 0.289396
Si Si5 0.705358 0.717911 0.165279
Si Si6 0.795897 0.421483 0.466863
Si Si7 0.791443 0.421115 0.219150
O O1 0.500000 0.657284 0.580899
O O2 0.741798 0.609301 0.650905
O O3 0.761982 0.734274 0.608093
O O4 0.779312 0.620972 0.529773
O O5 0.274247 0.734858 0.335487
O O6 0.273964 0.619800 0.407847
O O7 0.264731 0.609300 0.285662
O O8 0.000000 0.657302 0.344539
O O9 0.269150 0.500000 0.725093
O O10 0.275693 0.366548 0.769706
O O11 0.000000 0.419956 0.720509
O O12 0.799790 0.750135 0.224705
O O13 0.000000 0.805046 0.308547
O O14 0.500000 0.729786 0.173741
O O15 0.737575 0.635643 0.168244
O O16 0.723894 0.500000 0.472902
O O17 0.000000 0.428360 0.454833
O O18 0.729099 0.500000 0.209955
O O19 0.000000 0.422617 0.220084
#
# Coordination Sequence:
#
# PCOD9356541 Si02
#       7
#     8   8   8   8   8   8   8
#     4  10  20  31  41  56  82 114 144 172 203 241
#     4   8  14  26  43  61  82 109 139 167 197 240
#     4   9  16  26  42  64  86 107 134 169 208 249
#     4   8  14  26  43  60  80 107 137 168 205 249
#     4   9  17  28  41  58  81 108 138 171 206 243
#     4  10  19  29  42  60  81 108 143 176 202 236
#     4   9  16  27  45  67  88 109 133 164 204 248
#
# _framework density 17.362525000000002
#
# number of rings (size 3 to 8) (size 9 to 14) (size 15 to 20)
#    0.000    3.000    0.000    2.571    0.000    6.000 
#    0.000    2.857    0.000    3.429    0.000    1.000 
#    0.000    3.429    0.000    0.000    0.000    0.429 
#
# Total GULP energy -155873.786013 kJ/mol
# GULP energy per Si atom -5566.920929 kJ/mol
# Density = 1.732301 g / cm^3
# Si number density = 17.362525 Si / 1000 Ang^3
#
#
#
# Elastic Constant Matrix: (Units=GPa)
#
#
# Indices 1 2 3 4 5 6 
#
# 1 27.4627 -0.8266 1.5656 0.0000 0.0000 0.0000
# 2 -0.8266 175.7140 74.4915 0.0000 0.0000 0.0000
# 3 1.5656 74.4915 84.2585 0.0000 0.0000 0.0000
# 4 0.0000 0.0000 0.0000 23.6480 0.0000 0.0000
# 5 0.0000 0.0000 0.0000 0.0000 -164.8822 0.0000
# 6 0.0000 0.0000 0.0000 0.0000 0.0000 6.4745
#
#
#
# Elastic Compliance Matrix: (Units=1/GPa)
#
#
# Indices 1 2 3 4 5 6 
#
# 1 0.036511 0.000735 -0.001328 0.000000 0.000000 0.000000
# 2 0.000735 0.009118 -0.008074 0.000000 0.000000 0.000000
# 3 -0.001328 -0.008074 0.019031 0.000000 0.000000 0.000000
# 4 0.000000 0.000000 0.000000 0.042287 0.000000 0.000000
# 5 0.000000 0.000000 0.000000 0.000000 -0.006065 0.000000
# 6 0.000000 0.000000 0.000000 0.000000 0.000000 0.154452
#
#
# Mechanical properties :
#
#
# Convention : Reuss Voigt Hill
#
# Bulk Modulus (GPa) = 21.13069 48.65513 34.89291
# Shear Modulus (GPa) = 17.33440 -12.80496 2.26472
#
# Velocity S-wave (km/s) = 3.16314 -2.71865 1.14333
# Velocity P-wave (km/s) = 5.05345 4.26956 4.67795
#
# Compressibility (1/GPa) = 0.04732454
#
# Stress axis : x y z
#
# Youngs Moduli (GPa) = 27.38914 109.67917 52.54514
#
# Poissons Ratio (x) = -0.08058 0.06978
# Poissons Ratio (y) = -0.02012 0.42426
# Poissons Ratio (z) = 0.03637 0.88558
#
# Static dielectric constant tensor:
#      x y z
#    x 1.639470 0.000000 0.000000 
#    y 0.000000 1.650980 0.000000 
#    z 0.000000 0.000000 1.562500 
# 
# From -- ./inp_files/19977.got.cif
#   From: 2010.05.17/outbox.cif.g08.bks.cpg/sg38_10_cif.got.tgz:19977.got - 2010.06.03 18:07:57.
