data_PCOD9356249
_publ_section_title
;
Structure prediction by ZEFSAII (Michael W. Deem and Ramdas Pophale) SiO2 
 PCOD9356249
Probable space group: A M M 2
;
_chemical_formula_sum "Si O2"
_cell_formula_units_Z 64
_cell_length_a 8.185917
_cell_length_b 24.314312
_cell_length_c 19.589584
_cell_angle_alpha 90.000000
_cell_angle_beta 90.000000
_cell_angle_gamma 90.000000
_cell_volume 3899.011675
_symmetry_space_group_name_H-M "A M M 2"
_symmetry_group_IT_number 38
_symmetry_cell_setting 'orthorhombic'
loop_
_space_group_symop_operation_xyz
x,y,z
-x,-y,z
-x,y,z
x,-y,z
x,1/2+y,1/2+z
-x,1/2-y,1/2+z
-x,1/2+y,1/2+z
x,1/2-y,1/2+z
loop_
_atom_site_type_symbol
_atom_site_label
_atom_site_fract_x
_atom_site_fract_y
_atom_site_fract_z
Si Si1 0.807320 0.272187 0.027210
Si Si2 0.306896 0.833547 0.110144
Si Si3 0.800714 0.335711 0.157049
Si Si4 0.692661 0.243318 0.880566
Si Si5 0.302396 0.383319 0.384605
Si Si6 0.300605 0.062285 0.027417
Si Si7 0.806950 0.273699 0.736860
Si Si8 0.197330 0.937840 0.743335
O O1 0.777960 0.214083 0.065526
O O2 0.747427 0.317928 0.081369
O O3 0.000000 0.279525 0.017090
O O4 0.724679 0.270154 0.953830
O O5 0.500000 0.828897 0.096187
O O6 0.251793 0.893247 0.084385
O O7 0.274396 0.819337 0.188872
O O8 0.751007 0.285929 0.207603
O O9 0.744080 0.393441 0.187575
O O10 0.000000 0.336192 0.156504
O O11 0.500000 0.240905 0.868105
O O12 0.755278 0.180070 0.883254
O O13 0.770606 0.274497 0.816696
O O14 0.500000 0.382530 0.385237
O O15 0.249235 0.413729 0.453825
O O16 0.245065 0.415075 0.317571
O O17 0.500000 0.060731 0.027092
O O18 0.242860 0.000000 0.037590
O O19 0.000000 0.277214 0.725296
O O20 0.000000 0.938823 0.739927
O O21 0.257546 0.000000 0.733558
#
# Coordination Sequence:
#
# PCOD9356249 Si02
#       8
#     8   8   8   8   8   8   8   8
#     4  10  19  31  48  67  93 127 158 194 242 292
#     4  10  18  31  48  70  96 123 161 204 236 279
#     4   8  16  30  45  65  90 120 156 190 228 275
#     4  11  20  31  48  73  96 123 159 198 241 283
#     4  10  19  31  45  65  95 129 162 193 227 274
#     4   9  17  30  47  66  93 130 165 196 234 276
#     4  10  19  32  49  68  94 127 157 193 242 292
#     4  10  19  31  47  67  93 126 162 196 228 270
#
# _framework density 16.414415999999999
#
# number of rings (size 3 to 8) (size 9 to 14) (size 15 to 20)
#    0.000    2.250    2.500    2.625    0.000    1.250 
#    0.000    0.625    0.000    2.250    0.000    0.875 
#    0.000    3.000    0.000    0.000    0.000    0.000 
#
# Total GULP energy -178474.430860 kJ/mol
# GULP energy per Si atom -5577.325964 kJ/mol
# Density = 1.637706 g / cm^3
# Si number density = 16.414416 Si / 1000 Ang^3
#
#
#
# Elastic Constant Matrix: (Units=GPa)
#
#
# Indices 1 2 3 4 5 6 
#
# 1 10.1095 4.8022 -5.4831 0.0000 0.0000 0.0000
# 2 4.8022 115.4929 70.1357 0.0000 0.0000 0.0000
# 3 -5.4831 70.1357 106.2046 0.0000 0.0000 0.0000
# 4 0.0000 0.0000 0.0000 20.0746 0.0000 0.0000
# 5 0.0000 0.0000 0.0000 0.0000 21.6270 0.0000
# 6 0.0000 0.0000 0.0000 0.0000 0.0000 11.0738
#
#
#
# Elastic Compliance Matrix: (Units=1/GPa)
#
#
# Indices 1 2 3 4 5 6 
#
# 1 0.113626 -0.013835 0.015003 0.000000 0.000000 0.000000
# 2 -0.013835 0.016140 -0.011373 0.000000 0.000000 0.000000
# 3 0.015003 -0.011373 0.017701 0.000000 0.000000 0.000000
# 4 0.000000 0.000000 0.000000 0.049814 0.000000 0.000000
# 5 0.000000 0.000000 0.000000 0.000000 0.046239 0.000000
# 6 0.000000 0.000000 0.000000 0.000000 0.000000 0.090303
#
#
# Mechanical properties :
#
#
# Convention : Reuss Voigt Hill
#
# Bulk Modulus (GPa) = 7.87054 41.19072 24.53063
# Shear Modulus (GPa) = 12.60759 21.37855 16.99307
#
# Velocity S-wave (km/s) = 2.77443 3.61283 3.22102
# Velocity P-wave (km/s) = 3.88183 6.52320 5.36753
#
# Compressibility (1/GPa) = 0.12705604
#
# Stress axis : x y z
#
# Youngs Moduli (GPa) = 8.80082 61.95622 56.49393
#
# Poissons Ratio (x) = 0.85719 -0.84758
# Poissons Ratio (y) = 0.12176 0.64251
# Poissons Ratio (z) = -0.13204 0.70464
#
# Static dielectric constant tensor:
#      x y z
#    x 1.575480 0.000000 0.000000 
#    y 0.000000 1.550840 0.000000 
#    z 0.000000 0.000000 1.542290 
# 
# From -- ./inp_files/17283.got.cif
#   From: 2010.05.17/outbox.cif.g08.bks.cpg/sg38_9_cif.got.tgz:17283.got - 2010.06.03 18:07:57.
