data_PCOD9356391
_publ_section_title
;
Structure prediction by ZEFSAII (Michael W. Deem and Ramdas Pophale) SiO2 
 PCOD9356391
Probable space group: A M M 2
;
_chemical_formula_sum "Si O2"
_cell_formula_units_Z 56
_cell_length_a 7.468280
_cell_length_b 17.481712
_cell_length_c 17.982057
_cell_angle_alpha 90.000000
_cell_angle_beta 90.000000
_cell_angle_gamma 90.000000
_cell_volume 2347.707154
_symmetry_space_group_name_H-M "A M M 2"
_symmetry_group_IT_number 38
_symmetry_cell_setting 'orthorhombic'
loop_
_space_group_symop_operation_xyz
x,y,z
-x,-y,z
-x,y,z
x,-y,z
x,1/2+y,1/2+z
-x,1/2-y,1/2+z
-x,1/2+y,1/2+z
x,1/2-y,1/2+z
loop_
_atom_site_type_symbol
_atom_site_label
_atom_site_fract_x
_atom_site_fract_y
_atom_site_fract_z
Si Si1 0.208425 0.585527 0.960610
Si Si2 0.716836 0.912994 0.710587
Si Si3 0.795025 0.701153 0.079841
Si Si4 0.281905 0.634646 0.377290
Si Si5 0.204798 0.000000 0.157451
Si Si6 0.712166 0.299493 0.843261
Si Si7 0.785064 0.166995 0.176730
Si Si8 0.718025 0.500000 0.485925
O O1 0.284972 0.500000 0.964255
O O2 0.214728 0.623345 0.879503
O O3 0.000000 0.579085 0.982319
O O4 0.290205 0.649388 0.015442
O O5 0.500000 0.907011 0.707119
O O6 0.794034 0.853563 0.652090
O O7 0.769718 0.895382 0.795392
O O8 0.766258 0.000000 0.691233
O O9 0.714013 0.780641 0.109342
O O10 0.000000 0.717725 0.057609
O O11 0.500000 0.635008 0.378346
O O12 0.220659 0.722318 0.383335
O O13 0.225331 0.575176 0.440001
O O14 0.287446 0.080924 0.180158
O O15 0.206833 0.000000 0.068213
O O16 0.000000 0.000000 0.185846
O O17 0.500000 0.302159 0.852109
O O18 0.751381 0.294191 0.756010
O O19 0.000000 0.162419 0.166669
O O20 0.500000 0.500000 0.490089
#
# Coordination Sequence:
#
# PCOD9356391 Si02
#       8
#     8   8   8   8   4   8   8   4
#     4  10  23  42  62  85 119 160 194 236 298 356
#     4  10  18  32  56  83 116 156 193 235 292 351
#     4  10  21  38  60  86 117 154 198 244 290 349
#     4   9  18  34  55  84 119 154 188 232 289 346
#     4  10  24  42  60  86 119 154 197 246 295 342
#     4  11  23  39  62  90 119 151 198 251 292 342
#     4  10  22  41  62  86 118 157 197 242 296 350
#     4  10  20  38  62  86 119 160 199 232 287 360
#
# _framework density 23.853059999999999
#
# number of rings (size 3 to 8) (size 9 to 14) (size 15 to 20)
#    0.000    2.000    2.143    0.857    3.000    2.286 
#    0.000    1.429    0.000    0.000    0.000    0.000 
#    0.000    0.000    0.000    0.000    0.000    0.000 
#
# Total GULP energy -156523.516204 kJ/mol
# GULP energy per Si atom -5590.125579 kJ/mol
# Density = 2.379877 g / cm^3
# Si number density = 23.853060 Si / 1000 Ang^3
#
#
#
# Elastic Constant Matrix: (Units=GPa)
#
#
# Indices 1 2 3 4 5 6 
#
# 1 77.7530 9.8818 -9.8413 0.0000 0.0000 0.0000
# 2 9.8818 163.1578 14.8276 0.0000 0.0000 0.0000
# 3 -9.8413 14.8276 51.5852 0.0000 0.0000 0.0000
# 4 0.0000 0.0000 0.0000 36.5068 0.0000 0.0000
# 5 0.0000 0.0000 0.0000 0.0000 25.5658 0.0000
# 6 0.0000 0.0000 0.0000 0.0000 0.0000 -1.5042
#
#
#
# Elastic Compliance Matrix: (Units=1/GPa)
#
#
# Indices 1 2 3 4 5 6 
#
# 1 0.013358 -0.001069 0.002856 0.000000 0.000000 0.000000
# 2 -0.001069 0.006379 -0.002037 0.000000 0.000000 0.000000
# 3 0.002856 -0.002037 0.020516 0.000000 0.000000 0.000000
# 4 0.000000 0.000000 0.000000 0.027392 0.000000 0.000000
# 5 0.000000 0.000000 0.000000 0.000000 0.039115 0.000000
# 6 0.000000 0.000000 0.000000 0.000000 0.000000 -0.664825
#
#
# Mechanical properties :
#
#
# Convention : Reuss Voigt Hill
#
# Bulk Modulus (GPa) = 25.15562 35.80359 30.47960
# Shear Modulus (GPa) = -9.18589 30.62223 10.71817
#
# Velocity S-wave (km/s) = -1.96453 3.58688 2.12207
# Velocity P-wave (km/s) = 2.32876 5.67424 4.33705
#
# Compressibility (1/GPa) = 0.03975255
#
# Stress axis : x y z
#
# Youngs Moduli (GPa) = 74.85876 156.76655 48.74288
#
# Poissons Ratio (x) = 0.16752 -0.13919
# Poissons Ratio (y) = 0.07999 0.09931
# Poissons Ratio (z) = -0.21377 0.31940
#
# Static dielectric constant tensor:
#      x y z
#    x 1.914470 0.000000 0.000000 
#    y 0.000000 1.929680 0.000000 
#    z 0.000000 0.000000 1.848590 
# 
# From -- ./inp_files/19877.got.cif
#   From: 2010.05.17/outbox.cif.g08.bks.cpg/sg38_10_cif.got.tgz:19877.got - 2010.06.03 18:07:57.
