data_PCOD9356514
_publ_section_title
;
Structure prediction by ZEFSAII (Michael W. Deem and Ramdas Pophale) SiO2 
 PCOD9356514
Probable space group: A M M 2
;
_chemical_formula_sum "Si O2"
_cell_formula_units_Z 56
_cell_length_a 7.510030
_cell_length_b 30.587322
_cell_length_c 14.135413
_cell_angle_alpha 90.000000
_cell_angle_beta 90.000000
_cell_angle_gamma 90.000000
_cell_volume 3247.069833
_symmetry_space_group_name_H-M "A M M 2"
_symmetry_group_IT_number 38
_symmetry_cell_setting 'orthorhombic'
loop_
_space_group_symop_operation_xyz
x,y,z
-x,-y,z
-x,y,z
x,-y,z
x,1/2+y,1/2+z
-x,1/2-y,1/2+z
-x,1/2+y,1/2+z
x,1/2-y,1/2+z
loop_
_atom_site_type_symbol
_atom_site_label
_atom_site_fract_x
_atom_site_fract_y
_atom_site_fract_z
Si Si1 0.790594 0.904673 0.712190
Si Si2 0.716487 0.405665 0.989145
Si Si3 0.718046 0.818262 0.386035
Si Si4 0.706913 0.277511 0.694711
Si Si5 0.782222 0.000000 0.697586
Si Si6 0.715266 0.770527 0.985244
Si Si7 0.705497 0.500000 0.975088
Si Si8 0.790134 0.186405 0.789580
O O1 0.770935 0.900660 0.598668
O O2 0.722770 0.953264 0.739233
O O3 0.715788 0.860815 0.759562
O O4 0.000000 0.905337 0.735148
O O5 0.500000 0.406804 0.988842
O O6 0.782138 0.452560 0.950183
O O7 0.775338 0.364299 0.928335
O O8 0.500000 0.818135 0.384669
O O9 0.781896 0.806342 0.280630
O O10 0.773019 0.777917 0.452757
O O11 0.500000 0.289971 0.686988
O O12 0.783926 0.281297 0.589751
O O13 0.713092 0.227282 0.730845
O O14 0.714682 0.000000 0.589562
O O15 0.000000 0.000000 0.694149
O O16 0.500000 0.769478 0.988883
O O17 0.764819 0.802870 0.900157
O O18 0.500000 0.500000 0.943980
O O19 0.000000 0.186839 0.768652
#
# Coordination Sequence:
#
# PCOD9356514 Si02
#       8
#     8   8   8   8   4   8   4   8
#     4   9  17  27  39  57  80 105 131 158 191 233
#     4   9  15  24  39  58  81 106 130 159 193 230
#     4   8  14  24  39  58  76  97 128 161 192 226
#     4   9  17  30  45  59  77 105 141 170 191 227
#     4   8  14  26  40  52  73 104 132 156 185 228
#     4   9  17  29  43  57  75 103 137 168 195 230
#     4   8  14  22  34  56  81 102 126 156 193 232
#     4  10  19  28  40  61  85 105 128 162 204 242
#
# _framework density 17.246317999999999
#
# number of rings (size 3 to 8) (size 9 to 14) (size 15 to 20)
#    0.000    3.143    0.000    2.143    0.000    2.857 
#    0.000    4.286    0.000    0.000    0.000    1.000 
#    0.000    2.286    0.000    0.000    0.000    0.000 
#
# Total GULP energy -155923.378462 kJ/mol
# GULP energy per Si atom -5568.692088 kJ/mol
# Density = 1.720706 g / cm^3
# Si number density = 17.246318 Si / 1000 Ang^3
#
#
#
# Elastic Constant Matrix: (Units=GPa)
#
#
# Indices 1 2 3 4 5 6 
#
# 1 43.9567 -7.3111 -9.4672 0.0000 0.0000 0.0000
# 2 -7.3111 168.7889 58.4838 0.0000 0.0000 0.0000
# 3 -9.4672 58.4838 84.7335 0.0000 0.0000 0.0000
# 4 0.0000 0.0000 0.0000 26.5082 0.0000 0.0000
# 5 0.0000 0.0000 0.0000 0.0000 13.3894 0.0000
# 6 0.0000 0.0000 0.0000 0.0000 0.0000 1.6586
#
#
#
# Elastic Compliance Matrix: (Units=1/GPa)
#
#
# Indices 1 2 3 4 5 6 
#
# 1 0.023313 0.000141 0.002507 0.000000 0.000000 0.000000
# 2 0.000141 0.007788 -0.005359 0.000000 0.000000 0.000000
# 3 0.002507 -0.005359 0.015781 0.000000 0.000000 0.000000
# 4 0.000000 0.000000 0.000000 0.037724 0.000000 0.000000
# 5 0.000000 0.000000 0.000000 0.000000 0.074686 0.000000
# 6 0.000000 0.000000 0.000000 0.000000 0.000000 0.602911
#
#
# Mechanical properties :
#
#
# Convention : Reuss Voigt Hill
#
# Bulk Modulus (GPa) = 24.11971 42.32115 33.22043
# Shear Modulus (GPa) = 6.39841 25.36281 15.88061
#
# Velocity S-wave (km/s) = 1.92823 3.83903 3.03778
# Velocity P-wave (km/s) = 4.35583 6.65157 5.62213
#
# Compressibility (1/GPa) = 0.04145987
#
# Stress axis : x y z
#
# Youngs Moduli (GPa) = 42.89429 128.40875 63.36759
#
# Poissons Ratio (x) = -0.01811 -0.15889
# Poissons Ratio (y) = -0.00605 0.33961
# Poissons Ratio (z) = -0.10755 0.68819
#
# Static dielectric constant tensor:
#      x y z
#    x 1.621090 0.000000 0.000000 
#    y 0.000000 1.623310 0.000000 
#    z 0.000000 0.000000 1.563950 
# 
# From -- ./inp_files/13006.got.cif
#   From: 2010.05.17/outbox.cif.g08.bks.cpg/sg38_7_cif.got.tgz:13006.got - 2010.06.03 18:07:57.
