data_PCOD9356930
_publ_section_title
;
Structure prediction by ZEFSAII (Michael W. Deem and Ramdas Pophale) SiO2 
 PCOD9356930
Probable space group: A M M 2
;
_chemical_formula_sum "Si O2"
_cell_formula_units_Z 48
_cell_length_a 24.967748
_cell_length_b 18.657169
_cell_length_c 5.195236
_cell_angle_alpha 90.000000
_cell_angle_beta 90.000000
_cell_angle_gamma 90.000000
_cell_volume 2420.083767
_symmetry_space_group_name_H-M "A M M 2"
_symmetry_group_IT_number 38
_symmetry_cell_setting 'orthorhombic'
loop_
_space_group_symop_operation_xyz
x,y,z
-x,-y,z
-x,y,z
x,-y,z
x,1/2+y,1/2+z
-x,1/2-y,1/2+z
-x,1/2+y,1/2+z
x,1/2-y,1/2+z
loop_
_atom_site_type_symbol
_atom_site_label
_atom_site_fract_x
_atom_site_fract_y
_atom_site_fract_z
Si Si1 0.675878 0.801163 0.675710
Si Si2 0.935613 0.289656 0.071494
Si Si3 0.557852 0.701519 0.243253
Si Si4 0.939112 0.415879 0.421752
Si Si5 0.837404 0.414297 0.744875
Si Si6 0.229173 0.912957 0.734087
O O1 0.681654 0.755239 0.412737
O O2 0.615497 0.833562 0.696306
O O3 0.718425 0.864976 0.695478
O O4 0.913898 0.243831 0.311754
O O5 0.929151 0.370839 0.165019
O O6 0.000000 0.279690 0.052853
O O7 0.500000 0.663651 0.209516
O O8 0.558129 0.735165 0.528924
O O9 0.934721 0.500000 0.366827
O O10 0.895547 0.395712 0.632628
O O11 0.000000 0.400374 0.510234
O O12 0.839741 0.500000 0.772747
O O13 0.796271 0.398361 0.513085
O O14 0.813056 0.388745 0.013558
O O15 0.237690 0.000000 0.713640
#
# Coordination Sequence:
#
# PCOD9356930 Si02
#       6
#     8   8   8   8   8   8
#     4  10  19  32  52  79 107 132 170 220 253 283
#     4   9  18  33  50  69  96 125 149 179 229 290
#     4   8  14  25  43  69 101 135 166 200 248 297
#     4   9  18  35  58  80  99 124 164 210 251 298
#     4   9  19  35  54  75  99 129 165 205 251 306
#     4  10  20  36  54  71  99 138 171 200 248 309
#
# _framework density 19.834026000000001
#
# number of rings (size 3 to 8) (size 9 to 14) (size 15 to 20)
#    0.000    2.833    0.000    1.000    0.000    1.333 
#    0.000   10.000    0.000   14.500    0.000    0.000 
#    0.000   17.333    0.000    0.000    0.000    2.667 
#
# Total GULP energy -133822.456468 kJ/mol
# GULP energy per Si atom -5575.935686 kJ/mol
# Density = 1.978888 g / cm^3
# Si number density = 19.834026 Si / 1000 Ang^3
#
#
#
# Elastic Constant Matrix: (Units=GPa)
#
#
# Indices 1 2 3 4 5 6 
#
# 1 132.6653 38.9578 9.9734 0.0000 0.0000 0.0000
# 2 38.9578 58.7285 20.7847 0.0000 0.0000 0.0000
# 3 9.9734 20.7847 88.5850 0.0000 0.0000 0.0000
# 4 0.0000 0.0000 0.0000 21.5125 0.0000 0.0000
# 5 0.0000 0.0000 0.0000 0.0000 -33.1019 0.0000
# 6 0.0000 0.0000 0.0000 0.0000 0.0000 23.7593
#
#
#
# Elastic Compliance Matrix: (Units=1/GPa)
#
#
# Indices 1 2 3 4 5 6 
#
# 1 0.009377 -0.006376 0.000440 0.000000 0.000000 0.000000
# 2 -0.006376 0.022905 -0.004656 0.000000 0.000000 0.000000
# 3 0.000440 -0.004656 0.012332 0.000000 0.000000 0.000000
# 4 0.000000 0.000000 0.000000 0.046485 0.000000 0.000000
# 5 0.000000 0.000000 0.000000 0.000000 -0.030210 0.000000
# 6 0.000000 0.000000 0.000000 0.000000 0.000000 0.042089
#
#
# Mechanical properties :
#
#
# Convention : Reuss Voigt Hill
#
# Bulk Modulus (GPa) = 42.68159 46.60118 44.64139
# Shear Modulus (GPa) = 37.88696 16.45150 27.16923
#
# Velocity S-wave (km/s) = 4.37533 2.88316 3.70514
# Velocity P-wave (km/s) = 6.86227 5.88473 6.39221
#
# Compressibility (1/GPa) = 0.02342931
#
# Stress axis : x y z
#
# Youngs Moduli (GPa) = 106.64334 43.65840 81.09289
#
# Poissons Ratio (x) = 0.27837 -0.03571
# Poissons Ratio (y) = 0.67997 0.37760
# Poissons Ratio (z) = -0.04696 0.20329
#
# Static dielectric constant tensor:
#      x y z
#    x 1.760610 0.000000 0.000000 
#    y 0.000000 1.711500 0.000000 
#    z 0.000000 0.000000 1.742070 
# 
# From -- ./inp_files/1882.got.cif
#   From: 2010.05.17/outbox.cif.g08.bks.cpg/sg38_1_cif.got.tgz:1882.got - 2010.06.03 18:07:57.
