data_PCOD9356991
_publ_section_title
;
Structure prediction by ZEFSAII (Michael W. Deem and Ramdas Pophale) SiO2 
 PCOD9356991
Probable space group: A M M 2
;
_chemical_formula_sum "Si O2"
_cell_formula_units_Z 56
_cell_length_a 14.114266
_cell_length_b 22.617107
_cell_length_c 8.897425
_cell_angle_alpha 90.000000
_cell_angle_beta 90.000000
_cell_angle_gamma 90.000000
_cell_volume 2840.270391
_symmetry_space_group_name_H-M "A M M 2"
_symmetry_group_IT_number 38
_symmetry_cell_setting 'orthorhombic'
loop_
_space_group_symop_operation_xyz
x,y,z
-x,-y,z
-x,y,z
x,-y,z
x,1/2+y,1/2+z
-x,1/2-y,1/2+z
-x,1/2+y,1/2+z
x,1/2-y,1/2+z
loop_
_atom_site_type_symbol
_atom_site_label
_atom_site_fract_x
_atom_site_fract_y
_atom_site_fract_z
Si Si1 0.110285 0.720326 0.823810
Si Si2 0.110659 0.859117 0.770122
Si Si3 0.290723 0.433085 0.748815
Si Si4 0.614299 0.785651 0.750669
Si Si5 0.252344 0.854216 0.526874
Si Si6 0.613404 0.829958 0.081199
Si Si7 0.892062 0.610874 0.610662
O O1 0.128719 0.788346 0.784337
O O2 0.116736 0.677404 0.678781
O O3 0.000000 0.716808 0.878822
O O4 0.185365 0.693206 0.940087
O O5 0.180251 0.883978 0.644958
O O6 0.000000 0.866714 0.731816
O O7 0.127366 0.886208 0.934028
O O8 0.324502 0.500000 0.754108
O O9 0.343812 0.392216 0.627646
O O10 0.181433 0.429164 0.698259
O O11 0.294869 0.399782 0.907811
O O12 0.500000 0.790712 0.739854
O O13 0.665677 0.824077 0.624289
O O14 0.639614 0.718200 0.708628
O O15 0.643348 0.805887 0.917524
O O16 0.500000 0.833818 0.078484
O O17 0.000000 0.592333 0.634657
#
# Coordination Sequence:
#
# PCOD9356991 Si02
#       7
#     8   8   8   8   8   8   8
#     4   9  18  31  50  83 123 158 193 238 291 356
#     4  10  19  32  53  85 120 153 193 244 300 360
#     4  11  25  42  59  83 115 160 211 249 288 346
#     4  10  22  39  64  97 127 150 186 238 302 372
#     4  11  22  33  58  86 122 161 196 237 301 349
#     4  10  22  42  66  92 121 152 188 239 300 360
#     4   9  19  35  55  80 113 156 202 244 292 344
#
# _framework density 19.716432000000001
#
# number of rings (size 3 to 8) (size 9 to 14) (size 15 to 20)
#    0.000    2.000    0.000    3.000    8.000    5.143 
#    0.000    2.857    0.000    1.714    0.000    0.000 
#    0.000    0.000    0.000    0.000    0.000    0.000 
#
# Total GULP energy -156519.920957 kJ/mol
# GULP energy per Si atom -5589.997177 kJ/mol
# Density = 1.967156 g / cm^3
# Si number density = 19.716432 Si / 1000 Ang^3
#
#
#
# Elastic Constant Matrix: (Units=GPa)
#
#
# Indices 1 2 3 4 5 6 
#
# 1 49.9903 27.8871 38.1757 0.0000 0.0000 0.0000
# 2 27.8871 98.7493 42.4991 0.0000 0.0000 0.0000
# 3 38.1757 42.4991 100.9383 0.0000 0.0000 0.0000
# 4 0.0000 0.0000 0.0000 10.6581 0.0000 0.0000
# 5 0.0000 0.0000 0.0000 0.0000 36.5959 0.0000
# 6 0.0000 0.0000 0.0000 0.0000 0.0000 6.8355
#
#
#
# Elastic Compliance Matrix: (Units=1/GPa)
#
#
# Indices 1 2 3 4 5 6 
#
# 1 0.029563 -0.004319 -0.009362 0.000000 0.000000 0.000000
# 2 -0.004319 0.012999 -0.003839 0.000000 0.000000 0.000000
# 3 -0.009362 -0.003839 0.015065 0.000000 0.000000 0.000000
# 4 0.000000 0.000000 0.000000 0.093825 0.000000 0.000000
# 5 0.000000 0.000000 0.000000 0.000000 0.027325 0.000000
# 6 0.000000 0.000000 0.000000 0.000000 0.000000 0.146295
#
#
# Mechanical properties :
#
#
# Convention : Reuss Voigt Hill
#
# Bulk Modulus (GPa) = 44.27887 51.86686 48.07286
# Shear Modulus (GPa) = 13.60015 20.22563 16.91289
#
# Velocity S-wave (km/s) = 2.62923 3.20633 2.93201
# Velocity P-wave (km/s) = 5.63238 6.33016 5.99144
#
# Compressibility (1/GPa) = 0.02258414
#
# Stress axis : x y z
#
# Youngs Moduli (GPa) = 33.82591 76.92989 66.38114
#
# Poissons Ratio (x) = 0.33229 0.62148
# Poissons Ratio (y) = 0.14611 0.25486
# Poissons Ratio (z) = 0.31669 0.29537
#
# Static dielectric constant tensor:
#      x y z
#    x 1.730000 0.000000 0.000000 
#    y 0.000000 1.671280 0.000000 
#    z 0.000000 0.000000 1.707850 
# 
# From -- ./inp_files/5686.got.cif
#   From: 2010.05.17/outbox.cif.g08.bks.cpg/sg38_3_cif.got.tgz:5686.got - 2010.06.03 18:07:57.
