data_PCOD9356819
_publ_section_title
;
Structure prediction by ZEFSAII (Michael W. Deem and Ramdas Pophale) SiO2 
 PCOD9356819
Probable space group: A M M 2
;
_chemical_formula_sum "Si O2"
_cell_formula_units_Z 64
_cell_length_a 21.030408
_cell_length_b 9.177250
_cell_length_c 18.796974
_cell_angle_alpha 90.000000
_cell_angle_beta 90.000000
_cell_angle_gamma 90.000000
_cell_volume 3627.840640
_symmetry_space_group_name_H-M "A M M 2"
_symmetry_group_IT_number 38
_symmetry_cell_setting 'orthorhombic'
loop_
_space_group_symop_operation_xyz
x,y,z
-x,-y,z
-x,y,z
x,-y,z
x,1/2+y,1/2+z
-x,1/2-y,1/2+z
-x,1/2+y,1/2+z
x,1/2-y,1/2+z
loop_
_atom_site_type_symbol
_atom_site_label
_atom_site_fract_x
_atom_site_fract_y
_atom_site_fract_z
Si Si1 0.199633 0.674022 0.211640
Si Si2 0.574977 0.673062 0.200833
Si Si3 0.322850 0.673098 0.957712
Si Si4 0.682961 0.172838 0.289050
Si Si5 0.070853 0.670295 0.712745
Si Si6 0.930461 0.829868 0.040014
Si Si7 0.197290 0.173866 0.543318
Si Si8 0.425221 0.671738 0.550418
O O1 0.203406 0.500000 0.220027
O O2 0.255789 0.753403 0.253254
O O3 0.130640 0.733620 0.235595
O O4 0.206285 0.708043 0.127115
O O5 0.500000 0.695606 0.216188
O O6 0.587314 0.500000 0.199409
O O7 0.620538 0.752057 0.256423
O O8 0.588128 0.742083 0.123462
O O9 0.332472 0.500000 0.971332
O O10 0.315557 0.693493 0.873749
O O11 0.258815 0.719100 0.998828
O O12 0.381360 0.762195 0.989486
O O13 0.682383 0.000000 0.274059
O O14 0.080428 0.500000 0.731315
O O15 0.069493 0.677889 0.626397
O O16 0.000000 0.715053 0.737339
O O17 0.867915 0.745529 0.016513
O O18 0.000000 0.774565 0.016156
O O19 0.925762 0.000000 0.021142
O O20 0.190972 0.000000 0.537776
O O21 0.500000 0.690344 0.534194
O O22 0.413105 0.500000 0.560522
#
# Coordination Sequence:
#
# PCOD9356819 Si02
#       8
#     8   8   8   8   8   8   8   8
#     4  10  19  31  51  77 104 135 172 218 269 319
#     4  10  21  38  60  83 108 138 171 212 263 315
#     4  10  22  38  54  75 106 143 180 218 261 309
#     4  11  23  37  54  76 105 142 182 222 262 310
#     4   8  14  26  45  70 101 134 167 208 260 316
#     4   8  14  25  43  70 101 129 160 202 253 306
#     4   9  18  32  50  73 100 131 169 211 256 308
#     4  10  21  37  59  86 111 136 171 213 256 309
#
# _framework density 17.641348000000001
#
# number of rings (size 3 to 8) (size 9 to 14) (size 15 to 20)
#    0.000    2.500    0.000    3.000    0.000    5.500 
#    0.000    5.000    0.000    0.750    0.000    1.750 
#    0.000    0.000    0.000    0.000    0.000    0.000 
#
# Total GULP energy -178495.640192 kJ/mol
# GULP energy per Si atom -5577.988756 kJ/mol
# Density = 1.760120 g / cm^3
# Si number density = 17.641348 Si / 1000 Ang^3
#
#
#
# Elastic Constant Matrix: (Units=GPa)
#
#
# Indices 1 2 3 4 5 6 
#
# 1 117.2811 80.1616 66.4941 0.0000 0.0000 0.0000
# 2 80.1616 85.8968 56.5479 0.0000 0.0000 0.0000
# 3 66.4941 56.5479 56.4474 0.0000 0.0000 0.0000
# 4 0.0000 0.0000 0.0000 21.7810 0.0000 0.0000
# 5 0.0000 0.0000 0.0000 0.0000 -8.1602 0.0000
# 6 0.0000 0.0000 0.0000 0.0000 0.0000 36.0067
#
#
#
# Elastic Compliance Matrix: (Units=1/GPa)
#
#
# Indices 1 2 3 4 5 6 
#
# 1 0.030604 -0.014177 -0.021848 0.000000 0.000000 0.000000
# 2 -0.014177 0.040758 -0.024130 0.000000 0.000000 0.000000
# 3 -0.021848 -0.024130 0.067625 0.000000 0.000000 0.000000
# 4 0.000000 0.000000 0.000000 0.045912 0.000000 0.000000
# 5 0.000000 0.000000 0.000000 0.000000 -0.122546 0.000000
# 6 0.000000 0.000000 0.000000 0.000000 0.000000 0.027773
#
#
# Mechanical properties :
#
#
# Convention : Reuss Voigt Hill
#
# Bulk Modulus (GPa) = 53.54410 74.00359 63.77384
# Shear Modulus (GPa) = 23.07759 13.68695 18.38227
#
# Velocity S-wave (km/s) = 3.62076 2.78842 3.23150
# Velocity P-wave (km/s) = 6.92079 7.23927 7.08182
#
# Compressibility (1/GPa) = 0.01867619
#
# Stress axis : x y z
#
# Youngs Moduli (GPa) = 32.67571 24.53534 14.78742
#
# Poissons Ratio (x) = 0.34784 0.32308
# Poissons Ratio (y) = 0.46325 0.35681
# Poissons Ratio (z) = 0.71391 0.59203
#
# Static dielectric constant tensor:
#      x y z
#    x 1.605240 0.000000 0.000000 
#    y 0.000000 1.588110 0.000000 
#    z 0.000000 0.000000 1.576320 
# 
# From -- ./inp_files/18965.got.cif
#   From: 2010.05.17/outbox.cif.g08.bks.cpg/sg38_10_cif.got.tgz:18965.got - 2010.06.03 18:07:57.
