data_PCOD9356441
_publ_section_title
;
Structure prediction by ZEFSAII (Michael W. Deem and Ramdas Pophale) SiO2 
 PCOD9356441
Probable space group: A M M 2
;
_chemical_formula_sum "Si O2"
_cell_formula_units_Z 48
_cell_length_a 7.511227
_cell_length_b 32.002254
_cell_length_c 9.904680
_cell_angle_alpha 90.000000
_cell_angle_beta 90.000000
_cell_angle_gamma 90.000000
_cell_volume 2380.849284
_symmetry_space_group_name_H-M "A M M 2"
_symmetry_group_IT_number 38
_symmetry_cell_setting 'orthorhombic'
loop_
_space_group_symop_operation_xyz
x,y,z
-x,-y,z
-x,y,z
x,-y,z
x,1/2+y,1/2+z
-x,1/2-y,1/2+z
-x,1/2+y,1/2+z
x,1/2-y,1/2+z
loop_
_atom_site_type_symbol
_atom_site_label
_atom_site_fract_x
_atom_site_fract_y
_atom_site_fract_z
Si Si1 0.000000 0.786047 0.495090
Si Si2 0.786481 0.093412 0.798134
Si Si3 0.715104 0.416977 0.815379
Si Si4 0.282419 0.500000 0.961690
Si Si5 0.000000 0.797828 0.169662
Si Si6 0.794702 0.000000 0.776622
Si Si7 0.290624 0.636022 0.576682
Si Si8 0.294957 0.352184 0.038241
O O1 0.000000 0.785684 0.329787
O O2 0.830228 0.812352 0.547282
O O3 0.000000 0.741790 0.569768
O O4 0.718577 0.045589 0.816875
O O5 0.717358 0.115754 0.663161
O O6 0.000000 0.091009 0.785273
O O7 0.739455 0.123199 0.922694
O O8 0.500000 0.419187 0.821720
O O9 0.779338 0.459498 0.880378
O O10 0.763319 0.404772 0.664438
O O11 0.769401 0.378552 0.909358
O O12 0.500000 0.500000 0.969605
O O13 0.213947 0.500000 0.113784
O O14 0.829536 0.826219 0.129911
O O15 0.000000 0.000000 0.822548
O O16 0.500000 0.644511 0.599354
O O17 0.500000 0.340092 0.019792
#
# Coordination Sequence:
#
# PCOD9356441 Si02
#       8
#     4   8   8   4   4   4   8   8
#     4  12  28  46  72  99 132 168 207 272 335 397
#     4  11  22  39  64  96 138 181 224 269 322 381
#     4   9  19  36  62  92 123 169 217 260 312 370
#     4  10  18  33  58  90 129 167 223 275 307 366
#     4  12  28  48  72  99 130 164 207 270 337 399
#     4  10  22  35  54  94 137 175 221 271 315 374
#     4  11  24  45  69  94 132 176 216 265 328 393
#     4  11  22  41  68  96 129 174 219 261 320 390
#
# _framework density 20.160872999999999
#
# number of rings (size 3 to 8) (size 9 to 14) (size 15 to 20)
#    0.000    1.333    5.000    0.500    2.333    2.000 
#    1.500    0.833    0.000    0.000    0.000    0.000 
#    0.000    0.000    0.000    0.000    0.000    0.000 
#
# Total GULP energy -134034.933802 kJ/mol
# GULP energy per Si atom -5584.788908 kJ/mol
# Density = 2.011499 g / cm^3
# Si number density = 20.160873 Si / 1000 Ang^3
#
#
#
# Elastic Constant Matrix: (Units=GPa)
#
#
# Indices 1 2 3 4 5 6 
#
# 1 99.7284 36.4966 3.8903 0.0000 0.0000 0.0000
# 2 36.4966 120.0879 20.1359 0.0000 0.0000 0.0000
# 3 3.8903 20.1359 78.5082 0.0000 0.0000 0.0000
# 4 0.0000 0.0000 0.0000 35.2195 0.0000 0.0000
# 5 0.0000 0.0000 0.0000 0.0000 18.4604 0.0000
# 6 0.0000 0.0000 0.0000 0.0000 0.0000 -3.3876
#
#
#
# Elastic Compliance Matrix: (Units=1/GPa)
#
#
# Indices 1 2 3 4 5 6 
#
# 1 0.011290 -0.003488 0.000335 0.000000 0.000000 0.000000
# 2 -0.003488 0.009779 -0.002335 0.000000 0.000000 0.000000
# 3 0.000335 -0.002335 0.013320 0.000000 0.000000 0.000000
# 4 0.000000 0.000000 0.000000 0.028393 0.000000 0.000000
# 5 0.000000 0.000000 0.000000 0.000000 0.054170 0.000000
# 6 0.000000 0.000000 0.000000 0.000000 0.000000 -0.295198
#
#
# Mechanical properties :
#
#
# Convention : Reuss Voigt Hill
#
# Bulk Modulus (GPa) = 42.71032 46.59666 44.65349
# Shear Modulus (GPa) = -31.35476 25.91192 -2.72142
#
# Velocity S-wave (km/s) = -3.94792 3.58894 -1.16309
# Velocity P-wave (km/s) = 0.67034 6.35111 4.51586
#
# Compressibility (1/GPa) = 0.02341355
#
# Stress axis : x y z
#
# Youngs Moduli (GPa) = 88.57036 102.26298 75.07576
#
# Poissons Ratio (x) = 0.35664 -0.02515
# Poissons Ratio (y) = 0.30889 0.17532
# Poissons Ratio (z) = -0.02967 0.23881
#
# Static dielectric constant tensor:
#      x y z
#    x 1.729400 0.000000 0.000000 
#    y 0.000000 1.706530 0.000000 
#    z 0.000000 0.000000 1.680490 
# 
# From -- ./inp_files/3905.got.cif
#   From: 2010.05.17/outbox.cif.g08.bks.cpg/sg38_2_cif.got.tgz:3905.got - 2010.06.03 18:07:57.
