data_PCOD9356702
_publ_section_title
;
Structure prediction by ZEFSAII (Michael W. Deem and Ramdas Pophale) SiO2 
 PCOD9356702
Probable space group: A M M 2
;
_chemical_formula_sum "Si O2"
_cell_formula_units_Z 40
_cell_length_a 8.185885
_cell_length_b 7.646266
_cell_length_c 29.348282
_cell_angle_alpha 90.000000
_cell_angle_beta 90.000000
_cell_angle_gamma 90.000000
_cell_volume 1836.951647
_symmetry_space_group_name_H-M "A M M 2"
_symmetry_group_IT_number 38
_symmetry_cell_setting 'orthorhombic'
loop_
_space_group_symop_operation_xyz
x,y,z
-x,-y,z
-x,y,z
x,-y,z
x,1/2+y,1/2+z
-x,1/2-y,1/2+z
-x,1/2+y,1/2+z
x,1/2-y,1/2+z
loop_
_atom_site_type_symbol
_atom_site_label
_atom_site_fract_x
_atom_site_fract_y
_atom_site_fract_z
Si Si1 0.695634 0.295362 0.412930
Si Si2 0.813545 0.211700 0.816245
Si Si3 0.000000 0.298702 0.678409
Si Si4 0.312148 0.288250 0.514372
Si Si5 0.325069 0.294531 0.721748
Si Si6 0.000000 0.202512 0.576256
O O1 0.500000 0.289676 0.407724
O O2 0.746108 0.500000 0.414435
O O3 0.772229 0.221803 0.366868
O O4 0.730569 0.222742 0.463181
O O5 0.700868 0.279626 0.775903
O O6 0.000000 0.256588 0.804974
O O7 0.797757 0.000000 0.816729
O O8 0.165987 0.216367 0.697649
O O9 0.000000 0.500000 0.695323
O O10 0.000000 0.300675 0.624142
O O11 0.500000 0.231923 0.525566
O O12 0.318211 0.500000 0.512396
O O13 0.165166 0.240797 0.547908
O O14 0.500000 0.216710 0.708954
O O15 0.330667 0.500000 0.709588
O O16 0.000000 0.000000 0.587980
#
# Coordination Sequence:
#
# PCOD9356702 Si02
#       6
#     8   8   4   8   8   4
#     4   8  15  29  51  81 113 146 189 236 273 314
#     4  10  19  30  51  85 120 152 186 226 275 329
#     4  10  22  42  61  80 107 141 190 245 283 336
#     4   9  19  38  64  89 114 152 202 245 280 331
#     4  10  21  38  60  83 109 145 187 231 280 331
#     4  12  26  40  59  88 121 151 182 235 305 364
#
# _framework density 21.775205
#
# number of rings (size 3 to 8) (size 9 to 14) (size 15 to 20)
#    0.000    2.400    1.000    2.700    1.400    3.200 
#    0.000    3.000    0.000    1.200    0.000    0.000 
#    0.000    0.000    0.000    0.000    0.000    0.000 
#
# Total GULP energy -111603.923713 kJ/mol
# GULP energy per Si atom -5580.196186 kJ/mol
# Density = 2.172564 g / cm^3
# Si number density = 21.775205 Si / 1000 Ang^3
#
#
#
# Elastic Constant Matrix: (Units=GPa)
#
#
# Indices 1 2 3 4 5 6 
#
# 1 163.7941 7.9638 77.0704 0.0000 0.0000 0.0000
# 2 7.9638 49.0636 -11.1458 0.0000 0.0000 0.0000
# 3 77.0704 -11.1458 99.8587 0.0000 0.0000 0.0000
# 4 0.0000 0.0000 0.0000 15.4011 0.0000 0.0000
# 5 0.0000 0.0000 0.0000 0.0000 -19.4663 0.0000
# 6 0.0000 0.0000 0.0000 0.0000 0.0000 5.3000
#
#
#
# Elastic Compliance Matrix: (Units=1/GPa)
#
#
# Indices 1 2 3 4 5 6 
#
# 1 0.010145 -0.003514 -0.008222 0.000000 0.000000 0.000000
# 2 -0.003514 0.022129 0.005182 0.000000 0.000000 0.000000
# 3 -0.008222 0.005182 0.016938 0.000000 0.000000 0.000000
# 4 0.000000 0.000000 0.000000 0.064931 0.000000 0.000000
# 5 0.000000 0.000000 0.000000 0.000000 -0.051371 0.000000
# 6 0.000000 0.000000 0.000000 0.000000 0.000000 0.188681
#
#
# Mechanical properties :
#
#
# Convention : Reuss Voigt Hill
#
# Bulk Modulus (GPa) = 27.69735 51.16591 39.43163
# Shear Modulus (GPa) = 18.07692 16.16882 17.12287
#
# Velocity S-wave (km/s) = 2.88438 2.72790 2.80723
# Velocity P-wave (km/s) = 4.88264 5.78535 5.35306
#
# Compressibility (1/GPa) = 0.03610454
#
# Stress axis : x y z
#
# Youngs Moduli (GPa) = 98.57272 45.18862 59.03798
#
# Poissons Ratio (x) = 0.15881 0.48541
# Poissons Ratio (y) = 0.34643 -0.30596
# Poissons Ratio (z) = 0.81046 -0.23419
#
# Static dielectric constant tensor:
#      x y z
#    x 1.807080 0.000000 0.000000 
#    y 0.000000 1.825410 0.000000 
#    z 0.000000 0.000000 1.779250 
# 
# From -- ./inp_files/23227.got.cif
#   From: 2010.05.17/outbox.cif.g08.bks.cpg/sg38_12_cif.got.tgz:23227.got - 2010.06.03 18:07:57.
