data_PCOD9356223
_publ_section_title
;
Structure prediction by ZEFSAII (Michael W. Deem and Ramdas Pophale) SiO2 
 PCOD9356223
Probable space group: A M M 2
;
_chemical_formula_sum "Si O2"
_cell_formula_units_Z 64
_cell_length_a 20.503948
_cell_length_b 8.452910
_cell_length_c 20.766233
_cell_angle_alpha 90.000000
_cell_angle_beta 90.000000
_cell_angle_gamma 90.000000
_cell_volume 3599.162534
_symmetry_space_group_name_H-M "A M M 2"
_symmetry_group_IT_number 38
_symmetry_cell_setting 'orthorhombic'
loop_
_space_group_symop_operation_xyz
x,y,z
-x,-y,z
-x,y,z
x,-y,z
x,1/2+y,1/2+z
-x,1/2-y,1/2+z
-x,1/2+y,1/2+z
x,1/2-y,1/2+z
loop_
_atom_site_type_symbol
_atom_site_label
_atom_site_fract_x
_atom_site_fract_y
_atom_site_fract_z
Si Si1 0.808891 0.312107 0.509890
Si Si2 0.320663 0.190423 0.323930
Si Si3 0.822810 0.308682 0.870234
Si Si4 0.425647 0.306555 0.928948
Si Si5 0.843624 0.810678 0.645821
Si Si6 0.334962 0.191303 0.543933
Si Si7 0.303215 0.190524 0.684084
Si Si8 0.925788 0.808883 0.262381
O O1 0.808118 0.500000 0.509812
O O2 0.835697 0.249300 0.442303
O O3 0.846745 0.251872 0.573058
O O4 0.734709 0.249307 0.517595
O O5 0.249461 0.245888 0.348365
O O6 0.377883 0.245561 0.371426
O O7 0.329418 0.241482 0.250417
O O8 0.319701 0.000000 0.326738
O O9 0.822280 0.500000 0.870529
O O10 0.876485 0.254824 0.818540
O O11 0.500000 0.252884 0.922480
O O12 0.426257 0.500000 0.928262
O O13 0.392120 0.257832 0.996145
O O14 0.772500 0.760900 0.673803
O O15 0.897928 0.747964 0.694156
O O16 0.844584 0.000000 0.644211
O O17 0.339741 0.240620 0.618532
O O18 0.332525 0.000000 0.543034
O O19 0.304853 0.000000 0.687575
O O20 0.000000 0.755905 0.272699
O O21 0.925006 0.000000 0.262704
#
# Coordination Sequence:
#
# PCOD9356223 Si02
#       8
#     8   8   8   8   8   8   8   8
#     4  11  21  32  53  82 108 136 177 226 273 315
#     4  10  18  30  52  77 102 135 175 216 261 313
#     4  10  19  34  54  78 109 142 177 219 267 321
#     4   9  17  31  52  75 100 136 182 222 260 316
#     4  10  20  35  55  79 108 141 177 220 267 320
#     4   9  17  33  52  74 103 136 174 220 269 318
#     4   9  18  30  49  76 104 130 166 215 263 307
#     4  10  21  37  57  81 110 143 178 218 268 325
#
# _framework density 17.781914
#
# number of rings (size 3 to 8) (size 9 to 14) (size 15 to 20)
#    0.000    2.250    2.500    2.250    0.000    3.250 
#    0.000    1.250    0.000    4.500    0.000    0.000 
#    0.000    0.000    0.000    0.000    0.000    0.000 
#
# Total GULP energy -178523.400984 kJ/mol
# GULP energy per Si atom -5578.856281 kJ/mol
# Density = 1.774144 g / cm^3
# Si number density = 17.781914 Si / 1000 Ang^3
#
#
#
# Elastic Constant Matrix: (Units=GPa)
#
#
# Indices 1 2 3 4 5 6 
#
# 1 128.7691 21.1683 93.1172 0.0000 0.0000 0.0000
# 2 21.1683 6.5284 18.9611 0.0000 0.0000 0.0000
# 3 93.1172 18.9611 173.9847 0.0000 0.0000 0.0000
# 4 0.0000 0.0000 0.0000 30.7507 0.0000 0.0000
# 5 0.0000 0.0000 0.0000 0.0000 25.2239 0.0000
# 6 0.0000 0.0000 0.0000 0.0000 0.0000 11.8235
#
#
#
# Elastic Compliance Matrix: (Units=1/GPa)
#
#
# Indices 1 2 3 4 5 6 
#
# 1 0.019337 -0.047759 -0.005144 0.000000 0.000000 0.000000
# 2 -0.047759 0.342073 -0.011719 0.000000 0.000000 0.000000
# 3 -0.005144 -0.011719 0.009778 0.000000 0.000000 0.000000
# 4 0.000000 0.000000 0.000000 0.032520 0.000000 0.000000
# 5 0.000000 0.000000 0.000000 0.000000 0.039645 0.000000
# 6 0.000000 0.000000 0.000000 0.000000 0.000000 0.084577
#
#
# Mechanical properties :
#
#
# Convention : Reuss Voigt Hill
#
# Bulk Modulus (GPa) = 4.13319 63.97506 34.05413
# Shear Modulus (GPa) = 6.77670 25.29534 16.03602
#
# Velocity S-wave (km/s) = 1.95430 3.77574 3.00628
# Velocity P-wave (km/s) = 2.72430 7.42051 5.58953
#
# Compressibility (1/GPa) = 0.24194374
#
# Stress axis : x y z
#
# Youngs Moduli (GPa) = 51.71441 2.92335 102.26968
#
# Poissons Ratio (x) = 0.13962 0.52611
# Poissons Ratio (y) = 2.46982 1.19850
# Poissons Ratio (z) = 0.26604 0.03426
#
# Static dielectric constant tensor:
#      x y z
#    x 1.596280 0.000000 0.000000 
#    y 0.000000 1.608780 0.000000 
#    z 0.000000 0.000000 1.604790 
# 
# From -- ./inp_files/21408.got.cif
#   From: 2010.05.17/outbox.cif.g08.bks.cpg/sg38_11_cif.got.tgz:21408.got - 2010.06.03 18:07:57.
