data_PCOD9356244
_publ_section_title
;
Structure prediction by ZEFSAII (Michael W. Deem and Ramdas Pophale) SiO2 
 PCOD9356244
Probable space group: A M M 2
;
_chemical_formula_sum "Si O2"
_cell_formula_units_Z 48
_cell_length_a 7.381373
_cell_length_b 18.932436
_cell_length_c 15.793434
_cell_angle_alpha 90.000000
_cell_angle_beta 90.000000
_cell_angle_gamma 90.000000
_cell_volume 2207.090895
_symmetry_space_group_name_H-M "A M M 2"
_symmetry_group_IT_number 38
_symmetry_cell_setting 'orthorhombic'
loop_
_space_group_symop_operation_xyz
x,y,z
-x,-y,z
-x,y,z
x,-y,z
x,1/2+y,1/2+z
-x,1/2-y,1/2+z
-x,1/2+y,1/2+z
x,1/2-y,1/2+z
loop_
_atom_site_type_symbol
_atom_site_label
_atom_site_fract_x
_atom_site_fract_y
_atom_site_fract_z
Si Si1 0.779314 0.076127 0.269910
Si Si2 0.779926 0.500000 0.445555
Si Si3 0.788969 0.340994 0.205154
Si Si4 0.297531 0.000000 0.750544
Si Si5 0.219640 0.110754 0.082881
Si Si6 0.778132 0.727090 0.844752
Si Si7 0.220320 0.767886 0.539507
O O1 0.722232 0.079116 0.171901
O O2 0.722970 0.149825 0.311119
O O3 0.000000 0.076926 0.271973
O O4 0.722635 0.000000 0.306698
O O5 0.706514 0.500000 0.352031
O O6 0.723029 0.432891 0.501110
O O7 0.000000 0.500000 0.438441
O O8 0.780748 0.424212 0.223794
O O9 0.717196 0.290451 0.281428
O O10 0.000000 0.321240 0.201353
O O11 0.716555 0.322860 0.111250
O O12 0.500000 0.000000 0.717123
O O13 0.000000 0.107133 0.082863
O O14 0.269742 0.191777 0.076687
O O15 0.717520 0.730904 0.942336
O O16 0.000000 0.729801 0.845471
O O17 0.000000 0.772692 0.534071
#
# Coordination Sequence:
#
# PCOD9356244 Si02
#       7
#     8   4   8   4   8   8   8
#     4   9  14  22  37  66 112 147 161 192 255 312
#     4  10  18  30  54  83 108 136 170 209 260 323
#     4  10  19  35  57  77 105 142 179 217 259 313
#     4  12  26  40  52  71 104 138 176 227 274 311
#     4   9  14  23  43  74 108 134 162 205 256 307
#     4   9  16  27  46  76 111 141 170 211 258 305
#     4   9  16  26  44  72 103 136 174 212 251 298
#
# _framework density 21.748086000000001
#
# number of rings (size 3 to 8) (size 9 to 14) (size 15 to 20)
#    0.000    2.500    2.500    1.750    0.000    2.667 
#    1.500    0.000    0.000    4.000    0.000    0.000 
#    0.000    0.000    0.000    0.000    0.000    0.000 
#
# Total GULP energy -133876.781075 kJ/mol
# GULP energy per Si atom -5578.199211 kJ/mol
# Density = 2.169859 g / cm^3
# Si number density = 21.748086 Si / 1000 Ang^3
#
#
#
# Elastic Constant Matrix: (Units=GPa)
#
#
# Indices 1 2 3 4 5 6 
#
# 1 69.5151 -5.3043 5.1813 0.0000 0.0000 0.0000
# 2 -5.3043 157.6051 77.0434 0.0000 0.0000 0.0000
# 3 5.1813 77.0434 135.4775 0.0000 0.0000 0.0000
# 4 0.0000 0.0000 0.0000 7.3199 0.0000 0.0000
# 5 0.0000 0.0000 0.0000 0.0000 -66.1750 0.0000
# 6 0.0000 0.0000 0.0000 0.0000 0.0000 -23.8872
#
#
#
# Elastic Compliance Matrix: (Units=1/GPa)
#
#
# Indices 1 2 3 4 5 6 
#
# 1 0.014552 0.001055 -0.001157 0.000000 0.000000 0.000000
# 2 0.001055 0.008864 -0.005081 0.000000 0.000000 0.000000
# 3 -0.001157 -0.005081 0.010315 0.000000 0.000000 0.000000
# 4 0.000000 0.000000 0.000000 0.136614 0.000000 0.000000
# 5 0.000000 0.000000 0.000000 0.000000 -0.015111 0.000000
# 6 0.000000 0.000000 0.000000 0.000000 0.000000 -0.041863
#
#
# Mechanical properties :
#
#
# Convention : Reuss Voigt Hill
#
# Bulk Modulus (GPa) = 42.79706 57.38204 50.08955
# Shear Modulus (GPa) = 38.01552 2.49671 20.25611
#
# Velocity S-wave (km/s) = 4.18544 1.07262 3.05519
# Velocity P-wave (km/s) = 6.56342 5.28925 5.96048
#
# Compressibility (1/GPa) = 0.02336609
#
# Stress axis : x y z
#
# Youngs Moduli (GPa) = 68.71871 112.80994 96.94412
#
# Poissons Ratio (x) = -0.11903 0.11212
# Poissons Ratio (y) = -0.07251 0.49261
# Poissons Ratio (z) = 0.07948 0.57323
#
# Static dielectric constant tensor:
#      x y z
#    x 1.854390 0.000000 0.000000 
#    y 0.000000 1.797510 0.000000 
#    z 0.000000 0.000000 1.764050 
# 
# From -- ./inp_files/12138.got.cif
#   From: 2010.05.17/outbox.cif.g08.bks.cpg/sg38_7_cif.got.tgz:12138.got - 2010.06.03 18:07:57.
