data_PCOD9356880
_publ_section_title
;
Structure prediction by ZEFSAII (Michael W. Deem and Ramdas Pophale) SiO2 
 PCOD9356880
Probable space group: A M M 2
;
_chemical_formula_sum "Si O2"
_cell_formula_units_Z 64
_cell_length_a 17.680593
_cell_length_b 7.462544
_cell_length_c 22.726632
_cell_angle_alpha 90.000000
_cell_angle_beta 90.000000
_cell_angle_gamma 90.000000
_cell_volume 2998.601898
_symmetry_space_group_name_H-M "A M M 2"
_symmetry_group_IT_number 38
_symmetry_cell_setting 'orthorhombic'
loop_
_space_group_symop_operation_xyz
x,y,z
-x,-y,z
-x,y,z
x,-y,z
x,1/2+y,1/2+z
-x,1/2-y,1/2+z
-x,1/2+y,1/2+z
x,1/2-y,1/2+z
loop_
_atom_site_type_symbol
_atom_site_label
_atom_site_fract_x
_atom_site_fract_y
_atom_site_fract_z
Si Si1 0.750333 0.202938 0.354100
Si Si2 0.413138 0.218782 0.301930
Si Si3 0.915209 0.793608 0.320915
Si Si4 0.081269 0.716501 0.184852
Si Si5 0.224037 0.284947 0.113757
Si Si6 0.730013 0.289577 0.484240
Si Si7 0.420490 0.218595 0.041709
Si Si8 0.617520 0.293332 0.669266
O O1 0.666074 0.274821 0.335010
O O2 0.832178 0.286870 0.336525
O O3 0.754729 0.199228 0.424602
O O4 0.751491 0.000000 0.329269
O O5 0.500000 0.273144 0.320375
O O6 0.401776 0.278524 0.233595
O O7 0.413374 0.000000 0.304505
O O8 0.914970 0.790488 0.250351
O O9 0.000000 0.719919 0.337937
O O10 0.914430 0.000000 0.342285
O O11 0.086058 0.500000 0.190159
O O12 0.148664 0.778244 0.144623
O O13 0.000000 0.761800 0.158873
O O14 0.229188 0.500000 0.115544
O O15 0.294121 0.214049 0.152280
O O16 0.225783 0.230688 0.045521
O O17 0.725311 0.500000 0.470567
O O18 0.648205 0.217332 0.503215
O O19 0.500000 0.265473 0.014635
O O20 0.416767 0.284232 0.109027
O O21 0.414003 0.000000 0.044813
O O22 0.592761 0.500000 0.671952
#
# Coordination Sequence:
#
# PCOD9356880 Si02
#       8
#     8   8   8   8   8   8   8   8
#     4  10  20  34  51  71  99 134 169 207 249 289
#     4   9  17  29  48  75 104 134 167 201 241 293
#     4   9  18  33  54  79 103 129 164 203 243 290
#     4   9  18  32  51  77 105 129 154 189 239 297
#     4  10  19  32  51  73  99 129 159 198 249 298
#     4  10  21  35  51  70  93 126 169 210 245 289
#     4   8  14  26  46  70  92 117 155 202 245 284
#     4   9  16  28  49  74  99 128 162 199 239 289
#
# _framework density 21.343278999999999
#
# number of rings (size 3 to 8) (size 9 to 14) (size 15 to 20)
#    0.000    2.750    0.000    2.625    0.000    4.500 
#    0.000    1.250    0.000   16.875    0.000    0.000 
#    0.000    0.000    0.000    0.000    0.000    0.000 
#
# Total GULP energy -178171.481377 kJ/mol
# GULP energy per Si atom -5567.858793 kJ/mol
# Density = 2.129470 g / cm^3
# Si number density = 21.343279 Si / 1000 Ang^3
#
#
#
# Elastic Constant Matrix: (Units=GPa)
#
#
# Indices 1 2 3 4 5 6 
#
# 1 206.9792 3.7565 64.3790 0.0000 0.0000 0.0000
# 2 3.7565 68.0073 -4.1480 0.0000 0.0000 0.0000
# 3 64.3790 -4.1480 64.4395 0.0000 0.0000 0.0000
# 4 0.0000 0.0000 0.0000 9.0847 0.0000 0.0000
# 5 0.0000 0.0000 0.0000 0.0000 -78.6445 0.0000
# 6 0.0000 0.0000 0.0000 0.0000 0.0000 16.3517
#
#
#
# Elastic Compliance Matrix: (Units=1/GPa)
#
#
# Indices 1 2 3 4 5 6 
#
# 1 0.007055 -0.000823 -0.007102 0.000000 0.000000 0.000000
# 2 -0.000823 0.014858 0.001779 0.000000 0.000000 0.000000
# 3 -0.007102 0.001779 0.022728 0.000000 0.000000 0.000000
# 4 0.000000 0.000000 0.000000 0.110075 0.000000 0.000000
# 5 0.000000 0.000000 0.000000 0.000000 -0.012715 0.000000
# 6 0.000000 0.000000 0.000000 0.000000 0.000000 0.061156
#
#
# Mechanical properties :
#
#
# Convention : Reuss Voigt Hill
#
# Bulk Modulus (GPa) = 30.91244 51.93345 41.42295
# Shear Modulus (GPa) = 22.10129 7.72095 14.91112
#
# Velocity S-wave (km/s) = 3.22143 1.90404 2.64603
# Velocity P-wave (km/s) = 5.32463 5.40547 5.36520
#
# Compressibility (1/GPa) = 0.03234944
#
# Stress axis : x y z
#
# Youngs Moduli (GPa) = 141.73911 67.30281 43.99893
#
# Poissons Ratio (x) = 0.05538 0.31246
# Poissons Ratio (y) = 0.11663 -0.07825
# Poissons Ratio (z) = 1.00657 -0.11970
#
# Static dielectric constant tensor:
#      x y z
#    x 1.881380 0.000000 0.000000 
#    y 0.000000 1.834710 0.000000 
#    z 0.000000 0.000000 1.721740 
# 
# From -- ./inp_files/21416.got.cif
#   From: 2010.05.17/outbox.cif.g08.bks.cpg/sg38_11_cif.got.tgz:21416.got - 2010.06.03 18:07:57.
