data_PCOD9356347
_publ_section_title
;
Structure prediction by ZEFSAII (Michael W. Deem and Ramdas Pophale) SiO2 
 PCOD9356347
Probable space group: A M M 2
;
_chemical_formula_sum "Si O2"
_cell_formula_units_Z 64
_cell_length_a 19.368382
_cell_length_b 17.225418
_cell_length_c 9.700701
_cell_angle_alpha 90.000000
_cell_angle_beta 90.000000
_cell_angle_gamma 90.000000
_cell_volume 3236.430090
_symmetry_space_group_name_H-M "A M M 2"
_symmetry_group_IT_number 38
_symmetry_cell_setting 'orthorhombic'
loop_
_space_group_symop_operation_xyz
x,y,z
-x,-y,z
-x,y,z
x,-y,z
x,1/2+y,1/2+z
-x,1/2-y,1/2+z
-x,1/2+y,1/2+z
x,1/2-y,1/2+z
loop_
_atom_site_type_symbol
_atom_site_label
_atom_site_fract_x
_atom_site_fract_y
_atom_site_fract_z
Si Si1 0.262229 0.411769 0.412820
Si Si2 0.893292 0.085667 0.005561
Si Si3 0.277507 0.090028 0.600764
Si Si4 0.079434 0.089123 0.681126
Si Si5 0.423670 0.833082 0.631858
Si Si6 0.630498 0.787425 0.919568
Si Si7 0.860376 0.262103 0.616340
Si Si8 0.768609 0.296959 0.878355
O O1 0.287886 0.500000 0.401042
O O2 0.190451 0.415388 0.493144
O O3 0.250065 0.383956 0.252843
O O4 0.323063 0.359094 0.472705
O O5 0.911563 0.165693 0.083342
O O6 0.914376 0.000000 0.060362
O O7 0.917847 0.090505 0.847504
O O8 0.358082 0.112904 0.599721
O O9 0.239967 0.125911 0.468986
O O10 0.269397 0.000000 0.595256
O O11 0.110216 0.173972 0.635886
O O12 0.000000 0.089284 0.634649
O O13 0.107394 0.000000 0.645040
O O14 0.500000 0.864042 0.601950
O O15 0.416677 0.813167 0.793183
O O16 0.409372 0.757170 0.538819
O O17 0.690544 0.731838 0.856604
O O18 0.814664 0.291531 0.744120
O O19 0.808983 0.256767 0.486721
#
# Coordination Sequence:
#
# PCOD9356347 Si02
#       8
#     8   8   8   8   8   8   8   8
#     4   9  16  31  55  81 108 141 183 232 289 352
#     4  10  20  35  59  88 120 154 189 236 295 355
#     4   9  19  33  52  78 111 146 185 238 296 351
#     4  10  22  41  63  86 117 163 210 241 284 357
#     4  10  20  32  51  73 101 144 190 235 281 344
#     4  10  18  32  50  76 105 137 181 229 290 341
#     4  12  21  37  59  93 120 154 194 247 299 349
#     4  11  21  33  56  84 118 146 185 238 299 353
#
# _framework density 19.774875000000002
#
# number of rings (size 3 to 8) (size 9 to 14) (size 15 to 20)
#    0.000    1.875    2.500    3.375    0.000    2.750 
#    0.000    0.000    0.000    1.125    0.000    0.000 
#    0.000    0.000    0.000    0.000    0.000    0.000 
#
# Total GULP energy -178200.983134 kJ/mol
# GULP energy per Si atom -5568.780723 kJ/mol
# Density = 1.972987 g / cm^3
# Si number density = 19.774875 Si / 1000 Ang^3
#
#
#
# Elastic Constant Matrix: (Units=GPa)
#
#
# Indices 1 2 3 4 5 6 
#
# 1 80.2758 23.3057 11.0615 0.0000 0.0000 0.0000
# 2 23.3057 113.1117 -2.0364 0.0000 0.0000 0.0000
# 3 11.0615 -2.0364 34.8095 0.0000 0.0000 0.0000
# 4 0.0000 0.0000 0.0000 28.2961 0.0000 0.0000
# 5 0.0000 0.0000 0.0000 0.0000 -7.4425 0.0000
# 6 0.0000 0.0000 0.0000 0.0000 0.0000 12.2908
#
#
#
# Elastic Compliance Matrix: (Units=1/GPa)
#
#
# Indices 1 2 3 4 5 6 
#
# 1 0.013950 -0.002957 -0.004606 0.000000 0.000000 0.000000
# 2 -0.002957 0.009477 0.001494 0.000000 0.000000 0.000000
# 3 -0.004606 0.001494 0.030279 0.000000 0.000000 0.000000
# 4 0.000000 0.000000 0.000000 0.035341 0.000000 0.000000
# 5 0.000000 0.000000 0.000000 0.000000 -0.134364 0.000000
# 6 0.000000 0.000000 0.000000 0.000000 0.000000 0.081361
#
#
# Mechanical properties :
#
#
# Convention : Reuss Voigt Hill
#
# Bulk Modulus (GPa) = 24.05701 32.53985 28.29843
# Shear Modulus (GPa) = 80.59510 19.68663 50.14086
#
# Velocity S-wave (km/s) = 6.39099 3.15864 5.04092
# Velocity P-wave (km/s) = 8.16404 5.45834 6.94425
#
# Compressibility (1/GPa) = 0.04156792
#
# Stress axis : x y z
#
# Youngs Moduli (GPa) = 71.68303 105.51821 33.02633
#
# Poissons Ratio (x) = 0.31205 0.15212
# Poissons Ratio (y) = 0.21199 -0.04935
# Poissons Ratio (z) = 0.33018 -0.15766
#
# Static dielectric constant tensor:
#      x y z
#    x 1.801830 0.000000 0.000000 
#    y 0.000000 1.792610 0.000000 
#    z 0.000000 0.000000 1.706940 
# 
# From -- ./inp_files/6834.got.cif
#   From: 2010.05.17/outbox.cif.g08.bks.cpg/sg38_4_cif.got.tgz:6834.got - 2010.06.03 18:07:57.
