data_PCOD9356047
_publ_section_title
;
Structure prediction by ZEFSAII (Michael W. Deem and Ramdas Pophale) SiO2 
 PCOD9356047
Probable space group: A M M 2
;
_chemical_formula_sum "Si O2"
_cell_formula_units_Z 64
_cell_length_a 14.367949
_cell_length_b 8.551059
_cell_length_c 28.826888
_cell_angle_alpha 90.000000
_cell_angle_beta 90.000000
_cell_angle_gamma 90.000000
_cell_volume 3541.705464
_symmetry_space_group_name_H-M "A M M 2"
_symmetry_group_IT_number 38
_symmetry_cell_setting 'orthorhombic'
loop_
_space_group_symop_operation_xyz
x,y,z
-x,-y,z
-x,y,z
x,-y,z
x,1/2+y,1/2+z
-x,1/2-y,1/2+z
-x,1/2+y,1/2+z
x,1/2-y,1/2+z
loop_
_atom_site_type_symbol
_atom_site_label
_atom_site_fract_x
_atom_site_fract_y
_atom_site_fract_z
Si Si1 0.109309 0.175455 0.500000
Si Si2 0.895191 0.190784 0.859418
Si Si3 0.890620 0.824641 0.609829
Si Si4 0.245234 0.320550 0.435105
Si Si5 0.607631 0.313436 0.108720
Si Si6 0.756612 0.677779 0.676547
Si Si7 0.608584 0.689056 0.508250
Si Si8 0.895091 0.188166 0.751184
O O1 0.122302 0.185768 0.554981
O O2 0.164848 0.307609 0.473725
O O3 0.000000 0.187159 0.490877
O O4 0.140418 0.000000 0.485437
O O5 0.808798 0.248813 0.890541
O O6 0.884672 0.231335 0.805319
O O7 0.000000 0.241330 0.874384
O O8 0.894993 0.000000 0.862623
O O9 0.834194 0.695397 0.636522
O O10 0.000000 0.815102 0.619390
O O11 0.859034 0.000000 0.624797
O O12 0.268941 0.500000 0.423696
O O13 0.332768 0.252628 0.463718
O O14 0.500000 0.261564 0.113563
O O15 0.610078 0.500000 0.105967
O O16 0.668392 0.260009 0.152527
O O17 0.642146 0.249414 0.058643
O O18 0.732834 0.500000 0.686491
O O19 0.810128 0.750732 0.720442
O O20 0.500000 0.732571 0.504017
O O21 0.615429 0.500000 0.509018
O O22 0.000000 0.240282 0.736204
O O23 0.895257 0.000000 0.748386
#
# Coordination Sequence:
#
# PCOD9356047 Si02
#       8
#     8   8   8   8   8   8   8   8
#     4   9  18  30  42  61  92 126 156 189 233 284
#     4   8  15  29  49  72  96 125 166 212 250 285
#     4   9  18  32  47  64  93 133 170 200 232 280
#     4  10  18  28  47  72  95 125 164 202 242 289
#     4  10  21  37  56  75  96 128 171 211 244 289
#     4  12  23  32  48  74 101 127 157 201 256 305
#     4   9  18  32  49  73 106 136 161 197 248 297
#     4   9  18  34  54  72  95 132 173 210 249 294
#
# _framework density 18.07039
#
# number of rings (size 3 to 8) (size 9 to 14) (size 15 to 20)
#    0.000    2.500    0.000    4.500    0.000    6.500 
#    0.000    1.875    0.000    1.500    0.000    3.500 
#    0.000    0.000    0.000    0.000    0.000    0.000 
#
# Total GULP energy -178281.375606 kJ/mol
# GULP energy per Si atom -5571.292988 kJ/mol
# Density = 1.802926 g / cm^3
# Si number density = 18.070390 Si / 1000 Ang^3
#
#
#
# Elastic Constant Matrix: (Units=GPa)
#
#
# Indices 1 2 3 4 5 6 
#
# 1 90.0922 12.8018 55.3008 0.0000 0.0000 0.0000
# 2 12.8018 19.9443 12.9435 0.0000 0.0000 0.0000
# 3 55.3008 12.9435 96.8089 0.0000 0.0000 0.0000
# 4 0.0000 0.0000 0.0000 12.5456 0.0000 0.0000
# 5 0.0000 0.0000 0.0000 0.0000 36.1033 0.0000
# 6 0.0000 0.0000 0.0000 0.0000 0.0000 17.6934
#
#
#
# Elastic Compliance Matrix: (Units=1/GPa)
#
#
# Indices 1 2 3 4 5 6 
#
# 1 0.017576 -0.005219 -0.009342 0.000000 0.000000 0.000000
# 2 -0.005219 0.056453 -0.004567 0.000000 0.000000 0.000000
# 3 -0.009342 -0.004567 0.016277 0.000000 0.000000 0.000000
# 4 0.000000 0.000000 0.000000 0.079709 0.000000 0.000000
# 5 0.000000 0.000000 0.000000 0.000000 0.027698 0.000000
# 6 0.000000 0.000000 0.000000 0.000000 0.000000 0.056518
#
#
# Mechanical properties :
#
#
# Convention : Reuss Voigt Hill
#
# Bulk Modulus (GPa) = 19.21207 40.99306 30.10256
# Shear Modulus (GPa) = 16.13751 21.65507 18.89629
#
# Velocity S-wave (km/s) = 2.99161 3.46551 3.23724
# Velocity P-wave (km/s) = 4.75267 6.22475 5.53784
#
# Compressibility (1/GPa) = 0.05205062
#
# Stress axis : x y z
#
# Youngs Moduli (GPa) = 56.89669 17.71377 61.43712
#
# Poissons Ratio (x) = 0.09244 0.57396
# Poissons Ratio (y) = 0.29692 0.28057
# Poissons Ratio (z) = 0.53154 0.08090
#
# Static dielectric constant tensor:
#      x y z
#    x 1.645310 0.000000 0.000000 
#    y 0.000000 1.660850 0.000000 
#    z 0.000000 0.000000 1.629730 
# 
# From -- ./inp_files/25105.got.cif
#   From: 2010.05.17/outbox.cif.g08.bks.cpg/sg38_13_cif.got.tgz:25105.got - 2010.06.03 18:07:57.
