data_PCOD9356889
_publ_section_title
;
Structure prediction by ZEFSAII (Michael W. Deem and Ramdas Pophale) SiO2 
 PCOD9356889
Probable space group: A M M 2
;
_chemical_formula_sum "Si O2"
_cell_formula_units_Z 64
_cell_length_a 7.696264
_cell_length_b 21.065530
_cell_length_c 20.523070
_cell_angle_alpha 90.000000
_cell_angle_beta 90.000000
_cell_angle_gamma 90.000000
_cell_volume 3327.320788
_symmetry_space_group_name_H-M "A M M 2"
_symmetry_group_IT_number 38
_symmetry_cell_setting 'orthorhombic'
loop_
_space_group_symop_operation_xyz
x,y,z
-x,-y,z
-x,y,z
x,-y,z
x,1/2+y,1/2+z
-x,1/2-y,1/2+z
-x,1/2+y,1/2+z
x,1/2-y,1/2+z
loop_
_atom_site_type_symbol
_atom_site_label
_atom_site_fract_x
_atom_site_fract_y
_atom_site_fract_z
Si Si1 0.798330 0.686869 0.913740
Si Si2 0.702992 0.252729 0.046370
Si Si3 0.211737 0.877097 0.188080
Si Si4 0.703547 0.771207 0.686396
Si Si5 0.210655 0.569987 0.405584
Si Si6 0.199825 0.108717 0.045480
Si Si7 0.705670 0.805435 0.825270
Si Si8 0.787509 0.929333 0.326790
O O1 0.785005 0.748737 0.867856
O O2 0.726105 0.626654 0.874306
O O3 0.000000 0.674295 0.926790
O O4 0.716578 0.704300 0.982873
O O5 0.500000 0.236775 0.056578
O O6 0.772114 0.283508 0.113450
O O7 0.795383 0.185118 0.036039
O O8 0.274063 0.804594 0.195134
O O9 0.273682 0.902726 0.117800
O O10 0.264852 0.914847 0.252307
O O11 0.000000 0.875577 0.185910
O O12 0.500000 0.788025 0.684811
O O13 0.776952 0.803213 0.751459
O O14 0.261890 0.500000 0.382380
O O15 0.276847 0.579963 0.479715
O O16 0.268387 0.627737 0.360553
O O17 0.000000 0.572779 0.407873
O O18 0.000000 0.086864 0.048062
O O19 0.500000 0.791869 0.822985
O O20 0.000000 0.927258 0.326951
O O21 0.733922 0.000000 0.346136
#
# Coordination Sequence:
#
# PCOD9356889 Si02
#       8
#     8   8   8   8   8   8   8   8
#     4  11  20  32  52  77 104 134 170 213 256 300
#     4  10  19  32  51  75 102 132 167 211 257 303
#     4   9  16  28  48  73 100 135 172 204 240 292
#     4   9  19  33  50  74 103 131 164 210 260 302
#     4  10  21  35  50  73 107 141 172 212 257 301
#     4   9  17  29  47  72 103 136 170 203 243 296
#     4  11  21  34  54  77 101 134 173 213 258 307
#     4   9  18  31  48  73 104 136 170 208 251 298
#
# _framework density 19.234694000000001
#
# number of rings (size 3 to 8) (size 9 to 14) (size 15 to 20)
#    0.000    2.250    2.500    1.125    0.000    1.750 
#    0.000    2.500    0.000    4.125    0.000    7.000 
#    0.000    0.000    0.000    0.000    0.000    0.000 
#
# Total GULP energy -178496.196879 kJ/mol
# GULP energy per Si atom -5578.006152 kJ/mol
# Density = 1.919091 g / cm^3
# Si number density = 19.234694 Si / 1000 Ang^3
#
#
#
# Elastic Constant Matrix: (Units=GPa)
#
#
# Indices 1 2 3 4 5 6 
#
# 1 34.8557 -11.9481 -2.6188 0.0000 0.0000 0.0000
# 2 -11.9481 95.7342 62.2166 0.0000 0.0000 0.0000
# 3 -2.6188 62.2166 140.4684 0.0000 0.0000 0.0000
# 4 0.0000 0.0000 0.0000 22.4878 0.0000 0.0000
# 5 0.0000 0.0000 0.0000 0.0000 5.9335 0.0000
# 6 0.0000 0.0000 0.0000 0.0000 0.0000 41.3599
#
#
#
# Elastic Compliance Matrix: (Units=1/GPa)
#
#
# Indices 1 2 3 4 5 6 
#
# 1 0.030212 0.004781 -0.001554 0.000000 0.000000 0.000000
# 2 0.004781 0.015424 -0.006743 0.000000 0.000000 0.000000
# 3 -0.001554 -0.006743 0.010076 0.000000 0.000000 0.000000
# 4 0.000000 0.000000 0.000000 0.044469 0.000000 0.000000
# 5 0.000000 0.000000 0.000000 0.000000 0.168534 0.000000
# 6 0.000000 0.000000 0.000000 0.000000 0.000000 0.024178
#
#
# Mechanical properties :
#
#
# Convention : Reuss Voigt Hill
#
# Bulk Modulus (GPa) = 20.54226 40.70638 30.62432
# Shear Modulus (GPa) = 15.81516 28.85015 22.33266
#
# Velocity S-wave (km/s) = 2.87055 3.87706 3.41113
# Velocity P-wave (km/s) = 4.65722 6.42270 5.60985
#
# Compressibility (1/GPa) = 0.04868013
#
# Stress axis : x y z
#
# Youngs Moduli (GPa) = 33.09973 64.83337 99.24082
#
# Poissons Ratio (x) = -0.30995 0.15424
# Poissons Ratio (y) = -0.15824 0.66914
# Poissons Ratio (z) = 0.05144 0.43714
#
# Static dielectric constant tensor:
#      x y z
#    x 1.812450 0.000000 0.000000 
#    y 0.000000 1.635550 0.000000 
#    z 0.000000 0.000000 1.709200 
# 
# From -- ./inp_files/20208.got.cif
#   From: 2010.05.17/outbox.cif.g08.bks.cpg/sg38_11_cif.got.tgz:20208.got - 2010.06.03 18:07:57.
