data_PCOD9356189
_publ_section_title
;
Structure prediction by ZEFSAII (Michael W. Deem and Ramdas Pophale) SiO2 
 PCOD9356189
Probable space group: A M M 2
;
_chemical_formula_sum "Si O2"
_cell_formula_units_Z 64
_cell_length_a 7.421257
_cell_length_b 25.714257
_cell_length_c 15.743118
_cell_angle_alpha 90.000000
_cell_angle_beta 90.000000
_cell_angle_gamma 90.000000
_cell_volume 3004.292422
_symmetry_space_group_name_H-M "A M M 2"
_symmetry_group_IT_number 38
_symmetry_cell_setting 'orthorhombic'
loop_
_space_group_symop_operation_xyz
x,y,z
-x,-y,z
-x,y,z
x,-y,z
x,1/2+y,1/2+z
-x,1/2-y,1/2+z
-x,1/2+y,1/2+z
x,1/2-y,1/2+z
loop_
_atom_site_type_symbol
_atom_site_label
_atom_site_fract_x
_atom_site_fract_y
_atom_site_fract_z
Si Si1 0.708032 0.655819 0.202910
Si Si2 0.211112 0.729704 0.739226
Si Si3 0.278286 0.863104 0.519974
Si Si4 0.721472 0.646226 0.393911
Si Si5 0.720138 0.440815 0.525586
Si Si6 0.716359 0.385537 0.697148
Si Si7 0.279986 0.060063 0.371131
Si Si8 0.706102 0.241062 0.433507
O O1 0.500000 0.639521 0.206558
O O2 0.714179 0.718659 0.194966
O O3 0.783652 0.631444 0.116969
O O4 0.783973 0.643811 0.296176
O O5 0.240146 0.675414 0.692451
O O6 0.293609 0.725864 0.833653
O O7 0.000000 0.738182 0.750512
O O8 0.500000 0.862351 0.519634
O O9 0.223933 0.907692 0.454128
O O10 0.214970 0.807178 0.484455
O O11 0.500000 0.648804 0.392052
O O12 0.775071 0.597540 0.450214
O O13 0.783897 0.700880 0.434774
O O14 0.500000 0.440818 0.526364
O O15 0.778762 0.500000 0.514883
O O16 0.780172 0.417146 0.615450
O O17 0.500000 0.389521 0.698232
O O18 0.780625 0.410265 0.785812
O O19 0.500000 0.060349 0.370095
O O20 0.223445 0.000000 0.371565
O O21 0.500000 0.245881 0.462973
#
# Coordination Sequence:
#
# PCOD9356189 Si02
#       8
#     8   8   8   8   8   8   8   8
#     4   9  18  32  51  71  99 136 169 200 242 298
#     4  11  21  32  47  72 104 133 163 201 247 294
#     4   9  16  27  48  75  99 129 167 203 241 292
#     4   8  15  27  44  68  97 126 161 203 243 284
#     4   9  17  28  46  74 101 127 166 210 247 285
#     4  10  18  30  50  72  97 132 168 202 244 295
#     4   9  16  27  46  74 102 123 156 209 253 288
#     4   9  16  30  50  72  97 129 167 201 242 298
#
# _framework density 21.302852999999999
#
# number of rings (size 3 to 8) (size 9 to 14) (size 15 to 20)
#    0.000    2.750    1.250    2.250    1.750    1.500 
#    0.000    1.250    0.000    5.250    0.000    0.000 
#    0.000    4.000    0.000    0.000    0.000    0.000 
#
# Total GULP energy -178651.439047 kJ/mol
# GULP energy per Si atom -5582.857470 kJ/mol
# Density = 2.125437 g / cm^3
# Si number density = 21.302853 Si / 1000 Ang^3
#
#
#
# Elastic Constant Matrix: (Units=GPa)
#
#
# Indices 1 2 3 4 5 6 
#
# 1 72.6130 -4.6290 3.6790 0.0000 0.0000 0.0000
# 2 -4.6290 131.1826 82.0911 0.0000 0.0000 0.0000
# 3 3.6790 82.0911 128.8946 0.0000 0.0000 0.0000
# 4 0.0000 0.0000 0.0000 30.1416 0.0000 0.0000
# 5 0.0000 0.0000 0.0000 0.0000 -21.6590 0.0000
# 6 0.0000 0.0000 0.0000 0.0000 0.0000 -24.8047
#
#
#
# Elastic Compliance Matrix: (Units=1/GPa)
#
#
# Indices 1 2 3 4 5 6 
#
# 1 0.013910 0.001229 -0.001180 0.000000 0.000000 0.000000
# 2 0.001229 0.012783 -0.008176 0.000000 0.000000 0.000000
# 3 -0.001180 -0.008176 0.012999 0.000000 0.000000 0.000000
# 4 0.000000 0.000000 0.000000 0.033177 0.000000 0.000000
# 5 0.000000 0.000000 0.000000 0.000000 -0.046170 0.000000
# 6 0.000000 0.000000 0.000000 0.000000 0.000000 -0.040315
#
#
# Mechanical properties :
#
#
# Convention : Reuss Voigt Hill
#
# Bulk Modulus (GPa) = 42.66582 54.99692 48.83137
# Shear Modulus (GPa) = 478.45459 13.50552 245.98006
#
# Velocity S-wave (km/s) = 15.00280 2.52062 10.75727
# Velocity P-wave (km/s) = 17.89368 5.86038 13.31405
#
# Compressibility (1/GPa) = 0.02343797
#
# Stress axis : x y z
#
# Youngs Moduli (GPa) = 71.89188 78.22957 76.92702
#
# Poissons Ratio (x) = -0.09616 0.09076
# Poissons Ratio (y) = -0.08837 0.62898
# Poissons Ratio (z) = 0.08482 0.63963
#
# Static dielectric constant tensor:
#      x y z
#    x 1.809060 0.000000 0.000000 
#    y 0.000000 1.726350 0.000000 
#    z 0.000000 0.000000 1.754780 
# 
# From -- ./inp_files/17305.got.cif
#   From: 2010.05.17/outbox.cif.g08.bks.cpg/sg38_9_cif.got.tgz:17305.got - 2010.06.03 18:07:57.
