data_PCOD9356527
_publ_section_title
;
Structure prediction by ZEFSAII (Michael W. Deem and Ramdas Pophale) SiO2 
 PCOD9356527
Probable space group: A M M 2
;
_chemical_formula_sum "Si O2"
_cell_formula_units_Z 56
_cell_length_a 17.515346
_cell_length_b 9.515402
_cell_length_c 19.395730
_cell_angle_alpha 90.000000
_cell_angle_beta 90.000000
_cell_angle_gamma 90.000000
_cell_volume 3232.600170
_symmetry_space_group_name_H-M "A M M 2"
_symmetry_group_IT_number 38
_symmetry_cell_setting 'orthorhombic'
loop_
_space_group_symop_operation_xyz
x,y,z
-x,-y,z
-x,y,z
x,-y,z
x,1/2+y,1/2+z
-x,1/2-y,1/2+z
-x,1/2+y,1/2+z
x,1/2-y,1/2+z
loop_
_atom_site_type_symbol
_atom_site_label
_atom_site_fract_x
_atom_site_fract_y
_atom_site_fract_z
Si Si1 0.754084 0.667737 0.671240
Si Si2 0.908760 0.164514 0.411922
Si Si3 0.815721 0.664547 0.297578
Si Si4 0.587335 0.168279 0.127219
Si Si5 0.589740 0.844559 0.488153
Si Si6 0.818147 0.340037 0.518500
Si Si7 0.315638 0.346611 0.404983
O O1 0.760648 0.500000 0.684813
O O2 0.801802 0.756721 0.726058
O O3 0.663059 0.703369 0.671442
O O4 0.787984 0.693467 0.594703
O O5 0.872922 0.252463 0.348389
O O6 0.876073 0.233094 0.482218
O O7 0.000000 0.173810 0.410451
O O8 0.886529 0.000000 0.407128
O O9 0.837388 0.500000 0.290750
O O10 0.734306 0.668077 0.336931
O O11 0.500000 0.203591 0.151185
O O12 0.599616 0.245123 0.054321
O O13 0.589465 0.000000 0.116934
O O14 0.500000 0.853585 0.477081
O O15 0.627605 0.777488 0.421377
O O16 0.620856 0.000000 0.502582
O O17 0.849559 0.500000 0.518846
O O18 0.745577 0.342472 0.467337
O O19 0.353544 0.500000 0.406171
#
# Coordination Sequence:
#
# PCOD9356527 Si02
#       7
#     8   8   8   8   8   8   8
#     4  10  19  34  54  80 112 144 182 224 267 318
#     4  10  21  38  60  85 110 138 174 216 264 320
#     4  10  22  37  55  79 107 142 181 218 266 321
#     4   9  17  31  51  73 102 143 184 222 269 320
#     4  10  19  28  43  72 103 131 172 226 275 314
#     4   9  18  33  55  82 108 136 172 214 261 313
#     4   9  17  33  51  70  98 134 175 215 259 318
#
# _framework density 17.323515
#
# number of rings (size 3 to 8) (size 9 to 14) (size 15 to 20)
#    0.000    2.429    1.429    2.143    0.000    6.000 
#    0.000    1.429    0.000    3.429    0.000    0.000 
#    0.000    0.000    0.000    0.000    0.000    0.000 
#
# Total GULP energy -155964.759802 kJ/mol
# GULP energy per Si atom -5570.169993 kJ/mol
# Density = 1.728409 g / cm^3
# Si number density = 17.323515 Si / 1000 Ang^3
#
#
#
# Elastic Constant Matrix: (Units=GPa)
#
#
# Indices 1 2 3 4 5 6 
#
# 1 58.8030 46.1919 21.1814 0.0000 0.0000 0.0000
# 2 46.1919 82.4765 43.2000 0.0000 0.0000 0.0000
# 3 21.1814 43.2000 86.5524 0.0000 0.0000 0.0000
# 4 0.0000 0.0000 0.0000 23.2532 0.0000 0.0000
# 5 0.0000 0.0000 0.0000 0.0000 17.7468 0.0000
# 6 0.0000 0.0000 0.0000 0.0000 0.0000 24.8585
#
#
#
# Elastic Compliance Matrix: (Units=1/GPa)
#
#
# Indices 1 2 3 4 5 6 
#
# 1 0.030497 -0.017833 0.001438 0.000000 0.000000 0.000000
# 2 -0.017833 0.026844 -0.009034 0.000000 0.000000 0.000000
# 3 0.001438 -0.009034 0.015711 0.000000 0.000000 0.000000
# 4 0.000000 0.000000 0.000000 0.043005 0.000000 0.000000
# 5 0.000000 0.000000 0.000000 0.000000 0.056348 0.000000
# 6 0.000000 0.000000 0.000000 0.000000 0.000000 0.040228
#
#
# Mechanical properties :
#
#
# Convention : Reuss Voigt Hill
#
# Bulk Modulus (GPa) = 45.06038 49.88653 47.47345
# Shear Modulus (GPa) = 18.45772 20.98895 19.72333
#
# Velocity S-wave (km/s) = 3.26770 3.48456 3.37787
# Velocity P-wave (km/s) = 6.34860 6.71186 6.53276
#
# Compressibility (1/GPa) = 0.02219245
#
# Stress axis : x y z
#
# Youngs Moduli (GPa) = 32.79064 37.25191 63.64913
#
# Poissons Ratio (x) = 0.66431 -0.09150
# Poissons Ratio (y) = 0.58475 0.57503
# Poissons Ratio (z) = -0.04714 0.33655
#
# Static dielectric constant tensor:
#      x y z
#    x 1.598820 0.000000 0.000000 
#    y 0.000000 1.617660 0.000000 
#    z 0.000000 0.000000 1.566830 
# 
# From -- ./inp_files/21288.got.cif
#   From: 2010.05.17/outbox.cif.g08.bks.cpg/sg38_11_cif.got.tgz:21288.got - 2010.06.03 18:07:57.
