data_PCOD9356431
_publ_section_title
;
Structure prediction by ZEFSAII (Michael W. Deem and Ramdas Pophale) SiO2 
 PCOD9356431
Probable space group: A M M 2
;
_chemical_formula_sum "Si O2"
_cell_formula_units_Z 64
_cell_length_a 7.620901
_cell_length_b 24.642851
_cell_length_c 15.944930
_cell_angle_alpha 90.000000
_cell_angle_beta 90.000000
_cell_angle_gamma 90.000000
_cell_volume 2994.469459
_symmetry_space_group_name_H-M "A M M 2"
_symmetry_group_IT_number 38
_symmetry_cell_setting 'orthorhombic'
loop_
_space_group_symop_operation_xyz
x,y,z
-x,-y,z
-x,y,z
x,-y,z
x,1/2+y,1/2+z
-x,1/2-y,1/2+z
-x,1/2+y,1/2+z
x,1/2-y,1/2+z
loop_
_atom_site_type_symbol
_atom_site_label
_atom_site_fract_x
_atom_site_fract_y
_atom_site_fract_z
Si Si1 0.287221 0.248427 0.875000
Si Si2 0.205599 0.862996 0.133248
Si Si3 0.288240 0.133494 0.945226
Si Si4 0.284939 0.937313 0.787229
Si Si5 0.292564 0.560837 0.786910
Si Si6 0.702897 0.626365 0.124804
Si Si7 0.715815 0.634273 0.940050
Si Si8 0.205194 0.755006 0.678641
O O1 0.500000 0.247890 0.872696
O O2 0.228317 0.194555 0.923400
O O3 0.231006 0.304219 0.918273
O O4 0.225191 0.246440 0.779085
O O5 0.274213 0.904373 0.202481
O O6 0.279712 0.801924 0.144216
O O7 0.000000 0.858079 0.150464
O O8 0.233085 0.882020 0.038497
O O9 0.500000 0.133645 0.943801
O O10 0.227777 0.093760 0.871256
O O11 0.500000 0.935372 0.787432
O O12 0.221626 0.905515 0.704464
O O13 0.233079 0.000000 0.786365
O O14 0.500000 0.556023 0.802170
O O15 0.219636 0.500000 0.779426
O O16 0.222759 0.594961 0.865807
O O17 0.500000 0.609073 0.120101
O O18 0.708118 0.690531 0.144069
O O19 0.778243 0.617517 0.032311
O O20 0.500000 0.634408 0.940946
O O21 0.000000 0.759008 0.656693
#
# Coordination Sequence:
#
# PCOD9356431 Si02
#       8
#     8   8   8   8   8   8   8   8
#     4  10  18  33  57  83 110 145 185 226 280 338
#     4  11  24  39  56  82 114 151 189 231 285 338
#     4  10  20  35  57  85 113 146 188 232 280 334
#     4   9  18  33  55  84 114 143 181 228 275 324
#     4  10  21  38  60  85 113 147 189 237 281 326
#     4  10  19  35  59  85 114 148 183 224 277 336
#     4   9  18  32  56  86 112 139 180 230 276 329
#     4  11  22  35  54  82 114 148 185 229 280 333
#
# _framework density 21.372734999999999
#
# number of rings (size 3 to 8) (size 9 to 14) (size 15 to 20)
#    0.000    2.000    2.500    1.500    0.000    4.250 
#    0.000    5.000    0.000    1.125    0.000    0.000 
#    0.000    0.000    0.000    0.000    0.000    0.000 
#
# Total GULP energy -178803.985172 kJ/mol
# GULP energy per Si atom -5587.624537 kJ/mol
# Density = 2.132409 g / cm^3
# Si number density = 21.372735 Si / 1000 Ang^3
#
#
#
# Elastic Constant Matrix: (Units=GPa)
#
#
# Indices 1 2 3 4 5 6 
#
# 1 41.9166 1.0209 -10.4368 0.0000 0.0000 0.0000
# 2 1.0209 166.4772 90.3840 0.0000 0.0000 0.0000
# 3 -10.4368 90.3840 190.5438 0.0000 0.0000 0.0000
# 4 0.0000 0.0000 0.0000 0.4469 0.0000 0.0000
# 5 0.0000 0.0000 0.0000 0.0000 -74.0425 0.0000
# 6 0.0000 0.0000 0.0000 0.0000 0.0000 -3.7196
#
#
#
# Elastic Compliance Matrix: (Units=1/GPa)
#
#
# Indices 1 2 3 4 5 6 
#
# 1 0.024357 -0.001177 0.001892 0.000000 0.000000 0.000000
# 2 -0.001177 0.008147 -0.003929 0.000000 0.000000 0.000000
# 3 0.001892 -0.003929 0.007216 0.000000 0.000000 0.000000
# 4 0.000000 0.000000 0.000000 2.237429 0.000000 0.000000
# 5 0.000000 0.000000 0.000000 0.000000 -0.013506 0.000000
# 6 0.000000 0.000000 0.000000 0.000000 0.000000 -0.268845
#
#
# Mechanical properties :
#
#
# Convention : Reuss Voigt Hill
#
# Bulk Modulus (GPa) = 30.03687 62.31932 46.17810
# Shear Modulus (GPa) = 2.48469 5.73493 4.10981
#
# Velocity S-wave (km/s) = 1.07939 1.63985 1.38820
# Velocity P-wave (km/s) = 3.95446 5.72775 4.92163
#
# Compressibility (1/GPa) = 0.03329242
#
# Stress axis : x y z
#
# Youngs Moduli (GPa) = 41.05647 122.74124 138.58998
#
# Poissons Ratio (x) = 0.14443 -0.26225
# Poissons Ratio (y) = 0.04831 0.54453
# Poissons Ratio (z) = -0.07769 0.48226
#
# Static dielectric constant tensor:
#      x y z
#    x 1.797370 0.000000 0.000000 
#    y 0.000000 1.752800 0.000000 
#    z 0.000000 0.000000 1.739430 
# 
# From -- ./inp_files/12757.got.cif
#   From: 2010.05.17/outbox.cif.g08.bks.cpg/sg38_7_cif.got.tgz:12757.got - 2010.06.03 18:07:57.
