data_PCOD9356865
_publ_section_title
;
Structure prediction by ZEFSAII (Michael W. Deem and Ramdas Pophale) SiO2 
 PCOD9356865
Probable space group: A M M 2
;
_chemical_formula_sum "Si O2"
_cell_formula_units_Z 40
_cell_length_a 7.517039
_cell_length_b 27.355271
_cell_length_c 9.289052
_cell_angle_alpha 90.000000
_cell_angle_beta 90.000000
_cell_angle_gamma 90.000000
_cell_volume 1910.113698
_symmetry_space_group_name_H-M "A M M 2"
_symmetry_group_IT_number 38
_symmetry_cell_setting 'orthorhombic'
loop_
_space_group_symop_operation_xyz
x,y,z
-x,-y,z
-x,y,z
x,-y,z
x,1/2+y,1/2+z
-x,1/2-y,1/2+z
-x,1/2+y,1/2+z
x,1/2-y,1/2+z
loop_
_atom_site_type_symbol
_atom_site_label
_atom_site_fract_x
_atom_site_fract_y
_atom_site_fract_z
Si Si1 0.288728 0.395577 0.643290
Si Si2 0.793093 0.894253 0.478121
Si Si3 0.213613 0.201940 0.966866
Si Si4 0.296197 0.000000 0.108214
Si Si5 0.781837 0.500000 0.946691
Si Si6 0.781239 0.797905 0.637210
O O1 0.500000 0.402078 0.660115
O O2 0.216673 0.388415 0.805030
O O3 0.256051 0.348317 0.547493
O O4 0.217642 0.446497 0.574448
O O5 0.721804 0.948500 0.513065
O O6 0.717950 0.846872 0.556665
O O7 0.000000 0.895749 0.518926
O O8 0.276489 0.202349 0.802636
O O9 0.000000 0.205585 0.961818
O O10 0.277799 0.249094 0.054955
O O11 0.500000 0.000000 0.055920
O O12 0.287360 0.000000 0.282797
O O13 0.000000 0.500000 0.939708
O O14 0.000000 0.797659 0.634532
#
# Coordination Sequence:
#
# PCOD9356865 Si02
#       6
#     8   8   8   4   4   8
#     4  10  19  32  50  73  98 127 160 198 239 282
#     4   9  16  30  51  75 100 128 160 196 234 279
#     4  10  19  33  51  71  94 126 164 200 237 284
#     4   8  16  30  47  66  94 128 160 190 231 284
#     4   8  14  24  45  74 100 124 156 194 231 270
#     4   9  18  32  52  73  96 127 162 196 238 288
#
# _framework density 20.941163
#
# number of rings (size 3 to 8) (size 9 to 14) (size 15 to 20)
#    0.000    2.800    0.000    1.800    0.000    4.000 
#    0.000    6.000    0.000    2.400    0.000    4.200 
#    0.000    0.000    0.000    0.000    0.000    0.000 
#
# Total GULP energy -111522.879279 kJ/mol
# GULP energy per Si atom -5576.143964 kJ/mol
# Density = 2.089350 g / cm^3
# Si number density = 20.941163 Si / 1000 Ang^3
#
#
#
# Elastic Constant Matrix: (Units=GPa)
#
#
# Indices 1 2 3 4 5 6 
#
# 1 56.3407 0.7204 -6.5861 0.0000 0.0000 0.0000
# 2 0.7204 274.4899 106.9943 0.0000 0.0000 0.0000
# 3 -6.5861 106.9943 94.8249 0.0000 0.0000 0.0000
# 4 0.0000 0.0000 0.0000 36.7253 0.0000 0.0000
# 5 0.0000 0.0000 0.0000 0.0000 -57.9293 0.0000
# 6 0.0000 0.0000 0.0000 0.0000 0.0000 9.7939
#
#
#
# Elastic Compliance Matrix: (Units=1/GPa)
#
#
# Indices 1 2 3 4 5 6 
#
# 1 0.018034 -0.000956 0.002331 0.000000 0.000000 0.000000
# 2 -0.000956 0.006554 -0.007462 0.000000 0.000000 0.000000
# 3 0.002331 -0.007462 0.019127 0.000000 0.000000 0.000000
# 4 0.000000 0.000000 0.000000 0.027229 0.000000 0.000000
# 5 0.000000 0.000000 0.000000 0.000000 -0.017262 0.000000
# 6 0.000000 0.000000 0.000000 0.000000 0.000000 0.102104
#
#
# Mechanical properties :
#
#
# Convention : Reuss Voigt Hill
#
# Bulk Modulus (GPa) = 31.70365 69.76808 50.73587
# Shear Modulus (GPa) = 28.01553 19.35312 23.68432
#
# Velocity S-wave (km/s) = 3.66159 3.04331 3.36667
# Velocity P-wave (km/s) = 5.74879 6.76295 6.27639
#
# Compressibility (1/GPa) = 0.03154211
#
# Stress axis : x y z
#
# Youngs Moduli (GPa) = 55.45115 152.57543 52.28233
#
# Poissons Ratio (x) = 0.14587 -0.12189
# Poissons Ratio (y) = 0.05301 0.39011
# Poissons Ratio (z) = -0.12927 1.13847
#
# Static dielectric constant tensor:
#      x y z
#    x 1.836450 0.000000 0.000000 
#    y 0.000000 1.798760 0.000000 
#    z 0.000000 0.000000 1.688030 
# 
# From -- ./inp_files/3485.got.cif
#   From: 2010.05.17/outbox.cif.g08.bks.cpg/sg38_2_cif.got.tgz:3485.got - 2010.06.03 18:07:57.
