data_PCOD9356572
_publ_section_title
;
Structure prediction by ZEFSAII (Michael W. Deem and Ramdas Pophale) SiO2 
 PCOD9356572
Probable space group: A M M 2
;
_chemical_formula_sum "Si O2"
_cell_formula_units_Z 64
_cell_length_a 7.847448
_cell_length_b 31.714173
_cell_length_c 14.736194
_cell_angle_alpha 90.000000
_cell_angle_beta 90.000000
_cell_angle_gamma 90.000000
_cell_volume 3667.475049
_symmetry_space_group_name_H-M "A M M 2"
_symmetry_group_IT_number 38
_symmetry_cell_setting 'orthorhombic'
loop_
_space_group_symop_operation_xyz
x,y,z
-x,-y,z
-x,y,z
x,-y,z
x,1/2+y,1/2+z
-x,1/2-y,1/2+z
-x,1/2+y,1/2+z
x,1/2-y,1/2+z
loop_
_atom_site_type_symbol
_atom_site_label
_atom_site_fract_x
_atom_site_fract_y
_atom_site_fract_z
Si Si1 0.705103 0.633037 0.386790
Si Si2 0.196112 0.130334 0.514380
Si Si3 0.300692 0.270254 0.716751
Si Si4 0.799334 0.787903 0.418229
Si Si5 0.793483 0.047743 0.598491
Si Si6 0.294957 0.047242 0.808615
Si Si7 0.201394 0.704510 0.524846
Si Si8 0.706314 0.325301 0.194732
O O1 0.500000 0.631847 0.392784
O O2 0.767716 0.585099 0.372620
O O3 0.767219 0.662115 0.468261
O O4 0.748931 0.656722 0.293165
O O5 0.275729 0.167749 0.454031
O O6 0.271482 0.083712 0.529858
O O7 0.203419 0.149546 0.615363
O O8 0.000000 0.124597 0.484282
O O9 0.500000 0.266958 0.737637
O O10 0.217153 0.284528 0.810247
O O11 0.275654 0.297017 0.625935
O O12 0.240439 0.223295 0.691452
O O13 0.730449 0.745642 0.468525
O O14 0.000000 0.789111 0.440965
O O15 0.742523 0.056986 0.702813
O O16 0.000000 0.048564 0.595937
O O17 0.736794 0.000000 0.578142
O O18 0.500000 0.046166 0.816926
O O19 0.228933 0.000000 0.827404
O O20 0.000000 0.709979 0.534403
O O21 0.500000 0.328498 0.182288
#
# Coordination Sequence:
#
# PCOD9356572 Si02
#       8
#     8   8   8   8   8   8   8   8
#     4  10  19  32  47  69  99 130 166 199 235 282
#     4  10  19  31  47  68  96 130 164 195 234 282
#     4  11  22  35  50  68  95 128 161 202 242 277
#     4  10  21  34  48  68  94 126 162 198 236 284
#     4   9  17  28  44  68  97 127 159 196 237 283
#     4   9  17  29  46  68  96 129 161 195 236 282
#     4  11  22  34  50  71  96 127 163 200 240 284
#     4  10  19  29  45  69  97 127 160 196 233 275
#
# _framework density 17.450697999999999
#
# number of rings (size 3 to 8) (size 9 to 14) (size 15 to 20)
#    0.000    2.000    3.750    0.750    0.000    2.500 
#    0.000    0.000    0.000    0.000    0.000    0.875 
#    0.000    3.000    0.000    0.000    0.000    0.000 
#
# Total GULP energy -178424.232729 kJ/mol
# GULP energy per Si atom -5575.757273 kJ/mol
# Density = 1.741098 g / cm^3
# Si number density = 17.450698 Si / 1000 Ang^3
#
#
#
# Elastic Constant Matrix: (Units=GPa)
#
#
# Indices 1 2 3 4 5 6 
#
# 1 17.9886 3.4371 -4.0698 0.0000 0.0000 0.0000
# 2 3.4371 122.4119 29.1992 0.0000 0.0000 0.0000
# 3 -4.0698 29.1992 57.7278 0.0000 0.0000 0.0000
# 4 0.0000 0.0000 0.0000 23.0114 0.0000 0.0000
# 5 0.0000 0.0000 0.0000 0.0000 24.9730 0.0000
# 6 0.0000 0.0000 0.0000 0.0000 0.0000 11.5641
#
#
#
# Elastic Compliance Matrix: (Units=1/GPa)
#
#
# Indices 1 2 3 4 5 6 
#
# 1 0.057402 -0.002931 0.005529 0.000000 0.000000 0.000000
# 2 -0.002931 0.009440 -0.004981 0.000000 0.000000 0.000000
# 3 0.005529 -0.004981 0.020232 0.000000 0.000000 0.000000
# 4 0.000000 0.000000 0.000000 0.043457 0.000000 0.000000
# 5 0.000000 0.000000 0.000000 0.000000 0.040043 0.000000
# 6 0.000000 0.000000 0.000000 0.000000 0.000000 0.086474
#
#
# Mechanical properties :
#
#
# Convention : Reuss Voigt Hill
#
# Bulk Modulus (GPa) = 12.14952 28.36236 20.25594
# Shear Modulus (GPa) = 17.28616 23.21382 20.24999
#
# Velocity S-wave (km/s) = 3.15075 3.65122 3.41018
# Velocity P-wave (km/s) = 4.49595 5.83638 5.20946
#
# Compressibility (1/GPa) = 0.08230777
#
# Stress axis : x y z
#
# Youngs Moduli (GPa) = 17.42113 105.93656 49.42654
#
# Poissons Ratio (x) = 0.31046 -0.27329
# Poissons Ratio (y) = 0.05105 0.24621
# Poissons Ratio (z) = -0.09632 0.52770
#
# Static dielectric constant tensor:
#      x y z
#    x 1.630820 0.000000 0.000000 
#    y 0.000000 1.656130 0.000000 
#    z 0.000000 0.000000 1.561490 
# 
# From -- ./inp_files/13051.got.cif
#   From: 2010.05.17/outbox.cif.g08.bks.cpg/sg38_7_cif.got.tgz:13051.got - 2010.06.03 18:07:57.
