data_PCOD9356339
_publ_section_title
;
Structure prediction by ZEFSAII (Michael W. Deem and Ramdas Pophale) SiO2 
 PCOD9356339
Probable space group: A M M 2
;
_chemical_formula_sum "Si O2"
_cell_formula_units_Z 44
_cell_length_a 15.536206
_cell_length_b 10.552316
_cell_length_c 14.752727
_cell_angle_alpha 90.000000
_cell_angle_beta 90.000000
_cell_angle_gamma 90.000000
_cell_volume 2418.605661
_symmetry_space_group_name_H-M "A M M 2"
_symmetry_group_IT_number 38
_symmetry_cell_setting 'orthorhombic'
loop_
_space_group_symop_operation_xyz
x,y,z
-x,-y,z
-x,y,z
x,-y,z
x,1/2+y,1/2+z
-x,1/2-y,1/2+z
-x,1/2+y,1/2+z
x,1/2-y,1/2+z
loop_
_atom_site_type_symbol
_atom_site_label
_atom_site_fract_x
_atom_site_fract_y
_atom_site_fract_z
Si Si1 0.000000 0.646227 0.960721
Si Si2 0.187296 0.142795 0.444995
Si Si3 0.812817 0.237489 0.136553
Si Si4 0.692287 0.739768 0.305628
Si Si5 0.398915 0.500000 0.748860
Si Si6 0.298489 0.000000 0.069084
Si Si7 0.601449 0.000000 0.879219
Si Si8 0.000000 0.848043 0.122697
O O1 0.910217 0.656027 0.908686
O O2 0.000000 0.500000 0.999600
O O3 0.000000 0.762894 0.030988
O O4 0.181285 0.164765 0.552961
O O5 0.249540 0.238328 0.394457
O O6 0.216588 0.000000 0.426652
O O7 0.756221 0.283089 0.221014
O O8 0.908507 0.192668 0.165864
O O9 0.761929 0.119450 0.092095
O O10 0.643071 0.871762 0.287785
O O11 0.628292 0.624428 0.322935
O O12 0.500000 0.500000 0.764665
O O13 0.375002 0.500000 0.642637
O O14 0.341258 0.000000 0.970736
O O15 0.500000 0.000000 0.899381
O O16 0.000000 0.000000 0.108526
#
# Coordination Sequence:
#
# PCOD9356339 Si02
#       8
#     4   8   8   8   4   4   4   4
#     4   8  18  33  53  82 123 159 193 238 282 342
#     4  10  19  36  58  84 117 159 197 230 285 352
#     4  10  21  36  58  88 122 155 196 236 293 346
#     4  11  23  38  62  85 115 154 194 245 300 358
#     4  10  21  40  60  85 114 147 190 243 296 364
#     4  10  19  37  62  86 112 152 190 239 305 355
#     4  12  25  42  62  89 116 151 200 263 320 365
#     4  10  18  31  59  90 121 157 201 246 276 344
#
# _framework density 18.192298999999998
#
# number of rings (size 3 to 8) (size 9 to 14) (size 15 to 20)
#    0.000    1.818    3.636    0.818    1.273    0.727 
#    0.000    0.909    0.000    2.182    0.000    0.000 
#    0.000    0.000    0.000    0.000    0.000    0.000 
#
# Total GULP energy -122609.483550 kJ/mol
# GULP energy per Si atom -5573.158343 kJ/mol
# Density = 1.815089 g / cm^3
# Si number density = 18.192299 Si / 1000 Ang^3
#
#
#
# Elastic Constant Matrix: (Units=GPa)
#
#
# Indices 1 2 3 4 5 6 
#
# 1 120.3472 24.1072 34.9363 0.0000 0.0000 0.0000
# 2 24.1072 75.2489 16.8677 0.0000 0.0000 0.0000
# 3 34.9363 16.8677 67.5104 0.0000 0.0000 0.0000
# 4 0.0000 0.0000 0.0000 19.0665 0.0000 0.0000
# 5 0.0000 0.0000 0.0000 0.0000 11.1970 0.0000
# 6 0.0000 0.0000 0.0000 0.0000 0.0000 23.1437
#
#
#
# Elastic Compliance Matrix: (Units=1/GPa)
#
#
# Indices 1 2 3 4 5 6 
#
# 1 0.010107 -0.002188 -0.004684 0.000000 0.000000 0.000000
# 2 -0.002188 0.014551 -0.002503 0.000000 0.000000 0.000000
# 3 -0.004684 -0.002503 0.017862 0.000000 0.000000 0.000000
# 4 0.000000 0.000000 0.000000 0.052448 0.000000 0.000000
# 5 0.000000 0.000000 0.000000 0.000000 0.089310 0.000000
# 6 0.000000 0.000000 0.000000 0.000000 0.000000 0.043208
#
#
# Mechanical properties :
#
#
# Convention : Reuss Voigt Hill
#
# Bulk Modulus (GPa) = 42.06987 46.10322 44.08654
# Shear Modulus (GPa) = 19.67260 23.16111 21.41685
#
# Velocity S-wave (km/s) = 3.29199 3.57196 3.43483
# Velocity P-wave (km/s) = 6.13391 6.51222 6.32590
#
# Compressibility (1/GPa) = 0.02376998
#
# Stress axis : x y z
#
# Youngs Moduli (GPa) = 98.93857 68.72200 55.98524
#
# Poissons Ratio (x) = 0.15037 0.26222
# Poissons Ratio (y) = 0.21649 0.14015
# Poissons Ratio (z) = 0.46341 0.17204
#
# Static dielectric constant tensor:
#      x y z
#    x 1.644350 0.000000 0.000000 
#    y 0.000000 1.618150 0.000000 
#    z 0.000000 0.000000 1.618390 
# 
# From -- ./inp_files/14455.got.cif
#   From: 2010.05.17/outbox.cif.g08.bks.cpg/sg38_8_cif.got.tgz:14455.got - 2010.06.03 18:07:57.
