data_PCOD9356030
_publ_section_title
;
Structure prediction by ZEFSAII (Michael W. Deem and Ramdas Pophale) SiO2 
 PCOD9356030
Probable space group: A M M 2
;
_chemical_formula_sum "Si O2"
_cell_formula_units_Z 40
_cell_length_a 13.477730
_cell_length_b 7.693089
_cell_length_c 20.111833
_cell_angle_alpha 90.000000
_cell_angle_beta 90.000000
_cell_angle_gamma 90.000000
_cell_volume 2085.302975
_symmetry_space_group_name_H-M "A M M 2"
_symmetry_group_IT_number 38
_symmetry_cell_setting 'orthorhombic'
loop_
_space_group_symop_operation_xyz
x,y,z
-x,-y,z
-x,y,z
x,-y,z
x,1/2+y,1/2+z
-x,1/2-y,1/2+z
-x,1/2+y,1/2+z
x,1/2-y,1/2+z
loop_
_atom_site_type_symbol
_atom_site_label
_atom_site_fract_x
_atom_site_fract_y
_atom_site_fract_z
Si Si1 0.500000 0.297811 0.047001
Si Si2 0.715501 0.209435 0.061103
Si Si3 0.112528 0.787580 0.159126
Si Si4 0.110902 0.290702 0.811140
Si Si5 0.500000 0.697087 0.396191
Si Si6 0.711899 0.791962 0.909397
O O1 0.500000 0.500000 0.029439
O O2 0.603524 0.256398 0.082651
O O3 0.500000 0.194226 0.977219
O O4 0.802261 0.273736 0.109274
O O5 0.721920 0.000000 0.060221
O O6 0.727494 0.272965 0.984870
O O7 0.130886 0.732703 0.235361
O O8 0.000000 0.735525 0.140688
O O9 0.113734 0.000000 0.158493
O O10 0.108331 0.500000 0.809634
O O11 0.195535 0.239796 0.862308
O O12 0.000000 0.229848 0.830006
O O13 0.500000 0.500000 0.369535
O O14 0.392902 0.778383 0.380684
O O15 0.698630 0.000000 0.914780
#
# Coordination Sequence:
#
# PCOD9356030 Si02
#       6
#     4   8   8   8   4   8
#     4  10  18  28  45  70  99 125 149 183 231 282
#     4   9  17  31  51  71  92 120 156 195 228 265
#     4   8  15  30  51  70  88 118 160 197 227 265
#     4   9  18  32  48  67  94 125 154 188 231 275
#     4   8  16  32  49  66  91 123 157 191 227 266
#     4   9  17  29  48  72  94 118 150 189 233 277
#
# _framework density 19.181864999999998
#
# number of rings (size 3 to 8) (size 9 to 14) (size 15 to 20)
#    0.000    3.200    0.000    3.300    0.000    4.400 
#    0.000    4.000    0.000    5.400    0.000    0.000 
#    0.000    0.000    0.000    0.000    0.000    0.000 
#
# Total GULP energy -111402.709626 kJ/mol
# GULP energy per Si atom -5570.135481 kJ/mol
# Density = 1.913821 g / cm^3
# Si number density = 19.181865 Si / 1000 Ang^3
#
#
#
# Elastic Constant Matrix: (Units=GPa)
#
#
# Indices 1 2 3 4 5 6 
#
# 1 226.5315 1.8413 112.0586 0.0000 0.0000 0.0000
# 2 1.8413 36.6746 4.0564 0.0000 0.0000 0.0000
# 3 112.0586 4.0564 82.0954 0.0000 0.0000 0.0000
# 4 0.0000 0.0000 0.0000 12.9923 0.0000 0.0000
# 5 0.0000 0.0000 0.0000 0.0000 -35.1731 0.0000
# 6 0.0000 0.0000 0.0000 0.0000 0.0000 18.8067
#
#
#
# Elastic Compliance Matrix: (Units=1/GPa)
#
#
# Indices 1 2 3 4 5 6 
#
# 1 0.013661 0.001384 -0.018716 0.000000 0.000000 0.000000
# 2 0.001384 0.027557 -0.003251 0.000000 0.000000 0.000000
# 3 -0.018716 -0.003251 0.037888 0.000000 0.000000 0.000000
# 4 0.000000 0.000000 0.000000 0.076969 0.000000 0.000000
# 5 0.000000 0.000000 0.000000 0.000000 -0.028431 0.000000
# 6 0.000000 0.000000 0.000000 0.000000 0.000000 0.053173
#
#
# Mechanical properties :
#
#
# Convention : Reuss Voigt Hill
#
# Bulk Modulus (GPa) = 26.35651 64.57935 45.46793
# Shear Modulus (GPa) = 21.31022 14.48154 17.89588
#
# Velocity S-wave (km/s) = 3.33672 2.75063 3.05775
# Velocity P-wave (km/s) = 5.34931 6.62027 6.01843
#
# Compressibility (1/GPa) = 0.03794130
#
# Stress axis : x y z
#
# Youngs Moduli (GPa) = 73.19923 36.28853 26.39334
#
# Poissons Ratio (x) = -0.05023 0.49397
# Poissons Ratio (y) = -0.10132 0.08580
# Poissons Ratio (z) = 1.36999 0.11797
#
# Static dielectric constant tensor:
#      x y z
#    x 1.706390 0.000000 0.000000 
#    y 0.000000 1.734740 0.000000 
#    z 0.000000 0.000000 1.634530 
# 
# From -- ./inp_files/14308.got.cif
#   From: 2010.05.17/outbox.cif.g08.bks.cpg/sg38_8_cif.got.tgz:14308.got - 2010.06.03 18:07:57.
