data_PCOD9356282
_publ_section_title
;
Structure prediction by ZEFSAII (Michael W. Deem and Ramdas Pophale) SiO2 
 PCOD9356282
Probable space group: A M M 2
;
_chemical_formula_sum "Si O2"
_cell_formula_units_Z 56
_cell_length_a 13.281409
_cell_length_b 14.875057
_cell_length_c 12.712198
_cell_angle_alpha 90.000000
_cell_angle_beta 90.000000
_cell_angle_gamma 90.000000
_cell_volume 2511.443650
_symmetry_space_group_name_H-M "A M M 2"
_symmetry_group_IT_number 38
_symmetry_cell_setting 'orthorhombic'
loop_
_space_group_symop_operation_xyz
x,y,z
-x,-y,z
-x,y,z
x,-y,z
x,1/2+y,1/2+z
-x,1/2-y,1/2+z
-x,1/2+y,1/2+z
x,1/2-y,1/2+z
loop_
_atom_site_type_symbol
_atom_site_label
_atom_site_fract_x
_atom_site_fract_y
_atom_site_fract_z
Si Si1 0.620651 0.899673 0.226110
Si Si2 0.878184 0.099982 0.747381
Si Si3 0.120376 0.194212 0.302096
Si Si4 0.680586 0.401626 0.487428
Si Si5 0.814863 0.661821 0.025536
Si Si6 0.382160 0.217114 0.424461
Si Si7 0.885525 0.359059 0.572930
O O1 0.500000 0.903235 0.231490
O O2 0.646035 0.878162 0.106236
O O3 0.649425 0.829107 0.315041
O O4 0.659411 0.000000 0.249894
O O5 0.845920 0.199310 0.793815
O O6 0.841991 0.103058 0.625577
O O7 0.000000 0.101117 0.751809
O O8 0.846154 0.000000 0.788136
O O9 0.151827 0.141290 0.406765
O O10 0.144968 0.139056 0.195832
O O11 0.000000 0.200180 0.301845
O O12 0.642810 0.500000 0.460161
O O13 0.637929 0.323043 0.416622
O O14 0.801234 0.402244 0.500106
O O15 0.695622 0.681906 0.013129
O O16 0.876066 0.753856 0.046910
O O17 0.500000 0.199611 0.446094
O O18 0.000000 0.389796 0.557407
#
# Coordination Sequence:
#
# PCOD9356282 Si02
#       7
#     8   8   8   8   8   8   8
#     4   9  18  34  56  80 105 135 175 220 262 310
#     4   9  18  32  51  78 108 135 169 213 255 301
#     4   9  16  29  50  73 101 140 176 205 249 310
#     4  10  20  35  57  81 105 139 179 216 260 315
#     4  10  18  31  52  74 101 139 176 211 257 311
#     4  10  21  35  54  80 107 137 177 224 270 313
#     4   9  18  31  48  74 107 139 172 211 254 306
#
# _framework density 22.297930999999998
#
# number of rings (size 3 to 8) (size 9 to 14) (size 15 to 20)
#    0.000    2.571    0.000    3.429    0.000    1.714 
#    0.000    3.571    0.000    5.143    0.000    2.000 
#    0.000    0.000    0.000    0.000    0.000    0.000 
#
# Total GULP energy -156210.741312 kJ/mol
# GULP energy per Si atom -5578.955047 kJ/mol
# Density = 2.224718 g / cm^3
# Si number density = 22.297931 Si / 1000 Ang^3
#
#
#
# Elastic Constant Matrix: (Units=GPa)
#
#
# Indices 1 2 3 4 5 6 
#
# 1 39.6952 11.5733 13.3633 0.0000 0.0000 0.0000
# 2 11.5733 100.9424 36.3004 0.0000 0.0000 0.0000
# 3 13.3633 36.3004 90.1966 0.0000 0.0000 0.0000
# 4 0.0000 0.0000 0.0000 29.8244 0.0000 0.0000
# 5 0.0000 0.0000 0.0000 0.0000 24.2218 0.0000
# 6 0.0000 0.0000 0.0000 0.0000 0.0000 13.5072
#
#
#
# Elastic Compliance Matrix: (Units=1/GPa)
#
#
# Indices 1 2 3 4 5 6 
#
# 1 0.026831 -0.001925 -0.003200 0.000000 0.000000 0.000000
# 2 -0.001925 0.011721 -0.004432 0.000000 0.000000 0.000000
# 3 -0.003200 -0.004432 0.013345 0.000000 0.000000 0.000000
# 4 0.000000 0.000000 0.000000 0.033530 0.000000 0.000000
# 5 0.000000 0.000000 0.000000 0.000000 0.041285 0.000000
# 6 0.000000 0.000000 0.000000 0.000000 0.000000 0.074035
#
#
# Mechanical properties :
#
#
# Convention : Reuss Voigt Hill
#
# Bulk Modulus (GPa) = 30.50524 39.25649 34.88087
# Shear Modulus (GPa) = 21.66485 24.81714 23.24099
#
# Velocity S-wave (km/s) = 3.12044 3.33975 3.23196
# Velocity P-wave (km/s) = 5.16656 5.70225 5.44100
#
# Compressibility (1/GPa) = 0.03278125
#
# Stress axis : x y z
#
# Youngs Moduli (GPa) = 37.27079 85.31538 74.93574
#
# Poissons Ratio (x) = 0.16426 0.23982
# Poissons Ratio (y) = 0.07176 0.33212
# Poissons Ratio (z) = 0.11928 0.37812
#
# Static dielectric constant tensor:
#      x y z
#    x 1.863190 0.000000 0.000000 
#    y 0.000000 1.852460 0.000000 
#    z 0.000000 0.000000 1.864480 
# 
# From -- ./inp_files/14730.got.cif
#   From: 2010.05.17/outbox.cif.g08.bks.cpg/sg38_8_cif.got.tgz:14730.got - 2010.06.03 18:07:57.
