data_PCOD9356777
_publ_section_title
;
Structure prediction by ZEFSAII (Michael W. Deem and Ramdas Pophale) SiO2 
 PCOD9356777
Probable space group: A M M 2
;
_chemical_formula_sum "Si O2"
_cell_formula_units_Z 64
_cell_length_a 9.008738
_cell_length_b 14.574358
_cell_length_c 29.236038
_cell_angle_alpha 90.000000
_cell_angle_beta 90.000000
_cell_angle_gamma 90.000000
_cell_volume 3838.591590
_symmetry_space_group_name_H-M "A M M 2"
_symmetry_group_IT_number 38
_symmetry_cell_setting 'orthorhombic'
loop_
_space_group_symop_operation_xyz
x,y,z
-x,-y,z
-x,y,z
x,-y,z
x,1/2+y,1/2+z
-x,1/2-y,1/2+z
-x,1/2+y,1/2+z
x,1/2-y,1/2+z
loop_
_atom_site_type_symbol
_atom_site_label
_atom_site_fract_x
_atom_site_fract_y
_atom_site_fract_z
Si Si1 0.173210 0.610006 0.291590
Si Si2 0.677433 0.213741 0.436502
Si Si3 0.678414 0.785997 0.707350
Si Si4 0.321927 0.605166 0.388110
Si Si5 0.826642 0.610224 0.852280
Si Si6 0.322131 0.607174 0.117331
Si Si7 0.322129 0.894662 0.255384
Si Si8 0.822593 0.607104 0.019495
O O1 0.186596 0.500000 0.286230
O O2 0.252811 0.658473 0.249476
O O3 0.247093 0.632975 0.340226
O O4 0.000000 0.634297 0.292427
O O5 0.500000 0.204823 0.439727
O O6 0.715057 0.320155 0.426493
O O7 0.736563 0.158663 0.392420
O O8 0.752187 0.171491 0.481185
O O9 0.500000 0.796056 0.709209
O O10 0.726972 0.828624 0.659153
O O11 0.714301 0.679456 0.716588
O O12 0.500000 0.607197 0.381697
O O13 0.278694 0.500000 0.398645
O O14 0.816120 0.500000 0.858018
O O15 0.759381 0.631474 0.802483
O O16 0.000000 0.635863 0.854482
O O17 0.500000 0.617008 0.111144
O O18 0.293625 0.500000 0.129009
O O19 0.241628 0.627521 0.069705
O O20 0.500000 0.890923 0.263319
O O21 0.283467 0.000000 0.244094
O O22 0.785606 0.500000 0.009280
O O23 0.000000 0.615487 0.019341
#
# Coordination Sequence:
#
# PCOD9356777 Si02
#       8
#     8   8   8   8   8   8   8   8
#     4  10  20  31  45  70 102 132 162 197 238 284
#     4  11  21  32  51  75  96 124 162 200 239 284
#     4  10  19  31  50  73  96 127 165 200 238 284
#     4   9  19  35  51  68  95 130 165 200 237 278
#     4  10  20  32  46  68 100 134 165 198 238 284
#     4   9  18  33  52  73  96 122 155 196 240 287
#     4   9  18  32  48  68  97 131 166 203 239 276
#     4  10  21  36  53  74 100 127 154 189 237 290
#
# _framework density 16.672782999999999
#
# number of rings (size 3 to 8) (size 9 to 14) (size 15 to 20)
#    0.000    2.250    0.000    3.000    0.000    9.250 
#    0.000    1.250    0.000    0.750    0.000    3.500 
#    0.000    0.000    0.000    0.000    0.000    0.000 
#
# Total GULP energy -178604.381817 kJ/mol
# GULP energy per Si atom -5581.386932 kJ/mol
# Density = 1.663483 g / cm^3
# Si number density = 16.672783 Si / 1000 Ang^3
#
#
#
# Elastic Constant Matrix: (Units=GPa)
#
#
# Indices 1 2 3 4 5 6 
#
# 1 37.1911 47.0070 50.7109 0.0000 0.0000 0.0000
# 2 47.0070 94.8139 95.0612 0.0000 0.0000 0.0000
# 3 50.7109 95.0612 136.3033 0.0000 0.0000 0.0000
# 4 0.0000 0.0000 0.0000 33.2266 0.0000 0.0000
# 5 0.0000 0.0000 0.0000 0.0000 -40.9678 0.0000
# 6 0.0000 0.0000 0.0000 0.0000 0.0000 17.3366
#
#
#
# Elastic Compliance Matrix: (Units=1/GPa)
#
#
# Indices 1 2 3 4 5 6 
#
# 1 0.073676 -0.030074 -0.006436 0.000000 0.000000 0.000000
# 2 -0.030074 0.047344 -0.021830 0.000000 0.000000 0.000000
# 3 -0.006436 -0.021830 0.024956 0.000000 0.000000 0.000000
# 4 0.000000 0.000000 0.000000 0.030096 0.000000 0.000000
# 5 0.000000 0.000000 0.000000 0.000000 -0.024409 0.000000
# 6 0.000000 0.000000 0.000000 0.000000 0.000000 0.057681
#
#
# Mechanical properties :
#
#
# Convention : Reuss Voigt Hill
#
# Bulk Modulus (GPa) = 34.13547 72.65184 53.39366
# Shear Modulus (GPa) = 14.89029 6.95436 10.92232
#
# Velocity S-wave (km/s) = 2.99170 2.04454 2.56227
# Velocity P-wave (km/s) = 5.69666 7.01735 6.39121
#
# Compressibility (1/GPa) = 0.02929504
#
# Stress axis : x y z
#
# Youngs Moduli (GPa) = 13.57302 21.12200 40.07053
#
# Poissons Ratio (x) = 0.63522 0.25791
# Poissons Ratio (y) = 0.40819 0.87474
# Poissons Ratio (z) = 0.08736 0.46109
#
# Static dielectric constant tensor:
#      x y z
#    x 1.552910 0.000000 0.000000 
#    y 0.000000 1.589380 0.000000 
#    z 0.000000 0.000000 1.519800 
# 
# From -- ./inp_files/22201.got.cif
#   From: 2010.05.17/outbox.cif.g08.bks.cpg/sg38_12_cif.got.tgz:22201.got - 2010.06.03 18:07:57.
