data_PCOD9356870
_publ_section_title
;
Structure prediction by ZEFSAII (Michael W. Deem and Ramdas Pophale) SiO2 
 PCOD9356870
Probable space group: A M M 2
;
_chemical_formula_sum "Si O2"
_cell_formula_units_Z 64
_cell_length_a 19.936230
_cell_length_b 7.685125
_cell_length_c 21.322044
_cell_angle_alpha 90.000000
_cell_angle_beta 90.000000
_cell_angle_gamma 90.000000
_cell_volume 3266.801952
_symmetry_space_group_name_H-M "A M M 2"
_symmetry_group_IT_number 38
_symmetry_cell_setting 'orthorhombic'
loop_
_space_group_symop_operation_xyz
x,y,z
-x,-y,z
-x,y,z
x,-y,z
x,1/2+y,1/2+z
-x,1/2-y,1/2+z
-x,1/2+y,1/2+z
x,1/2-y,1/2+z
loop_
_atom_site_type_symbol
_atom_site_label
_atom_site_fract_x
_atom_site_fract_y
_atom_site_fract_z
Si Si1 0.211184 0.288470 0.542130
Si Si2 0.075260 0.707632 0.842395
Si Si3 0.424548 0.787366 0.608468
Si Si4 0.284764 0.705520 0.417093
Si Si5 0.425081 0.290112 0.963428
Si Si6 0.289239 0.793690 0.668092
Si Si7 0.784791 0.708670 0.291388
Si Si8 0.925519 0.706976 0.487085
O O1 0.211933 0.500000 0.542471
O O2 0.253966 0.225205 0.482081
O O3 0.243787 0.229652 0.606588
O O4 0.135225 0.227425 0.529452
O O5 0.072770 0.500000 0.843751
O O6 0.135873 0.758956 0.797280
O O7 0.090914 0.767936 0.913462
O O8 0.000000 0.772532 0.826640
O O9 0.500000 0.734003 0.626754
O O10 0.413411 0.734119 0.535831
O O11 0.363268 0.723927 0.651003
O O12 0.423745 0.000000 0.608579
O O13 0.269967 0.500000 0.417378
O O14 0.364407 0.729082 0.420521
O O15 0.250407 0.778330 0.354702
O O16 0.500000 0.232610 0.945214
O O17 0.424619 0.500000 0.963406
O O18 0.251563 0.722058 0.729198
O O19 0.297901 0.000000 0.678110
O O20 0.776561 0.500000 0.291074
O O21 0.928907 0.500000 0.497301
O O22 0.000000 0.780729 0.497961
#
# Coordination Sequence:
#
# PCOD9356870 Si02
#       8
#     8   8   8   8   8   8   8   8
#     4  10  19  32  51  76 105 134 167 209 257 310
#     4  10  20  33  52  79 105 132 172 219 261 303
#     4   8  14  27  48  73  98 124 162 210 253 296
#     4  10  19  32  50  75 105 135 169 209 256 310
#     4   9  17  30  50  76 103 133 171 214 261 309
#     4  10  20  34  54  77 102 135 175 215 253 302
#     4  10  21  37  53  75 107 142 176 209 256 318
#     4   9  17  32  54  77 103 137 172 209 258 311
#
# _framework density 19.591024999999998
#
# number of rings (size 3 to 8) (size 9 to 14) (size 15 to 20)
#    0.000    2.500    2.500    1.125    0.000    2.500 
#    0.000    1.250    0.000    4.875    0.000    0.000 
#    0.000    0.000    0.000    0.000    0.000    0.000 
#
# Total GULP energy -178484.886239 kJ/mol
# GULP energy per Si atom -5577.652695 kJ/mol
# Density = 1.954644 g / cm^3
# Si number density = 19.591025 Si / 1000 Ang^3
#
#
#
# Elastic Constant Matrix: (Units=GPa)
#
#
# Indices 1 2 3 4 5 6 
#
# 1 161.6044 -4.9357 75.4675 0.0000 0.0000 0.0000
# 2 -4.9357 31.4630 0.4272 0.0000 0.0000 0.0000
# 3 75.4675 0.4272 103.6817 0.0000 0.0000 0.0000
# 4 0.0000 0.0000 0.0000 12.5420 0.0000 0.0000
# 5 0.0000 0.0000 0.0000 0.0000 53.9483 0.0000
# 6 0.0000 0.0000 0.0000 0.0000 0.0000 18.0893
#
#
#
# Elastic Compliance Matrix: (Units=1/GPa)
#
#
# Indices 1 2 3 4 5 6 
#
# 1 0.009452 0.001576 -0.006886 0.000000 0.000000 0.000000
# 2 0.001576 0.032048 -0.001279 0.000000 0.000000 0.000000
# 3 -0.006886 -0.001279 0.014663 0.000000 0.000000 0.000000
# 4 0.000000 0.000000 0.000000 0.079732 0.000000 0.000000
# 5 0.000000 0.000000 0.000000 0.000000 0.018536 0.000000
# 6 0.000000 0.000000 0.000000 0.000000 0.000000 0.055281
#
#
# Mechanical properties :
#
#
# Convention : Reuss Voigt Hill
#
# Bulk Modulus (GPa) = 23.26464 48.74077 36.00270
# Shear Modulus (GPa) = 21.07756 31.96859 26.52308
#
# Velocity S-wave (km/s) = 3.28362 4.04393 3.68345
# Velocity P-wave (km/s) = 5.12612 6.83650 6.04214
#
# Compressibility (1/GPa) = 0.04298368
#
# Stress axis : x y z
#
# Youngs Moduli (GPa) = 105.79846 31.20315 68.20088
#
# Poissons Ratio (x) = -0.04918 0.46965
# Poissons Ratio (y) = -0.16677 0.08725
# Poissons Ratio (z) = 0.72856 0.03992
#
# Static dielectric constant tensor:
#      x y z
#    x 1.700980 0.000000 0.000000 
#    y 0.000000 1.748850 0.000000 
#    z 0.000000 0.000000 1.656760 
# 
# From -- ./inp_files/23117.got.cif
#   From: 2010.05.17/outbox.cif.g08.bks.cpg/sg38_12_cif.got.tgz:23117.got - 2010.06.03 18:07:57.
