data_PCOD9356012
_publ_section_title
;
Structure prediction by ZEFSAII (Michael W. Deem and Ramdas Pophale) SiO2 
 PCOD9356012
Probable space group: A M M 2
;
_chemical_formula_sum "Si O2"
_cell_formula_units_Z 64
_cell_length_a 19.958061
_cell_length_b 9.356306
_cell_length_c 20.894392
_cell_angle_alpha 90.000000
_cell_angle_beta 90.000000
_cell_angle_gamma 90.000000
_cell_volume 3901.687668
_symmetry_space_group_name_H-M "A M M 2"
_symmetry_group_IT_number 38
_symmetry_cell_setting 'orthorhombic'
loop_
_space_group_symop_operation_xyz
x,y,z
-x,-y,z
-x,y,z
x,-y,z
x,1/2+y,1/2+z
-x,1/2-y,1/2+z
-x,1/2+y,1/2+z
x,1/2-y,1/2+z
loop_
_atom_site_type_symbol
_atom_site_label
_atom_site_fract_x
_atom_site_fract_y
_atom_site_fract_z
Si Si1 0.577263 0.826051 0.262070
Si Si2 0.336767 0.671225 0.885499
Si Si3 0.074854 0.666250 0.933445
Si Si4 0.648037 0.327450 0.630151
Si Si5 0.207814 0.670389 0.432982
Si Si6 0.793388 0.329529 0.585297
Si Si7 0.073894 0.166497 0.588825
Si Si8 0.421495 0.831078 0.513540
O O1 0.500000 0.777053 0.264828
O O2 0.621023 0.783606 0.323375
O O3 0.613825 0.782866 0.196551
O O4 0.575381 0.000000 0.262621
O O5 0.324512 0.500000 0.881583
O O6 0.267558 0.753972 0.895129
O O7 0.381612 0.697868 0.948350
O O8 0.086418 0.500000 0.916264
O O9 0.136057 0.765203 0.912892
O O10 0.000000 0.707848 0.911527
O O11 0.073591 0.672218 0.011117
O O12 0.644885 0.500000 0.625933
O O13 0.726075 0.286607 0.622475
O O14 0.608341 0.259928 0.571182
O O15 0.209486 0.500000 0.425657
O O16 0.216527 0.702727 0.509356
O O17 0.801646 0.500000 0.590341
O O18 0.860891 0.253708 0.608953
O O19 0.000000 0.218330 0.609946
O O20 0.080179 0.000000 0.606554
O O21 0.500000 0.801635 0.504783
O O22 0.413855 0.000000 0.527790
#
# Coordination Sequence:
#
# PCOD9356012 Si02
#       8
#     8   8   8   8   8   8   8   8
#     4   9  18  33  53  73  92 121 163 207 246 287
#     4  10  19  32  50  70  93 124 162 202 243 287
#     4   8  14  25  41  63  93 128 163 196 233 280
#     4  10  19  33  51  72  97 125 159 198 242 291
#     4  10  18  28  43  67  99 129 159 196 240 290
#     4   9  17  27  41  65  96 125 154 190 232 282
#     4   8  14  24  39  61  90 124 159 191 226 272
#     4  10  20  32  48  71  96 121 153 196 244 293
#
# _framework density 16.403158000000001
#
# number of rings (size 3 to 8) (size 9 to 14) (size 15 to 20)
#    0.000    2.750    1.250    1.875    0.000    3.750 
#    0.000    3.125    0.000    1.875    0.000    0.875 
#    0.000    3.000    0.000    0.000    0.000    0.000 
#
# Total GULP energy -178281.956068 kJ/mol
# GULP energy per Si atom -5571.311127 kJ/mol
# Density = 1.636582 g / cm^3
# Si number density = 16.403158 Si / 1000 Ang^3
#
#
#
# Elastic Constant Matrix: (Units=GPa)
#
#
# Indices 1 2 3 4 5 6 
#
# 1 183.4575 62.6939 63.2232 0.0000 0.0000 0.0000
# 2 62.6939 30.6109 34.5403 0.0000 0.0000 0.0000
# 3 63.2232 34.5403 78.5386 0.0000 0.0000 0.0000
# 4 0.0000 0.0000 0.0000 13.1410 0.0000 0.0000
# 5 0.0000 0.0000 0.0000 0.0000 17.2262 0.0000
# 6 0.0000 0.0000 0.0000 0.0000 0.0000 25.4215
#
#
#
# Elastic Compliance Matrix: (Units=1/GPa)
#
#
# Indices 1 2 3 4 5 6 
#
# 1 0.018648 -0.042191 0.003544 0.000000 0.000000 0.000000
# 2 -0.042191 0.160306 -0.036537 0.000000 0.000000 0.000000
# 3 0.003544 -0.036537 0.025949 0.000000 0.000000 0.000000
# 4 0.000000 0.000000 0.000000 0.076098 0.000000 0.000000
# 5 0.000000 0.000000 0.000000 0.000000 0.058051 0.000000
# 6 0.000000 0.000000 0.000000 0.000000 0.000000 0.039337
#
#
# Mechanical properties :
#
#
# Convention : Reuss Voigt Hill
#
# Bulk Modulus (GPa) = 18.33734 68.16909 43.25322
# Shear Modulus (GPa) = 9.14187 19.96773 14.55480
#
# Velocity S-wave (km/s) = 2.36333 3.49278 2.98202
# Velocity P-wave (km/s) = 4.31863 7.61018 6.18730
#
# Compressibility (1/GPa) = 0.05453353
#
# Stress axis : x y z
#
# Youngs Moduli (GPa) = 53.62604 6.23808 38.53766
#
# Poissons Ratio (x) = 0.26319 -0.13656
# Poissons Ratio (y) = 2.26252 1.40806
# Poissons Ratio (z) = -0.19003 0.22792
#
# Static dielectric constant tensor:
#      x y z
#    x 1.561310 0.000000 0.000000 
#    y 0.000000 1.542150 0.000000 
#    z 0.000000 0.000000 1.531890 
# 
# From -- ./inp_files/18770.got.cif
#   From: 2010.05.17/outbox.cif.g08.bks.cpg/sg38_10_cif.got.tgz:18770.got - 2010.06.03 18:07:57.
