data_PCOD9356970
_publ_section_title
;
Structure prediction by ZEFSAII (Michael W. Deem and Ramdas Pophale) SiO2 
 PCOD9356970
Probable space group: A M M 2
;
_chemical_formula_sum "Si O2"
_cell_formula_units_Z 32
_cell_length_a 12.909240
_cell_length_b 8.092793
_cell_length_c 15.072479
_cell_angle_alpha 90.000000
_cell_angle_beta 90.000000
_cell_angle_gamma 90.000000
_cell_volume 1574.649119
_symmetry_space_group_name_H-M "A M M 2"
_symmetry_group_IT_number 38
_symmetry_cell_setting 'orthorhombic'
loop_
_space_group_symop_operation_xyz
x,y,z
-x,-y,z
-x,y,z
x,-y,z
x,1/2+y,1/2+z
-x,1/2-y,1/2+z
-x,1/2+y,1/2+z
x,1/2-y,1/2+z
loop_
_atom_site_type_symbol
_atom_site_label
_atom_site_fract_x
_atom_site_fract_y
_atom_site_fract_z
Si Si1 0.500000 0.307260 0.329440
Si Si2 0.275039 0.195538 0.537577
Si Si3 0.500000 0.690071 0.545643
Si Si4 0.881469 0.797419 0.688559
Si Si5 0.723688 0.301797 0.335247
O O1 0.500000 0.500000 0.301472
O O2 0.500000 0.304326 0.437429
O O3 0.611237 0.233277 0.304336
O O4 0.391310 0.230282 0.572771
O O5 0.187505 0.256640 0.604888
O O6 0.263802 0.268390 0.439319
O O7 0.264083 0.000000 0.529442
O O8 0.500000 0.500000 0.572562
O O9 0.818747 0.743002 0.775875
O O10 0.000000 0.741685 0.685943
O O11 0.882852 0.000000 0.688229
O O12 0.717718 0.500000 0.324578
#
# Coordination Sequence:
#
# PCOD9356970 Si02
#       5
#     4   8   4   8   8
#     4   7  12  24  45  71  92 116 156 203 245 289
#     4  10  19  32  53  80 107 134 169 216 265 306
#     4   9  17  32  53  77 106 136 168 207 257 319
#     4   9  19  34  51  74 105 142 182 216 250 304
#     4   9  17  32  53  73  99 137 175 211 256 312
#
# _framework density 20.321988000000001
#
# number of rings (size 3 to 8) (size 9 to 14) (size 15 to 20)
#    0.000    3.000    0.000    2.625    0.000    2.000 
#    0.000    6.250    0.000    5.250    0.000    0.000 
#    0.000    0.000    0.000    0.000    0.000    0.000 
#
# Total GULP energy -89211.723346 kJ/mol
# GULP energy per Si atom -5575.732709 kJ/mol
# Density = 2.027573 g / cm^3
# Si number density = 20.321988 Si / 1000 Ang^3
#
#
#
# Elastic Constant Matrix: (Units=GPa)
#
#
# Indices 1 2 3 4 5 6 
#
# 1 237.3016 7.6779 93.7169 0.0000 0.0000 0.0000
# 2 7.6779 7.6584 -6.7283 0.0000 0.0000 0.0000
# 3 93.7169 -6.7283 89.9966 0.0000 0.0000 0.0000
# 4 0.0000 0.0000 0.0000 15.0163 0.0000 0.0000
# 5 0.0000 0.0000 0.0000 0.0000 34.0323 0.0000
# 6 0.0000 0.0000 0.0000 0.0000 0.0000 14.8419
#
#
#
# Elastic Compliance Matrix: (Units=1/GPa)
#
#
# Indices 1 2 3 4 5 6 
#
# 1 0.009126 -0.018729 -0.010904 0.000000 0.000000 0.000000
# 2 -0.018729 0.178189 0.032824 0.000000 0.000000 0.000000
# 3 -0.010904 0.032824 0.024920 0.000000 0.000000 0.000000
# 4 0.000000 0.000000 0.000000 0.066594 0.000000 0.000000
# 5 0.000000 0.000000 0.000000 0.000000 0.029384 0.000000
# 6 0.000000 0.000000 0.000000 0.000000 0.000000 0.067377
#
#
# Mechanical properties :
#
#
# Convention : Reuss Voigt Hill
#
# Bulk Modulus (GPa) = 4.57416 58.25440 31.41428
# Shear Modulus (GPa) = 11.31023 28.79745 20.05384
#
# Velocity S-wave (km/s) = 2.36169 3.76847 3.14475
# Velocity P-wave (km/s) = 3.11328 6.90384 5.35517
#
# Compressibility (1/GPa) = 0.21861918
#
# Stress axis : x y z
#
# Youngs Moduli (GPa) = 109.57567 5.61203 40.12872
#
# Poissons Ratio (x) = 0.10511 0.43755
# Poissons Ratio (y) = 2.05219 -1.31720
# Poissons Ratio (z) = 1.19476 -0.18421
#
# Static dielectric constant tensor:
#      x y z
#    x 1.739910 0.000000 0.000000 
#    y 0.000000 1.723590 0.000000 
#    z 0.000000 0.000000 1.729450 
# 
# From -- ./inp_files/13304.got.cif
#   From: 2010.05.17/outbox.cif.g08.bks.cpg/sg38_7_cif.got.tgz:13304.got - 2010.06.03 18:07:57.
