data_PCOD9356682
_publ_section_title
;
Structure prediction by ZEFSAII (Michael W. Deem and Ramdas Pophale) SiO2 
 PCOD9356682
Probable space group: A M M 2
;
_chemical_formula_sum "Si O2"
_cell_formula_units_Z 48
_cell_length_a 7.688608
_cell_length_b 14.355523
_cell_length_c 19.135392
_cell_angle_alpha 90.000000
_cell_angle_beta 90.000000
_cell_angle_gamma 90.000000
_cell_volume 2112.049546
_symmetry_space_group_name_H-M "A M M 2"
_symmetry_group_IT_number 38
_symmetry_cell_setting 'orthorhombic'
loop_
_space_group_symop_operation_xyz
x,y,z
-x,-y,z
-x,y,z
x,-y,z
x,1/2+y,1/2+z
-x,1/2-y,1/2+z
-x,1/2+y,1/2+z
x,1/2-y,1/2+z
loop_
_atom_site_type_symbol
_atom_site_label
_atom_site_fract_x
_atom_site_fract_y
_atom_site_fract_z
Si Si1 0.297471 0.600632 0.877880
Si Si2 0.305541 0.250585 0.105098
Si Si3 0.286094 0.392003 0.213671
Si Si4 0.702928 0.798509 0.856818
Si Si5 0.792774 0.896423 0.215865
Si Si6 0.204347 0.898241 0.990804
O O1 0.500000 0.599814 0.899773
O O2 0.221818 0.500000 0.901314
O O3 0.220309 0.703331 0.890927
O O4 0.281632 0.600302 0.793648
O O5 0.500000 0.275157 0.082480
O O6 0.226161 0.341905 0.141966
O O7 0.302722 0.179043 0.170018
O O8 0.230562 0.187508 0.043564
O O9 0.500000 0.388554 0.213532
O O10 0.236161 0.500000 0.217973
O O11 0.225474 0.335714 0.282984
O O12 0.500000 0.777676 0.843562
O O13 0.713295 0.875946 0.916150
O O14 0.000000 0.876290 0.218391
O O15 0.773813 0.000000 0.185480
O O16 0.000000 0.904151 0.979416
O O17 0.265821 0.000000 0.016899
#
# Coordination Sequence:
#
# PCOD9356682 Si02
#       6
#     8   8   8   8   8   8
#     4   9  17  31  53  83 115 145 185 233 276 326
#     4  11  21  36  58  84 111 147 192 237 287 340
#     4   9  18  34  58  88 117 144 184 239 290 338
#     4  10  19  36  61  88 117 152 192 234 285 342
#     4  10  19  30  48  77 113 148 179 221 279 334
#     4  11  25  42  58  82 117 154 192 238 293 348
#
# _framework density 22.726739999999999
#
# number of rings (size 3 to 8) (size 9 to 14) (size 15 to 20)
#    0.000    2.000    1.667    2.500    0.000    5.667 
#    0.000    0.833    0.000    8.000    0.000    0.000 
#    0.000    0.000    0.000    0.000    0.000    0.000 
#
# Total GULP energy -133792.847264 kJ/mol
# GULP energy per Si atom -5574.701969 kJ/mol
# Density = 2.267501 g / cm^3
# Si number density = 22.726740 Si / 1000 Ang^3
#
#
#
# Elastic Constant Matrix: (Units=GPa)
#
#
# Indices 1 2 3 4 5 6 
#
# 1 47.6920 14.3518 -1.0598 0.0000 0.0000 0.0000
# 2 14.3518 156.2965 36.8303 0.0000 0.0000 0.0000
# 3 -1.0598 36.8303 60.1255 0.0000 0.0000 0.0000
# 4 0.0000 0.0000 0.0000 19.7873 0.0000 0.0000
# 5 0.0000 0.0000 0.0000 0.0000 31.1268 0.0000
# 6 0.0000 0.0000 0.0000 0.0000 0.0000 114.3822
#
#
#
# Elastic Compliance Matrix: (Units=1/GPa)
#
#
# Indices 1 2 3 4 5 6 
#
# 1 0.021744 -0.002439 0.001877 0.000000 0.000000 0.000000
# 2 -0.002439 0.007751 -0.004791 0.000000 0.000000 0.000000
# 3 0.001877 -0.004791 0.019600 0.000000 0.000000 0.000000
# 4 0.000000 0.000000 0.000000 0.050537 0.000000 0.000000
# 5 0.000000 0.000000 0.000000 0.000000 0.032127 0.000000
# 6 0.000000 0.000000 0.000000 0.000000 0.000000 0.008743
#
#
# Mechanical properties :
#
#
# Convention : Reuss Voigt Hill
#
# Bulk Modulus (GPa) = 26.04912 40.48429 33.26670
# Shear Modulus (GPa) = 30.48734 47.32536 38.90635
#
# Velocity S-wave (km/s) = 3.66659 4.56824 4.14202
# Velocity P-wave (km/s) = 5.42328 6.75850 6.12737
#
# Compressibility (1/GPa) = 0.03838902
#
# Stress axis : x y z
#
# Youngs Moduli (GPa) = 45.99066 129.01552 51.02125
#
# Poissons Ratio (x) = 0.31466 -0.09578
# Poissons Ratio (y) = 0.11217 0.24444
# Poissons Ratio (z) = -0.08634 0.61810
#
# Static dielectric constant tensor:
#      x y z
#    x 1.826900 0.000000 0.000000 
#    y 0.000000 1.948190 0.000000 
#    z 0.000000 0.000000 1.806500 
# 
# From -- ./inp_files/16633.got.cif
#   From: 2010.05.17/outbox.cif.g08.bks.cpg/sg38_9_cif.got.tgz:16633.got - 2010.06.03 18:07:57.
