data_PCOD9356232
_publ_section_title
;
Structure prediction by ZEFSAII (Michael W. Deem and Ramdas Pophale) SiO2 
 PCOD9356232
Probable space group: A M M 2
;
_chemical_formula_sum "Si O2"
_cell_formula_units_Z 64
_cell_length_a 15.171655
_cell_length_b 8.253605
_cell_length_c 25.187326
_cell_angle_alpha 90.000000
_cell_angle_beta 90.000000
_cell_angle_gamma 90.000000
_cell_volume 3153.978310
_symmetry_space_group_name_H-M "A M M 2"
_symmetry_group_IT_number 38
_symmetry_cell_setting 'orthorhombic'
loop_
_space_group_symop_operation_xyz
x,y,z
-x,-y,z
-x,y,z
x,-y,z
x,1/2+y,1/2+z
-x,1/2-y,1/2+z
-x,1/2+y,1/2+z
x,1/2-y,1/2+z
loop_
_atom_site_type_symbol
_atom_site_label
_atom_site_fract_x
_atom_site_fract_y
_atom_site_fract_z
Si Si1 0.157640 0.689922 0.036140
Si Si2 0.727595 0.690663 0.197349
Si Si3 0.660581 0.186050 0.001554
Si Si4 0.097352 0.808184 0.149249
Si Si5 0.595872 0.304214 0.611018
Si Si6 0.095492 0.304663 0.919266
Si Si7 0.600803 0.806190 0.790270
Si Si8 0.710343 0.190422 0.389475
O O1 0.183570 0.500000 0.034014
O O2 0.112999 0.724214 0.092226
O O3 0.243479 0.799776 0.028851
O O4 0.101858 0.721969 0.982857
O O5 0.739515 0.500000 0.205694
O O6 0.823489 0.765675 0.188797
O O7 0.672697 0.721068 0.143697
O O8 0.665401 0.758602 0.244065
O O9 0.667510 0.284231 0.947425
O O10 0.640087 0.000000 0.988293
O O11 0.598754 0.242666 0.049177
O O12 0.000000 0.763438 0.169244
O O13 0.099704 0.000000 0.139750
O O14 0.500000 0.263419 0.634027
O O15 0.607199 0.500000 0.613093
O O16 0.095968 0.500000 0.912058
O O17 0.188149 0.245654 0.894194
O O18 0.000000 0.243028 0.900077
O O19 0.500000 0.742951 0.788860
O O20 0.650006 0.772610 0.845451
O O21 0.595201 0.000000 0.782772
O O22 0.714621 0.000000 0.377739
#
# Coordination Sequence:
#
# PCOD9356232 Si02
#       8
#     8   8   8   8   8   8   8   8
#     4  10  18  30  52  82 116 156 201 244 285 336
#     4  11  23  40  63  87 114 148 194 252 303 351
#     4  10  19  33  54  81 121 164 194 233 292 353
#     4  11  23  37  55  83 120 160 199 239 289 351
#     4  10  21  36  56  84 118 156 193 232 291 363
#     4   8  15  29  50  79 116 153 188 228 276 331
#     4  10  23  44  66  86 110 146 192 243 304 365
#     4  10  21  36  58  88 117 149 196 248 293 342
#
# _framework density 20.291833
#
# number of rings (size 3 to 8) (size 9 to 14) (size 15 to 20)
#    0.000    2.000    1.250    3.375    0.000    4.500 
#    0.000    1.875    0.000    9.750    0.000    0.000 
#    0.000    0.000    0.000    0.000    0.000    0.000 
#
# Total GULP energy -178534.717639 kJ/mol
# GULP energy per Si atom -5579.209926 kJ/mol
# Density = 2.024565 g / cm^3
# Si number density = 20.291833 Si / 1000 Ang^3
#
#
#
# Elastic Constant Matrix: (Units=GPa)
#
#
# Indices 1 2 3 4 5 6 
#
# 1 144.4187 10.4586 55.3342 0.0000 0.0000 0.0000
# 2 10.4586 17.9147 2.3265 0.0000 0.0000 0.0000
# 3 55.3342 2.3265 77.1894 0.0000 0.0000 0.0000
# 4 0.0000 0.0000 0.0000 24.1581 0.0000 0.0000
# 5 0.0000 0.0000 0.0000 0.0000 15.4249 0.0000
# 6 0.0000 0.0000 0.0000 0.0000 0.0000 19.3859
#
#
#
# Elastic Compliance Matrix: (Units=1/GPa)
#
#
# Indices 1 2 3 4 5 6 
#
# 1 0.009958 -0.004906 -0.006991 0.000000 0.000000 0.000000
# 2 -0.004906 0.058456 0.001755 0.000000 0.000000 0.000000
# 3 -0.006991 0.001755 0.017914 0.000000 0.000000 0.000000
# 4 0.000000 0.000000 0.000000 0.041394 0.000000 0.000000
# 5 0.000000 0.000000 0.000000 0.000000 0.064830 0.000000
# 6 0.000000 0.000000 0.000000 0.000000 0.000000 0.051584
#
#
# Mechanical properties :
#
#
# Convention : Reuss Voigt Hill
#
# Bulk Modulus (GPa) = 15.14124 41.75127 28.44626
# Shear Modulus (GPa) = 17.45601 23.22066 20.33833
#
# Velocity S-wave (km/s) = 2.93618 3.38647 3.16933
# Velocity P-wave (km/s) = 4.35578 5.99258 5.23850
#
# Compressibility (1/GPa) = 0.06604477
#
# Stress axis : x y z
#
# Youngs Moduli (GPa) = 100.42100 17.10682 55.82342
#
# Poissons Ratio (x) = 0.08392 0.39025
# Poissons Ratio (y) = 0.49263 -0.09796
# Poissons Ratio (z) = 0.70201 -0.03002
#
# Static dielectric constant tensor:
#      x y z
#    x 1.763350 0.000000 0.000000 
#    y 0.000000 1.703910 0.000000 
#    z 0.000000 0.000000 1.711920 
# 
# From -- ./inp_files/22950.got.cif
#   From: 2010.05.17/outbox.cif.g08.bks.cpg/sg38_12_cif.got.tgz:22950.got - 2010.06.03 18:07:57.
