data_PCOD9356480
_publ_section_title
;
Structure prediction by ZEFSAII (Michael W. Deem and Ramdas Pophale) SiO2 
 PCOD9356480
Probable space group: A M M 2
;
_chemical_formula_sum "Si O2"
_cell_formula_units_Z 58
_cell_length_a 17.011473
_cell_length_b 21.424959
_cell_length_c 9.699459
_cell_angle_alpha 90.000000
_cell_angle_beta 90.000000
_cell_angle_gamma 90.000000
_cell_volume 3535.162904
_symmetry_space_group_name_H-M "A M M 2"
_symmetry_group_IT_number 38
_symmetry_cell_setting 'orthorhombic'
loop_
_space_group_symop_operation_xyz
x,y,z
-x,-y,z
-x,y,z
x,-y,z
x,1/2+y,1/2+z
-x,1/2-y,1/2+z
-x,1/2+y,1/2+z
x,1/2-y,1/2+z
loop_
_atom_site_type_symbol
_atom_site_label
_atom_site_fract_x
_atom_site_fract_y
_atom_site_fract_z
Si Si1 0.684443 0.160563 0.975210
Si Si2 0.592852 0.790487 0.462752
Si Si3 0.093096 0.181113 0.365596
Si Si4 0.287697 0.850326 0.669140
Si Si5 0.826142 0.263134 0.600153
Si Si6 0.636064 0.104435 0.252393
Si Si7 0.787965 0.072277 0.430746
Si Si8 0.500000 0.500000 0.785803
O O1 0.631050 0.222290 0.955535
O O2 0.695668 0.131087 0.825217
O O3 0.767105 0.186223 0.034699
O O4 0.646756 0.116530 0.090445
O O5 0.500000 0.787185 0.480001
O O6 0.634616 0.827243 0.588321
O O7 0.614405 0.829957 0.326211
O O8 0.124128 0.229672 0.480878
O O9 0.120560 0.207058 0.217821
O O10 0.139666 0.116990 0.393534
O O11 0.000000 0.173959 0.373127
O O12 0.229451 0.790468 0.666829
O O13 0.247860 0.903149 0.575333
O O14 0.718421 0.083404 0.319842
O O15 0.568940 0.054596 0.283894
O O16 0.808741 0.000000 0.436203
#
# Coordination Sequence:
#
# PCOD9356480 Si02
#       8
#     8   8   8   8   8   8   8   2
#     4  11  20  34  56  84 113 145 183 237 291 350
#     4  10  20  33  53  82 111 144 185 234 292 343
#     4  11  21  34  59  91 120 148 183 231 286 343
#     4   9  20  34  55  78 110 148 187 227 282 342
#     4  10  18  35  56  86 121 147 175 224 294 349
#     4  11  22  38  61  79 111 155 192 235 285 336
#     4  10  21  40  59  78 106 156 200 229 269 336
#     4  12  24  40  56  82 114 152 208 244 272 336
#
# _framework density 16.406600000000001
#
# number of rings (size 3 to 8) (size 9 to 14) (size 15 to 20)
#    0.000    1.655    4.138    2.897    0.966    1.931 
#    1.241    0.000    0.000    3.310    0.000    0.000 
#    0.000    0.000    0.000    0.000    0.000    0.000 
#
# Total GULP energy -161639.711321 kJ/mol
# GULP energy per Si atom -5573.783149 kJ/mol
# Density = 1.636926 g / cm^3
# Si number density = 16.406600 Si / 1000 Ang^3
#
#
#
# Elastic Constant Matrix: (Units=GPa)
#
#
# Indices 1 2 3 4 5 6 
#
# 1 121.9556 21.8053 25.7989 0.0000 0.0000 0.0000
# 2 21.8053 62.1421 15.0834 0.0000 0.0000 0.0000
# 3 25.7989 15.0834 95.8392 0.0000 0.0000 0.0000
# 4 0.0000 0.0000 0.0000 3.3296 0.0000 0.0000
# 5 0.0000 0.0000 0.0000 0.0000 8.8727 0.0000
# 6 0.0000 0.0000 0.0000 0.0000 0.0000 8.8750
#
#
#
# Elastic Compliance Matrix: (Units=1/GPa)
#
#
# Indices 1 2 3 4 5 6 
#
# 1 0.009112 -0.002705 -0.002027 0.000000 0.000000 0.000000
# 2 -0.002705 0.017535 -0.002031 0.000000 0.000000 0.000000
# 3 -0.002027 -0.002031 0.011300 0.000000 0.000000 0.000000
# 4 0.000000 0.000000 0.000000 0.300335 0.000000 0.000000
# 5 0.000000 0.000000 0.000000 0.000000 0.112705 0.000000
# 6 0.000000 0.000000 0.000000 0.000000 0.000000 0.112675
#
#
# Mechanical properties :
#
#
# Convention : Reuss Voigt Hill
#
# Bulk Modulus (GPa) = 40.95254 45.03467 42.99360
# Shear Modulus (GPa) = 8.54220 18.69876 13.62048
#
# Velocity S-wave (km/s) = 2.28426 3.37962 2.88442
# Velocity P-wave (km/s) = 5.65441 6.53742 6.11188
#
# Compressibility (1/GPa) = 0.02441851
#
# Stress axis : x y z
#
# Youngs Moduli (GPa) = 109.74237 57.03035 88.49923
#
# Poissons Ratio (x) = 0.15429 0.17940
# Poissons Ratio (y) = 0.29690 0.17977
# Poissons Ratio (z) = 0.22246 0.11585
#
# Static dielectric constant tensor:
#      x y z
#    x 1.530390 0.000000 0.000000 
#    y 0.000000 1.532480 0.000000 
#    z 0.000000 0.000000 1.560010 
# 
# From -- ./inp_files/5841.got.cif
#   From: 2010.05.17/outbox.cif.g08.bks.cpg/sg38_3_cif.got.tgz:5841.got - 2010.06.03 18:07:57.
