data_PCOD9356409
_publ_section_title
;
Structure prediction by ZEFSAII (Michael W. Deem and Ramdas Pophale) SiO2 
 PCOD9356409
Probable space group: A M M 2
;
_chemical_formula_sum "Si O2"
_cell_formula_units_Z 52
_cell_length_a 12.911476
_cell_length_b 18.114486
_cell_length_c 13.966398
_cell_angle_alpha 90.000000
_cell_angle_beta 90.000000
_cell_angle_gamma 90.000000
_cell_volume 3266.527522
_symmetry_space_group_name_H-M "A M M 2"
_symmetry_group_IT_number 38
_symmetry_cell_setting 'orthorhombic'
loop_
_space_group_symop_operation_xyz
x,y,z
-x,-y,z
-x,y,z
x,-y,z
x,1/2+y,1/2+z
-x,1/2-y,1/2+z
-x,1/2+y,1/2+z
x,1/2-y,1/2+z
loop_
_atom_site_type_symbol
_atom_site_label
_atom_site_fract_x
_atom_site_fract_y
_atom_site_fract_z
Si Si1 0.298159 0.177887 0.563200
Si Si2 0.500000 0.366670 0.783203
Si Si3 0.500000 0.413628 0.565262
Si Si4 0.119362 0.411369 0.372616
Si Si5 0.120038 0.911792 0.647602
Si Si6 0.614341 0.776487 0.758632
Si Si7 0.500000 0.414510 0.997096
Si Si8 0.311269 0.331981 0.457998
O O1 0.196478 0.128275 0.574536
O O2 0.313634 0.210232 0.669702
O O3 0.397421 0.128819 0.532767
O O4 0.291649 0.249737 0.497023
O O5 0.500000 0.406089 0.680740
O O6 0.402704 0.309578 0.784069
O O7 0.500000 0.411407 0.880927
O O8 0.500000 0.500000 0.538571
O O9 0.397891 0.372923 0.522601
O O10 0.125916 0.500000 0.380522
O O11 0.140320 0.393349 0.260183
O O12 0.204031 0.375067 0.441681
O O13 0.000000 0.389848 0.393130
O O14 0.000000 0.893802 0.629026
O O15 0.132866 0.000000 0.639788
O O16 0.500000 0.800412 0.725280
O O17 0.641898 0.821499 0.852302
O O18 0.500000 0.500000 0.028737
#
# Coordination Sequence:
#
# PCOD9356409 Si02
#       8
#     8   4   4   8   8   8   4   8
#     4  12  20  34  55  77 105 134 175 217 251 303
#     4  10  19  38  50  70 109 146 166 206 249 304
#     4  12  23  34  51  81 107 138 173 206 257 306
#     4   9  19  35  53  75 104 136 168 210 263 308
#     4   9  19  35  53  75 104 136 168 210 263 308
#     4  10  18  33  53  73 107 133 170 210 264 294
#     4  12  23  34  51  81 107 138 173 206 257 306
#     4  12  20  34  55  77 105 134 175 217 251 303
#
# _framework density 15.919046
#
# number of rings (size 3 to 8) (size 9 to 14) (size 15 to 20)
#    0.462    0.923    6.154    2.538    0.000    0.615 
#    0.000    0.769    0.000    0.000    0.000    0.000 
#    0.000    7.385    0.000    0.000    0.000    0.000 
#
# Total GULP energy -144805.462966 kJ/mol
# GULP energy per Si atom -5569.440883 kJ/mol
# Density = 1.588281 g / cm^3
# Si number density = 15.919046 Si / 1000 Ang^3
#
#
#
# Elastic Constant Matrix: (Units=GPa)
#
#
# Indices 1 2 3 4 5 6 
#
# 1 114.7002 57.7124 23.7058 0.0000 0.0000 0.0000
# 2 57.7124 83.2929 22.1664 0.0000 0.0000 0.0000
# 3 23.7058 22.1664 48.4145 0.0000 0.0000 0.0000
# 4 0.0000 0.0000 0.0000 14.2172 0.0000 0.0000
# 5 0.0000 0.0000 0.0000 0.0000 11.5791 0.0000
# 6 0.0000 0.0000 0.0000 0.0000 0.0000 28.4183
#
#
#
# Elastic Compliance Matrix: (Units=1/GPa)
#
#
# Indices 1 2 3 4 5 6 
#
# 1 0.013685 -0.008767 -0.002687 0.000000 0.000000 0.000000
# 2 -0.008767 0.019288 -0.004538 0.000000 0.000000 0.000000
# 3 -0.002687 -0.004538 0.024048 0.000000 0.000000 0.000000
# 4 0.000000 0.000000 0.000000 0.070337 0.000000 0.000000
# 5 0.000000 0.000000 0.000000 0.000000 0.086362 0.000000
# 6 0.000000 0.000000 0.000000 0.000000 0.000000 0.035189
#
#
# Mechanical properties :
#
#
# Convention : Reuss Voigt Hill
#
# Bulk Modulus (GPa) = 39.94051 50.39743 45.16897
# Shear Modulus (GPa) = 17.28672 20.36446 18.82559
#
# Velocity S-wave (km/s) = 3.29890 3.58054 3.44260
# Velocity P-wave (km/s) = 6.29718 6.98720 6.65115
#
# Compressibility (1/GPa) = 0.02503724
#
# Stress axis : x y z
#
# Youngs Moduli (GPa) = 73.07338 51.84539 41.58285
#
# Poissons Ratio (x) = 0.45453 0.11172
# Poissons Ratio (y) = 0.64064 0.18871
# Poissons Ratio (z) = 0.19633 0.23529
#
# Static dielectric constant tensor:
#      x y z
#    x 1.534160 0.000000 0.000000 
#    y 0.000000 1.541500 0.000000 
#    z 0.000000 0.000000 1.520370 
# 
# From -- ./inp_files/13891.got.cif
#   From: 2010.05.17/outbox.cif.g08.bks.cpg/sg38_7_cif.got.tgz:13891.got - 2010.06.03 18:07:57.
