data_PCOD9356988
_publ_section_title
;
Structure prediction by ZEFSAII (Michael W. Deem and Ramdas Pophale) SiO2 
 PCOD9356988
Probable space group: A M M 2
;
_chemical_formula_sum "Si O2"
_cell_formula_units_Z 56
_cell_length_a 15.431590
_cell_length_b 8.821946
_cell_length_c 20.645229
_cell_angle_alpha 90.000000
_cell_angle_beta 90.000000
_cell_angle_gamma 90.000000
_cell_volume 2810.572390
_symmetry_space_group_name_H-M "A M M 2"
_symmetry_group_IT_number 38
_symmetry_cell_setting 'orthorhombic'
loop_
_space_group_symop_operation_xyz
x,y,z
-x,-y,z
-x,y,z
x,-y,z
x,1/2+y,1/2+z
-x,1/2-y,1/2+z
-x,1/2+y,1/2+z
x,1/2-y,1/2+z
loop_
_atom_site_type_symbol
_atom_site_label
_atom_site_fract_x
_atom_site_fract_y
_atom_site_fract_z
Si Si1 0.334767 0.675575 0.945360
Si Si2 0.727988 0.820217 0.671724
Si Si3 0.867837 0.676886 0.981020
Si Si4 0.276294 0.681543 0.804963
Si Si5 0.401223 0.321736 0.569379
Si Si6 0.903038 0.681726 0.620912
Si Si7 0.904857 0.680817 0.344880
O O1 0.363489 0.500000 0.947149
O O2 0.236135 0.680337 0.972212
O O3 0.327264 0.725698 0.870586
O O4 0.389622 0.774632 0.994610
O O5 0.691368 0.755821 0.739077
O O6 0.666555 0.769094 0.613069
O O7 0.823583 0.751262 0.660555
O O8 0.734612 0.000000 0.673689
O O9 0.893931 0.500000 0.978437
O O10 0.903739 0.768954 0.920037
O O11 0.894057 0.751456 0.048452
O O12 0.278458 0.500000 0.800855
O O13 0.176821 0.734654 0.814195
O O14 0.500000 0.291035 0.589473
O O15 0.383418 0.500000 0.576669
O O16 0.894202 0.500000 0.619056
O O17 0.000000 0.718905 0.645036
O O18 0.892732 0.500000 0.339679
O O19 0.000000 0.720132 0.317944
#
# Coordination Sequence:
#
# PCOD9356988 Si02
#       7
#     8   8   8   8   8   8   8
#     4   9  19  37  62  92 121 155 198 247 306 365
#     4  12  25  42  64  91 126 167 210 258 313 373
#     4  10  19  32  53  83 118 157 202 255 311 363
#     4  10  22  40  62  86 119 162 206 254 311 370
#     4  11  24  42  68  99 128 161 202 251 309 372
#     4  11  23  37  56  84 120 165 213 260 311 367
#     4  10  20  33  51  79 116 159 209 260 308 363
#
# _framework density 19.924766999999999
#
# number of rings (size 3 to 8) (size 9 to 14) (size 15 to 20)
#    0.000    1.571    1.429    4.714    0.000    8.571 
#    0.000    0.714    0.000    0.857    0.000    0.000 
#    0.000    0.000    0.000    0.000    0.000    0.000 
#
# Total GULP energy -156490.997799 kJ/mol
# GULP energy per Si atom -5588.964207 kJ/mol
# Density = 1.987942 g / cm^3
# Si number density = 19.924767 Si / 1000 Ang^3
#
#
#
# Elastic Constant Matrix: (Units=GPa)
#
#
# Indices 1 2 3 4 5 6 
#
# 1 37.0409 31.4805 23.1682 0.0000 0.0000 0.0000
# 2 31.4805 81.0061 33.6982 0.0000 0.0000 0.0000
# 3 23.1682 33.6982 114.7194 0.0000 0.0000 0.0000
# 4 0.0000 0.0000 0.0000 34.8845 0.0000 0.0000
# 5 0.0000 0.0000 0.0000 0.0000 17.6235 0.0000
# 6 0.0000 0.0000 0.0000 0.0000 0.0000 9.2257
#
#
#
# Elastic Compliance Matrix: (Units=1/GPa)
#
#
# Indices 1 2 3 4 5 6 
#
# 1 0.042018 -0.014581 -0.004203 0.000000 0.000000 0.000000
# 2 -0.014581 0.019123 -0.002673 0.000000 0.000000 0.000000
# 3 -0.004203 -0.002673 0.010351 0.000000 0.000000 0.000000
# 4 0.000000 0.000000 0.000000 0.028666 0.000000 0.000000
# 5 0.000000 0.000000 0.000000 0.000000 0.056742 0.000000
# 6 0.000000 0.000000 0.000000 0.000000 0.000000 0.108393
#
#
# Mechanical properties :
#
#
# Convention : Reuss Voigt Hill
#
# Bulk Modulus (GPa) = 34.99014 45.49559 40.24286
# Shear Modulus (GPa) = 15.73658 21.97470 18.85564
#
# Velocity S-wave (km/s) = 2.81339 3.32457 3.07960
# Velocity P-wave (km/s) = 5.30592 6.13354 5.73468
#
# Compressibility (1/GPa) = 0.02857948
#
# Stress axis : x y z
#
# Youngs Moduli (GPa) = 23.79946 52.29344 96.61134
#
# Poissons Ratio (x) = 0.76247 0.40603
# Poissons Ratio (y) = 0.34701 0.25820
# Poissons Ratio (z) = 0.10002 0.13976
#
# Static dielectric constant tensor:
#      x y z
#    x 1.704110 0.000000 0.000000 
#    y 0.000000 1.660520 0.000000 
#    z 0.000000 0.000000 1.712950 
# 
# From -- ./inp_files/21100.got.cif
#   From: 2010.05.17/outbox.cif.g08.bks.cpg/sg38_11_cif.got.tgz:21100.got - 2010.06.03 18:07:57.
