data_PCOD9356256
_publ_section_title
;
Structure prediction by ZEFSAII (Michael W. Deem and Ramdas Pophale) SiO2 
 PCOD9356256
Probable space group: A M M 2
;
_chemical_formula_sum "Si O2"
_cell_formula_units_Z 64
_cell_length_a 8.042820
_cell_length_b 31.467724
_cell_length_c 14.774740
_cell_angle_alpha 90.000000
_cell_angle_beta 90.000000
_cell_angle_gamma 90.000000
_cell_volume 3739.327717
_symmetry_space_group_name_H-M "A M M 2"
_symmetry_group_IT_number 38
_symmetry_cell_setting 'orthorhombic'
loop_
_space_group_symop_operation_xyz
x,y,z
-x,-y,z
-x,y,z
x,-y,z
x,1/2+y,1/2+z
-x,1/2-y,1/2+z
-x,1/2+y,1/2+z
x,1/2-y,1/2+z
loop_
_atom_site_type_symbol
_atom_site_label
_atom_site_fract_x
_atom_site_fract_y
_atom_site_fract_z
Si Si1 0.800881 0.365492 0.685410
Si Si2 0.806579 0.235432 0.862265
Si Si3 0.191385 0.132454 0.554872
Si Si4 0.309915 0.671719 0.876123
Si Si5 0.201464 0.285903 0.159189
Si Si6 0.693942 0.797032 0.043739
Si Si7 0.203487 0.451909 0.976564
Si Si8 0.797311 0.452177 0.767080
O O1 0.749406 0.341113 0.776833
O O2 0.731699 0.338986 0.601727
O O3 0.742909 0.413961 0.702246
O O4 0.000000 0.365300 0.678707
O O5 0.705143 0.277780 0.884276
O O6 0.753660 0.217821 0.764708
O O7 0.000000 0.248038 0.853820
O O8 0.787345 0.204924 0.948033
O O9 0.198015 0.150677 0.452944
O O10 0.266254 0.170140 0.615534
O O11 0.264610 0.085287 0.542779
O O12 0.000000 0.127437 0.584366
O O13 0.500000 0.658303 0.890086
O O14 0.258362 0.244322 0.104016
O O15 0.000000 0.286298 0.152130
O O16 0.500000 0.794729 0.024566
O O17 0.252955 0.500000 0.999997
O O18 0.000000 0.450550 0.977072
O O19 0.253278 0.443901 0.871691
O O20 0.743867 0.500000 0.742810
O O21 0.000000 0.451978 0.767152
#
# Coordination Sequence:
#
# PCOD9356256 Si02
#       8
#     8   8   8   8   8   8   8   8
#     4  11  20  33  52  72  98 137 172 204 246 299
#     4  11  22  37  52  68  95 132 173 210 247 292
#     4  10  18  31  50  72  97 132 170 202 241 296
#     4  12  22  30  45  72 103 133 167 208 248 288
#     4  10  21  34  52  72  95 129 170 208 244 294
#     4  12  24  35  50  73 101 130 165 210 251 294
#     4   8  13  23  43  72 101 127 159 200 243 289
#     4   8  14  25  45  74 100 125 163 206 246 291
#
# _framework density 17.115375
#
# number of rings (size 3 to 8) (size 9 to 14) (size 15 to 20)
#    0.000    1.750    3.750    3.750    0.000    0.500 
#    0.000    0.000    0.000    2.625    0.000    0.875 
#    0.000    5.000    0.000    0.000    0.000    0.000 
#
# Total GULP energy -178504.924768 kJ/mol
# GULP energy per Si atom -5578.278899 kJ/mol
# Density = 1.707642 g / cm^3
# Si number density = 17.115375 Si / 1000 Ang^3
#
#
#
# Elastic Constant Matrix: (Units=GPa)
#
#
# Indices 1 2 3 4 5 6 
#
# 1 27.4573 5.1937 5.6635 0.0000 0.0000 0.0000
# 2 5.1937 122.7567 28.9779 0.0000 0.0000 0.0000
# 3 5.6635 28.9779 61.1939 0.0000 0.0000 0.0000
# 4 0.0000 0.0000 0.0000 24.5212 0.0000 0.0000
# 5 0.0000 0.0000 0.0000 0.0000 44.2608 0.0000
# 6 0.0000 0.0000 0.0000 0.0000 0.0000 -7.8709
#
#
#
# Elastic Compliance Matrix: (Units=1/GPa)
#
#
# Indices 1 2 3 4 5 6 
#
# 1 0.037209 -0.000857 -0.003038 0.000000 0.000000 0.000000
# 2 -0.000857 0.009191 -0.004273 0.000000 0.000000 0.000000
# 3 -0.003038 -0.004273 0.018646 0.000000 0.000000 0.000000
# 4 0.000000 0.000000 0.000000 0.040781 0.000000 0.000000
# 5 0.000000 0.000000 0.000000 0.000000 0.022593 0.000000
# 6 0.000000 0.000000 0.000000 0.000000 0.000000 -0.127051
#
#
# Mechanical properties :
#
#
# Convention : Reuss Voigt Hill
#
# Bulk Modulus (GPa) = 20.52962 32.34200 26.43581
# Shear Modulus (GPa) = 147.30725 23.62041 85.46383
#
# Velocity S-wave (km/s) = 9.28731 3.71896 7.07406
# Velocity P-wave (km/s) = 11.27059 6.11378 9.06655
#
# Compressibility (1/GPa) = 0.04871011
#
# Stress axis : x y z
#
# Youngs Moduli (GPa) = 26.87533 108.80016 53.63042
#
# Poissons Ratio (x) = 0.09326 0.16292
# Poissons Ratio (y) = 0.02304 0.22917
# Poissons Ratio (z) = 0.08164 0.46491
#
# Static dielectric constant tensor:
#      x y z
#    x 1.595590 0.000000 0.000000 
#    y 0.000000 1.621270 0.000000 
#    z 0.000000 0.000000 1.564970 
# 
# From -- ./inp_files/13061.got.cif
#   From: 2010.05.17/outbox.cif.g08.bks.cpg/sg38_7_cif.got.tgz:13061.got - 2010.06.03 18:07:57.
