data_PCOD9356654
_publ_section_title
;
Structure prediction by ZEFSAII (Michael W. Deem and Ramdas Pophale) SiO2 
 PCOD9356654
Probable space group: A M M 2
;
_chemical_formula_sum "Si O2"
_cell_formula_units_Z 64
_cell_length_a 7.806077
_cell_length_b 22.313976
_cell_length_c 16.291837
_cell_angle_alpha 90.000000
_cell_angle_beta 90.000000
_cell_angle_gamma 90.000000
_cell_volume 2837.787353
_symmetry_space_group_name_H-M "A M M 2"
_symmetry_group_IT_number 38
_symmetry_cell_setting 'orthorhombic'
loop_
_space_group_symop_operation_xyz
x,y,z
-x,-y,z
-x,y,z
x,-y,z
x,1/2+y,1/2+z
-x,1/2-y,1/2+z
-x,1/2+y,1/2+z
x,1/2-y,1/2+z
loop_
_atom_site_type_symbol
_atom_site_label
_atom_site_fract_x
_atom_site_fract_y
_atom_site_fract_z
Si Si1 0.704234 0.301363 0.192500
Si Si2 0.711137 0.315735 0.369831
Si Si3 0.802363 0.377608 0.970463
Si Si4 0.703160 0.568919 0.799743
Si Si5 0.205245 0.565271 0.136844
Si Si6 0.795738 0.569089 0.623595
Si Si7 0.305504 0.747172 0.026792
Si Si8 0.296408 0.567022 0.444444
O O1 0.500000 0.291302 0.191812
O O2 0.769614 0.288451 0.283791
O O3 0.729349 0.372553 0.175442
O O4 0.775702 0.262186 0.116788
O O5 0.500000 0.312919 0.369936
O O6 0.774857 0.284014 0.452374
O O7 0.764635 0.385020 0.378511
O O8 0.780824 0.398648 0.877872
O O9 0.000000 0.360330 0.984684
O O10 0.760824 0.427516 0.038950
O O11 0.690110 0.320219 0.991374
O O12 0.500000 0.567692 0.811066
O O13 0.768404 0.500000 0.798430
O O14 0.739170 0.596486 0.709981
O O15 0.271074 0.500000 0.165490
O O16 0.000000 0.565287 0.148042
O O17 0.729652 0.500000 0.624625
O O18 0.733907 0.592774 0.536190
O O19 0.000000 0.568282 0.622125
O O20 0.500000 0.769948 0.037737
O O21 0.500000 0.562236 0.434441
O O22 0.221611 0.500000 0.439191
#
# Coordination Sequence:
#
# PCOD9356654 Si02
#       8
#     8   8   8   8   8   8   8   8
#     4   9  18  33  54  77 103 137 178 224 269 314
#     4   9  18  34  55  79 105 137 179 223 272 324
#     4  10  19  32  50  72 103 140 179 221 269 320
#     4  10  19  30  47  73 104 139 181 224 266 316
#     4   9  18  32  50  74 106 142 174 209 263 326
#     4   9  17  30  47  68 100 138 172 212 261 312
#     4   9  18  35  54  73 102 137 178 225 269 316
#     4   9  17  31  51  74 102 135 172 217 269 328
#
# _framework density 22.552783000000002
#
# number of rings (size 3 to 8) (size 9 to 14) (size 15 to 20)
#    0.000    2.750    0.000    1.500    0.000    4.000 
#    2.250    3.125    0.000    1.500    0.000    0.000 
#    0.000    0.000    0.000    0.000    0.000    0.000 
#
# Total GULP energy -178441.238549 kJ/mol
# GULP energy per Si atom -5576.288705 kJ/mol
# Density = 2.250145 g / cm^3
# Si number density = 22.552783 Si / 1000 Ang^3
#
#
#
# Elastic Constant Matrix: (Units=GPa)
#
#
# Indices 1 2 3 4 5 6 
#
# 1 39.1512 2.2666 -2.1098 0.0000 0.0000 0.0000
# 2 2.2666 37.1136 38.8046 0.0000 0.0000 0.0000
# 3 -2.1098 38.8046 161.8212 0.0000 0.0000 0.0000
# 4 0.0000 0.0000 0.0000 15.0453 0.0000 0.0000
# 5 0.0000 0.0000 0.0000 0.0000 2.3613 0.0000
# 6 0.0000 0.0000 0.0000 0.0000 0.0000 1.9182
#
#
#
# Elastic Compliance Matrix: (Units=1/GPa)
#
#
# Indices 1 2 3 4 5 6 
#
# 1 0.025742 -0.002566 0.000951 0.000000 0.000000 0.000000
# 2 -0.002566 0.036216 -0.008718 0.000000 0.000000 0.000000
# 3 0.000951 -0.008718 0.008283 0.000000 0.000000 0.000000
# 4 0.000000 0.000000 0.000000 0.066466 0.000000 0.000000
# 5 0.000000 0.000000 0.000000 0.000000 0.423496 0.000000
# 6 0.000000 0.000000 0.000000 0.000000 0.000000 0.521332
#
#
# Mechanical properties :
#
#
# Convention : Reuss Voigt Hill
#
# Bulk Modulus (GPa) = 20.17196 35.11209 27.64202
# Shear Modulus (GPa) = 4.46937 17.13993 10.80465
#
# Velocity S-wave (km/s) = 1.40927 2.75979 2.19117
# Velocity P-wave (km/s) = 3.40761 5.07522 4.32260
#
# Compressibility (1/GPa) = 0.04957377
#
# Stress axis : x y z
#
# Youngs Moduli (GPa) = 38.84731 27.61181 120.73416
#
# Poissons Ratio (x) = 0.07087 -0.11483
# Poissons Ratio (y) = 0.09970 1.05258
# Poissons Ratio (z) = -0.03695 0.24072
#
# Static dielectric constant tensor:
#      x y z
#    x 1.797360 0.000000 0.000000 
#    y 0.000000 1.858770 0.000000 
#    z 0.000000 0.000000 1.860570 
# 
# From -- ./inp_files/12795.got.cif
#   From: 2010.05.17/outbox.cif.g08.bks.cpg/sg38_7_cif.got.tgz:12795.got - 2010.06.03 18:07:57.
