data_PCOD9356358
_publ_section_title
;
Structure prediction by ZEFSAII (Michael W. Deem and Ramdas Pophale) SiO2 
 PCOD9356358
Probable space group: A M M 2
;
_chemical_formula_sum "Si O2"
_cell_formula_units_Z 64
_cell_length_a 20.517213
_cell_length_b 7.579874
_cell_length_c 20.933417
_cell_angle_alpha 90.000000
_cell_angle_beta 90.000000
_cell_angle_gamma 90.000000
_cell_volume 3255.520829
_symmetry_space_group_name_H-M "A M M 2"
_symmetry_group_IT_number 38
_symmetry_cell_setting 'orthorhombic'
loop_
_space_group_symop_operation_xyz
x,y,z
-x,-y,z
-x,y,z
x,-y,z
x,1/2+y,1/2+z
-x,1/2-y,1/2+z
-x,1/2+y,1/2+z
x,1/2-y,1/2+z
loop_
_atom_site_type_symbol
_atom_site_label
_atom_site_fract_x
_atom_site_fract_y
_atom_site_fract_z
Si Si1 0.927162 0.708745 0.230720
Si Si2 0.321068 0.786875 0.665378
Si Si3 0.688277 0.785106 0.807008
Si Si4 0.198302 0.215593 0.980553
Si Si5 0.427284 0.209193 0.564813
Si Si6 0.825834 0.708355 0.620767
Si Si7 0.164190 0.215269 0.842195
Si Si8 0.655120 0.787356 0.944704
O O1 0.933205 0.500000 0.241786
O O2 0.879813 0.726514 0.170077
O O3 0.890111 0.781119 0.293263
O O4 0.000000 0.780534 0.221059
O O5 0.334732 0.724992 0.737625
O O6 0.373025 0.718889 0.613791
O O7 0.247142 0.741737 0.646388
O O8 0.324121 0.000000 0.665495
O O9 0.764064 0.735123 0.816587
O O10 0.651164 0.727024 0.871126
O O11 0.686463 0.000000 0.806659
O O12 0.171383 0.279115 0.048266
O O13 0.198243 0.000000 0.981459
O O14 0.160915 0.270435 0.916190
O O15 0.274011 0.269373 0.971751
O O16 0.500000 0.282546 0.572415
O O17 0.400454 0.231516 0.493271
O O18 0.430911 0.000000 0.576986
O O19 0.835070 0.500000 0.617061
O O20 0.162973 0.000000 0.841936
O O21 0.655939 0.000000 0.943988
#
# Coordination Sequence:
#
# PCOD9356358 Si02
#       8
#     8   8   8   8   8   8   8   8
#     4  10  20  34  53  75 100 134 173 207 246 302
#     4  10  18  32  53  74  99 133 171 211 249 296
#     4   8  14  26  50  76  95 118 158 211 253 279
#     4   8  15  27  47  74 101 123 156 207 252 287
#     4  10  21  34  48  71 105 140 167 200 254 311
#     4  11  20  31  50  77 106 133 163 207 257 304
#     4   8  13  26  48  72  96 122 158 205 245 280
#     4   9  16  30  51  74  97 125 163 208 251 294
#
# _framework density 19.658912999999998
#
# number of rings (size 3 to 8) (size 9 to 14) (size 15 to 20)
#    0.000    2.750    2.500    1.875    0.000    0.500 
#    0.000    1.875    0.000    6.000    0.000    0.000 
#    0.000    0.000    0.000    0.000    0.000    0.000 
#
# Total GULP energy -178441.624740 kJ/mol
# GULP energy per Si atom -5576.300773 kJ/mol
# Density = 1.961417 g / cm^3
# Si number density = 19.658913 Si / 1000 Ang^3
#
#
#
# Elastic Constant Matrix: (Units=GPa)
#
#
# Indices 1 2 3 4 5 6 
#
# 1 114.1365 -4.1402 66.3456 0.0000 0.0000 0.0000
# 2 -4.1402 40.2752 -8.5824 0.0000 0.0000 0.0000
# 3 66.3456 -8.5824 152.0727 0.0000 0.0000 0.0000
# 4 0.0000 0.0000 0.0000 16.0207 0.0000 0.0000
# 5 0.0000 0.0000 0.0000 0.0000 18.0567 0.0000
# 6 0.0000 0.0000 0.0000 0.0000 0.0000 6.2282
#
#
#
# Elastic Compliance Matrix: (Units=1/GPa)
#
#
# Indices 1 2 3 4 5 6 
#
# 1 0.011739 0.000117 -0.005115 0.000000 0.000000 0.000000
# 2 0.000117 0.025133 0.001367 0.000000 0.000000 0.000000
# 3 -0.005115 0.001367 0.008884 0.000000 0.000000 0.000000
# 4 0.000000 0.000000 0.000000 0.062419 0.000000 0.000000
# 5 0.000000 0.000000 0.000000 0.000000 0.055381 0.000000
# 6 0.000000 0.000000 0.000000 0.000000 0.000000 0.160559
#
#
# Mechanical properties :
#
#
# Convention : Reuss Voigt Hill
#
# Bulk Modulus (GPa) = 25.97756 45.97003 35.97380
# Shear Modulus (GPa) = 14.52610 24.91855 19.72232
#
# Velocity S-wave (km/s) = 2.72123 3.56412 3.17081
# Velocity P-wave (km/s) = 4.80794 6.35389 5.63419
#
# Compressibility (1/GPa) = 0.03849477
#
# Stress axis : x y z
#
# Youngs Moduli (GPa) = 85.18757 39.78896 112.55657
#
# Poissons Ratio (x) = -0.00465 0.57570
# Poissons Ratio (y) = -0.00995 -0.15391
# Poissons Ratio (z) = 0.43571 -0.05441
#
# Static dielectric constant tensor:
#      x y z
#    x 1.674460 0.000000 0.000000 
#    y 0.000000 1.759210 0.000000 
#    z 0.000000 0.000000 1.718610 
# 
# From -- ./inp_files/21513.got.cif
#   From: 2010.05.17/outbox.cif.g08.bks.cpg/sg38_11_cif.got.tgz:21513.got - 2010.06.03 18:07:57.
