data_PCOD9356971
_publ_section_title
;
Structure prediction by ZEFSAII (Michael W. Deem and Ramdas Pophale) SiO2 
 PCOD9356971
Probable space group: A M M 2
;
_chemical_formula_sum "Si O2"
_cell_formula_units_Z 40
_cell_length_a 13.213437
_cell_length_b 8.741839
_cell_length_c 20.084886
_cell_angle_alpha 90.000000
_cell_angle_beta 90.000000
_cell_angle_gamma 90.000000
_cell_volume 2319.999938
_symmetry_space_group_name_H-M "A M M 2"
_symmetry_group_IT_number 38
_symmetry_cell_setting 'orthorhombic'
loop_
_space_group_symop_operation_xyz
x,y,z
-x,-y,z
-x,y,z
x,-y,z
x,1/2+y,1/2+z
-x,1/2-y,1/2+z
-x,1/2+y,1/2+z
x,1/2-y,1/2+z
loop_
_atom_site_type_symbol
_atom_site_label
_atom_site_fract_x
_atom_site_fract_y
_atom_site_fract_z
Si Si1 0.617443 0.317283 0.756380
Si Si2 0.000000 0.175687 0.664859
Si Si3 0.616314 0.815839 0.902016
Si Si4 0.219575 0.684533 0.156318
Si Si5 0.213780 0.816529 0.008469
Si Si6 0.000000 0.824078 0.502954
O O1 0.500000 0.277673 0.742264
O O2 0.627698 0.500000 0.752806
O O3 0.639140 0.260411 0.831147
O O4 0.692080 0.239638 0.704193
O O5 0.890622 0.242405 0.682716
O O6 0.000000 0.174919 0.584023
O O7 0.000000 0.000000 0.688551
O O8 0.500000 0.776920 0.920324
O O9 0.621426 0.000000 0.894261
O O10 0.697139 0.771297 0.957938
O O11 0.215692 0.500000 0.153457
O O12 0.232537 0.747041 0.081574
O O13 0.104156 0.758227 0.983741
O O14 0.211665 0.000000 0.013721
O O15 0.000000 0.000000 0.480882
#
# Coordination Sequence:
#
# PCOD9356971 Si02
#       6
#     8   4   8   8   8   4
#     4  10  21  36  53  74 102 135 172 215 259 304
#     4   7  14  29  48  71  98 129 163 201 245 291
#     4   9  19  36  55  74 100 135 171 209 258 312
#     4  10  19  33  54  78 105 136 170 209 254 306
#     4  10  19  32  53  80 107 135 170 212 256 303
#     4   9  17  31  50  73 104 139 173 209 251 301
#
# _framework density 17.241378999999998
#
# number of rings (size 3 to 8) (size 9 to 14) (size 15 to 20)
#    0.000    2.600    0.000    3.300    0.000    3.600 
#    0.000    4.500    0.000    2.400    0.000    0.000 
#    0.000    0.000    0.000    0.000    0.000    0.000 
#
# Total GULP energy -111480.134814 kJ/mol
# GULP energy per Si atom -5574.006741 kJ/mol
# Density = 1.720214 g / cm^3
# Si number density = 17.241379 Si / 1000 Ang^3
#
#
#
# Elastic Constant Matrix: (Units=GPa)
#
#
# Indices 1 2 3 4 5 6 
#
# 1 166.6328 59.1509 103.7223 0.0000 0.0000 0.0000
# 2 59.1509 53.8392 42.7369 0.0000 0.0000 0.0000
# 3 103.7223 42.7369 89.0792 0.0000 0.0000 0.0000
# 4 0.0000 0.0000 0.0000 27.5662 0.0000 0.0000
# 5 0.0000 0.0000 0.0000 0.0000 -25.6282 0.0000
# 6 0.0000 0.0000 0.0000 0.0000 0.0000 26.2293
#
#
#
# Elastic Compliance Matrix: (Units=1/GPa)
#
#
# Indices 1 2 3 4 5 6 
#
# 1 0.023140 -0.006517 -0.023817 0.000000 0.000000 0.000000
# 2 -0.006517 0.031833 -0.007684 0.000000 0.000000 0.000000
# 3 -0.023817 -0.007684 0.042644 0.000000 0.000000 0.000000
# 4 0.000000 0.000000 0.000000 0.036276 0.000000 0.000000
# 5 0.000000 0.000000 0.000000 0.000000 -0.039019 0.000000
# 6 0.000000 0.000000 0.000000 0.000000 0.000000 0.038125
#
#
# Mechanical properties :
#
#
# Convention : Reuss Voigt Hill
#
# Bulk Modulus (GPa) = 46.33594 80.08569 63.21081
# Shear Modulus (GPa) = 23.12368 12.56287 17.84327
#
# Velocity S-wave (km/s) = 3.66618 2.70227 3.22049
# Velocity P-wave (km/s) = 6.69734 7.50246 7.11130
#
# Compressibility (1/GPa) = 0.02158152
#
# Stress axis : x y z
#
# Youngs Moduli (GPa) = 43.21610 31.41350 23.44993
#
# Poissons Ratio (x) = 0.20473 0.55850
# Poissons Ratio (y) = 0.28165 0.18019
# Poissons Ratio (z) = 1.02926 0.24138
#
# Static dielectric constant tensor:
#      x y z
#    x 1.607790 0.000000 0.000000 
#    y 0.000000 1.584780 0.000000 
#    z 0.000000 0.000000 1.542520 
# 
# From -- ./inp_files/20491.got.cif
#   From: 2010.05.17/outbox.cif.g08.bks.cpg/sg38_11_cif.got.tgz:20491.got - 2010.06.03 18:07:57.
