data_PCOD9356711
_publ_section_title
;
Structure prediction by ZEFSAII (Michael W. Deem and Ramdas Pophale) SiO2 
 PCOD9356711
Probable space group: A M M 2
;
_chemical_formula_sum "Si O2"
_cell_formula_units_Z 48
_cell_length_a 22.181880
_cell_length_b 7.552457
_cell_length_c 14.620655
_cell_angle_alpha 90.000000
_cell_angle_beta 90.000000
_cell_angle_gamma 90.000000
_cell_volume 2449.364630
_symmetry_space_group_name_H-M "A M M 2"
_symmetry_group_IT_number 38
_symmetry_cell_setting 'orthorhombic'
loop_
_space_group_symop_operation_xyz
x,y,z
-x,-y,z
-x,y,z
x,-y,z
x,1/2+y,1/2+z
-x,1/2-y,1/2+z
-x,1/2+y,1/2+z
x,1/2-y,1/2+z
loop_
_atom_site_type_symbol
_atom_site_label
_atom_site_fract_x
_atom_site_fract_y
_atom_site_fract_z
Si Si1 0.000000 0.211390 0.092310
Si Si2 0.234695 0.782990 0.456937
Si Si3 0.901246 0.209724 0.443454
Si Si4 0.667639 0.788569 0.600340
Si Si5 0.000000 0.217662 0.301000
Si Si6 0.568747 0.283305 0.957580
Si Si7 0.666347 0.288571 0.813787
O O1 0.941571 0.266393 0.034003
O O2 0.000000 0.276931 0.196339
O O3 0.000000 0.000000 0.095584
O O4 0.166176 0.718610 0.452951
O O5 0.272988 0.725458 0.545822
O O6 0.274686 0.727055 0.369548
O O7 0.233044 0.000000 0.458192
O O8 0.941647 0.277346 0.358948
O O9 0.895290 0.000000 0.428191
O O10 0.608603 0.726004 0.544897
O O11 0.667012 0.750502 0.707120
O O12 0.667626 0.000000 0.590380
O O13 0.000000 0.000000 0.301742
O O14 0.500000 0.221954 0.958653
O O15 0.567113 0.500000 0.957724
O O16 0.607093 0.226168 0.868665
O O17 0.666267 0.500000 0.823249
#
# Coordination Sequence:
#
# PCOD9356711 Si02
#       7
#     4   8   8   8   4   8   8
#     4  10  19  31  46  71 100 117 139 186 238 268
#     4   8  16  31  49  66  88 120 156 187 219 270
#     4   9  17  33  52  66  85 122 162 184 210 268
#     4   9  17  30  47  68  93 120 151 190 233 272
#     4   8  16  29  46  65  86 113 143 176 216 262
#     4   8  15  29  47  65  90 126 161 188 222 274
#     4   9  17  30  48  69  91 119 155 192 228 269
#
# _framework density 19.596919
#
# number of rings (size 3 to 8) (size 9 to 14) (size 15 to 20)
#    0.000    3.333    0.000    2.750    0.000    2.000 
#    0.000   10.000    0.000    1.000    0.000    0.000 
#    0.000    0.000    0.000    0.000    0.000    0.000 
#
# Total GULP energy -133778.105141 kJ/mol
# GULP energy per Si atom -5574.087714 kJ/mol
# Density = 1.955232 g / cm^3
# Si number density = 19.596919 Si / 1000 Ang^3
#
#
#
# Elastic Constant Matrix: (Units=GPa)
#
#
# Indices 1 2 3 4 5 6 
#
# 1 234.2134 5.7763 121.9469 0.0000 0.0000 0.0000
# 2 5.7763 40.0301 -7.0764 0.0000 0.0000 0.0000
# 3 121.9469 -7.0764 204.9607 0.0000 0.0000 0.0000
# 4 0.0000 0.0000 0.0000 25.9950 0.0000 0.0000
# 5 0.0000 0.0000 0.0000 0.0000 10.1547 0.0000
# 6 0.0000 0.0000 0.0000 0.0000 0.0000 1.7040
#
#
#
# Elastic Compliance Matrix: (Units=1/GPa)
#
#
# Indices 1 2 3 4 5 6 
#
# 1 0.006283 -0.001577 -0.003793 0.000000 0.000000 0.000000
# 2 -0.001577 0.025530 0.001820 0.000000 0.000000 0.000000
# 3 -0.003793 0.001820 0.007199 0.000000 0.000000 0.000000
# 4 0.000000 0.000000 0.000000 0.038469 0.000000 0.000000
# 5 0.000000 0.000000 0.000000 0.000000 0.098476 0.000000
# 6 0.000000 0.000000 0.000000 0.000000 0.000000 0.586858
#
#
# Mechanical properties :
#
#
# Convention : Reuss Voigt Hill
#
# Bulk Modulus (GPa) = 31.33632 80.05531 55.69581
# Shear Modulus (GPa) = 6.40572 31.47458 18.94015
#
# Velocity S-wave (km/s) = 1.80993 4.01196 3.11221
# Velocity P-wave (km/s) = 4.51585 7.89942 6.43404
#
# Compressibility (1/GPa) = 0.03191186
#
# Stress axis : x y z
#
# Youngs Moduli (GPa) = 159.15107 39.16887 138.91780
#
# Poissons Ratio (x) = 0.06178 0.52690
# Poissons Ratio (y) = 0.25101 -0.25281
# Poissons Ratio (z) = 0.60364 -0.07128
#
# Static dielectric constant tensor:
#      x y z
#    x 1.668860 0.000000 0.000000 
#    y 0.000000 1.738010 0.000000 
#    z 0.000000 0.000000 1.671160 
# 
# From -- ./inp_files/10728.got.cif
#   From: 2010.05.17/outbox.cif.g08.bks.cpg/sg38_6_cif.got.tgz:10728.got - 2010.06.03 18:07:57.
