data_PCOD9356839
_publ_section_title
;
Structure prediction by ZEFSAII (Michael W. Deem and Ramdas Pophale) SiO2 
 PCOD9356839
Probable space group: A M M 2
;
_chemical_formula_sum "Si O2"
_cell_formula_units_Z 64
_cell_length_a 8.323335
_cell_length_b 16.387716
_cell_length_c 23.384085
_cell_angle_alpha 90.000000
_cell_angle_beta 90.000000
_cell_angle_gamma 90.000000
_cell_volume 3189.599720
_symmetry_space_group_name_H-M "A M M 2"
_symmetry_group_IT_number 38
_symmetry_cell_setting 'orthorhombic'
loop_
_space_group_symop_operation_xyz
x,y,z
-x,-y,z
-x,y,z
x,-y,z
x,1/2+y,1/2+z
-x,1/2-y,1/2+z
-x,1/2+y,1/2+z
x,1/2-y,1/2+z
loop_
_atom_site_type_symbol
_atom_site_label
_atom_site_fract_x
_atom_site_fract_y
_atom_site_fract_z
Si Si1 0.809992 0.726985 0.843650
Si Si2 0.691103 0.913682 0.684843
Si Si3 0.309569 0.738370 0.724024
Si Si4 0.184428 0.624592 0.062542
Si Si5 0.692123 0.092223 0.434337
Si Si6 0.182919 0.904647 0.000939
Si Si7 0.196908 0.592134 0.371670
Si Si8 0.186585 0.309902 0.604592
O O1 0.768912 0.699024 0.779609
O O2 0.745580 0.664765 0.891670
O O3 0.749580 0.821927 0.844561
O O4 0.000000 0.730751 0.852335
O O5 0.500000 0.912828 0.694431
O O6 0.757225 0.830659 0.712356
O O7 0.720523 0.910961 0.616685
O O8 0.757945 0.000000 0.706957
O O9 0.500000 0.742797 0.733089
O O10 0.274104 0.692582 0.664929
O O11 0.187558 0.720620 0.076181
O O12 0.000000 0.596894 0.065709
O O13 0.249546 0.607101 0.999455
O O14 0.500000 0.092248 0.434774
O O15 0.746695 0.000000 0.417219
O O16 0.263453 0.865280 0.055599
O O17 0.000000 0.869747 0.997854
O O18 0.170253 0.000000 0.011352
O O19 0.250633 0.896341 0.937672
O O20 0.248909 0.500000 0.352966
O O21 0.000000 0.589700 0.370325
O O22 0.000000 0.333265 0.615164
#
# Coordination Sequence:
#
# PCOD9356839 Si02
#       8
#     8   8   8   8   8   8   8   8
#     4  11  22  37  58  81 106 140 183 229 271 314
#     4   9  18  33  52  75 106 143 178 213 260 320
#     4  10  21  36  52  71  99 138 180 219 263 316
#     4  10  19  31  52  82 111 137 170 217 271 325
#     4  11  24  40  57  78 107 144 183 224 275 333
#     4   8  13  24  46  75 103 128 157 198 249 304
#     4   8  15  29  51  82 116 143 167 203 258 320
#     4   9  17  31  51  76 104 134 171 215 261 309
#
# _framework density 20.065213
#
# number of rings (size 3 to 8) (size 9 to 14) (size 15 to 20)
#    0.000    2.500    0.000    3.375    0.000    6.250 
#    0.000    0.625    0.000    3.750    0.000    3.500 
#    0.000    0.000    0.000    0.000    0.000    0.000 
#
# Total GULP energy -178285.988420 kJ/mol
# GULP energy per Si atom -5571.437138 kJ/mol
# Density = 2.001954 g / cm^3
# Si number density = 20.065213 Si / 1000 Ang^3
#
#
#
# Elastic Constant Matrix: (Units=GPa)
#
#
# Indices 1 2 3 4 5 6 
#
# 1 24.4627 6.5834 0.4615 0.0000 0.0000 0.0000
# 2 6.5834 41.1032 44.9407 0.0000 0.0000 0.0000
# 3 0.4615 44.9407 98.5136 0.0000 0.0000 0.0000
# 4 0.0000 0.0000 0.0000 1.6290 0.0000 0.0000
# 5 0.0000 0.0000 0.0000 0.0000 19.4668 0.0000
# 6 0.0000 0.0000 0.0000 0.0000 0.0000 15.7094
#
#
#
# Elastic Compliance Matrix: (Units=1/GPa)
#
#
# Indices 1 2 3 4 5 6 
#
# 1 0.044466 -0.013755 0.006066 0.000000 0.000000 0.000000
# 2 -0.013755 0.052794 -0.024020 0.000000 0.000000 0.000000
# 3 0.006066 -0.024020 0.021080 0.000000 0.000000 0.000000
# 4 0.000000 0.000000 0.000000 0.613886 0.000000 0.000000
# 5 0.000000 0.000000 0.000000 0.000000 0.051370 0.000000
# 6 0.000000 0.000000 0.000000 0.000000 0.000000 0.063656
#
#
# Mechanical properties :
#
#
# Convention : Reuss Voigt Hill
#
# Bulk Modulus (GPa) = 18.20695 29.78341 23.99518
# Shear Modulus (GPa) = 5.38227 14.83395 10.10811
#
# Velocity S-wave (km/s) = 1.63958 2.72193 2.24690
# Velocity P-wave (km/s) = 3.56060 4.97535 4.32620
#
# Compressibility (1/GPa) = 0.05492409
#
# Stress axis : x y z
#
# Youngs Moduli (GPa) = 22.48915 18.94137 47.43834
#
# Poissons Ratio (x) = 0.26054 -0.28778
# Poissons Ratio (y) = 0.30933 1.13946
# Poissons Ratio (z) = -0.13643 0.45497
#
# Static dielectric constant tensor:
#      x y z
#    x 1.718340 0.000000 0.000000 
#    y 0.000000 1.771970 0.000000 
#    z 0.000000 0.000000 1.707300 
# 
# From -- ./inp_files/20096.got.cif
#   From: 2010.05.17/outbox.cif.g08.bks.cpg/sg38_11_cif.got.tgz:20096.got - 2010.06.03 18:07:57.
