data_PCOD9356920
_publ_section_title
;
Structure prediction by ZEFSAII (Michael W. Deem and Ramdas Pophale) SiO2 
 PCOD9356920
Probable space group: A M M 2
;
_chemical_formula_sum "Si O2"
_cell_formula_units_Z 64
_cell_length_a 15.139124
_cell_length_b 22.411779
_cell_length_c 8.291130
_cell_angle_alpha 90.000000
_cell_angle_beta 90.000000
_cell_angle_gamma 90.000000
_cell_volume 2813.136477
_symmetry_space_group_name_H-M "A M M 2"
_symmetry_group_IT_number 38
_symmetry_cell_setting 'orthorhombic'
loop_
_space_group_symop_operation_xyz
x,y,z
-x,-y,z
-x,y,z
x,-y,z
x,1/2+y,1/2+z
-x,1/2-y,1/2+z
-x,1/2+y,1/2+z
x,1/2-y,1/2+z
loop_
_atom_site_type_symbol
_atom_site_label
_atom_site_fract_x
_atom_site_fract_y
_atom_site_fract_z
Si Si1 0.602919 0.184495 0.633790
Si Si2 0.640958 0.064881 0.199192
Si Si3 0.351958 0.690435 0.782537
Si Si4 0.606608 0.434192 0.329042
Si Si5 0.107078 0.436605 0.398033
Si Si6 0.156835 0.563558 0.778116
Si Si7 0.899674 0.189481 0.869810
Si Si8 0.155386 0.188524 0.229093
O O1 0.500000 0.177024 0.585181
O O2 0.608035 0.246319 0.732155
O O3 0.660754 0.191709 0.474113
O O4 0.629589 0.124951 0.729830
O O5 0.598731 0.127999 0.246963
O O6 0.736899 0.063166 0.283470
O O7 0.599067 0.000000 0.235402
O O8 0.650115 0.067086 0.005402
O O9 0.259176 0.682976 0.690410
O O10 0.500000 0.431604 0.354494
O O11 0.625652 0.500000 0.255784
O O12 0.137692 0.500000 0.328284
O O13 0.132220 0.436915 0.587310
O O14 0.139769 0.374881 0.321803
O O15 0.000000 0.434744 0.390606
O O16 0.123619 0.500000 0.846338
O O17 0.127573 0.629713 0.831094
O O18 0.897997 0.189469 0.063694
O O19 0.000000 0.193280 0.810466
O O20 0.852259 0.248606 0.814731
#
# Coordination Sequence:
#
# PCOD9356920 Si02
#       8
#     8   8   8   8   8   8   8   8
#     4  11  23  37  54  75 103 139 180 225 271 321
#     4   9  18  33  54  78 103 134 173 217 265 317
#     4  11  22  36  54  77 106 141 180 225 272 318
#     4   9  19  36  56  78 105 137 173 216 267 322
#     4   8  14  25  43  68  94 121 157 199 239 282
#     4   8  15  29  49  72  98 129 166 206 246 294
#     4  10  19  32  52  76 103 134 168 207 254 309
#     4  10  20  34  52  76 104 135 169 211 258 309
#
# _framework density 22.750408
#
# number of rings (size 3 to 8) (size 9 to 14) (size 15 to 20)
#    0.000    2.500    0.000    2.250    0.000    5.000 
#    0.000    0.000    0.000    0.750    0.000    0.000 
#    0.000    0.000    0.000    0.000    0.000    0.000 
#
# Total GULP energy -178335.574164 kJ/mol
# GULP energy per Si atom -5572.986693 kJ/mol
# Density = 2.269863 g / cm^3
# Si number density = 22.750408 Si / 1000 Ang^3
#
#
#
# Elastic Constant Matrix: (Units=GPa)
#
#
# Indices 1 2 3 4 5 6 
#
# 1 40.9957 12.9841 -11.0916 0.0000 0.0000 0.0000
# 2 12.9841 281.1875 37.5171 0.0000 0.0000 0.0000
# 3 -11.0916 37.5171 27.7775 0.0000 0.0000 0.0000
# 4 0.0000 0.0000 0.0000 32.3109 0.0000 0.0000
# 5 0.0000 0.0000 0.0000 0.0000 14.4953 0.0000
# 6 0.0000 0.0000 0.0000 0.0000 0.0000 14.7661
#
#
#
# Elastic Compliance Matrix: (Units=1/GPa)
#
#
# Indices 1 2 3 4 5 6 
#
# 1 0.030144 -0.003657 0.016976 0.000000 0.000000 0.000000
# 2 -0.003657 0.004782 -0.007919 0.000000 0.000000 0.000000
# 3 0.016976 -0.007919 0.053474 0.000000 0.000000 0.000000
# 4 0.000000 0.000000 0.000000 0.030949 0.000000 0.000000
# 5 0.000000 0.000000 0.000000 0.000000 0.068988 0.000000
# 6 0.000000 0.000000 0.000000 0.000000 0.000000 0.067723
#
#
# Mechanical properties :
#
#
# Convention : Reuss Voigt Hill
#
# Bulk Modulus (GPa) = 10.08067 47.64221 28.86144
# Shear Modulus (GPa) = 17.96458 33.01786 25.49122
#
# Velocity S-wave (km/s) = 2.81310 3.81374 3.35098
# Velocity P-wave (km/s) = 3.87195 6.35449 5.26172
#
# Compressibility (1/GPa) = 0.09919975
#
# Stress axis : x y z
#
# Youngs Moduli (GPa) = 33.17423 209.12942 18.70076
#
# Poissons Ratio (x) = 0.76476 -0.31746
# Poissons Ratio (y) = 0.12131 0.14808
# Poissons Ratio (z) = -0.56315 1.65600
#
# Static dielectric constant tensor:
#      x y z
#    x 1.868280 0.000000 0.000000 
#    y 0.000000 1.957870 0.000000 
#    z 0.000000 0.000000 1.809870 
# 
# From -- ./inp_files/6494.got.cif
#   From: 2010.05.17/outbox.cif.g08.bks.cpg/sg38_4_cif.got.tgz:6494.got - 2010.06.03 18:07:57.
