data_PCOD9356021
_publ_section_title
;
Structure prediction by ZEFSAII (Michael W. Deem and Ramdas Pophale) SiO2 
 PCOD9356021
Probable space group: A M M 2
;
_chemical_formula_sum "Si O2"
_cell_formula_units_Z 56
_cell_length_a 8.797467
_cell_length_b 30.330300
_cell_length_c 13.955289
_cell_angle_alpha 90.000000
_cell_angle_beta 90.000000
_cell_angle_gamma 90.000000
_cell_volume 3723.687159
_symmetry_space_group_name_H-M "A M M 2"
_symmetry_group_IT_number 38
_symmetry_cell_setting 'orthorhombic'
loop_
_space_group_symop_operation_xyz
x,y,z
-x,-y,z
-x,y,z
x,-y,z
x,1/2+y,1/2+z
-x,1/2-y,1/2+z
-x,1/2+y,1/2+z
x,1/2-y,1/2+z
loop_
_atom_site_type_symbol
_atom_site_label
_atom_site_fract_x
_atom_site_fract_y
_atom_site_fract_z
Si Si1 0.682002 0.818063 0.595180
Si Si2 0.819701 0.232543 0.996228
Si Si3 0.819177 0.500000 0.983648
Si Si4 0.682565 0.316125 0.673111
Si Si5 0.818946 0.902413 0.497668
Si Si6 0.684774 0.404062 0.783301
Si Si7 0.318220 0.728549 0.290538
Si Si8 0.680380 0.000000 0.274268
O O1 0.500000 0.816919 0.587127
O O2 0.748175 0.779453 0.527844
O O3 0.743952 0.864983 0.562092
O O4 0.722225 0.804684 0.704217
O O5 0.765106 0.220958 0.889916
O O6 0.000000 0.235862 0.000365
O O7 0.760919 0.197471 0.074330
O O8 0.788862 0.452835 0.032052
O O9 0.720820 0.500000 0.886941
O O10 0.000000 0.500000 0.958238
O O11 0.500000 0.315489 0.658857
O O12 0.727227 0.363032 0.716836
O O13 0.717335 0.277288 0.749195
O O14 0.754269 0.898840 0.389378
O O15 0.000000 0.895930 0.495155
O O16 0.500000 0.404042 0.792502
O O17 0.735171 0.451757 0.741477
O O18 0.500000 0.726321 0.305740
O O19 0.500000 0.000000 0.259711
#
# Coordination Sequence:
#
# PCOD9356021 Si02
#       8
#     8   8   4   8   8   8   8   4
#     4  10  20  33  48  65  87 117 150 180 215 260
#     4  11  21  31  46  67  90 114 143 183 222 259
#     4   8  16  28  40  60  91 122 145 170 215 264
#     4   9  18  31  46  63  86 119 151 177 212 260
#     4  10  18  28  44  66  93 121 148 180 216 257
#     4   9  16  27  44  65  91 122 152 182 217 257
#     4   9  18  32  47  62  85 117 149 180 215 258
#     4   8  14  24  40  64  89 114 149 186 215 250
#
# _framework density 15.038857999999999
#
# number of rings (size 3 to 8) (size 9 to 14) (size 15 to 20)
#    0.000    2.571    0.000    3.857    0.000    5.143 
#    0.000    0.000    0.000    0.000    0.000    1.000 
#    0.000    2.286    0.000    0.000    0.000    0.000 
#
# Total GULP energy -156002.274083 kJ/mol
# GULP energy per Si atom -5571.509789 kJ/mol
# Density = 1.500463 g / cm^3
# Si number density = 15.038858 Si / 1000 Ang^3
#
#
#
# Elastic Constant Matrix: (Units=GPa)
#
#
# Indices 1 2 3 4 5 6 
#
# 1 41.0878 42.8094 40.8475 0.0000 0.0000 0.0000
# 2 42.8094 151.0768 68.4179 0.0000 0.0000 0.0000
# 3 40.8475 68.4179 89.8655 0.0000 0.0000 0.0000
# 4 0.0000 0.0000 0.0000 22.1975 0.0000 0.0000
# 5 0.0000 0.0000 0.0000 0.0000 -23.8897 0.0000
# 6 0.0000 0.0000 0.0000 0.0000 0.0000 16.9377
#
#
#
# Elastic Compliance Matrix: (Units=1/GPa)
#
#
# Indices 1 2 3 4 5 6 
#
# 1 0.047314 -0.005597 -0.017245 0.000000 0.000000 0.000000
# 2 -0.005597 0.010764 -0.005651 0.000000 0.000000 0.000000
# 3 -0.017245 -0.005651 0.023268 0.000000 0.000000 0.000000
# 4 0.000000 0.000000 0.000000 0.045050 0.000000 0.000000
# 5 0.000000 0.000000 0.000000 0.000000 -0.041859 0.000000
# 6 0.000000 0.000000 0.000000 0.000000 0.000000 0.059040
#
#
# Mechanical properties :
#
#
# Convention : Reuss Voigt Hill
#
# Bulk Modulus (GPa) = 41.04988 65.13108 53.09048
# Shear Modulus (GPa) = 23.95967 11.71279 17.83623
#
# Velocity S-wave (km/s) = 3.99580 2.79379 3.44759
# Velocity P-wave (km/s) = 6.97450 7.33550 7.15728
#
# Compressibility (1/GPa) = 0.02436061
#
# Stress axis : x y z
#
# Youngs Moduli (GPa) = 21.13545 92.89829 42.97656
#
# Poissons Ratio (x) = 0.51999 0.74111
# Poissons Ratio (y) = 0.11830 0.24287
# Poissons Ratio (z) = 0.36447 0.52498
#
# Static dielectric constant tensor:
#      x y z
#    x 1.500520 0.000000 0.000000 
#    y 0.000000 1.526330 0.000000 
#    z 0.000000 0.000000 1.466540 
# 
# From -- ./inp_files/13022.got.cif
#   From: 2010.05.17/outbox.cif.g08.bks.cpg/sg38_7_cif.got.tgz:13022.got - 2010.06.03 18:07:57.
