data_PCOD9356807
_publ_section_title
;
Structure prediction by ZEFSAII (Michael W. Deem and Ramdas Pophale) SiO2 
 PCOD9356807
Probable space group: A M M 2
;
_chemical_formula_sum "Si O2"
_cell_formula_units_Z 64
_cell_length_a 8.511981
_cell_length_b 14.816839
_cell_length_c 25.018959
_cell_angle_alpha 90.000000
_cell_angle_beta 90.000000
_cell_angle_gamma 90.000000
_cell_volume 3155.407423
_symmetry_space_group_name_H-M "A M M 2"
_symmetry_group_IT_number 38
_symmetry_cell_setting 'orthorhombic'
loop_
_space_group_symop_operation_xyz
x,y,z
-x,-y,z
-x,y,z
x,-y,z
x,1/2+y,1/2+z
-x,1/2-y,1/2+z
-x,1/2+y,1/2+z
x,1/2-y,1/2+z
loop_
_atom_site_type_symbol
_atom_site_label
_atom_site_fract_x
_atom_site_fract_y
_atom_site_fract_z
Si Si1 0.324946 0.899518 0.786000
Si Si2 0.810134 0.701008 0.019385
Si Si3 0.178837 0.840578 0.401867
Si Si4 0.808828 0.396950 0.128262
Si Si5 0.311329 0.900566 0.011069
Si Si6 0.178740 0.240060 0.717419
Si Si7 0.687178 0.399760 0.788190
Si Si8 0.178239 0.125824 0.893942
O O1 0.500000 0.863605 0.774467
O O2 0.191881 0.835347 0.763500
O O3 0.297745 0.904399 0.848864
O O4 0.311971 0.000000 0.763642
O O5 0.753729 0.658589 0.962575
O O6 0.748002 0.802589 0.031773
O O7 0.000000 0.709371 0.014172
O O8 0.773749 0.635071 0.068272
O O9 0.261762 0.880449 0.349593
O O10 0.174462 0.733727 0.391690
O O11 0.000000 0.876339 0.403381
O O12 0.754559 0.500000 0.138170
O O13 0.750270 0.317454 0.167969
O O14 0.000000 0.398229 0.134263
O O15 0.500000 0.896315 0.008757
O O16 0.237695 0.901501 0.951927
O O17 0.270430 0.000000 0.035894
O O18 0.255136 0.326912 0.744870
O O19 0.000000 0.262964 0.704046
O O20 0.500000 0.397857 0.787401
O O21 0.744187 0.500000 0.773950
O O22 0.000000 0.095235 0.884525
#
# Coordination Sequence:
#
# PCOD9356807 Si02
#       8
#     8   8   8   8   8   8   8   8
#     4  11  22  33  49  77 113 152 190 231 285 346
#     4   9  19  36  60  88 117 152 195 243 296 352
#     4   9  18  33  55  85 117 151 191 236 290 347
#     4   9  19  38  64  92 119 148 189 245 303 356
#     4  10  20  33  50  76 114 158 197 235 286 343
#     4  11  22  38  61  86 114 150 194 244 296 351
#     4  11  24  40  59  84 117 158 198 240 295 356
#     4  10  19  31  50  78 111 149 192 238 285 338
#
# _framework density 20.282641999999999
#
# number of rings (size 3 to 8) (size 9 to 14) (size 15 to 20)
#    0.000    2.000    1.250    3.375    0.000    7.500 
#    0.000    3.125    0.000    5.625    0.000    0.000 
#    0.000    0.000    0.000    0.000    0.000    0.000 
#
# Total GULP energy -178291.910509 kJ/mol
# GULP energy per Si atom -5571.622203 kJ/mol
# Density = 2.023648 g / cm^3
# Si number density = 20.282642 Si / 1000 Ang^3
#
#
#
# Elastic Constant Matrix: (Units=GPa)
#
#
# Indices 1 2 3 4 5 6 
#
# 1 40.6678 25.2827 14.7455 0.0000 0.0000 0.0000
# 2 25.2827 130.8819 60.2767 0.0000 0.0000 0.0000
# 3 14.7455 60.2767 103.5111 0.0000 0.0000 0.0000
# 4 0.0000 0.0000 0.0000 9.8567 0.0000 0.0000
# 5 0.0000 0.0000 0.0000 0.0000 1.2363 0.0000
# 6 0.0000 0.0000 0.0000 0.0000 0.0000 22.8166
#
#
#
# Elastic Compliance Matrix: (Units=1/GPa)
#
#
# Indices 1 2 3 4 5 6 
#
# 1 0.028045 -0.004889 -0.001148 0.000000 0.000000 0.000000
# 2 -0.004889 0.011293 -0.005880 0.000000 0.000000 0.000000
# 3 -0.001148 -0.005880 0.013248 0.000000 0.000000 0.000000
# 4 0.000000 0.000000 0.000000 0.101453 0.000000 0.000000
# 5 0.000000 0.000000 0.000000 0.000000 0.808843 0.000000
# 6 0.000000 0.000000 0.000000 0.000000 0.000000 0.043828
#
#
# Mechanical properties :
#
#
# Convention : Reuss Voigt Hill
#
# Bulk Modulus (GPa) = 34.77924 52.85229 43.81576
# Shear Modulus (GPa) = 4.80711 18.43232 11.61971
#
# Velocity S-wave (km/s) = 1.54117 3.01786 2.39611
# Velocity P-wave (km/s) = 4.51126 6.18528 5.41337
#
# Compressibility (1/GPa) = 0.02875278
#
# Stress axis : x y z
#
# Youngs Moduli (GPa) = 35.65691 88.55363 75.48222
#
# Poissons Ratio (x) = 0.43291 0.08668
# Poissons Ratio (y) = 0.17431 0.44380
# Poissons Ratio (z) = 0.04095 0.52065
#
# Static dielectric constant tensor:
#      x y z
#    x 1.714220 0.000000 0.000000 
#    y 0.000000 1.757660 0.000000 
#    z 0.000000 0.000000 1.749970 
# 
# From -- ./inp_files/22167.got.cif
#   From: 2010.05.17/outbox.cif.g08.bks.cpg/sg38_12_cif.got.tgz:22167.got - 2010.06.03 18:07:57.
