data_PCOD9356341
_publ_section_title
;
Structure prediction by ZEFSAII (Michael W. Deem and Ramdas Pophale) SiO2 
 PCOD9356341
Probable space group: A M M 2
;
_chemical_formula_sum "Si O2"
_cell_formula_units_Z 58
_cell_length_a 8.044755
_cell_length_b 26.044151
_cell_length_c 13.708809
_cell_angle_alpha 90.000000
_cell_angle_beta 90.000000
_cell_angle_gamma 90.000000
_cell_volume 2872.253403
_symmetry_space_group_name_H-M "A M M 2"
_symmetry_group_IT_number 38
_symmetry_cell_setting 'orthorhombic'
loop_
_space_group_symop_operation_xyz
x,y,z
-x,-y,z
-x,y,z
x,-y,z
x,1/2+y,1/2+z
-x,1/2-y,1/2+z
-x,1/2+y,1/2+z
x,1/2-y,1/2+z
loop_
_atom_site_type_symbol
_atom_site_label
_atom_site_fract_x
_atom_site_fract_y
_atom_site_fract_z
Si Si1 0.000000 0.500000 0.827281
Si Si2 0.698342 0.941694 0.781014
Si Si3 0.310637 0.762784 0.445510
Si Si4 0.802189 0.335593 0.351694
Si Si5 0.200970 0.775351 0.657654
Si Si6 0.314139 0.077046 0.354719
Si Si7 0.193789 0.561985 0.058871
Si Si8 0.189169 0.823232 0.268368
O O1 0.150448 0.543662 0.831057
O O2 0.500000 0.942770 0.785867
O O3 0.760790 0.895809 0.849460
O O4 0.748808 0.929264 0.669115
O O5 0.760369 0.000000 0.801807
O O6 0.277211 0.701754 0.432387
O O7 0.276176 0.784195 0.552410
O O8 0.192482 0.790296 0.368059
O O9 0.000000 0.838152 0.245730
O O10 0.747056 0.312537 0.246059
O O11 0.000000 0.329728 0.358465
O O12 0.248082 0.717504 0.688681
O O13 0.000000 0.778104 0.651523
O O14 0.500000 0.055623 0.341118
O O15 0.293183 0.087781 0.471100
O O16 0.297961 0.127628 0.289817
O O17 0.206113 0.500000 0.042223
O O18 0.000000 0.576045 0.051123
O O19 0.500000 0.773104 0.416957
#
# Coordination Sequence:
#
# PCOD9356341 Si02
#       8
#     2   8   8   8   8   8   8   8
#     4  12  22  40  52  82 112 156 192 248 286 350
#     4  10  21  34  51  79 113 150 191 238 289 346
#     4  11  22  36  58  86 116 149 190 240 291 352
#     4  10  21  38  58  82 113 152 193 239 288 347
#     4   9  20  38  59  82 112 151 189 237 293 348
#     4  12  22  35  56  81 113 154 195 239 291 347
#     4  10  18  32  48  71 107 147 190 232 278 337
#     4  10  21  39  58  83 118 151 193 240 286 349
#
# _framework density 20.193204999999999
#
# number of rings (size 3 to 8) (size 9 to 14) (size 15 to 20)
#    0.000    1.655    2.069    3.931    1.931    4.690 
#    0.000    0.000    0.000    0.000    1.793    0.000 
#    0.000    0.000    0.000    0.000    0.000    0.000 
#
# Total GULP energy -161606.404081 kJ/mol
# GULP energy per Si atom -5572.634623 kJ/mol
# Density = 2.014724 g / cm^3
# Si number density = 20.193205 Si / 1000 Ang^3
#
#
#
# Elastic Constant Matrix: (Units=GPa)
#
#
# Indices 1 2 3 4 5 6 
#
# 1 97.4567 21.9252 -1.1035 0.0000 0.0000 0.0000
# 2 21.9252 79.3561 -5.9168 0.0000 0.0000 0.0000
# 3 -1.1035 -5.9168 21.1301 0.0000 0.0000 0.0000
# 4 0.0000 0.0000 0.0000 13.9227 0.0000 0.0000
# 5 0.0000 0.0000 0.0000 0.0000 8.4596 0.0000
# 6 0.0000 0.0000 0.0000 0.0000 0.0000 17.9576
#
#
#
# Elastic Compliance Matrix: (Units=1/GPa)
#
#
# Indices 1 2 3 4 5 6 
#
# 1 0.010943 -0.003044 -0.000281 0.000000 0.000000 0.000000
# 2 -0.003044 0.013717 0.003682 0.000000 0.000000 0.000000
# 3 -0.000281 0.003682 0.048342 0.000000 0.000000 0.000000
# 4 0.000000 0.000000 0.000000 0.071825 0.000000 0.000000
# 5 0.000000 0.000000 0.000000 0.000000 0.118209 0.000000
# 6 0.000000 0.000000 0.000000 0.000000 0.000000 0.055687
#
#
# Mechanical properties :
#
#
# Convention : Reuss Voigt Hill
#
# Bulk Modulus (GPa) = 13.56568 25.30585 19.43576
# Shear Modulus (GPa) = 14.59510 20.27051 17.43281
#
# Velocity S-wave (km/s) = 2.69136 3.17176 2.94139
# Velocity P-wave (km/s) = 4.04851 5.09632 4.60233
#
# Compressibility (1/GPa) = 0.07371545
#
# Stress axis : x y z
#
# Youngs Moduli (GPa) = 91.38536 72.90185 20.68588
#
# Poissons Ratio (x) = 0.22193 0.00581
# Poissons Ratio (y) = 0.27820 -0.07617
# Poissons Ratio (z) = 0.02568 -0.26843
#
# Static dielectric constant tensor:
#      x y z
#    x 1.727440 0.000000 0.000000 
#    y 0.000000 1.792940 0.000000 
#    z 0.000000 0.000000 1.693990 
# 
# From -- ./inp_files/12653.got.cif
#   From: 2010.05.17/outbox.cif.g08.bks.cpg/sg38_7_cif.got.tgz:12653.got - 2010.06.03 18:07:57.
