data_PCOD9356311
_publ_section_title
;
Structure prediction by ZEFSAII (Michael W. Deem and Ramdas Pophale) SiO2 
 PCOD9356311
Probable space group: A M M 2
;
_chemical_formula_sum "Si O2"
_cell_formula_units_Z 64
_cell_length_a 8.089974
_cell_length_b 21.294046
_cell_length_c 20.333329
_cell_angle_alpha 90.000000
_cell_angle_beta 90.000000
_cell_angle_gamma 90.000000
_cell_volume 3502.787583
_symmetry_space_group_name_H-M "A M M 2"
_symmetry_group_IT_number 38
_symmetry_cell_setting 'orthorhombic'
loop_
_space_group_symop_operation_xyz
x,y,z
-x,-y,z
-x,y,z
x,-y,z
x,1/2+y,1/2+z
-x,1/2-y,1/2+z
-x,1/2+y,1/2+z
x,1/2-y,1/2+z
loop_
_atom_site_type_symbol
_atom_site_label
_atom_site_fract_x
_atom_site_fract_y
_atom_site_fract_z
Si Si1 0.799177 0.381554 0.048380
Si Si2 0.800467 0.234136 0.045591
Si Si3 0.202168 0.930573 0.688351
Si Si4 0.200437 0.809474 0.769823
Si Si5 0.192898 0.886553 0.403393
Si Si6 0.305661 0.430799 0.763700
Si Si7 0.802583 0.809680 0.184519
Si Si8 0.691857 0.245210 0.903625
O O1 0.758823 0.307814 0.056446
O O2 0.743891 0.417769 0.113178
O O3 0.000000 0.385318 0.046275
O O4 0.741347 0.403214 0.976253
O O5 0.742051 0.196243 0.109508
O O6 0.000000 0.230139 0.040636
O O7 0.727483 0.216440 0.975114
O O8 0.255648 0.873465 0.734736
O O9 0.000000 0.929178 0.687730
O O10 0.253803 0.000000 0.709632
O O11 0.259416 0.749160 0.727718
O O12 0.259601 0.799548 0.843890
O O13 0.000000 0.808970 0.769690
O O14 0.279626 0.916375 0.340797
O O15 0.208217 0.810729 0.398399
O O16 0.000000 0.903679 0.399779
O O17 0.500000 0.431335 0.750478
O O18 0.236285 0.500000 0.748804
O O19 0.232130 0.374346 0.721234
O O20 0.000000 0.801734 0.180919
O O21 0.500000 0.262141 0.898523
#
# Coordination Sequence:
#
# PCOD9356311 Si02
#       8
#     8   8   8   8   8   8   8   8
#     4   8  14  26  45  72 105 136 167 205 250 300
#     4   9  17  32  53  78 105 134 171 218 265 311
#     4   9  16  27  47  77 109 137 168 210 260 308
#     4  10  18  31  53  79 105 137 175 220 263 305
#     4  10  19  32  52  75 104 141 180 221 257 304
#     4  11  24  38  51  73 109 146 178 218 268 324
#     4  10  19  33  57  80 101 135 180 226 267 311
#     4  11  21  32  50  78 108 139 174 217 266 317
#
# _framework density 18.271162
#
# number of rings (size 3 to 8) (size 9 to 14) (size 15 to 20)
#    0.000    2.250    2.500    2.625    0.000    2.000 
#    0.000    1.250    0.000    1.125    0.000    1.750 
#    0.000    0.000    0.000    0.000    0.000    0.000 
#
# Total GULP energy -178532.157285 kJ/mol
# GULP energy per Si atom -5579.129915 kJ/mol
# Density = 1.822958 g / cm^3
# Si number density = 18.271162 Si / 1000 Ang^3
#
#
#
# Elastic Constant Matrix: (Units=GPa)
#
#
# Indices 1 2 3 4 5 6 
#
# 1 16.0396 -0.1856 5.6696 0.0000 0.0000 0.0000
# 2 -0.1856 106.6249 69.8636 0.0000 0.0000 0.0000
# 3 5.6696 69.8636 132.8825 0.0000 0.0000 0.0000
# 4 0.0000 0.0000 0.0000 20.5208 0.0000 0.0000
# 5 0.0000 0.0000 0.0000 0.0000 -16.9940 0.0000
# 6 0.0000 0.0000 0.0000 0.0000 0.0000 1.8332
#
#
#
# Elastic Compliance Matrix: (Units=1/GPa)
#
#
# Indices 1 2 3 4 5 6 
#
# 1 0.063880 0.002894 -0.004247 0.000000 0.000000 0.000000
# 2 0.002894 0.014439 -0.007715 0.000000 0.000000 0.000000
# 3 -0.004247 -0.007715 0.011763 0.000000 0.000000 0.000000
# 4 0.000000 0.000000 0.000000 0.048731 0.000000 0.000000
# 5 0.000000 0.000000 0.000000 0.000000 -0.058844 0.000000
# 6 0.000000 0.000000 0.000000 0.000000 0.000000 0.545507
#
#
# Mechanical properties :
#
#
# Convention : Reuss Voigt Hill
#
# Bulk Modulus (GPa) = 13.89926 45.13802 29.51864
# Shear Modulus (GPa) = 7.48959 13.08527 10.28743
#
# Velocity S-wave (km/s) = 2.02683 2.67904 2.37542
# Velocity P-wave (km/s) = 3.61954 5.85899 4.86975
#
# Compressibility (1/GPa) = 0.07194627
#
# Stress axis : x y z
#
# Youngs Moduli (GPa) = 15.65424 69.25910 85.01486
#
# Poissons Ratio (x) = -0.20044 0.36107
# Poissons Ratio (y) = -0.04530 0.65586
# Poissons Ratio (z) = 0.06649 0.53431
#
# Static dielectric constant tensor:
#      x y z
#    x 1.637640 0.000000 0.000000 
#    y 0.000000 1.622710 0.000000 
#    z 0.000000 0.000000 1.636030 
# 
# From -- ./inp_files/20221.got.cif
#   From: 2010.05.17/outbox.cif.g08.bks.cpg/sg38_11_cif.got.tgz:20221.got - 2010.06.03 18:07:57.
