data_PCOD9356464
_publ_section_title
;
Structure prediction by ZEFSAII (Michael W. Deem and Ramdas Pophale) SiO2 
 PCOD9356464
Probable space group: A M M 2
;
_chemical_formula_sum "Si O2"
_cell_formula_units_Z 40
_cell_length_a 8.612142
_cell_length_b 29.418850
_cell_length_c 8.068528
_cell_angle_alpha 90.000000
_cell_angle_beta 90.000000
_cell_angle_gamma 90.000000
_cell_volume 2044.236716
_symmetry_space_group_name_H-M "A M M 2"
_symmetry_group_IT_number 38
_symmetry_cell_setting 'orthorhombic'
loop_
_space_group_symop_operation_xyz
x,y,z
-x,-y,z
-x,y,z
x,-y,z
x,1/2+y,1/2+z
-x,1/2-y,1/2+z
-x,1/2+y,1/2+z
x,1/2-y,1/2+z
loop_
_atom_site_type_symbol
_atom_site_label
_atom_site_fract_x
_atom_site_fract_y
_atom_site_fract_z
Si Si1 0.312474 0.947208 0.505430
Si Si2 0.688480 0.700620 0.811749
Si Si3 0.687858 0.800216 0.696209
Si Si4 0.184018 0.106837 0.821271
Si Si5 0.687782 0.605316 0.671516
O O1 0.500000 0.944225 0.512921
O O2 0.247408 0.920985 0.664201
O O3 0.265110 0.923765 0.332307
O O4 0.267633 0.000000 0.508011
O O5 0.500000 0.701287 0.802740
O O6 0.740419 0.750155 0.752116
O O7 0.739766 0.657358 0.705713
O O8 0.728822 0.693276 0.003542
O O9 0.500000 0.802091 0.711403
O O10 0.757171 0.841414 0.799573
O O11 0.000000 0.105614 0.820610
O O12 0.247173 0.088936 0.996698
O O13 0.500000 0.604769 0.663105
#
# Coordination Sequence:
#
# PCOD9356464 Si02
#       5
#     8   8   8   8   8
#     4  10  22  43  71  96 117 151 205 265 313 355
#     4   9  17  31  59  90 117 153 204 262 310 348
#     4  10  18  34  58  87 119 158 209 257 300 355
#     4  12  25  39  58  89 130 171 200 240 304 372
#     4  10  20  39  65  92 121 156 205 261 306 358
#
# _framework density 19.567202999999999
#
# number of rings (size 3 to 8) (size 9 to 14) (size 15 to 20)
#    0.000    1.800    2.000    3.000    0.000    5.200 
#    0.000    6.000    0.000    0.000    0.000    0.000 
#    0.000    0.000    0.000    0.000    0.000    0.000 
#
# Total GULP energy -111735.727722 kJ/mol
# GULP energy per Si atom -5586.786386 kJ/mol
# Density = 1.952267 g / cm^3
# Si number density = 19.567203 Si / 1000 Ang^3
#
#
#
# Elastic Constant Matrix: (Units=GPa)
#
#
# Indices 1 2 3 4 5 6 
#
# 1 20.4290 30.8113 35.0144 0.0000 0.0000 0.0000
# 2 30.8113 119.0432 69.3804 0.0000 0.0000 0.0000
# 3 35.0144 69.3804 171.5593 0.0000 0.0000 0.0000
# 4 0.0000 0.0000 0.0000 25.7776 0.0000 0.0000
# 5 0.0000 0.0000 0.0000 0.0000 -9.0069 0.0000
# 6 0.0000 0.0000 0.0000 0.0000 0.0000 -2.0049
#
#
#
# Elastic Compliance Matrix: (Units=1/GPa)
#
#
# Indices 1 2 3 4 5 6 
#
# 1 0.097700 -0.017880 -0.012709 0.000000 0.000000 0.000000
# 2 -0.017880 0.014263 -0.002119 0.000000 0.000000 0.000000
# 3 -0.012709 -0.002119 0.009280 0.000000 0.000000 0.000000
# 4 0.000000 0.000000 0.000000 0.038793 0.000000 0.000000
# 5 0.000000 0.000000 0.000000 0.000000 -0.111027 0.000000
# 6 0.000000 0.000000 0.000000 0.000000 0.000000 -0.498774
#
#
# Mechanical properties :
#
#
# Convention : Reuss Voigt Hill
#
# Bulk Modulus (GPa) = 17.91266 64.60487 41.25877
# Shear Modulus (GPa) = -13.67094 14.67486 0.50196
#
# Velocity S-wave (km/s) = -2.64610 2.74153 0.50704
# Velocity P-wave (km/s) = 0.40182 6.56582 4.63403
#
# Compressibility (1/GPa) = 0.05582642
#
# Stress axis : x y z
#
# Youngs Moduli (GPa) = 10.23541 70.11131 107.76237
#
# Poissons Ratio (x) = 1.25359 1.36958
# Poissons Ratio (y) = 0.18301 0.22834
# Poissons Ratio (z) = 0.13008 0.14856
#
# Static dielectric constant tensor:
#      x y z
#    x 1.661000 0.000000 0.000000 
#    y 0.000000 1.684220 0.000000 
#    z 0.000000 0.000000 1.678010 
# 
# From -- ./inp_files/3452.got.cif
#   From: 2010.05.17/outbox.cif.g08.bks.cpg/sg38_2_cif.got.tgz:3452.got - 2010.06.03 18:07:57.
