data_PCOD9356681
_publ_section_title
;
Structure prediction by ZEFSAII (Michael W. Deem and Ramdas Pophale) SiO2 
 PCOD9356681
Probable space group: A M M 2
;
_chemical_formula_sum "Si O2"
_cell_formula_units_Z 56
_cell_length_a 14.557195
_cell_length_b 22.957782
_cell_length_c 9.432911
_cell_angle_alpha 90.000000
_cell_angle_beta 90.000000
_cell_angle_gamma 90.000000
_cell_volume 3152.487434
_symmetry_space_group_name_H-M "A M M 2"
_symmetry_group_IT_number 38
_symmetry_cell_setting 'orthorhombic'
loop_
_space_group_symop_operation_xyz
x,y,z
-x,-y,z
-x,y,z
x,-y,z
x,1/2+y,1/2+z
-x,1/2-y,1/2+z
-x,1/2+y,1/2+z
x,1/2-y,1/2+z
loop_
_atom_site_type_symbol
_atom_site_label
_atom_site_fract_x
_atom_site_fract_y
_atom_site_fract_z
Si Si1 0.233831 0.360614 0.509940
Si Si2 0.608917 0.778634 0.054643
Si Si3 0.108358 0.851439 0.755913
Si Si4 0.894435 0.113433 0.435290
Si Si5 0.892890 0.784758 0.215550
Si Si6 0.272465 0.065381 0.278200
Si Si7 0.608321 0.826260 0.367595
O O1 0.328304 0.326751 0.478364
O O2 0.175309 0.377346 0.373584
O O3 0.171201 0.314660 0.598877
O O4 0.255584 0.412939 0.617535
O O5 0.500000 0.785821 0.025118
O O6 0.622930 0.789540 0.222076
O O7 0.636305 0.715150 0.997420
O O8 0.122101 0.878758 0.601357
O O9 0.128728 0.782286 0.744440
O O10 0.000000 0.857310 0.793239
O O11 0.882949 0.176105 0.356846
O O12 0.823843 0.070864 0.360012
O O13 0.000000 0.095866 0.413104
O O14 0.000000 0.787684 0.170272
O O15 0.336930 0.114174 0.349487
O O16 0.308451 0.000000 0.283797
O O17 0.500000 0.838289 0.378521
#
# Coordination Sequence:
#
# PCOD9356681 Si02
#       7
#     8   8   8   8   8   8   8
#     4  10  20  30  53  76 104 141 172 212 263 309
#     4   9  19  33  50  78 111 134 163 205 259 321
#     4  10  19  30  48  77 107 133 168 215 265 318
#     4   9  19  33  49  72 103 139 176 214 258 305
#     4   9  17  29  46  74 109 138 165 203 259 323
#     4  10  22  38  53  73 101 141 187 218 248 301
#     4   9  19  35  56  82 108 134 164 210 264 312
#
# _framework density 17.763750000000002
#
# number of rings (size 3 to 8) (size 9 to 14) (size 15 to 20)
#    0.000    2.571    0.000    1.286    8.000    3.429 
#    0.000    0.714    0.000    0.857    0.000    0.000 
#    0.000    8.000    0.000    0.000    0.000    0.000 
#
# Total GULP energy -156239.345232 kJ/mol
# GULP energy per Si atom -5579.976615 kJ/mol
# Density = 1.772332 g / cm^3
# Si number density = 17.763750 Si / 1000 Ang^3
#
#
#
# Elastic Constant Matrix: (Units=GPa)
#
#
# Indices 1 2 3 4 5 6 
#
# 1 51.9283 37.6987 33.7664 0.0000 0.0000 0.0000
# 2 37.6987 98.6154 32.1095 0.0000 0.0000 0.0000
# 3 33.7664 32.1095 50.0246 0.0000 0.0000 0.0000
# 4 0.0000 0.0000 0.0000 5.9825 0.0000 0.0000
# 5 0.0000 0.0000 0.0000 0.0000 23.2736 0.0000
# 6 0.0000 0.0000 0.0000 0.0000 0.0000 10.2227
#
#
#
# Elastic Compliance Matrix: (Units=1/GPa)
#
#
# Indices 1 2 3 4 5 6 
#
# 1 0.038694 -0.007949 -0.021016 0.000000 0.000000 0.000000
# 2 -0.007949 0.014453 -0.003911 0.000000 0.000000 0.000000
# 3 -0.021016 -0.003911 0.036686 0.000000 0.000000 0.000000
# 4 0.000000 0.000000 0.000000 0.167153 0.000000 0.000000
# 5 0.000000 0.000000 0.000000 0.000000 0.042967 0.000000
# 6 0.000000 0.000000 0.000000 0.000000 0.000000 0.097821
#
#
# Mechanical properties :
#
#
# Convention : Reuss Voigt Hill
#
# Bulk Modulus (GPa) = 41.52739 45.30194 43.41467
# Shear Modulus (GPa) = 10.60326 14.36202 12.48264
#
# Velocity S-wave (km/s) = 2.44581 2.84650 2.65373
# Velocity P-wave (km/s) = 5.60396 6.03003 5.82089
#
# Compressibility (1/GPa) = 0.02408049
#
# Stress axis : x y z
#
# Youngs Moduli (GPa) = 25.84407 69.19142 27.25813
#
# Poissons Ratio (x) = 0.55000 0.57285
# Poissons Ratio (y) = 0.20543 0.10661
# Poissons Ratio (z) = 0.54313 0.27063
#
# Static dielectric constant tensor:
#      x y z
#    x 1.636170 0.000000 0.000000 
#    y 0.000000 1.576410 0.000000 
#    z 0.000000 0.000000 1.615360 
# 
# From -- ./inp_files/5687.got.cif
#   From: 2010.05.17/outbox.cif.g08.bks.cpg/sg38_3_cif.got.tgz:5687.got - 2010.06.03 18:07:57.
