data_PCOD9356879
_publ_section_title
;
Structure prediction by ZEFSAII (Michael W. Deem and Ramdas Pophale) SiO2 
 PCOD9356879
Probable space group: A M M 2
;
_chemical_formula_sum "Si O2"
_cell_formula_units_Z 48
_cell_length_a 16.061251
_cell_length_b 9.311511
_cell_length_c 14.519996
_cell_angle_alpha 90.000000
_cell_angle_beta 90.000000
_cell_angle_gamma 90.000000
_cell_volume 2171.530965
_symmetry_space_group_name_H-M "A M M 2"
_symmetry_group_IT_number 38
_symmetry_cell_setting 'orthorhombic'
loop_
_space_group_symop_operation_xyz
x,y,z
-x,-y,z
-x,y,z
x,-y,z
x,1/2+y,1/2+z
-x,1/2-y,1/2+z
-x,1/2+y,1/2+z
x,1/2-y,1/2+z
loop_
_atom_site_type_symbol
_atom_site_label
_atom_site_fract_x
_atom_site_fract_y
_atom_site_fract_z
Si Si1 0.500000 0.161820 0.354440
Si Si2 0.832886 0.165053 0.121878
Si Si3 0.000000 0.662895 0.899319
Si Si4 0.320889 0.162237 0.393470
Si Si5 0.000000 0.834990 0.624177
Si Si6 0.500000 0.162776 0.136255
Si Si7 0.837318 0.337087 0.396377
Si Si8 0.670243 0.837653 0.610963
O O1 0.412100 0.229681 0.379681
O O2 0.500000 0.148073 0.245841
O O3 0.500000 0.000000 0.398024
O O4 0.915838 0.250887 0.150187
O O5 0.748011 0.246745 0.149016
O O6 0.833707 0.000000 0.153845
O O7 0.834567 0.160279 0.009017
O O8 0.082146 0.746535 0.870395
O O9 0.000000 0.500000 0.866372
O O10 0.000000 0.660270 0.011630
O O11 0.245487 0.259449 0.361637
O O12 0.310512 0.147338 0.502684
O O13 0.320323 0.000000 0.352912
O O14 0.000000 0.000000 0.656496
O O15 0.583568 0.251475 0.114971
O O16 0.500000 0.000000 0.096580
O O17 0.842918 0.500000 0.364245
O O18 0.663275 0.000000 0.649370
#
# Coordination Sequence:
#
# PCOD9356879 Si02
#       8
#     4   8   4   8   4   4   8   8
#     4   9  19  35  53  71  92 123 162 200 238 285
#     4   9  16  26  41  64  95 128 160 195 237 283
#     4   9  15  23  37  59  90 129 164 191 226 277
#     4   9  17  32  52  71  93 125 164 200 235 281
#     4   9  15  23  37  61  94 129 162 195 234 279
#     4  11  22  35  51  71  96 125 158 198 244 293
#     4   9  16  25  39  64  96 125 154 194 241 281
#     4  10  19  32  51  73  97 126 161 201 242 285
#
# _framework density 22.104220999999999
#
# number of rings (size 3 to 8) (size 9 to 14) (size 15 to 20)
#    0.000    2.667    0.000    2.750    0.000    8.000 
#    0.000    2.083    0.000    0.000    0.000    1.167 
#    0.000    2.667    0.000    0.000    0.000    0.000 
#
# Total GULP energy -134039.043946 kJ/mol
# GULP energy per Si atom -5584.960164 kJ/mol
# Density = 2.205391 g / cm^3
# Si number density = 22.104221 Si / 1000 Ang^3
#
#
#
# Elastic Constant Matrix: (Units=GPa)
#
#
# Indices 1 2 3 4 5 6 
#
# 1 260.9379 153.7100 -5.3591 0.0000 0.0000 0.0000
# 2 153.7100 220.9364 5.7040 0.0000 0.0000 0.0000
# 3 -5.3591 5.7040 45.5903 0.0000 0.0000 0.0000
# 4 0.0000 0.0000 0.0000 -6.2158 0.0000 0.0000
# 5 0.0000 0.0000 0.0000 0.0000 -115.3391 0.0000
# 6 0.0000 0.0000 0.0000 0.0000 0.0000 136.8314
#
#
#
# Elastic Compliance Matrix: (Units=1/GPa)
#
#
# Indices 1 2 3 4 5 6 
#
# 1 0.006575 -0.004609 0.001350 0.000000 0.000000 0.000000
# 2 -0.004609 0.007772 -0.001514 0.000000 0.000000 0.000000
# 3 0.001350 -0.001514 0.022283 0.000000 0.000000 0.000000
# 4 0.000000 0.000000 0.000000 -0.160879 0.000000 0.000000
# 5 0.000000 0.000000 0.000000 0.000000 -0.008670 0.000000
# 6 0.000000 0.000000 0.000000 0.000000 0.000000 0.007308
#
#
# Mechanical properties :
#
#
# Convention : Reuss Voigt Hill
#
# Bulk Modulus (GPa) = 36.92491 92.84159 64.88325
# Shear Modulus (GPa) = -46.71341 27.94927 -9.38207
#
# Velocity S-wave (km/s) = -4.60208 3.55974 -2.06245
# Velocity P-wave (km/s) = 3.39082 7.68040 4.87293
#
# Compressibility (1/GPa) = 0.02708199
#
# Stress axis : x y z
#
# Youngs Moduli (GPa) = 152.08416 128.66454 44.87807
#
# Poissons Ratio (x) = 0.59307 -0.06057
# Poissons Ratio (y) = 0.70102 0.06796
# Poissons Ratio (z) = -0.20526 0.19483
#
# Static dielectric constant tensor:
#      x y z
#    x 1.785730 0.000000 0.000000 
#    y 0.000000 1.800820 0.000000 
#    z 0.000000 0.000000 1.833460 
# 
# From -- ./inp_files/18270.got.cif
#   From: 2010.05.17/outbox.cif.g08.bks.cpg/sg38_10_cif.got.tgz:18270.got - 2010.06.03 18:07:57.
