data_PCOD9356915
_publ_section_title
;
Structure prediction by ZEFSAII (Michael W. Deem and Ramdas Pophale) SiO2 
 PCOD9356915
Probable space group: A M M 2
;
_chemical_formula_sum "Si O2"
_cell_formula_units_Z 40
_cell_length_a 12.008024
_cell_length_b 7.362433
_cell_length_c 20.986973
_cell_angle_alpha 90.000000
_cell_angle_beta 90.000000
_cell_angle_gamma 90.000000
_cell_volume 1855.422021
_symmetry_space_group_name_H-M "A M M 2"
_symmetry_group_IT_number 38
_symmetry_cell_setting 'orthorhombic'
loop_
_space_group_symop_operation_xyz
x,y,z
-x,-y,z
-x,y,z
x,-y,z
x,1/2+y,1/2+z
-x,1/2-y,1/2+z
-x,1/2+y,1/2+z
x,1/2-y,1/2+z
loop_
_atom_site_type_symbol
_atom_site_label
_atom_site_fract_x
_atom_site_fract_y
_atom_site_fract_z
Si Si1 0.126836 0.221488 0.038490
Si Si2 0.737124 0.221692 0.163010
Si Si3 0.261116 0.718368 0.414890
Si Si4 0.500000 0.278214 0.461044
Si Si5 0.500000 0.721515 0.610767
Si Si6 0.127493 0.214901 0.285506
O O1 0.189409 0.275795 0.102382
O O2 0.000000 0.281323 0.037991
O O3 0.127222 0.000000 0.037785
O O4 0.191409 0.282401 0.975852
O O5 0.611206 0.279504 0.147717
O O6 0.797770 0.286046 0.227055
O O7 0.734430 0.000000 0.165014
O O8 0.264688 0.500000 0.417717
O O9 0.388016 0.781023 0.424914
O O10 0.196037 0.763598 0.350613
O O11 0.500000 0.500000 0.461987
O O12 0.500000 0.223290 0.535936
O O13 0.500000 0.500000 0.609276
O O14 0.000000 0.286479 0.289023
O O15 0.116732 0.000000 0.274236
#
# Coordination Sequence:
#
# PCOD9356915 Si02
#       6
#     8   8   8   4   4   8
#     4   9  15  24  43  70  94 120 162 210 247 282
#     4   9  16  27  45  69  97 128 162 204 252 294
#     4  10  19  32  52  76 101 132 169 208 252 298
#     4   9  16  29  49  77 107 128 157 212 264 294
#     4   9  14  25  46  73 101 124 157 212 262 292
#     4  10  21  35  49  71 106 140 167 203 253 303
#
# _framework density 21.558439
#
# number of rings (size 3 to 8) (size 9 to 14) (size 15 to 20)
#    0.000    2.600    2.000    1.200    0.000    4.400 
#    0.000    1.500    0.000    1.200    0.000    0.000 
#    0.000    0.000    0.000    0.000    0.000    0.000 
#
# Total GULP energy -111706.747984 kJ/mol
# GULP energy per Si atom -5585.337399 kJ/mol
# Density = 2.150937 g / cm^3
# Si number density = 21.558439 Si / 1000 Ang^3
#
#
#
# Elastic Constant Matrix: (Units=GPa)
#
#
# Indices 1 2 3 4 5 6 
#
# 1 271.6519 6.2628 137.8498 0.0000 0.0000 0.0000
# 2 6.2628 77.5648 -2.4368 0.0000 0.0000 0.0000
# 3 137.8498 -2.4368 210.2260 0.0000 0.0000 0.0000
# 4 0.0000 0.0000 0.0000 11.5385 0.0000 0.0000
# 5 0.0000 0.0000 0.0000 0.0000 70.9944 0.0000
# 6 0.0000 0.0000 0.0000 0.0000 0.0000 -2.6752
#
#
#
# Elastic Compliance Matrix: (Units=1/GPa)
#
#
# Indices 1 2 3 4 5 6 
#
# 1 0.005541 -0.000562 -0.003640 0.000000 0.000000 0.000000
# 2 -0.000562 0.012954 0.000519 0.000000 0.000000 0.000000
# 3 -0.003640 0.000519 0.007150 0.000000 0.000000 0.000000
# 4 0.000000 0.000000 0.000000 0.086667 0.000000 0.000000
# 5 0.000000 0.000000 0.000000 0.000000 0.014086 0.000000
# 6 0.000000 0.000000 0.000000 0.000000 0.000000 -0.373810
#
#
# Mechanical properties :
#
#
# Convention : Reuss Voigt Hill
#
# Bulk Modulus (GPa) = 54.70931 93.64383 74.17657
# Shear Modulus (GPa) = -21.37182 43.82266 11.22542
#
# Velocity S-wave (km/s) = -3.15198 4.51348 2.28435
# Velocity P-wave (km/s) = 3.49080 8.40794 6.43736
#
# Compressibility (1/GPa) = 0.01827843
#
# Stress axis : x y z
#
# Youngs Moduli (GPa) = 180.46383 77.19565 139.86688
#
# Poissons Ratio (x) = 0.04337 0.50912
# Poissons Ratio (y) = 0.10138 -0.07252
# Poissons Ratio (z) = 0.65690 -0.04003
#
# Static dielectric constant tensor:
#      x y z
#    x 1.759670 0.000000 0.000000 
#    y 0.000000 1.871760 0.000000 
#    z 0.000000 0.000000 1.720880 
# 
# From -- ./inp_files/20458.got.cif
#   From: 2010.05.17/outbox.cif.g08.bks.cpg/sg38_11_cif.got.tgz:20458.got - 2010.06.03 18:07:57.
