data_PCOD9356625
_publ_section_title
;
Structure prediction by ZEFSAII (Michael W. Deem and Ramdas Pophale) SiO2 
 PCOD9356625
Probable space group: A M M 2
;
_chemical_formula_sum "Si O2"
_cell_formula_units_Z 64
_cell_length_a 18.213572
_cell_length_b 9.328747
_cell_length_c 23.278775
_cell_angle_alpha 90.000000
_cell_angle_beta 90.000000
_cell_angle_gamma 90.000000
_cell_volume 3955.292124
_symmetry_space_group_name_H-M "A M M 2"
_symmetry_group_IT_number 38
_symmetry_cell_setting 'orthorhombic'
loop_
_space_group_symop_operation_xyz
x,y,z
-x,-y,z
-x,y,z
x,-y,z
x,1/2+y,1/2+z
-x,1/2-y,1/2+z
-x,1/2+y,1/2+z
x,1/2-y,1/2+z
loop_
_atom_site_type_symbol
_atom_site_label
_atom_site_fract_x
_atom_site_fract_y
_atom_site_fract_z
Si Si1 0.733500 0.829176 0.390820
Si Si2 0.917308 0.828057 0.066557
Si Si3 0.297997 0.334936 0.624870
Si Si4 0.225556 0.828078 0.522046
Si Si5 0.199186 0.336742 0.287605
Si Si6 0.138700 0.337264 0.687860
Si Si7 0.418917 0.329123 0.833045
Si Si8 0.640116 0.835348 0.726370
O O1 0.751161 0.797649 0.456758
O O2 0.786284 0.749055 0.346056
O O3 0.649548 0.790797 0.373823
O O4 0.741444 0.000000 0.382165
O O5 0.911540 0.791673 0.134483
O O6 0.000000 0.801586 0.046035
O O7 0.902137 0.000000 0.062431
O O8 0.854432 0.739480 0.034660
O O9 0.319163 0.500000 0.614142
O O10 0.280441 0.247473 0.567169
O O11 0.220015 0.339159 0.658980
O O12 0.352876 0.252067 0.667281
O O13 0.224692 0.000000 0.531102
O O14 0.178429 0.500000 0.299135
O O15 0.143707 0.261422 0.243471
O O16 0.278197 0.337110 0.254871
O O17 0.120183 0.500000 0.704420
O O18 0.500000 0.299528 0.857112
O O19 0.413673 0.500000 0.822017
O O20 0.408517 0.245535 0.773421
O O21 0.617872 0.000000 0.717440
#
# Coordination Sequence:
#
# PCOD9356625 Si02
#       8
#     8   8   8   8   8   8   8   8
#     4   9  18  31  46  66  93 124 159 198 237 279
#     4   9  18  32  49  69  93 122 155 192 238 291
#     4   9  16  27  44  65  89 118 150 184 225 273
#     4  10  19  30  46  69  95 124 161 202 240 278
#     4   9  16  25  41  65  89 113 143 181 223 267
#     4   8  14  25  42  63  87 113 140 174 220 272
#     4   9  17  30  48  68  91 122 158 194 236 289
#     4   9  16  26  42  66  93 116 142 182 231 277
#
# _framework density 16.180852999999999
#
# number of rings (size 3 to 8) (size 9 to 14) (size 15 to 20)
#    0.000    3.000    0.000    2.250    0.000    7.500 
#    0.000    0.000    0.000    1.500    0.000    3.500 
#    0.000    0.000    0.000    0.000    0.000    0.000 
#
# Total GULP energy -178172.082687 kJ/mol
# GULP energy per Si atom -5567.877584 kJ/mol
# Density = 1.614402 g / cm^3
# Si number density = 16.180853 Si / 1000 Ang^3
#
#
#
# Elastic Constant Matrix: (Units=GPa)
#
#
# Indices 1 2 3 4 5 6 
#
# 1 53.9203 34.4223 40.7435 0.0000 0.0000 0.0000
# 2 34.4223 83.3255 76.9749 0.0000 0.0000 0.0000
# 3 40.7435 76.9749 128.4978 0.0000 0.0000 0.0000
# 4 0.0000 0.0000 0.0000 27.6053 0.0000 0.0000
# 5 0.0000 0.0000 0.0000 0.0000 12.1952 0.0000
# 6 0.0000 0.0000 0.0000 0.0000 0.0000 13.0579
#
#
#
# Elastic Compliance Matrix: (Units=1/GPa)
#
#
# Indices 1 2 3 4 5 6 
#
# 1 0.026105 -0.007026 -0.004069 0.000000 0.000000 0.000000
# 2 -0.007026 0.028762 -0.015002 0.000000 0.000000 0.000000
# 3 -0.004069 -0.015002 0.018059 0.000000 0.000000 0.000000
# 4 0.000000 0.000000 0.000000 0.036225 0.000000 0.000000
# 5 0.000000 0.000000 0.000000 0.000000 0.082000 0.000000
# 6 0.000000 0.000000 0.000000 0.000000 0.000000 0.076582
#
#
# Mechanical properties :
#
#
# Convention : Reuss Voigt Hill
#
# Bulk Modulus (GPa) = 48.23016 63.33613 55.78315
# Shear Modulus (GPa) = 15.29818 18.14521 16.72169
#
# Velocity S-wave (km/s) = 3.07815 3.35236 3.21818
# Velocity P-wave (km/s) = 6.51959 7.36288 6.95403
#
# Compressibility (1/GPa) = 0.02073391
#
# Stress axis : x y z
#
# Youngs Moduli (GPa) = 38.30614 34.76822 55.37412
#
# Poissons Ratio (x) = 0.24427 0.22531
# Poissons Ratio (y) = 0.26913 0.83071
# Poissons Ratio (z) = 0.15586 0.52159
#
# Static dielectric constant tensor:
#      x y z
#    x 1.555840 0.000000 0.000000 
#    y 0.000000 1.548310 0.000000 
#    z 0.000000 0.000000 1.524420 
# 
# From -- ./inp_files/21536.got.cif
#   From: 2010.05.17/outbox.cif.g08.bks.cpg/sg38_11_cif.got.tgz:21536.got - 2010.06.03 18:07:57.
