data_PCOD9356421
_publ_section_title
;
Structure prediction by ZEFSAII (Michael W. Deem and Ramdas Pophale) SiO2 
 PCOD9356421
Probable space group: A M M 2
;
_chemical_formula_sum "Si O2"
_cell_formula_units_Z 64
_cell_length_a 7.861595
_cell_length_b 25.663148
_cell_length_c 15.469128
_cell_angle_alpha 90.000000
_cell_angle_beta 90.000000
_cell_angle_gamma 90.000000
_cell_volume 3120.947251
_symmetry_space_group_name_H-M "A M M 2"
_symmetry_group_IT_number 38
_symmetry_cell_setting 'orthorhombic'
loop_
_space_group_symop_operation_xyz
x,y,z
-x,-y,z
-x,y,z
x,-y,z
x,1/2+y,1/2+z
-x,1/2-y,1/2+z
-x,1/2+y,1/2+z
x,1/2-y,1/2+z
loop_
_atom_site_type_symbol
_atom_site_label
_atom_site_fract_x
_atom_site_fract_y
_atom_site_fract_z
Si Si1 0.294727 0.783492 0.346070
Si Si2 0.304195 0.631862 0.549263
Si Si3 0.291959 0.940045 0.202880
Si Si4 0.799640 0.942096 0.570455
Si Si5 0.706538 0.396598 0.889361
Si Si6 0.708505 0.168087 0.873078
Si Si7 0.805304 0.771127 0.145868
Si Si8 0.699081 0.342086 0.177465
O O1 0.500000 0.783846 0.347184
O O2 0.237748 0.836146 0.392602
O O3 0.237757 0.728389 0.384444
O O4 0.241308 0.783458 0.245588
O O5 0.500000 0.614788 0.539872
O O6 0.228553 0.595563 0.624037
O O7 0.228341 0.634071 0.453299
O O8 0.301849 0.690865 0.585451
O O9 0.500000 0.937221 0.203656
O O10 0.238731 0.918833 0.296511
O O11 0.243514 0.000000 0.192208
O O12 0.772650 0.929254 0.469683
O O13 0.721728 0.894727 0.624484
O O14 0.000000 0.942098 0.588652
O O15 0.731085 0.000000 0.589753
O O16 0.500000 0.398076 0.892865
O O17 0.500000 0.166897 0.875323
O O18 0.761772 0.152148 0.776469
O O19 0.780541 0.709266 0.135124
O O20 0.000000 0.784684 0.130340
O O21 0.500000 0.329154 0.182856
#
# Coordination Sequence:
#
# PCOD9356421 Si02
#       8
#     8   8   8   8   8   8   8   8
#     4   9  17  33  53  79 109 147 190 227 273 333
#     4  10  18  33  55  80 112 149 186 230 281 336
#     4   9  17  30  51  79 110 144 186 232 277 327
#     4  11  25  42  58  82 116 152 192 240 295 349
#     4  10  19  33  56  84 111 148 196 238 279 335
#     4   8  17  32  55  83 111 140 180 230 281 331
#     4  11  21  33  52  83 117 149 183 227 285 343
#     4  10  21  40  62  83 108 145 194 242 286 338
#
# _framework density 20.506594
#
# number of rings (size 3 to 8) (size 9 to 14) (size 15 to 20)
#    0.000    2.250    1.250    3.000    1.750    2.000 
#    0.000    3.750    0.000    2.625    0.000    0.000 
#    0.000    0.000    0.000    0.000    0.000    0.000 
#
# Total GULP energy -178639.448271 kJ/mol
# GULP energy per Si atom -5582.482758 kJ/mol
# Density = 2.045992 g / cm^3
# Si number density = 20.506594 Si / 1000 Ang^3
#
#
#
# Elastic Constant Matrix: (Units=GPa)
#
#
# Indices 1 2 3 4 5 6 
#
# 1 27.0275 -3.4124 -6.1549 0.0000 0.0000 0.0000
# 2 -3.4124 105.8354 46.3247 0.0000 0.0000 0.0000
# 3 -6.1549 46.3247 87.7336 0.0000 0.0000 0.0000
# 4 0.0000 0.0000 0.0000 27.9009 0.0000 0.0000
# 5 0.0000 0.0000 0.0000 0.0000 -26.9937 0.0000
# 6 0.0000 0.0000 0.0000 0.0000 0.0000 8.9116
#
#
#
# Elastic Compliance Matrix: (Units=1/GPa)
#
#
# Indices 1 2 3 4 5 6 
#
# 1 0.037601 0.000075 0.002598 0.000000 0.000000 0.000000
# 2 0.000075 0.012289 -0.006483 0.000000 0.000000 0.000000
# 3 0.002598 -0.006483 0.015004 0.000000 0.000000 0.000000
# 4 0.000000 0.000000 0.000000 0.035841 0.000000 0.000000
# 5 0.000000 0.000000 0.000000 0.000000 -0.037046 0.000000
# 6 0.000000 0.000000 0.000000 0.000000 0.000000 0.112213
#
#
# Mechanical properties :
#
#
# Convention : Reuss Voigt Hill
#
# Bulk Modulus (GPa) = 17.46026 32.67902 25.06964
# Shear Modulus (GPa) = 24.67759 14.21971 19.44865
#
# Velocity S-wave (km/s) = 3.47277 2.63615 3.08297
# Velocity P-wave (km/s) = 4.96116 5.02356 4.99246
#
# Compressibility (1/GPa) = 0.05727290
#
# Stress axis : x y z
#
# Youngs Moduli (GPa) = 26.59536 81.37422 66.64983
#
# Poissons Ratio (x) = -0.00611 -0.17317
# Poissons Ratio (y) = -0.00200 0.43212
# Poissons Ratio (z) = -0.06910 0.52759
#
# Static dielectric constant tensor:
#      x y z
#    x 1.743770 0.000000 0.000000 
#    y 0.000000 1.721630 0.000000 
#    z 0.000000 0.000000 1.731490 
# 
# From -- ./inp_files/12845.got.cif
#   From: 2010.05.17/outbox.cif.g08.bks.cpg/sg38_7_cif.got.tgz:12845.got - 2010.06.03 18:07:57.
