data_PCOD9356567
_publ_section_title
;
Structure prediction by ZEFSAII (Michael W. Deem and Ramdas Pophale) SiO2 
 PCOD9356567
Probable space group: A M M 2
;
_chemical_formula_sum "Si O2"
_cell_formula_units_Z 56
_cell_length_a 9.159164
_cell_length_b 18.688077
_cell_length_c 21.295004
_cell_angle_alpha 90.000000
_cell_angle_beta 90.000000
_cell_angle_gamma 90.000000
_cell_volume 3645.005401
_symmetry_space_group_name_H-M "A M M 2"
_symmetry_group_IT_number 38
_symmetry_cell_setting 'orthorhombic'
loop_
_space_group_symop_operation_xyz
x,y,z
-x,-y,z
-x,y,z
x,-y,z
x,1/2+y,1/2+z
-x,1/2-y,1/2+z
-x,1/2+y,1/2+z
x,1/2-y,1/2+z
loop_
_atom_site_type_symbol
_atom_site_label
_atom_site_fract_x
_atom_site_fract_y
_atom_site_fract_z
Si Si1 0.825706 0.084480 0.703050
Si Si2 0.325223 0.338302 0.087311
Si Si3 0.176104 0.648057 0.339683
Si Si4 0.673419 0.416077 0.462151
Si Si5 0.675073 0.581626 0.957201
Si Si6 0.167164 0.207171 0.394906
Si Si7 0.168596 0.208262 0.028310
O O1 0.738571 0.124983 0.648992
O O2 0.791654 0.115706 0.771842
O O3 0.000000 0.093463 0.692826
O O4 0.793437 0.000000 0.701624
O O5 0.500000 0.332167 0.090046
O O6 0.252612 0.261155 0.075031
O O7 0.287928 0.387542 0.026448
O O8 0.256473 0.605412 0.395089
O O9 0.217033 0.732001 0.346057
O O10 0.000000 0.643753 0.350271
O O11 0.500000 0.401802 0.460640
O O12 0.696894 0.500000 0.473656
O O13 0.749755 0.365660 0.513738
O O14 0.500000 0.582287 0.952622
O O15 0.726620 0.500000 0.950571
O O16 0.739777 0.636496 0.906509
O O17 0.169571 0.250018 0.461259
O O18 0.000000 0.187606 0.381186
O O19 0.000000 0.197785 0.046327
#
# Coordination Sequence:
#
# PCOD9356567 Si02
#       7
#     8   8   8   8   8   8   8
#     4  10  20  32  46  65  90 122 158 191 223 264
#     4  10  19  31  46  64  90 121 152 187 226 268
#     4   9  18  32  47  63  88 123 159 191 224 266
#     4  10  19  29  44  69  97 121 148 186 230 272
#     4   9  17  28  42  62  88 116 143 174 217 267
#     4   8  15  27  43  63  84 109 144 184 222 259
#     4   9  17  30  47  65  87 117 152 186 223 270
#
# _framework density 15.363488
#
# number of rings (size 3 to 8) (size 9 to 14) (size 15 to 20)
#    0.000    2.714    0.000    3.000    0.000    7.429 
#    0.000    0.000    0.000    0.000    0.000    1.000 
#    0.000    5.714    0.000    0.000    0.000    0.000 
#
# Total GULP energy -156021.978223 kJ/mol
# GULP energy per Si atom -5572.213508 kJ/mol
# Density = 1.532852 g / cm^3
# Si number density = 15.363488 Si / 1000 Ang^3
#
#
#
# Elastic Constant Matrix: (Units=GPa)
#
#
# Indices 1 2 3 4 5 6 
#
# 1 62.7901 71.3153 42.3063 0.0000 0.0000 0.0000
# 2 71.3153 140.0010 59.6042 0.0000 0.0000 0.0000
# 3 42.3063 59.6042 67.2586 0.0000 0.0000 0.0000
# 4 0.0000 0.0000 0.0000 26.0916 0.0000 0.0000
# 5 0.0000 0.0000 0.0000 0.0000 20.3222 0.0000
# 6 0.0000 0.0000 0.0000 0.0000 0.0000 28.2197
#
#
#
# Elastic Compliance Matrix: (Units=1/GPa)
#
#
# Indices 1 2 3 4 5 6 
#
# 1 0.043372 -0.016827 -0.012369 0.000000 0.000000 0.000000
# 2 -0.016827 0.017999 -0.005366 0.000000 0.000000 0.000000
# 3 -0.012369 -0.005366 0.027404 0.000000 0.000000 0.000000
# 4 0.000000 0.000000 0.000000 0.038326 0.000000 0.000000
# 5 0.000000 0.000000 0.000000 0.000000 0.049207 0.000000
# 6 0.000000 0.000000 0.000000 0.000000 0.000000 0.035436
#
#
# Mechanical properties :
#
#
# Convention : Reuss Voigt Hill
#
# Bulk Modulus (GPa) = 50.89146 68.50012 59.69579
# Shear Modulus (GPa) = 17.39611 21.38162 19.38887
#
# Velocity S-wave (km/s) = 3.36862 3.73462 3.55633
# Velocity P-wave (km/s) = 6.95176 7.95485 7.47016
#
# Compressibility (1/GPa) = 0.01964966
#
# Stress axis : x y z
#
# Youngs Moduli (GPa) = 23.05624 55.55839 36.49122
#
# Poissons Ratio (x) = 0.93490 0.45137
# Poissons Ratio (y) = 0.38797 0.19582
# Poissons Ratio (z) = 0.28519 0.29813
#
# Static dielectric constant tensor:
#      x y z
#    x 1.517520 0.000000 0.000000 
#    y 0.000000 1.515780 0.000000 
#    z 0.000000 0.000000 1.488000 
# 
# From -- ./inp_files/19972.got.cif
#   From: 2010.05.17/outbox.cif.g08.bks.cpg/sg38_10_cif.got.tgz:19972.got - 2010.06.03 18:07:57.
