data_PCOD9356180
_publ_section_title
;
Structure prediction by ZEFSAII (Michael W. Deem and Ramdas Pophale) SiO2 
 PCOD9356180
Probable space group: A M M 2
;
_chemical_formula_sum "Si O2"
_cell_formula_units_Z 40
_cell_length_a 14.142739
_cell_length_b 13.857582
_cell_length_c 13.046787
_cell_angle_alpha 90.000000
_cell_angle_beta 90.000000
_cell_angle_gamma 90.000000
_cell_volume 2556.963661
_symmetry_space_group_name_H-M "A M M 2"
_symmetry_group_IT_number 38
_symmetry_cell_setting 'orthorhombic'
loop_
_space_group_symop_operation_xyz
x,y,z
-x,-y,z
-x,y,z
x,-y,z
x,1/2+y,1/2+z
-x,1/2-y,1/2+z
-x,1/2+y,1/2+z
x,1/2-y,1/2+z
loop_
_atom_site_type_symbol
_atom_site_label
_atom_site_fract_x
_atom_site_fract_y
_atom_site_fract_z
Si Si1 0.742939 0.726460 0.370180
Si Si2 0.111782 0.886442 0.005561
Si Si3 0.605333 0.388608 0.230807
Si Si4 0.608372 0.226090 0.061460
Si Si5 0.753766 0.386764 0.696246
O O1 0.834976 0.681437 0.424152
O O2 0.688769 0.645418 0.304195
O O3 0.608457 0.679207 0.132112
O O4 0.760048 0.816832 0.294664
O O5 0.159462 0.870667 0.117078
O O6 0.000000 0.869307 0.008000
O O7 0.128235 0.000000 0.980588
O O8 0.500000 0.374771 0.278003
O O9 0.614907 0.500000 0.204124
O O10 0.669261 0.251559 0.461165
O O11 0.500000 0.199370 0.039105
O O12 0.662297 0.145147 0.129049
O O13 0.749677 0.500000 0.722777
#
# Coordination Sequence:
#
# PCOD9356180 Si02
#       5
#     8   8   8   8   8
#     4  10  18  30  49  71  92 119 156 194 230 271
#     4   9  18  33  51  70  92 118 151 192 237 283
#     4   9  17  29  45  66  93 123 152 184 225 271
#     4   9  18  31  45  65  95 126 156 190 227 270
#     4   9  19  33  48  69  96 126 157 190 231 276
#
# _framework density 15.643554999999999
#
# number of rings (size 3 to 8) (size 9 to 14) (size 15 to 20)
#    0.000    2.800    0.000    1.200    0.000    3.600 
#    0.000    0.000    0.000    0.000    0.000    0.000 
#    0.000    0.000    0.000    0.000    0.000    0.000 
#
# Total GULP energy -111383.689218 kJ/mol
# GULP energy per Si atom -5569.184461 kJ/mol
# Density = 1.560795 g / cm^3
# Si number density = 15.643555 Si / 1000 Ang^3
#
#
#
# Elastic Constant Matrix: (Units=GPa)
#
#
# Indices 1 2 3 4 5 6 
#
# 1 128.4023 59.6836 61.6584 0.0000 0.0000 0.0000
# 2 59.6836 88.3413 44.0402 0.0000 0.0000 0.0000
# 3 61.6584 44.0402 86.9013 0.0000 0.0000 0.0000
# 4 0.0000 0.0000 0.0000 15.2459 0.0000 0.0000
# 5 0.0000 0.0000 0.0000 0.0000 9.6688 0.0000
# 6 0.0000 0.0000 0.0000 0.0000 0.0000 19.1216
#
#
#
# Elastic Compliance Matrix: (Units=1/GPa)
#
#
# Indices 1 2 3 4 5 6 
#
# 1 0.013811 -0.005948 -0.006785 0.000000 0.000000 0.000000
# 2 -0.005948 0.017708 -0.004754 0.000000 0.000000 0.000000
# 3 -0.006785 -0.004754 0.018730 0.000000 0.000000 0.000000
# 4 0.000000 0.000000 0.000000 0.065592 0.000000 0.000000
# 5 0.000000 0.000000 0.000000 0.000000 0.103426 0.000000
# 6 0.000000 0.000000 0.000000 0.000000 0.000000 0.052297
#
#
# Mechanical properties :
#
#
# Convention : Reuss Voigt Hill
#
# Bulk Modulus (GPa) = 65.46231 70.48994 67.97613
# Shear Modulus (GPa) = 16.04472 18.02477 17.03474
#
# Velocity S-wave (km/s) = 3.20604 3.39811 3.30347
# Velocity P-wave (km/s) = 7.45935 7.78165 7.62221
#
# Compressibility (1/GPa) = 0.01527597
#
# Stress axis : x y z
#
# Youngs Moduli (GPa) = 72.40674 56.47053 53.38948
#
# Poissons Ratio (x) = 0.33591 0.36223
# Poissons Ratio (y) = 0.43070 0.25380
# Poissons Ratio (z) = 0.49125 0.26845
#
# Static dielectric constant tensor:
#      x y z
#    x 1.533240 0.000000 0.000000 
#    y 0.000000 1.500930 0.000000 
#    z 0.000000 0.000000 1.521250 
# 
# From -- ./inp_files/14365.got.cif
#   From: 2010.05.17/outbox.cif.g08.bks.cpg/sg38_8_cif.got.tgz:14365.got - 2010.06.03 18:07:57.
