data_PCOD9356002
_publ_section_title
;
Structure prediction by ZEFSAII (Michael W. Deem and Ramdas Pophale) SiO2 
 PCOD9356002
Probable space group: A M M 2
;
_chemical_formula_sum "Si O2"
_cell_formula_units_Z 64
_cell_length_a 9.156670
_cell_length_b 18.839619
_cell_length_c 26.685692
_cell_angle_alpha 90.000000
_cell_angle_beta 90.000000
_cell_angle_gamma 90.000000
_cell_volume 4603.500002
_symmetry_space_group_name_H-M "A M M 2"
_symmetry_group_IT_number 38
_symmetry_cell_setting 'orthorhombic'
loop_
_space_group_symop_operation_xyz
x,y,z
-x,-y,z
-x,y,z
x,-y,z
x,1/2+y,1/2+z
-x,1/2-y,1/2+z
-x,1/2+y,1/2+z
x,1/2-y,1/2+z
loop_
_atom_site_type_symbol
_atom_site_label
_atom_site_fract_x
_atom_site_fract_y
_atom_site_fract_z
Si Si1 0.173708 0.161588 0.896660
Si Si2 0.675607 0.917343 0.286548
Si Si3 0.173968 0.083077 0.092855
Si Si4 0.667539 0.287140 0.848061
Si Si5 0.825164 0.082512 0.792118
Si Si6 0.331878 0.793162 0.740276
Si Si7 0.673971 0.916174 0.988378
Si Si8 0.824944 0.663589 0.694917
O O1 0.231654 0.240168 0.883574
O O2 0.207835 0.113114 0.847680
O O3 0.252333 0.128931 0.944634
O O4 0.000000 0.161495 0.903425
O O5 0.500000 0.909092 0.278933
O O6 0.713621 0.866927 0.333715
O O7 0.757838 0.887031 0.237956
O O8 0.707279 0.000000 0.294151
O O9 0.210569 0.130582 0.140869
O O10 0.000000 0.089079 0.083511
O O11 0.204402 0.000000 0.104365
O O12 0.260534 0.102328 0.042695
O O13 0.500000 0.286666 0.866189
O O14 0.669249 0.247736 0.793947
O O15 0.744065 0.132145 0.752125
O O16 0.000000 0.088982 0.785424
O O17 0.784693 0.000000 0.788892
O O18 0.500000 0.801050 0.724861
O O19 0.243659 0.741195 0.703681
O O20 0.500000 0.906975 0.987992
O O21 0.706037 0.000000 0.980049
O O22 0.000000 0.666287 0.700479
#
# Coordination Sequence:
#
# PCOD9356002 Si02
#       8
#     8   8   8   8   8   8   8   8
#     4  10  18  28  43  60  80 108 139 170 205 243
#     4   9  17  28  42  61  85 112 140 170 205 244
#     4   9  18  31  44  59  81 108 138 172 207 241
#     4   8  15  27  40  56  80 108 137 168 200 237
#     4   9  17  28  42  61  84 110 140 172 206 245
#     4   9  17  28  41  58  81 109 139 171 206 243
#     4  10  20  31  43  60  81 106 137 172 207 242
#     4  10  18  28  43  61  82 110 142 173 206 243
#
# _framework density 13.902464999999999
#
# number of rings (size 3 to 8) (size 9 to 14) (size 15 to 20)
#    0.000    2.750    0.000    3.000    0.000    6.750 
#    0.000    1.250    0.000    0.000    0.000    0.000 
#    0.000    1.000    0.000    6.500    0.000    3.625 
#
# Total GULP energy -178288.904968 kJ/mol
# GULP energy per Si atom -5571.528280 kJ/mol
# Density = 1.387082 g / cm^3
# Si number density = 13.902465 Si / 1000 Ang^3
#
#
#
# Elastic Constant Matrix: (Units=GPa)
#
#
# Indices 1 2 3 4 5 6 
#
# 1 58.1197 54.9939 54.6820 0.0000 0.0000 0.0000
# 2 54.9939 119.5861 60.9367 0.0000 0.0000 0.0000
# 3 54.6820 60.9367 85.8313 0.0000 0.0000 0.0000
# 4 0.0000 0.0000 0.0000 25.1337 0.0000 0.0000
# 5 0.0000 0.0000 0.0000 0.0000 19.8864 0.0000
# 6 0.0000 0.0000 0.0000 0.0000 0.0000 21.6812
#
#
#
# Elastic Compliance Matrix: (Units=1/GPa)
#
#
# Indices 1 2 3 4 5 6 
#
# 1 0.050363 -0.010671 -0.024509 0.000000 0.000000 0.000000
# 2 -0.010671 0.015363 -0.004109 0.000000 0.000000 0.000000
# 3 -0.024509 -0.004109 0.030182 0.000000 0.000000 0.000000
# 4 0.000000 0.000000 0.000000 0.039787 0.000000 0.000000
# 5 0.000000 0.000000 0.000000 0.000000 0.050286 0.000000
# 6 0.000000 0.000000 0.000000 0.000000 0.000000 0.046123
#
#
# Mechanical properties :
#
#
# Convention : Reuss Voigt Hill
#
# Bulk Modulus (GPa) = 57.70422 67.19582 62.45002
# Shear Modulus (GPa) = 15.79980 19.53523 17.66751
#
# Velocity S-wave (km/s) = 3.37482 3.75262 3.56872
# Velocity P-wave (km/s) = 7.53541 8.19847 7.87392
#
# Compressibility (1/GPa) = 0.01732976
#
# Stress axis : x y z
#
# Youngs Moduli (GPa) = 19.85587 65.09057 33.13183
#
# Poissons Ratio (x) = 0.69460 0.81204
# Poissons Ratio (y) = 0.21189 0.13613
# Poissons Ratio (z) = 0.48666 0.26744
#
# Static dielectric constant tensor:
#      x y z
#    x 1.464490 0.000000 0.000000 
#    y 0.000000 1.462050 0.000000 
#    z 0.000000 0.000000 1.426730 
# 
# From -- ./inp_files/22252.got.cif
#   From: 2010.05.17/outbox.cif.g08.bks.cpg/sg38_12_cif.got.tgz:22252.got - 2010.06.03 18:07:57.
