data_PCOD9356540
_publ_section_title
;
Structure prediction by ZEFSAII (Michael W. Deem and Ramdas Pophale) SiO2 
 PCOD9356540
Probable space group: A M M 2
;
_chemical_formula_sum "Si O2"
_cell_formula_units_Z 56
_cell_length_a 7.806233
_cell_length_b 14.266869
_cell_length_c 30.512239
_cell_angle_alpha 90.000000
_cell_angle_beta 90.000000
_cell_angle_gamma 90.000000
_cell_volume 3398.163423
_symmetry_space_group_name_H-M "A M M 2"
_symmetry_group_IT_number 38
_symmetry_cell_setting 'orthorhombic'
loop_
_space_group_symop_operation_xyz
x,y,z
-x,-y,z
-x,y,z
x,-y,z
x,1/2+y,1/2+z
-x,1/2-y,1/2+z
-x,1/2+y,1/2+z
x,1/2-y,1/2+z
loop_
_atom_site_type_symbol
_atom_site_label
_atom_site_fract_x
_atom_site_fract_y
_atom_site_fract_z
Si Si1 0.293502 0.105809 0.560790
Si Si2 0.205953 0.894524 0.023025
Si Si3 0.205857 0.212641 0.109896
Si Si4 0.789791 0.390997 0.696536
Si Si5 0.296513 0.286713 0.974366
Si Si6 0.198349 0.386030 0.792217
Si Si7 0.794331 0.106623 0.387141
O O1 0.500000 0.102459 0.558344
O O2 0.248072 0.180391 0.598253
O O3 0.228157 0.149593 0.514749
O O4 0.230696 0.000000 0.567284
O O5 0.270216 0.849821 0.068856
O O6 0.000000 0.898921 0.026185
O O7 0.270238 0.000000 0.016352
O O8 0.247365 0.819772 0.985378
O O9 0.268144 0.172488 0.156115
O O10 0.000000 0.203904 0.110329
O O11 0.742447 0.500000 0.689295
O O12 0.727428 0.359908 0.744816
O O13 0.000000 0.389480 0.697844
O O14 0.500000 0.292932 0.976046
O O15 0.241511 0.326859 0.927824
O O16 0.196936 0.500000 0.792341
O O17 0.273994 0.360097 0.839575
O O18 0.000000 0.354321 0.791842
O O19 0.000000 0.100754 0.382461
O O20 0.731828 0.000000 0.395911
#
# Coordination Sequence:
#
# PCOD9356540 Si02
#       7
#     8   8   8   8   8   8   8
#     4   9  18  31  42  53  76 110 141 166 196 237
#     4   9  17  29  43  60  84 110 135 165 199 236
#     4   9  16  25  41  65  85 103 132 166 198 231
#     4   8  12  20  37  61  87 110 130 156 193 236
#     4  10  19  29  42  60  81 107 139 170 202 241
#     4   7  11  20  35  57  83 108 132 158 192 236
#     4   9  16  26  41  61  84 109 137 168 201 239
#
# _framework density 16.479490999999999
#
# number of rings (size 3 to 8) (size 9 to 14) (size 15 to 20)
#    0.000    3.286    0.000    3.000    0.000    3.714 
#    0.000    0.000    0.000    2.143    0.000    3.000 
#    0.000    3.429    0.000    0.000    0.000    0.000 
#
# Total GULP energy -155878.563664 kJ/mol
# GULP energy per Si atom -5567.091559 kJ/mol
# Density = 1.644198 g / cm^3
# Si number density = 16.479491 Si / 1000 Ang^3
#
#
#
# Elastic Constant Matrix: (Units=GPa)
#
#
# Indices 1 2 3 4 5 6 
#
# 1 20.4247 5.4953 6.3947 0.0000 0.0000 0.0000
# 2 5.4953 121.0528 87.8584 0.0000 0.0000 0.0000
# 3 6.3947 87.8584 160.0527 0.0000 0.0000 0.0000
# 4 0.0000 0.0000 0.0000 25.2650 0.0000 0.0000
# 5 0.0000 0.0000 0.0000 0.0000 -1.6138 0.0000
# 6 0.0000 0.0000 0.0000 0.0000 0.0000 -13.1927
#
#
#
# Elastic Compliance Matrix: (Units=1/GPa)
#
#
# Indices 1 2 3 4 5 6 
#
# 1 0.049714 -0.001355 -0.001242 0.000000 0.000000 0.000000
# 2 -0.001355 0.013769 -0.007504 0.000000 0.000000 0.000000
# 3 -0.001242 -0.007504 0.010417 0.000000 0.000000 0.000000
# 4 0.000000 0.000000 0.000000 0.039580 0.000000 0.000000
# 5 0.000000 0.000000 0.000000 0.000000 -0.619660 0.000000
# 6 0.000000 0.000000 0.000000 0.000000 0.000000 -0.075800
#
#
# Mechanical properties :
#
#
# Convention : Reuss Voigt Hill
#
# Bulk Modulus (GPa) = 18.62322 55.66965 37.14644
# Shear Modulus (GPa) = -9.19324 15.54382 3.17529
#
# Velocity S-wave (km/s) = -2.36447 3.07452 1.38960
# Velocity P-wave (km/s) = 1.96751 6.81602 5.01643
#
# Compressibility (1/GPa) = 0.05369642
#
# Stress axis : x y z
#
# Youngs Moduli (GPa) = 20.11510 72.62891 95.99931
#
# Poissons Ratio (x) = 0.09842 0.11927
# Poissons Ratio (y) = 0.02726 0.72037
# Poissons Ratio (z) = 0.02499 0.54500
#
# Static dielectric constant tensor:
#      x y z
#    x 1.601050 0.000000 0.000000 
#    y 0.000000 1.540780 0.000000 
#    z 0.000000 0.000000 1.591200 
# 
# From -- ./inp_files/24638.got.cif
#   From: 2010.05.17/outbox.cif.g08.bks.cpg/sg38_13_cif.got.tgz:24638.got - 2010.06.03 18:07:57.
