data_PCOD9356936
_publ_section_title
;
Structure prediction by ZEFSAII (Michael W. Deem and Ramdas Pophale) SiO2 
 PCOD9356936
Probable space group: A M M 2
;
_chemical_formula_sum "Si O2"
_cell_formula_units_Z 56
_cell_length_a 8.718378
_cell_length_b 24.503893
_cell_length_c 14.142914
_cell_angle_alpha 90.000000
_cell_angle_beta 90.000000
_cell_angle_gamma 90.000000
_cell_volume 3021.410141
_symmetry_space_group_name_H-M "A M M 2"
_symmetry_group_IT_number 38
_symmetry_cell_setting 'orthorhombic'
loop_
_space_group_symop_operation_xyz
x,y,z
-x,-y,z
-x,y,z
x,-y,z
x,1/2+y,1/2+z
-x,1/2-y,1/2+z
-x,1/2+y,1/2+z
x,1/2-y,1/2+z
loop_
_atom_site_type_symbol
_atom_site_label
_atom_site_fract_x
_atom_site_fract_y
_atom_site_fract_z
Si Si1 0.685399 0.663909 0.428280
Si Si2 0.183302 0.124549 0.436222
Si Si3 0.184529 0.562013 0.744915
Si Si4 0.684679 0.665206 0.642290
Si Si5 0.314440 0.773303 0.328247
Si Si6 0.683333 0.063395 0.614109
Si Si7 0.183649 0.437493 0.321641
O O1 0.500000 0.660947 0.426302
O O2 0.734154 0.677113 0.535607
O O3 0.733694 0.713016 0.359139
O O4 0.751417 0.606669 0.393735
O O5 0.221186 0.082234 0.351207
O O6 0.251146 0.182044 0.401655
O O7 0.252180 0.102394 0.533212
O O8 0.000000 0.128183 0.443262
O O9 0.235597 0.500000 0.729639
O O10 0.257598 0.605911 0.674891
O O11 0.000000 0.564047 0.735087
O O12 0.500000 0.665308 0.643485
O O13 0.736251 0.707496 0.723687
O O14 0.500000 0.775346 0.331065
O O15 0.500000 0.068173 0.619041
O O16 0.753240 0.075219 0.716893
O O17 0.722069 0.000000 0.591372
O O18 0.230065 0.500000 0.344189
O O19 0.000000 0.435213 0.320524
#
# Coordination Sequence:
#
# PCOD9356936 Si02
#       7
#     8   8   8   8   8   8   8
#     4  10  21  37  58  81 106 140 179 221 271 324
#     4  10  19  32  52  79 111 145 181 224 272 320
#     4   9  18  32  50  74 106 143 179 216 262 314
#     4   9  19  35  53  76 105 136 175 221 264 309
#     4   9  19  36  55  77 108 144 182 223 266 318
#     4  10  20  34  54  80 110 145 183 223 270 325
#     4  10  22  39  57  79 108 140 177 223 271 323
#
# _framework density 18.534392
#
# number of rings (size 3 to 8) (size 9 to 14) (size 15 to 20)
#    0.000    2.429    0.000    1.714    0.000    6.000 
#    0.000    5.714    0.000    0.000    0.000    0.000 
#    0.000    0.000    0.000    0.000    0.000    0.000 
#
# Total GULP energy -156269.979571 kJ/mol
# GULP energy per Si atom -5581.070699 kJ/mol
# Density = 1.849221 g / cm^3
# Si number density = 18.534392 Si / 1000 Ang^3
#
#
#
# Elastic Constant Matrix: (Units=GPa)
#
#
# Indices 1 2 3 4 5 6 
#
# 1 15.6547 23.2460 26.6261 0.0000 0.0000 0.0000
# 2 23.2460 110.0551 75.6241 0.0000 0.0000 0.0000
# 3 26.6261 75.6241 115.0434 0.0000 0.0000 0.0000
# 4 0.0000 0.0000 0.0000 18.9965 0.0000 0.0000
# 5 0.0000 0.0000 0.0000 0.0000 25.3409 0.0000
# 6 0.0000 0.0000 0.0000 0.0000 0.0000 22.2008
#
#
#
# Elastic Compliance Matrix: (Units=1/GPa)
#
#
# Indices 1 2 3 4 5 6 
#
# 1 0.111787 -0.010639 -0.018878 0.000000 0.000000 0.000000
# 2 -0.010639 0.017584 -0.009097 0.000000 0.000000 0.000000
# 3 -0.018878 -0.009097 0.019041 0.000000 0.000000 0.000000
# 4 0.000000 0.000000 0.000000 0.052641 0.000000 0.000000
# 5 0.000000 0.000000 0.000000 0.000000 0.039462 0.000000
# 6 0.000000 0.000000 0.000000 0.000000 0.000000 0.045043
#
#
# Mechanical properties :
#
#
# Convention : Reuss Voigt Hill
#
# Bulk Modulus (GPa) = 14.04826 54.63841 34.34333
# Shear Modulus (GPa) = 12.93607 20.99145 16.96376
#
# Velocity S-wave (km/s) = 2.64474 3.36902 3.02861
# Velocity P-wave (km/s) = 4.11366 6.68410 5.54975
#
# Compressibility (1/GPa) = 0.07118318
#
# Stress axis : x y z
#
# Youngs Moduli (GPa) = 8.94561 56.86835 52.51697
#
# Poissons Ratio (x) = 0.60505 0.99144
# Poissons Ratio (y) = 0.09518 0.47773
# Poissons Ratio (z) = 0.16888 0.51732
#
# Static dielectric constant tensor:
#      x y z
#    x 1.623150 0.000000 0.000000 
#    y 0.000000 1.623230 0.000000 
#    z 0.000000 0.000000 1.628450 
# 
# From -- ./inp_files/12414.got.cif
#   From: 2010.05.17/outbox.cif.g08.bks.cpg/sg38_7_cif.got.tgz:12414.got - 2010.06.03 18:07:57.
