data_PCOD9356201
_publ_section_title
;
Structure prediction by ZEFSAII (Michael W. Deem and Ramdas Pophale) SiO2 
 PCOD9356201
Probable space group: A M M 2
;
_chemical_formula_sum "Si O2"
_cell_formula_units_Z 56
_cell_length_a 16.091287
_cell_length_b 8.037251
_cell_length_c 20.757004
_cell_angle_alpha 90.000000
_cell_angle_beta 90.000000
_cell_angle_gamma 90.000000
_cell_volume 2684.497360
_symmetry_space_group_name_H-M "A M M 2"
_symmetry_group_IT_number 38
_symmetry_cell_setting 'orthorhombic'
loop_
_space_group_symop_operation_xyz
x,y,z
-x,-y,z
-x,y,z
x,-y,z
x,1/2+y,1/2+z
-x,1/2-y,1/2+z
-x,1/2+y,1/2+z
x,1/2-y,1/2+z
loop_
_atom_site_type_symbol
_atom_site_label
_atom_site_fract_x
_atom_site_fract_y
_atom_site_fract_z
Si Si1 0.371013 0.192523 0.545360
Si Si2 0.092156 0.698495 0.970567
Si Si3 0.228593 0.201284 0.724287
Si Si4 0.194256 0.191928 0.084958
Si Si5 0.590999 0.805305 0.905436
Si Si6 0.772145 0.798717 0.865616
Si Si7 0.411807 0.702539 0.188946
O O1 0.272007 0.204675 0.556780
O O2 0.398794 0.290981 0.482700
O O3 0.407510 0.250086 0.613620
O O4 0.394218 0.000000 0.535502
O O5 0.091818 0.500000 0.975398
O O6 0.163559 0.747629 0.920331
O O7 0.000000 0.755305 0.950681
O O8 0.116371 0.770245 0.040188
O O9 0.184675 0.267305 0.660223
O O10 0.197754 0.252665 0.794521
O O11 0.325485 0.255932 0.719976
O O12 0.226745 0.000000 0.720503
O O13 0.217944 0.000000 0.078062
O O14 0.500000 0.734101 0.887921
O O15 0.677899 0.735295 0.878154
O O16 0.589096 0.000000 0.886712
O O17 0.767439 0.000000 0.866819
O O18 0.500000 0.758276 0.217002
O O19 0.410830 0.500000 0.190908
#
# Coordination Sequence:
#
# PCOD9356201 Si02
#       7
#     8   8   8   8   8   8   8
#     4  10  18  30  50  77 111 152 197 246 296 345
#     4  11  24  42  66  93 118 148 190 244 302 358
#     4   9  19  35  56  82 116 159 201 240 289 347
#     4  11  21  36  60  88 116 148 189 241 302 355
#     4  10  20  32  49  80 121 161 201 246 293 342
#     4  10  21  38  59  86 123 164 200 240 293 350
#     4   8  14  25  44  72 105 144 195 245 283 328
#
# _framework density 20.860516000000001
#
# number of rings (size 3 to 8) (size 9 to 14) (size 15 to 20)
#    0.000    2.143    1.429    3.429    0.000    3.143 
#    0.000    3.571    0.000    4.714    0.000    4.000 
#    0.000    0.000    0.000    0.000    0.000    0.000 
#
# Total GULP energy -156273.263343 kJ/mol
# GULP energy per Si atom -5581.187977 kJ/mol
# Density = 2.081304 g / cm^3
# Si number density = 20.860516 Si / 1000 Ang^3
#
#
#
# Elastic Constant Matrix: (Units=GPa)
#
#
# Indices 1 2 3 4 5 6 
#
# 1 101.5345 10.9098 52.2622 0.0000 0.0000 0.0000
# 2 10.9098 30.5197 11.9081 0.0000 0.0000 0.0000
# 3 52.2622 11.9081 124.1208 0.0000 0.0000 0.0000
# 4 0.0000 0.0000 0.0000 19.9051 0.0000 0.0000
# 5 0.0000 0.0000 0.0000 0.0000 -5.7766 0.0000
# 6 0.0000 0.0000 0.0000 0.0000 0.0000 12.2860
#
#
#
# Elastic Compliance Matrix: (Units=1/GPa)
#
#
# Indices 1 2 3 4 5 6 
#
# 1 0.012764 -0.002562 -0.005129 0.000000 0.000000 0.000000
# 2 -0.002562 0.034554 -0.002236 0.000000 0.000000 0.000000
# 3 -0.005129 -0.002236 0.010431 0.000000 0.000000 0.000000
# 4 0.000000 0.000000 0.000000 0.050238 0.000000 0.000000
# 5 0.000000 0.000000 0.000000 0.000000 -0.173113 0.000000
# 6 0.000000 0.000000 0.000000 0.000000 0.000000 0.081394
#
#
# Mechanical properties :
#
#
# Convention : Reuss Voigt Hill
#
# Bulk Modulus (GPa) = 26.38857 45.14835 35.76846
# Shear Modulus (GPa) = 102.55757 17.35589 59.95673
#
# Velocity S-wave (km/s) = 7.01927 2.88757 5.36695
# Velocity P-wave (km/s) = 8.85274 5.72777 7.45582
#
# Compressibility (1/GPa) = 0.03789520
#
# Stress axis : x y z
#
# Youngs Moduli (GPa) = 78.34576 28.94015 95.87099
#
# Poissons Ratio (x) = 0.07413 0.49168
# Poissons Ratio (y) = 0.20069 0.21441
# Poissons Ratio (z) = 0.40180 0.06472
#
# Static dielectric constant tensor:
#      x y z
#    x 1.771920 0.000000 0.000000 
#    y 0.000000 1.760760 0.000000 
#    z 0.000000 0.000000 1.741370 
# 
# From -- ./inp_files/21075.got.cif
#   From: 2010.05.17/outbox.cif.g08.bks.cpg/sg38_11_cif.got.tgz:21075.got - 2010.06.03 18:07:57.
