data_PCOD9356331
_publ_section_title
;
Structure prediction by ZEFSAII (Michael W. Deem and Ramdas Pophale) SiO2 
 PCOD9356331
Probable space group: A M M 2
;
_chemical_formula_sum "Si O2"
_cell_formula_units_Z 56
_cell_length_a 22.686989
_cell_length_b 8.144370
_cell_length_c 15.259882
_cell_angle_alpha 90.000000
_cell_angle_beta 90.000000
_cell_angle_gamma 90.000000
_cell_volume 2819.587207
_symmetry_space_group_name_H-M "A M M 2"
_symmetry_group_IT_number 38
_symmetry_cell_setting 'orthorhombic'
loop_
_space_group_symop_operation_xyz
x,y,z
-x,-y,z
-x,y,z
x,-y,z
x,1/2+y,1/2+z
-x,1/2-y,1/2+z
-x,1/2+y,1/2+z
x,1/2-y,1/2+z
loop_
_atom_site_type_symbol
_atom_site_label
_atom_site_fract_x
_atom_site_fract_y
_atom_site_fract_z
Si Si1 0.345484 0.694517 0.230450
Si Si2 0.788229 0.805275 0.238894
Si Si3 0.433096 0.301473 0.879900
Si Si4 0.433731 0.299717 0.082244
Si Si5 0.000000 0.811549 0.074993
Si Si6 0.122652 0.694388 0.093470
Si Si7 0.000000 0.189541 0.380646
Si Si8 0.872044 0.298907 0.892001
O O1 0.338735 0.500000 0.219444
O O2 0.280640 0.767588 0.236970
O O3 0.384656 0.729672 0.315806
O O4 0.383868 0.759405 0.148416
O O5 0.823618 0.732591 0.157008
O O6 0.820170 0.745258 0.327829
O O7 0.796323 0.000000 0.235475
O O8 0.500000 0.251672 0.855208
O O9 0.430528 0.500000 0.875719
O O10 0.423603 0.253362 0.981237
O O11 0.500000 0.246609 0.107806
O O12 0.433845 0.500000 0.084892
O O13 0.000000 0.699646 0.987417
O O14 0.061083 0.775686 0.123633
O O15 0.000000 0.000000 0.046131
O O16 0.113238 0.500000 0.091042
O O17 0.134638 0.751921 0.993376
O O18 0.936097 0.260379 0.357216
O O19 0.000000 0.000000 0.352021
O O20 0.873569 0.500000 0.892505
#
# Coordination Sequence:
#
# PCOD9356331 Si02
#       8
#     8   8   8   8   4   8   4   8
#     4  11  22  36  54  78 110 147 183 221 265 317
#     4  11  23  38  54  78 109 146 189 227 267 321
#     4   9  18  35  59  84 107 134 172 219 268 318
#     4   8  16  33  57  81 105 138 179 217 261 323
#     4  10  18  31  54  85 112 138 172 217 275 329
#     4  10  20  38  59  80 106 140 181 226 272 321
#     4   8  14  31  56  79 100 132 178 223 267 319
#     4   8  17  34  57  78 103 139 176 217 272 335
#
# _framework density 19.861063999999999
#
# number of rings (size 3 to 8) (size 9 to 14) (size 15 to 20)
#    0.000    2.571    0.000    4.071    0.000    2.571 
#    0.000   15.714    0.000    1.714    0.000    0.000 
#    0.000    0.000    0.000    0.000    0.000    0.000 
#
# Total GULP energy -156239.471982 kJ/mol
# GULP energy per Si atom -5579.981142 kJ/mol
# Density = 1.981586 g / cm^3
# Si number density = 19.861064 Si / 1000 Ang^3
#
#
#
# Elastic Constant Matrix: (Units=GPa)
#
#
# Indices 1 2 3 4 5 6 
#
# 1 151.8875 5.8081 72.5906 0.0000 0.0000 0.0000
# 2 5.8081 28.6885 5.5532 0.0000 0.0000 0.0000
# 3 72.5906 5.5532 89.9060 0.0000 0.0000 0.0000
# 4 0.0000 0.0000 0.0000 21.6419 0.0000 0.0000
# 5 0.0000 0.0000 0.0000 0.0000 -24.1306 0.0000
# 6 0.0000 0.0000 0.0000 0.0000 0.0000 19.6769
#
#
#
# Elastic Compliance Matrix: (Units=1/GPa)
#
#
# Indices 1 2 3 4 5 6 
#
# 1 0.010728 -0.000501 -0.008631 0.000000 0.000000 0.000000
# 2 -0.000501 0.035302 -0.001776 0.000000 0.000000 0.000000
# 3 -0.008631 -0.001776 0.018201 0.000000 0.000000 0.000000
# 4 0.000000 0.000000 0.000000 0.046207 0.000000 0.000000
# 5 0.000000 0.000000 0.000000 0.000000 -0.041441 0.000000
# 6 0.000000 0.000000 0.000000 0.000000 0.000000 0.050821
#
#
# Mechanical properties :
#
#
# Convention : Reuss Voigt Hill
#
# Bulk Modulus (GPa) = 23.57626 48.70955 36.14291
# Shear Modulus (GPa) = 32.09826 15.87299 23.98563
#
# Velocity S-wave (km/s) = 4.02449 2.83008 3.47893
# Velocity P-wave (km/s) = 5.78720 5.93781 5.86299
#
# Compressibility (1/GPa) = 0.04241555
#
# Stress axis : x y z
#
# Youngs Moduli (GPa) = 93.21555 28.32667 54.94222
#
# Poissons Ratio (x) = 0.01420 0.47419
# Poissons Ratio (y) = 0.04672 0.09757
# Poissons Ratio (z) = 0.80452 0.05030
#
# Static dielectric constant tensor:
#      x y z
#    x 1.688900 0.000000 0.000000 
#    y 0.000000 1.716740 0.000000 
#    z 0.000000 0.000000 1.702780 
# 
# From -- ./inp_files/15525.got.cif
#   From: 2010.05.17/outbox.cif.g08.bks.cpg/sg38_8_cif.got.tgz:15525.got - 2010.06.03 18:07:57.
