data_PCOD9356208
_publ_section_title
;
Structure prediction by ZEFSAII (Michael W. Deem and Ramdas Pophale) SiO2 
 PCOD9356208
Probable space group: A M M 2
;
_chemical_formula_sum "Si O2"
_cell_formula_units_Z 48
_cell_length_a 15.641944
_cell_length_b 24.695507
_cell_length_c 5.438432
_cell_angle_alpha 90.000000
_cell_angle_beta 90.000000
_cell_angle_gamma 90.000000
_cell_volume 2100.788716
_symmetry_space_group_name_H-M "A M M 2"
_symmetry_group_IT_number 38
_symmetry_cell_setting 'orthorhombic'
loop_
_space_group_symop_operation_xyz
x,y,z
-x,-y,z
-x,y,z
x,-y,z
x,1/2+y,1/2+z
-x,1/2-y,1/2+z
-x,1/2+y,1/2+z
x,1/2-y,1/2+z
loop_
_atom_site_type_symbol
_atom_site_label
_atom_site_fract_x
_atom_site_fract_y
_atom_site_fract_z
Si Si1 0.381536 0.438979 0.005180
Si Si2 0.000000 0.280502 0.068739
Si Si3 0.810984 0.564844 0.503430
Si Si4 0.500000 0.715568 0.524233
Si Si5 0.808042 0.215981 0.494963
Si Si6 0.623574 0.617910 0.504702
Si Si7 0.806475 0.597806 0.003573
O O1 0.410272 0.500000 0.018399
O O2 0.407178 0.407063 0.248254
O O3 0.407422 0.411570 0.751178
O O4 0.277728 0.439813 0.004175
O O5 0.907481 0.304057 0.008272
O O6 0.000000 0.267801 0.360935
O O7 0.794397 0.500000 0.503100
O O8 0.724588 0.602335 0.503429
O O9 0.855252 0.583190 0.754716
O O10 0.855351 0.583394 0.252507
O O11 0.500000 0.751781 0.279186
O O12 0.585290 0.677960 0.517192
O O13 0.793315 0.251676 0.740598
O O14 0.764252 0.157899 0.501301
#
# Coordination Sequence:
#
# PCOD9356208 Si02
#       7
#     8   4   8   4   8   8   8
#     4  10  19  36  56  80 106 128 157 207 256 300
#     4   8  16  30  48  64  93 136 173 210 252 278
#     4  10  19  35  54  78 104 128 159 207 254 299
#     4  12  26  44  57  72 101 138 172 206 240 292
#     4  10  19  32  47  72 104 135 171 211 244 290
#     4  10  20  37  57  76  99 132 171 199 242 304
#     4  10  18  30  51  77 103 132 165 202 252 303
#
# _framework density 22.848559000000002
#
# number of rings (size 3 to 8) (size 9 to 14) (size 15 to 20)
#    0.000    2.000    0.000    7.000    0.000    0.000 
#    0.000   24.583    0.000    0.000    0.000    6.417 
#    0.000    0.000    0.000    0.000    0.000    0.000 
#
# Total GULP energy -133792.072823 kJ/mol
# GULP energy per Si atom -5574.669701 kJ/mol
# Density = 2.279656 g / cm^3
# Si number density = 22.848559 Si / 1000 Ang^3
#
#
#
# Elastic Constant Matrix: (Units=GPa)
#
#
# Indices 1 2 3 4 5 6 
#
# 1 10.2605 0.7519 -6.9984 0.0000 0.0000 0.0000
# 2 0.7519 133.9665 32.6679 0.0000 0.0000 0.0000
# 3 -6.9984 32.6679 191.1806 0.0000 0.0000 0.0000
# 4 0.0000 0.0000 0.0000 45.5099 0.0000 0.0000
# 5 0.0000 0.0000 0.0000 0.0000 16.3891 0.0000
# 6 0.0000 0.0000 0.0000 0.0000 0.0000 5.9947
#
#
#
# Elastic Compliance Matrix: (Units=1/GPa)
#
#
# Indices 1 2 3 4 5 6 
#
# 1 0.100253 -0.001521 0.003930 0.000000 0.000000 0.000000
# 2 -0.001521 0.007812 -0.001391 0.000000 0.000000 0.000000
# 3 0.003930 -0.001391 0.005612 0.000000 0.000000 0.000000
# 4 0.000000 0.000000 0.000000 0.021973 0.000000 0.000000
# 5 0.000000 0.000000 0.000000 0.000000 0.061016 0.000000
# 6 0.000000 0.000000 0.000000 0.000000 0.000000 0.166815
#
#
# Mechanical properties :
#
#
# Convention : Reuss Voigt Hill
#
# Bulk Modulus (GPa) = 8.64200 43.13893 25.89046
# Shear Modulus (GPa) = 12.49947 34.17780 23.33863
#
# Velocity S-wave (km/s) = 2.34146 3.87181 3.19948
# Velocity P-wave (km/s) = 3.33173 6.23772 5.00048
#
# Compressibility (1/GPa) = 0.11571390
#
# Stress axis : x y z
#
# Youngs Moduli (GPa) = 9.97475 128.00518 178.18555
#
# Poissons Ratio (x) = 0.19470 -0.70023
# Poissons Ratio (y) = 0.01517 0.24778
# Poissons Ratio (z) = -0.03920 0.17800
#
# Static dielectric constant tensor:
#      x y z
#    x 1.941550 0.000000 0.000000 
#    y 0.000000 1.853430 0.000000 
#    z 0.000000 0.000000 1.995040 
# 
# From -- ./inp_files/1889.got.cif
#   From: 2010.05.17/outbox.cif.g08.bks.cpg/sg38_1_cif.got.tgz:1889.got - 2010.06.03 18:07:57.
