data_PCOD9356492
_publ_section_title
;
Structure prediction by ZEFSAII (Michael W. Deem and Ramdas Pophale) SiO2 
 PCOD9356492
Probable space group: A M M 2
;
_chemical_formula_sum "Si O2"
_cell_formula_units_Z 34
_cell_length_a 7.471660
_cell_length_b 23.312408
_cell_length_c 8.641256
_cell_angle_alpha 90.000000
_cell_angle_beta 90.000000
_cell_angle_gamma 90.000000
_cell_volume 1505.154591
_symmetry_space_group_name_H-M "A M M 2"
_symmetry_group_IT_number 38
_symmetry_cell_setting 'orthorhombic'
loop_
_space_group_symop_operation_xyz
x,y,z
-x,-y,z
-x,y,z
x,-y,z
x,1/2+y,1/2+z
-x,1/2-y,1/2+z
-x,1/2+y,1/2+z
x,1/2-y,1/2+z
loop_
_atom_site_type_symbol
_atom_site_label
_atom_site_fract_x
_atom_site_fract_y
_atom_site_fract_z
Si Si1 0.718973 0.177903 0.439910
Si Si2 0.283963 0.704388 0.592213
Si Si3 0.201232 0.084829 0.962689
Si Si4 0.500000 0.500000 0.577435
Si Si5 0.283274 0.062611 0.603813
O O1 0.500000 0.176935 0.441758
O O2 0.776459 0.232878 0.539529
O O3 0.775679 0.188053 0.264117
O O4 0.780506 0.117549 0.509306
O O5 0.500000 0.705850 0.591974
O O6 0.227961 0.652954 0.480242
O O7 0.344461 0.050216 0.063081
O O8 0.232920 0.068332 0.783724
O O9 0.000000 0.070312 0.007087
O O10 0.500000 0.062920 0.598036
O O11 0.224067 0.000000 0.546052
#
# Coordination Sequence:
#
# PCOD9356492 Si02
#       5
#     8   8   8   2   8
#     4   9  19  34  63  91 129 175 218 263 322 378
#     4  10  19  38  59  92 127 169 219 269 319 376
#     4  12  23  39  66  96 127 167 215 259 315 382
#     4  12  22  44  64  92 132 168 208 262 316 378
#     4  10  18  36  59  92 130 172 215 261 312 377
#
# _framework density 22.589041000000002
#
# number of rings (size 3 to 8) (size 9 to 14) (size 15 to 20)
#    0.000    1.647    3.529    1.765    0.000    3.765 
#    2.118    5.882    0.000    0.000    0.000    0.000 
#    0.000    0.000    0.000    0.000    0.000    0.000 
#
# Total GULP energy -94838.990025 kJ/mol
# GULP energy per Si atom -5578.764119 kJ/mol
# Density = 2.253763 g / cm^3
# Si number density = 22.589041 Si / 1000 Ang^3
#
#
#
# Elastic Constant Matrix: (Units=GPa)
#
#
# Indices 1 2 3 4 5 6 
#
# 1 115.8294 31.9696 -1.0523 0.0000 0.0000 0.0000
# 2 31.9696 243.3399 60.6911 0.0000 0.0000 0.0000
# 3 -1.0523 60.6911 52.4024 0.0000 0.0000 0.0000
# 4 0.0000 0.0000 0.0000 20.6010 0.0000 0.0000
# 5 0.0000 0.0000 0.0000 0.0000-1345.2548 0.0000
# 6 0.0000 0.0000 0.0000 0.0000 0.0000 -24.5833
#
#
#
# Elastic Compliance Matrix: (Units=1/GPa)
#
#
# Indices 1 2 3 4 5 6 
#
# 1 0.009137 -0.001752 0.002213 0.000000 0.000000 0.000000
# 2 -0.001752 0.006115 -0.007117 0.000000 0.000000 0.000000
# 3 0.002213 -0.007117 0.027370 0.000000 0.000000 0.000000
# 4 0.000000 0.000000 0.000000 0.048541 0.000000 0.000000
# 5 0.000000 0.000000 0.000000 0.000000 -0.000743 0.000000
# 6 0.000000 0.000000 0.000000 0.000000 0.000000 -0.040678
#
#
# Mechanical properties :
#
#
# Convention : Reuss Voigt Hill
#
# Bulk Modulus (GPa) = 34.11879 66.08763 50.10321
# Shear Modulus (GPa) = 68.65749 -248.51654 -89.92953
#
# Velocity S-wave (km/s) = 5.51907 -10.50025 -6.31645
# Velocity P-wave (km/s) = 7.46662 10.84836 5.56491
#
# Compressibility (1/GPa) = 0.02930936
#
# Stress axis : x y z
#
# Youngs Moduli (GPa) = 109.44319 163.53790 36.53575
#
# Poissons Ratio (x) = 0.28658 -0.08085
# Poissons Ratio (y) = 0.19179 0.26003
# Poissons Ratio (z) = -0.24220 1.16393
#
# Static dielectric constant tensor:
#      x y z
#    x 1.856450 0.000000 0.000000 
#    y 0.000000 1.825940 0.000000 
#    z 0.000000 0.000000 1.803680 
# 
# From -- ./inp_files/3160.got.cif
#   From: 2010.05.17/outbox.cif.g08.bks.cpg/sg38_2_cif.got.tgz:3160.got - 2010.06.03 18:07:57.
