data_PCOD9356565
_publ_section_title
;
Structure prediction by ZEFSAII (Michael W. Deem and Ramdas Pophale) SiO2 
 PCOD9356565
Probable space group: A M M 2
;
_chemical_formula_sum "Si O2"
_cell_formula_units_Z 52
_cell_length_a 14.484921
_cell_length_b 7.563793
_cell_length_c 30.557120
_cell_angle_alpha 90.000000
_cell_angle_beta 90.000000
_cell_angle_gamma 90.000000
_cell_volume 3347.866915
_symmetry_space_group_name_H-M "A M M 2"
_symmetry_group_IT_number 38
_symmetry_cell_setting 'orthorhombic'
loop_
_space_group_symop_operation_xyz
x,y,z
-x,-y,z
-x,y,z
x,-y,z
x,1/2+y,1/2+z
-x,1/2-y,1/2+z
-x,1/2+y,1/2+z
x,1/2-y,1/2+z
loop_
_atom_site_type_symbol
_atom_site_label
_atom_site_fract_x
_atom_site_fract_y
_atom_site_fract_z
Si Si1 0.389978 0.710902 0.714250
Si Si2 0.104451 0.500000 0.242852
Si Si3 0.895829 0.289870 0.667797
Si Si4 0.709280 0.788645 0.124759
Si Si5 0.301951 0.500000 0.277026
Si Si6 0.388280 0.000000 0.872679
Si Si7 0.387789 0.202626 0.441396
Si Si8 0.396056 0.290205 0.036681
O O1 0.500000 0.737181 0.716301
O O2 0.371679 0.500000 0.719677
O O3 0.351965 0.767656 0.666526
O O4 0.340236 0.829866 0.750473
O O5 0.113336 0.329435 0.210995
O O6 0.190980 0.500000 0.274979
O O7 0.000000 0.500000 0.261117
O O8 0.885305 0.500000 0.677401
O O9 0.814408 0.235427 0.634964
O O10 0.000000 0.262583 0.650840
O O11 0.667506 0.734780 0.078585
O O12 0.706832 0.000000 0.124849
O O13 0.341407 0.500000 0.325691
O O14 0.362028 0.170056 0.901840
O O15 0.500000 0.000000 0.867334
O O16 0.500000 0.201006 0.443099
O O17 0.360146 0.274321 0.489510
O O18 0.356854 0.000000 0.435049
O O19 0.500000 0.219926 0.045235
O O20 0.404475 0.500000 0.030080
#
# Coordination Sequence:
#
# PCOD9356565 Si02
#       8
#     8   4   8   8   4   4   8   8
#     4  10  21  34  45  65 103 140 166 191 230 290
#     4  10  20  34  54  72  92 128 166 208 255 291
#     4   9  18  33  49  66  92 127 166 206 244 285
#     4  10  19  29  44  68  94 129 164 194 238 284
#     4  12  22  34  52  74  98 128 168 208 247 298
#     4  10  20  32  50  72  92 124 164 200 248 289
#     4   8  16  32  48  65  92 123 160 205 241 277
#     4   9  18  29  44  67  95 129 164 198 240 283
#
# _framework density 15.532279000000001
#
# number of rings (size 3 to 8) (size 9 to 14) (size 15 to 20)
#    0.000    2.462    1.538    2.077    3.231    1.538 
#    0.000    1.538    0.000    0.000    0.000    1.077 
#    0.000    1.231    0.000    0.000    0.000    0.000 
#
# Total GULP energy -144872.406060 kJ/mol
# GULP energy per Si atom -5572.015618 kJ/mol
# Density = 1.549693 g / cm^3
# Si number density = 15.532279 Si / 1000 Ang^3
#
#
#
# Elastic Constant Matrix: (Units=GPa)
#
#
# Indices 1 2 3 4 5 6 
#
# 1 94.7173 31.1184 58.8891 0.0000 0.0000 0.0000
# 2 31.1184 61.6410 42.1478 0.0000 0.0000 0.0000
# 3 58.8891 42.1478 136.4081 0.0000 0.0000 0.0000
# 4 0.0000 0.0000 0.0000 20.5516 0.0000 0.0000
# 5 0.0000 0.0000 0.0000 0.0000 10.2872 0.0000
# 6 0.0000 0.0000 0.0000 0.0000 0.0000 15.5340
#
#
#
# Elastic Compliance Matrix: (Units=1/GPa)
#
#
# Indices 1 2 3 4 5 6 
#
# 1 0.015184 -0.004036 -0.005308 0.000000 0.000000 0.000000
# 2 -0.004036 0.021641 -0.004944 0.000000 0.000000 0.000000
# 3 -0.005308 -0.004944 0.011150 0.000000 0.000000 0.000000
# 4 0.000000 0.000000 0.000000 0.048658 0.000000 0.000000
# 5 0.000000 0.000000 0.000000 0.000000 0.097208 0.000000
# 6 0.000000 0.000000 0.000000 0.000000 0.000000 0.064375
#
#
# Mechanical properties :
#
#
# Convention : Reuss Voigt Hill
#
# Bulk Modulus (GPa) = 51.55006 61.89745 56.72376
# Shear Modulus (GPa) = 17.04975 19.98197 18.51586
#
# Velocity S-wave (km/s) = 3.31675 3.59064 3.45641
# Velocity P-wave (km/s) = 6.92306 7.55828 7.24764
#
# Compressibility (1/GPa) = 0.01939862
#
# Stress axis : x y z
#
# Youngs Moduli (GPa) = 65.85924 46.20808 89.68414
#
# Poissons Ratio (x) = 0.18649 0.47605
# Poissons Ratio (y) = 0.26580 0.44344
# Poissons Ratio (z) = 0.34958 0.22847
#
# Static dielectric constant tensor:
#      x y z
#    x 1.519320 0.000000 0.000000 
#    y 0.000000 1.551690 0.000000 
#    z 0.000000 0.000000 1.508470 
# 
# From -- ./inp_files/22788.got.cif
#   From: 2010.05.17/outbox.cif.g08.bks.cpg/sg38_12_cif.got.tgz:22788.got - 2010.06.03 18:07:57.
