data_PCOD9356172
_publ_section_title
;
Structure prediction by ZEFSAII (Michael W. Deem and Ramdas Pophale) SiO2 
 PCOD9356172
Probable space group: A M M 2
;
_chemical_formula_sum "Si O2"
_cell_formula_units_Z 48
_cell_length_a 7.556633
_cell_length_b 12.367763
_cell_length_c 26.236981
_cell_angle_alpha 90.000000
_cell_angle_beta 90.000000
_cell_angle_gamma 90.000000
_cell_volume 2452.072720
_symmetry_space_group_name_H-M "A M M 2"
_symmetry_group_IT_number 38
_symmetry_cell_setting 'orthorhombic'
loop_
_space_group_symop_operation_xyz
x,y,z
-x,-y,z
-x,y,z
x,-y,z
x,1/2+y,1/2+z
-x,1/2-y,1/2+z
-x,1/2+y,1/2+z
x,1/2-y,1/2+z
loop_
_atom_site_type_symbol
_atom_site_label
_atom_site_fract_x
_atom_site_fract_y
_atom_site_fract_z
Si Si1 0.209580 0.122442 0.152310
Si Si2 0.286928 0.281666 0.241061
Si Si3 0.797894 0.000000 0.565861
Si Si4 0.714622 0.000000 0.682619
Si Si5 0.712211 0.624649 0.344746
Si Si6 0.217907 0.761127 0.555286
Si Si7 0.788299 0.122488 0.959021
O O1 0.232039 0.180523 0.206732
O O2 0.277584 0.200392 0.106974
O O3 0.000000 0.114195 0.143132
O O4 0.281627 0.000000 0.150736
O O5 0.500000 0.279077 0.241814
O O6 0.233046 0.391704 0.212132
O O7 0.223884 0.298538 0.299097
O O8 0.796062 0.000000 0.627044
O O9 0.718239 0.115545 0.551495
O O10 0.000000 0.000000 0.546639
O O11 0.500000 0.000000 0.678423
O O12 0.500000 0.618416 0.339900
O O13 0.778482 0.500000 0.339228
O O14 0.751827 0.662554 0.401890
O O15 0.274647 0.694571 0.505720
O O16 0.000000 0.764667 0.556909
O O17 0.000000 0.116782 0.964327
O O18 0.717733 0.000000 0.962368
#
# Coordination Sequence:
#
# PCOD9356172 Si02
#       7
#     8   8   4   4   8   8   8
#     4  10  20  33  50  73 101 132 163 198 241 288
#     4  10  19  32  51  73 100 131 160 196 245 295
#     4  10  18  30  50  74  96 126 164 197 238 291
#     4  10  18  30  48  74 102 128 156 193 244 291
#     4   9  17  31  50  72  97 125 159 199 243 286
#     4   9  17  30  49  72  98 126 158 197 241 289
#     4   9  17  30  48  70  95 125 161 199 240 285
#
# _framework density 19.575275999999999
#
# number of rings (size 3 to 8) (size 9 to 14) (size 15 to 20)
#    0.000    2.500    2.500    0.500    0.000    3.000 
#    0.000    1.667    1.833    2.000    0.000    0.000 
#    0.000    0.000    0.000    0.000    0.000    0.000 
#
# Total GULP energy -133864.486454 kJ/mol
# GULP energy per Si atom -5577.686936 kJ/mol
# Density = 1.953072 g / cm^3
# Si number density = 19.575276 Si / 1000 Ang^3
#
#
#
# Elastic Constant Matrix: (Units=GPa)
#
#
# Indices 1 2 3 4 5 6 
#
# 1 44.2121 5.8297 -2.1164 0.0000 0.0000 0.0000
# 2 5.8297 144.5937 83.1728 0.0000 0.0000 0.0000
# 3 -2.1164 83.1728 156.8037 0.0000 0.0000 0.0000
# 4 0.0000 0.0000 0.0000 23.5637 0.0000 0.0000
# 5 0.0000 0.0000 0.0000 0.0000 25.8103 0.0000
# 6 0.0000 0.0000 0.0000 0.0000 0.0000 7.3931
#
#
#
# Elastic Compliance Matrix: (Units=1/GPa)
#
#
# Indices 1 2 3 4 5 6 
#
# 1 0.022882 -0.001583 0.001149 0.000000 0.000000 0.000000
# 2 -0.001583 0.010062 -0.005359 0.000000 0.000000 0.000000
# 3 0.001149 -0.005359 0.009235 0.000000 0.000000 0.000000
# 4 0.000000 0.000000 0.000000 0.042438 0.000000 0.000000
# 5 0.000000 0.000000 0.000000 0.000000 0.038744 0.000000
# 6 0.000000 0.000000 0.000000 0.000000 0.000000 0.135261
#
#
# Mechanical properties :
#
#
# Convention : Reuss Voigt Hill
#
# Bulk Modulus (GPa) = 32.68728 57.70907 45.19817
# Shear Modulus (GPa) = 17.83125 28.60166 23.21645
#
# Velocity S-wave (km/s) = 3.02140 3.82660 3.44758
# Velocity P-wave (km/s) = 5.37646 7.00488 6.24398
#
# Compressibility (1/GPa) = 0.03059294
#
# Stress axis : x y z
#
# Youngs Moduli (GPa) = 43.70250 99.38275 108.28095
#
# Poissons Ratio (x) = 0.15735 -0.12438
# Poissons Ratio (y) = 0.06919 0.58023
# Poissons Ratio (z) = -0.05020 0.53255
#
# Static dielectric constant tensor:
#      x y z
#    x 1.746820 0.000000 0.000000 
#    y 0.000000 1.696910 0.000000 
#    z 0.000000 0.000000 1.675470 
# 
# From -- ./inp_files/20605.got.cif
#   From: 2010.05.17/outbox.cif.g08.bks.cpg/sg38_11_cif.got.tgz:20605.got - 2010.06.03 18:07:57.
