data_PCOD9356355
_publ_section_title
;
Structure prediction by ZEFSAII (Michael W. Deem and Ramdas Pophale) SiO2 
 PCOD9356355
Probable space group: A M M 2
;
_chemical_formula_sum "Si O2"
_cell_formula_units_Z 36
_cell_length_a 11.721016
_cell_length_b 12.125422
_cell_length_c 14.861351
_cell_angle_alpha 90.000000
_cell_angle_beta 90.000000
_cell_angle_gamma 90.000000
_cell_volume 2112.128869
_symmetry_space_group_name_H-M "A M M 2"
_symmetry_group_IT_number 38
_symmetry_cell_setting 'orthorhombic'
loop_
_space_group_symop_operation_xyz
x,y,z
-x,-y,z
-x,y,z
x,-y,z
x,1/2+y,1/2+z
-x,1/2-y,1/2+z
-x,1/2+y,1/2+z
x,1/2-y,1/2+z
loop_
_atom_site_type_symbol
_atom_site_label
_atom_site_fract_x
_atom_site_fract_y
_atom_site_fract_z
Si Si1 0.257992 0.126674 0.578930
Si Si2 0.500000 0.877233 0.187882
Si Si3 0.134823 0.130462 0.395716
Si Si4 0.500000 0.792568 0.523620
Si Si5 0.699552 0.248632 0.760780
Si Si6 0.500000 0.872739 0.855762
O O1 0.171084 0.154041 0.498719
O O2 0.384126 0.139137 0.534858
O O3 0.252005 0.205136 0.665863
O O4 0.240841 0.000000 0.606681
O O5 0.500000 0.790735 0.107456
O O6 0.612874 0.850279 0.244188
O O7 0.500000 0.000000 0.153471
O O8 0.206015 0.209807 0.330093
O O9 0.000000 0.145108 0.383526
O O10 0.161514 0.000000 0.379593
O O11 0.500000 0.716715 0.435574
O O12 0.613787 0.154373 0.798464
O O13 0.500000 0.000000 0.884719
#
# Coordination Sequence:
#
# PCOD9356355 Si02
#       6
#     8   4   8   4   8   4
#     4  10  20  35  56  82 110 142 179 223 272 326
#     4   9  18  30  48  77 107 134 175 219 267 333
#     4  10  21  37  57  80 107 144 190 232 268 312
#     4  10  18  32  52  80 107 146 173 213 275 329
#     4  10  20  34  54  80 110 144 180 221 276 322
#     4  11  20  32  52  83 114 142 174 218 278 336
#
# _framework density 17.044415000000001
#
# number of rings (size 3 to 8) (size 9 to 14) (size 15 to 20)
#    0.000    2.000    2.222    2.667    0.000    0.889 
#    0.000    0.000    0.000    2.000    0.000    0.000 
#    0.000    0.000    0.000    0.000    0.000    0.000 
#
# Total GULP energy -100370.065019 kJ/mol
# GULP energy per Si atom -5576.114723 kJ/mol
# Density = 1.700562 g / cm^3
# Si number density = 17.044415 Si / 1000 Ang^3
#
#
#
# Elastic Constant Matrix: (Units=GPa)
#
#
# Indices 1 2 3 4 5 6 
#
# 1 83.1897 32.3190 48.9339 0.0000 0.0000 0.0000
# 2 32.3190 64.9463 33.7787 0.0000 0.0000 0.0000
# 3 48.9339 33.7787 96.7729 0.0000 0.0000 0.0000
# 4 0.0000 0.0000 0.0000 11.5088 0.0000 0.0000
# 5 0.0000 0.0000 0.0000 0.0000 17.5690 0.0000
# 6 0.0000 0.0000 0.0000 0.0000 0.0000 9.1508
#
#
#
# Elastic Compliance Matrix: (Units=1/GPa)
#
#
# Indices 1 2 3 4 5 6 
#
# 1 0.018492 -0.005301 -0.007500 0.000000 0.000000 0.000000
# 2 -0.005301 0.020332 -0.004416 0.000000 0.000000 0.000000
# 3 -0.007500 -0.004416 0.015668 0.000000 0.000000 0.000000
# 4 0.000000 0.000000 0.000000 0.086890 0.000000 0.000000
# 5 0.000000 0.000000 0.000000 0.000000 0.056918 0.000000
# 6 0.000000 0.000000 0.000000 0.000000 0.000000 0.109280
#
#
# Mechanical properties :
#
#
# Convention : Reuss Voigt Hill
#
# Bulk Modulus (GPa) = 49.85993 52.77468 51.31730
# Shear Modulus (GPa) = 14.33890 16.30421 15.32155
#
# Velocity S-wave (km/s) = 2.90361 3.09620 3.00145
# Velocity P-wave (km/s) = 6.36849 6.61908 6.49499
#
# Compressibility (1/GPa) = 0.02005619
#
# Stress axis : x y z
#
# Youngs Moduli (GPa) = 54.07744 49.18272 63.82612
#
# Poissons Ratio (x) = 0.26073 0.47871
# Poissons Ratio (y) = 0.28668 0.28188
# Poissons Ratio (z) = 0.40559 0.21721
#
# Static dielectric constant tensor:
#      x y z
#    x 1.578740 0.000000 0.000000 
#    y 0.000000 1.561850 0.000000 
#    z 0.000000 0.000000 1.592360 
# 
# From -- ./inp_files/17539.got.cif
#   From: 2010.05.17/outbox.cif.g08.bks.cpg/sg38_9_cif.got.tgz:17539.got - 2010.06.03 18:07:57.
