data_PCOD9356758
_publ_section_title
;
Structure prediction by ZEFSAII (Michael W. Deem and Ramdas Pophale) SiO2 
 PCOD9356758
Probable space group: A M M 2
;
_chemical_formula_sum "Si O2"
_cell_formula_units_Z 64
_cell_length_a 22.106802
_cell_length_b 9.147748
_cell_length_c 15.073900
_cell_angle_alpha 90.000000
_cell_angle_beta 90.000000
_cell_angle_gamma 90.000000
_cell_volume 3048.356416
_symmetry_space_group_name_H-M "A M M 2"
_symmetry_group_IT_number 38
_symmetry_cell_setting 'orthorhombic'
loop_
_space_group_symop_operation_xyz
x,y,z
-x,-y,z
-x,y,z
x,-y,z
x,1/2+y,1/2+z
-x,1/2-y,1/2+z
-x,1/2+y,1/2+z
x,1/2-y,1/2+z
loop_
_atom_site_type_symbol
_atom_site_label
_atom_site_fract_x
_atom_site_fract_y
_atom_site_fract_z
Si Si1 0.934885 0.323986 0.816630
Si Si2 0.433082 0.830414 0.055360
Si Si3 0.195992 0.324745 0.817605
Si Si4 0.804008 0.675255 0.510035
Si Si5 0.934885 0.176014 0.011007
Si Si6 0.316086 0.161911 0.768455
Si Si7 0.566918 0.169586 0.272279
Si Si8 0.683915 0.838089 0.559185
O O1 0.934528 0.500000 0.827062
O O2 0.869639 0.287659 0.774555
O O3 0.935243 0.250002 0.913819
O O4 0.000000 0.285066 0.774194
O O5 0.500000 0.777093 0.028709
O O6 0.432185 0.828858 0.163820
O O7 0.376324 0.737721 0.022369
O O8 0.426768 0.000000 0.029293
O O9 0.200720 0.500000 0.822503
O O10 0.193816 0.250000 0.913820
O O11 0.256310 0.259137 0.776341
O O12 0.799280 0.500000 0.505136
O O13 0.869639 0.712339 0.553084
O O14 0.743690 0.740863 0.551299
O O15 0.000000 0.214930 0.053444
O O16 0.934527 0.000000 0.000573
O O17 0.376325 0.237722 0.805271
O O18 0.326996 0.146716 0.663820
O O19 0.306036 0.000000 0.807061
O O20 0.500000 0.222907 0.298930
O O21 0.573232 0.000000 0.298346
O O22 0.693964 0.000000 0.520579
#
# Coordination Sequence:
#
# PCOD9356758 Si02
#       8
#     8   8   8   8   8   8   8   8
#     4   8  14  25  42  65  90 115 147 188 231 273
#     4   8  14  26  45  68  92 118 151 191 232 274
#     4  10  19  31  49  71  96 125 156 192 234 281
#     4  10  19  31  49  71  96 125 156 192 234 281
#     4   8  14  25  42  65  90 115 147 188 231 273
#     4  10  20  32  47  69  97 127 159 195 232 273
#     4   8  14  26  45  68  92 118 151 191 232 274
#     4  10  20  32  47  69  97 127 159 195 232 273
#
# _framework density 20.994918999999999
#
# number of rings (size 3 to 8) (size 9 to 14) (size 15 to 20)
#    0.000    3.000    0.000    2.250    0.000    3.000 
#    0.000    2.500    0.000    1.500    0.000    5.250 
#    0.000    0.000    0.000    0.000    0.000    0.000 
#
# Total GULP energy -178194.901058 kJ/mol
# GULP energy per Si atom -5568.590658 kJ/mol
# Density = 2.094713 g / cm^3
# Si number density = 20.994919 Si / 1000 Ang^3
#
#
#
# Elastic Constant Matrix: (Units=GPa)
#
#
# Indices 1 2 3 4 5 6 
#
# 1 248.4286 92.5191 10.8921 0.0000 0.0000 0.0000
# 2 92.5191 86.5223 5.3465 0.0000 0.0000 0.0000
# 3 10.8921 5.3465 31.7175 0.0000 0.0000 0.0000
# 4 0.0000 0.0000 0.0000 11.4776 0.0000 0.0000
# 5 0.0000 0.0000 0.0000 0.0000 5.9293 0.0000
# 6 0.0000 0.0000 0.0000 0.0000 0.0000 43.9821
#
#
#
# Elastic Compliance Matrix: (Units=1/GPa)
#
#
# Indices 1 2 3 4 5 6 
#
# 1 0.006727 -0.007125 -0.001109 0.000000 0.000000 0.000000
# 2 -0.007125 0.019226 -0.000794 0.000000 0.000000 0.000000
# 3 -0.001109 -0.000794 0.032043 0.000000 0.000000 0.000000
# 4 0.000000 0.000000 0.000000 0.087126 0.000000 0.000000
# 5 0.000000 0.000000 0.000000 0.000000 0.168654 0.000000
# 6 0.000000 0.000000 0.000000 0.000000 0.000000 0.022737
#
#
# Mechanical properties :
#
#
# Convention : Reuss Voigt Hill
#
# Bulk Modulus (GPa) = 25.03777 64.90931 44.97354
# Shear Modulus (GPa) = 13.59126 29.47184 21.53155
#
# Velocity S-wave (km/s) = 2.54709 3.75074 3.20591
# Velocity P-wave (km/s) = 4.53891 7.05275 5.93055
#
# Compressibility (1/GPa) = 0.03993966
#
# Stress axis : x y z
#
# Youngs Moduli (GPa) = 148.64376 52.01329 31.20796
#
# Poissons Ratio (x) = 0.37061 0.03462
# Poissons Ratio (y) = 1.05912 0.02478
# Poissons Ratio (z) = 0.16488 0.04130
#
# Static dielectric constant tensor:
#      x y z
#    x 1.821340 0.000000 0.000000 
#    y 0.000000 1.726210 0.000000 
#    z 0.000000 0.000000 1.819050 
# 
# From -- ./inp_files/18889.got.cif
#   From: 2010.05.17/outbox.cif.g08.bks.cpg/sg38_10_cif.got.tgz:18889.got - 2010.06.03 18:07:57.
