data_PCOD9356903
_publ_section_title
;
Structure prediction by ZEFSAII (Michael W. Deem and Ramdas Pophale) SiO2 
 PCOD9356903
Probable space group: A M M 2
;
_chemical_formula_sum "Si O2"
_cell_formula_units_Z 64
_cell_length_a 7.904099
_cell_length_b 25.811236
_cell_length_c 15.532777
_cell_angle_alpha 90.000000
_cell_angle_beta 90.000000
_cell_angle_gamma 90.000000
_cell_volume 3168.912738
_symmetry_space_group_name_H-M "A M M 2"
_symmetry_group_IT_number 38
_symmetry_cell_setting 'orthorhombic'
loop_
_space_group_symop_operation_xyz
x,y,z
-x,-y,z
-x,y,z
x,-y,z
x,1/2+y,1/2+z
-x,1/2-y,1/2+z
-x,1/2+y,1/2+z
x,1/2-y,1/2+z
loop_
_atom_site_type_symbol
_atom_site_label
_atom_site_fract_x
_atom_site_fract_y
_atom_site_fract_z
Si Si1 0.703683 0.652094 0.118710
Si Si2 0.804569 0.632032 0.745920
Si Si3 0.302124 0.232954 0.152699
Si Si4 0.292898 0.558097 0.237381
Si Si5 0.795947 0.833069 0.423054
Si Si6 0.798396 0.781296 0.958673
Si Si7 0.295787 0.107628 0.915150
Si Si8 0.298859 0.441625 0.592799
O O1 0.500000 0.654054 0.125306
O O2 0.764734 0.708027 0.153939
O O3 0.764866 0.603021 0.172679
O O4 0.747497 0.648427 0.018050
O O5 0.790767 0.690582 0.709866
O O6 0.730313 0.634204 0.842206
O O7 0.725906 0.593921 0.676050
O O8 0.000000 0.616994 0.751242
O O9 0.500000 0.232385 0.176395
O O10 0.285230 0.215518 0.052975
O O11 0.500000 0.558217 0.235799
O O12 0.237532 0.500000 0.215645
O O13 0.240785 0.573843 0.333848
O O14 0.740909 0.772840 0.417214
O O15 0.000000 0.833376 0.417398
O O16 0.756056 0.832628 0.906398
O O17 0.000000 0.778545 0.971779
O O18 0.500000 0.106438 0.916628
O O19 0.230390 0.085587 0.006202
O O20 0.500000 0.445608 0.579785
O O21 0.231525 0.500000 0.603229
#
# Coordination Sequence:
#
# PCOD9356903 Si02
#       8
#     8   8   8   8   8   8   8   8
#     4   9  19  35  56  82 108 140 185 232 276 322
#     4  11  22  36  55  80 111 148 187 226 274 330
#     4  10  19  32  51  79 112 142 177 223 273 326
#     4   9  18  34  56  82 111 143 182 227 275 327
#     4   9  21  38  54  76 110 149 184 222 277 333
#     4  10  19  33  52  77 110 146 182 219 265 325
#     4  10  19  32  54  82 112 146 180 218 269 329
#     4  10  21  37  56  80 112 148 186 227 272 325
#
# _framework density 20.196200999999999
#
# number of rings (size 3 to 8) (size 9 to 14) (size 15 to 20)
#    0.000    2.250    1.250    1.500    1.750    3.750 
#    0.000    1.250    0.000    4.500    0.000    0.000 
#    0.000    0.000    0.000    0.000    0.000    0.000 
#
# Total GULP energy -178637.593168 kJ/mol
# GULP energy per Si atom -5582.424786 kJ/mol
# Density = 2.015023 g / cm^3
# Si number density = 20.196201 Si / 1000 Ang^3
#
#
#
# Elastic Constant Matrix: (Units=GPa)
#
#
# Indices 1 2 3 4 5 6 
#
# 1 21.0787 1.2938 -1.7384 0.0000 0.0000 0.0000
# 2 1.2938 131.3826 66.3607 0.0000 0.0000 0.0000
# 3 -1.7384 66.3607 90.8424 0.0000 0.0000 0.0000
# 4 0.0000 0.0000 0.0000 25.9339 0.0000 0.0000
# 5 0.0000 0.0000 0.0000 0.0000 33.8562 0.0000
# 6 0.0000 0.0000 0.0000 0.0000 0.0000 0.2933
#
#
#
# Elastic Compliance Matrix: (Units=1/GPa)
#
#
# Indices 1 2 3 4 5 6 
#
# 1 0.047696 -0.001475 0.001990 0.000000 0.000000 0.000000
# 2 -0.001475 0.012107 -0.008873 0.000000 0.000000 0.000000
# 3 0.001990 -0.008873 0.017528 0.000000 0.000000 0.000000
# 4 0.000000 0.000000 0.000000 0.038560 0.000000 0.000000
# 5 0.000000 0.000000 0.000000 0.000000 0.029537 0.000000
# 6 0.000000 0.000000 0.000000 0.000000 0.000000 3.409797
#
#
# Mechanical properties :
#
#
# Convention : Reuss Voigt Hill
#
# Bulk Modulus (GPa) = 16.49726 41.68177 29.08951
# Shear Modulus (GPa) = 1.39193 23.84251 12.61722
#
# Velocity S-wave (km/s) = 0.83108 3.43963 2.50218
# Velocity P-wave (km/s) = 3.01781 6.03804 4.77311
#
# Compressibility (1/GPa) = 0.06061614
#
# Stress axis : x y z
#
# Youngs Moduli (GPa) = 20.96612 82.59352 57.05235
#
# Poissons Ratio (x) = 0.12181 -0.11354
# Poissons Ratio (y) = 0.03092 0.50621
# Poissons Ratio (z) = -0.04172 0.73283
#
# Static dielectric constant tensor:
#      x y z
#    x 1.716840 0.000000 0.000000 
#    y 0.000000 1.708520 0.000000 
#    z 0.000000 0.000000 1.715440 
# 
# From -- ./inp_files/12767.got.cif
#   From: 2010.05.17/outbox.cif.g08.bks.cpg/sg38_7_cif.got.tgz:12767.got - 2010.06.03 18:07:57.
