data_PCOD9356878
_publ_section_title
;
Structure prediction by ZEFSAII (Michael W. Deem and Ramdas Pophale) SiO2 
 PCOD9356878
Probable space group: A M M 2
;
_chemical_formula_sum "Si O2"
_cell_formula_units_Z 64
_cell_length_a 8.870438
_cell_length_b 30.696895
_cell_length_c 14.647669
_cell_angle_alpha 90.000000
_cell_angle_beta 90.000000
_cell_angle_gamma 90.000000
_cell_volume 3988.485623
_symmetry_space_group_name_H-M "A M M 2"
_symmetry_group_IT_number 38
_symmetry_cell_setting 'orthorhombic'
loop_
_space_group_symop_operation_xyz
x,y,z
-x,-y,z
-x,y,z
x,-y,z
x,1/2+y,1/2+z
-x,1/2-y,1/2+z
-x,1/2+y,1/2+z
x,1/2-y,1/2+z
loop_
_atom_site_type_symbol
_atom_site_label
_atom_site_fract_x
_atom_site_fract_y
_atom_site_fract_z
Si Si1 0.175155 0.277134 0.339960
Si Si2 0.170221 0.672985 0.831966
Si Si3 0.676618 0.366402 0.663208
Si Si4 0.678965 0.796133 0.651835
Si Si5 0.818745 0.288487 0.550453
Si Si6 0.678834 0.550766 0.936360
Si Si7 0.176659 0.130176 0.530493
Si Si8 0.180351 0.050058 0.235398
O O1 0.180432 0.224831 0.331700
O O2 0.273141 0.295631 0.257695
O O3 0.221791 0.287948 0.443277
O O4 0.000000 0.290386 0.327804
O O5 0.291002 0.653150 0.763837
O O6 0.187651 0.655771 0.934054
O O7 0.000000 0.660744 0.800295
O O8 0.500000 0.367963 0.644161
O O9 0.758711 0.332496 0.596528
O O10 0.747415 0.414484 0.668567
O O11 0.500000 0.793618 0.642158
O O12 0.751263 0.753648 0.602304
O O13 0.742360 0.839434 0.603879
O O14 0.000000 0.285793 0.557887
O O15 0.500000 0.558214 0.925912
O O16 0.702553 0.500000 0.960320
O O17 0.747172 0.583846 0.009777
O O18 0.758596 0.558039 0.838276
O O19 0.000000 0.125282 0.552193
O O20 0.000000 0.054260 0.236197
O O21 0.219352 0.000000 0.212282
#
# Coordination Sequence:
#
# PCOD9356878 Si02
#       8
#     8   8   8   8   8   8   8   8
#     4  10  21  38  56  72  99 140 182 222 260 304
#     4  10  19  32  51  73 102 141 181 217 254 302
#     4  12  23  33  50  78 108 140 176 217 266 314
#     4  12  24  35  52  78 108 138 174 221 268 313
#     4  11  22  38  56  74 102 140 182 220 258 312
#     4  10  20  33  50  76 109 139 171 218 270 314
#     4  11  21  35  54  75 103 143 185 217 255 313
#     4  10  20  34  52  74 103 141 180 215 257 314
#
# _framework density 16.046189999999999
#
# number of rings (size 3 to 8) (size 9 to 14) (size 15 to 20)
#    0.000    1.250    3.750    3.750    0.000    3.000 
#    0.000    0.000    0.000    0.000    0.000    0.875 
#    0.000    1.000    0.000    0.000    0.000    0.000 
#
# Total GULP energy -178736.901593 kJ/mol
# GULP energy per Si atom -5585.528175 kJ/mol
# Density = 1.600967 g / cm^3
# Si number density = 16.046190 Si / 1000 Ang^3
#
#
#
# Elastic Constant Matrix: (Units=GPa)
#
#
# Indices 1 2 3 4 5 6 
#
# 1 96.4387 44.8093 47.8581 0.0000 0.0000 0.0000
# 2 44.8093 100.5259 41.9299 0.0000 0.0000 0.0000
# 3 47.8581 41.9299 75.8934 0.0000 0.0000 0.0000
# 4 0.0000 0.0000 0.0000 25.9943 0.0000 0.0000
# 5 0.0000 0.0000 0.0000 0.0000 233.2874 0.0000
# 6 0.0000 0.0000 0.0000 0.0000 0.0000 24.8994
#
#
#
# Elastic Compliance Matrix: (Units=1/GPa)
#
#
# Indices 1 2 3 4 5 6 
#
# 1 0.016156 -0.003836 -0.008068 0.000000 0.000000 0.000000
# 2 -0.003836 0.013837 -0.005226 0.000000 0.000000 0.000000
# 3 -0.008068 -0.005226 0.021151 0.000000 0.000000 0.000000
# 4 0.000000 0.000000 0.000000 0.038470 0.000000 0.000000
# 5 0.000000 0.000000 0.000000 0.000000 0.004287 0.000000
# 6 0.000000 0.000000 0.000000 0.000000 0.000000 0.040162
#
#
# Mechanical properties :
#
#
# Convention : Reuss Voigt Hill
#
# Bulk Modulus (GPa) = 59.22812 60.22808 59.72810
# Shear Modulus (GPa) = 28.74372 66.05360 47.39866
#
# Velocity S-wave (km/s) = 4.23698 6.42293 5.44087
# Velocity P-wave (km/s) = 7.80558 9.62398 8.76208
#
# Compressibility (1/GPa) = 0.01688387
#
# Stress axis : x y z
#
# Youngs Moduli (GPa) = 61.89817 72.26818 47.27806
#
# Poissons Ratio (x) = 0.27722 0.38145
# Poissons Ratio (y) = 0.23744 0.24707
# Poissons Ratio (z) = 0.49941 0.37767
#
# Static dielectric constant tensor:
#      x y z
#    x 1.419780 0.000000 0.000000 
#    y 0.000000 1.543400 0.000000 
#    z 0.000000 0.000000 1.518870 
# 
# From -- ./inp_files/13133.got.cif
#   From: 2010.05.17/outbox.cif.g08.bks.cpg/sg38_7_cif.got.tgz:13133.got - 2010.06.03 18:07:57.
