data_PCOD9356789
_publ_section_title
;
Structure prediction by ZEFSAII (Michael W. Deem and Ramdas Pophale) SiO2 
 PCOD9356789
Probable space group: A M M 2
;
_chemical_formula_sum "Si O2"
_cell_formula_units_Z 48
_cell_length_a 16.275277
_cell_length_b 8.847271
_cell_length_c 19.263454
_cell_angle_alpha 90.000000
_cell_angle_beta 90.000000
_cell_angle_gamma 90.000000
_cell_volume 2773.779150
_symmetry_space_group_name_H-M "A M M 2"
_symmetry_group_IT_number 38
_symmetry_cell_setting 'orthorhombic'
loop_
_space_group_symop_operation_xyz
x,y,z
-x,-y,z
-x,y,z
x,-y,z
x,1/2+y,1/2+z
-x,1/2-y,1/2+z
-x,1/2+y,1/2+z
x,1/2-y,1/2+z
loop_
_atom_site_type_symbol
_atom_site_label
_atom_site_fract_x
_atom_site_fract_y
_atom_site_fract_z
Si Si1 0.906590 0.680677 0.034940
Si Si2 0.235032 0.181844 0.942807
Si Si3 0.587634 0.678677 0.451976
Si Si4 0.409302 0.178089 0.783650
Si Si5 0.761407 0.179622 0.289173
Si Si6 0.906311 0.681091 0.199218
O O1 0.897914 0.500000 0.025093
O O2 0.897198 0.710731 0.117016
O O3 0.000000 0.722232 0.015234
O O4 0.839543 0.765941 0.990088
O O5 0.323122 0.236982 0.973844
O O6 0.227317 0.248786 0.865621
O O7 0.237917 0.000000 0.937495
O O8 0.500000 0.745309 0.475899
O O9 0.585793 0.500000 0.468687
O O10 0.588922 0.689727 0.367886
O O11 0.500000 0.229999 0.759153
O O12 0.327495 0.264450 0.761055
O O13 0.401259 0.000000 0.767442
O O14 0.836019 0.235950 0.241776
O O15 0.760966 0.000000 0.294530
O O16 0.898813 0.500000 0.209324
O O17 0.000000 0.723983 0.219169
#
# Coordination Sequence:
#
# PCOD9356789 Si02
#       6
#     8   8   8   8   8   8
#     4   9  19  36  55  73  95 125 161 204 254 302
#     4  10  19  31  50  75 101 130 165 202 242 290
#     4   7  11  22  41  65  92 122 156 191 227 271
#     4   8  14  27  47  69  96 131 167 201 240 289
#     4  11  21  31  48  76 107 133 162 206 251 290
#     4   9  19  37  57  72  91 126 169 208 250 304
#
# _framework density 17.30491
#
# number of rings (size 3 to 8) (size 9 to 14) (size 15 to 20)
#    0.000    3.000    0.000    5.000    0.000    2.333 
#    0.000    1.667    0.000    2.500    0.000    4.667 
#    0.000    0.000    0.000    0.000    0.000    0.000 
#
# Total GULP energy -133624.006835 kJ/mol
# GULP energy per Si atom -5567.666951 kJ/mol
# Density = 1.726552 g / cm^3
# Si number density = 17.304910 Si / 1000 Ang^3
#
#
#
# Elastic Constant Matrix: (Units=GPa)
#
#
# Indices 1 2 3 4 5 6 
#
# 1 211.9039 77.1412 64.6890 0.0000 0.0000 0.0000
# 2 77.1412 58.7287 31.7775 0.0000 0.0000 0.0000
# 3 64.6890 31.7775 29.5791 0.0000 0.0000 0.0000
# 4 0.0000 0.0000 0.0000 20.4015 0.0000 0.0000
# 5 0.0000 0.0000 0.0000 0.0000 -20.6595 0.0000
# 6 0.0000 0.0000 0.0000 0.0000 0.0000 23.5107
#
#
#
# Elastic Compliance Matrix: (Units=1/GPa)
#
#
# Indices 1 2 3 4 5 6 
#
# 1 0.014694 -0.004568 -0.027228 0.000000 0.000000 0.000000
# 2 -0.004568 0.042088 -0.035226 0.000000 0.000000 0.000000
# 3 -0.027228 -0.035226 0.131200 0.000000 0.000000 0.000000
# 4 0.000000 0.000000 0.000000 0.049016 0.000000 0.000000
# 5 0.000000 0.000000 0.000000 0.000000 -0.048404 0.000000
# 6 0.000000 0.000000 0.000000 0.000000 0.000000 0.042534
#
#
# Mechanical properties :
#
#
# Convention : Reuss Voigt Hill
#
# Bulk Modulus (GPa) = 18.54005 71.93634 45.23819
# Shear Modulus (GPa) = 13.04966 13.09082 13.07024
#
# Velocity S-wave (km/s) = 2.74907 2.75340 2.75124
# Velocity P-wave (km/s) = 4.56218 7.19503 6.02420
#
# Compressibility (1/GPa) = 0.05393729
#
# Stress axis : x y z
#
# Youngs Moduli (GPa) = 68.05381 23.75969 7.62197
#
# Poissons Ratio (x) = 0.10854 0.20753
# Poissons Ratio (y) = 0.31088 0.26849
# Poissons Ratio (z) = 1.85300 0.83695
#
# Static dielectric constant tensor:
#      x y z
#    x 1.636330 0.000000 0.000000 
#    y 0.000000 1.574260 0.000000 
#    z 0.000000 0.000000 1.555650 
# 
# From -- ./inp_files/18144.got.cif
#   From: 2010.05.17/outbox.cif.g08.bks.cpg/sg38_10_cif.got.tgz:18144.got - 2010.06.03 18:07:57.
