data_PCOD9356694
_publ_section_title
;
Structure prediction by ZEFSAII (Michael W. Deem and Ramdas Pophale) SiO2 
 PCOD9356694
Probable space group: A M M 2
;
_chemical_formula_sum "Si O2"
_cell_formula_units_Z 56
_cell_length_a 21.289198
_cell_length_b 7.456358
_cell_length_c 15.486809
_cell_angle_alpha 90.000000
_cell_angle_beta 90.000000
_cell_angle_gamma 90.000000
_cell_volume 2458.374230
_symmetry_space_group_name_H-M "A M M 2"
_symmetry_group_IT_number 38
_symmetry_cell_setting 'orthorhombic'
loop_
_space_group_symop_operation_xyz
x,y,z
-x,-y,z
-x,y,z
x,-y,z
x,1/2+y,1/2+z
-x,1/2-y,1/2+z
-x,1/2+y,1/2+z
x,1/2-y,1/2+z
loop_
_atom_site_type_symbol
_atom_site_label
_atom_site_fract_x
_atom_site_fract_y
_atom_site_fract_z
Si Si1 0.567479 0.786564 0.962180
Si Si2 0.837257 0.215534 0.017151
Si Si3 0.928942 0.785452 0.363174
Si Si4 0.295516 0.299277 0.496237
Si Si5 0.566647 0.786722 0.755946
Si Si6 0.700033 0.213463 0.689777
Si Si7 0.164670 0.285015 0.715572
O O1 0.500000 0.715725 0.995985
O O2 0.565365 0.768557 0.859004
O O3 0.568435 0.000000 0.983813
O O4 0.635868 0.711895 0.985949
O O5 0.771878 0.284442 0.973595
O O6 0.844804 0.280687 0.116287
O O7 0.829905 0.000000 0.021090
O O8 0.894771 0.253343 0.954277
O O9 0.885191 0.716058 0.285141
O O10 0.000000 0.715684 0.361225
O O11 0.932169 0.000000 0.352465
O O12 0.299846 0.500000 0.456527
O O13 0.288713 0.308366 0.599218
O O14 0.500000 0.713115 0.721720
O O15 0.633597 0.718099 0.724818
O O16 0.566451 0.000000 0.737643
O O17 0.763562 0.243260 0.743162
O O18 0.695170 0.000000 0.675842
O O19 0.158863 0.500000 0.712473
#
# Coordination Sequence:
#
# PCOD9356694 Si02
#       7
#     8   8   8   8   8   8   8
#     4   8  14  26  45  68  94 129 174 216 252 298
#     4   9  19  35  56  81 110 142 179 220 258 307
#     4  10  22  39  59  84 111 140 174 212 263 321
#     4   9  18  32  50  72 101 134 172 213 258 309
#     4   8  15  27  43  67  98 131 169 213 259 303
#     4  10  19  30  50  76 101 131 172 217 260 304
#     4   9  20  39  58  78 109 146 178 213 261 319
#
# _framework density 22.779281000000001
#
# number of rings (size 3 to 8) (size 9 to 14) (size 15 to 20)
#    0.000    3.000    0.000    2.143    2.000    4.286 
#    0.000    1.429    0.000    1.286    0.000    4.000 
#    0.000    0.000    0.000    0.000    0.000    0.000 
#
# Total GULP energy -156049.594659 kJ/mol
# GULP energy per Si atom -5573.199809 kJ/mol
# Density = 2.272743 g / cm^3
# Si number density = 22.779281 Si / 1000 Ang^3
#
#
#
# Elastic Constant Matrix: (Units=GPa)
#
#
# Indices 1 2 3 4 5 6 
#
# 1 244.6868 6.2521 68.0850 0.0000 0.0000 0.0000
# 2 6.2521 76.8066 2.9961 0.0000 0.0000 0.0000
# 3 68.0850 2.9961 60.5697 0.0000 0.0000 0.0000
# 4 0.0000 0.0000 0.0000 8.0570 0.0000 0.0000
# 5 0.0000 0.0000 0.0000 0.0000 62.7346 0.0000
# 6 0.0000 0.0000 0.0000 0.0000 0.0000 -8.4411
#
#
#
# Elastic Compliance Matrix: (Units=1/GPa)
#
#
# Indices 1 2 3 4 5 6 
#
# 1 0.005951 -0.000224 -0.006678 0.000000 0.000000 0.000000
# 2 -0.000224 0.013053 -0.000394 0.000000 0.000000 0.000000
# 3 -0.006678 -0.000394 0.024036 0.000000 0.000000 0.000000
# 4 0.000000 0.000000 0.000000 0.124115 0.000000 0.000000
# 5 0.000000 0.000000 0.000000 0.000000 0.015940 0.000000
# 6 0.000000 0.000000 0.000000 0.000000 0.000000 -0.118469
#
#
# Mechanical properties :
#
#
# Convention : Reuss Voigt Hill
#
# Bulk Modulus (GPa) = 35.15165 59.63664 47.39414
# Shear Modulus (GPa) = 56.36900 32.78545 44.57723
#
# Velocity S-wave (km/s) = 4.97991 3.79788 4.42851
# Velocity P-wave (km/s) = 6.96641 6.74306 6.85565
#
# Compressibility (1/GPa) = 0.02844817
#
# Stress axis : x y z
#
# Youngs Moduli (GPa) = 168.04556 76.60897 41.60424
#
# Poissons Ratio (x) = 0.01715 0.27783
# Poissons Ratio (y) = 0.03762 0.01639
# Poissons Ratio (z) = 1.12222 0.03019
#
# Static dielectric constant tensor:
#      x y z
#    x 1.882820 0.000000 0.000000 
#    y 0.000000 1.915070 0.000000 
#    z 0.000000 0.000000 1.816820 
# 
# From -- ./inp_files/15466.got.cif
#   From: 2010.05.17/outbox.cif.g08.bks.cpg/sg38_8_cif.got.tgz:15466.got - 2010.06.03 18:07:57.
