data_PCOD9356845
_publ_section_title
;
Structure prediction by ZEFSAII (Michael W. Deem and Ramdas Pophale) SiO2 
 PCOD9356845
Probable space group: A M M 2
;
_chemical_formula_sum "Si O2"
_cell_formula_units_Z 64
_cell_length_a 24.846566
_cell_length_b 7.617669
_cell_length_c 15.918567
_cell_angle_alpha 90.000000
_cell_angle_beta 90.000000
_cell_angle_gamma 90.000000
_cell_volume 3012.953588
_symmetry_space_group_name_H-M "A M M 2"
_symmetry_group_IT_number 38
_symmetry_cell_setting 'orthorhombic'
loop_
_space_group_symop_operation_xyz
x,y,z
-x,-y,z
-x,y,z
x,-y,z
x,1/2+y,1/2+z
-x,1/2-y,1/2+z
-x,1/2+y,1/2+z
x,1/2-y,1/2+z
loop_
_atom_site_type_symbol
_atom_site_label
_atom_site_fract_x
_atom_site_fract_y
_atom_site_fract_z
Si Si1 0.242460 0.212994 0.620180
Si Si2 0.361616 0.788850 0.611789
Si Si3 0.629099 0.795760 0.801517
Si Si4 0.561033 0.789071 0.957591
Si Si5 0.135306 0.288329 0.869979
Si Si6 0.749875 0.795835 0.315301
Si Si7 0.127896 0.285337 0.053019
Si Si8 0.939419 0.710042 0.211789
O O1 0.301055 0.269767 0.587331
O O2 0.238889 0.277779 0.715872
O O3 0.189468 0.268777 0.570993
O O4 0.241895 0.000000 0.622419
O O5 0.373900 0.721083 0.706487
O O6 0.404770 0.745667 0.541302
O O7 0.359233 0.000000 0.617958
O O8 0.691532 0.786864 0.829501
O O9 0.614183 0.000000 0.793408
O O10 0.591879 0.719280 0.874816
O O11 0.500000 0.722783 0.963552
O O12 0.558711 0.000000 0.949616
O O13 0.139059 0.500000 0.870955
O O14 0.196639 0.222704 0.858868
O O15 0.098143 0.242068 0.791821
O O16 0.112336 0.230024 0.959495
O O17 0.744359 0.000000 0.338459
O O18 0.127099 0.500000 0.055032
O O19 0.089892 0.222294 0.127928
O O20 0.942967 0.500000 0.202493
O O21 0.000000 0.778768 0.222303
#
# Coordination Sequence:
#
# PCOD9356845 Si02
#       8
#     8   8   8   8   8   8   8   8
#     4   9  17  33  57  79 108 147 182 217 268 329
#     4   9  19  34  56  83 108 139 182 225 270 322
#     4   9  20  38  57  78 107 148 187 219 268 328
#     4  10  22  39  57  79 110 147 186 225 270 328
#     4  10  21  35  55  84 112 144 180 222 277 328
#     4  10  19  31  53  84 116 140 175 226 277 326
#     4   9  18  34  56  80 108 144 184 220 263 325
#     4  10  21  38  59  80 106 145 190 230 266 316
#
# _framework density 21.241613999999998
#
# number of rings (size 3 to 8) (size 9 to 14) (size 15 to 20)
#    0.000    2.500    1.250    1.125    1.750    4.500 
#    0.000    3.750    0.000    0.000    0.000    0.000 
#    0.000    0.000    0.000    0.000    0.000    0.000 
#
# Total GULP energy -178598.145101 kJ/mol
# GULP energy per Si atom -5581.192034 kJ/mol
# Density = 2.119327 g / cm^3
# Si number density = 21.241614 Si / 1000 Ang^3
#
#
#
# Elastic Constant Matrix: (Units=GPa)
#
#
# Indices 1 2 3 4 5 6 
#
# 1 101.0164 -1.1425 58.5222 0.0000 0.0000 0.0000
# 2 -1.1425 39.9713 -1.8885 0.0000 0.0000 0.0000
# 3 58.5222 -1.8885 113.1274 0.0000 0.0000 0.0000
# 4 0.0000 0.0000 0.0000 15.0809 0.0000 0.0000
# 5 0.0000 0.0000 0.0000 0.0000 -44.5595 0.0000
# 6 0.0000 0.0000 0.0000 0.0000 0.0000 13.2612
#
#
#
# Elastic Compliance Matrix: (Units=1/GPa)
#
#
# Indices 1 2 3 4 5 6 
#
# 1 0.014136 0.000059 -0.007312 0.000000 0.000000 0.000000
# 2 0.000059 0.025038 0.000388 0.000000 0.000000 0.000000
# 3 -0.007312 0.000388 0.012629 0.000000 0.000000 0.000000
# 4 0.000000 0.000000 0.000000 0.066309 0.000000 0.000000
# 5 0.000000 0.000000 0.000000 0.000000 -0.022442 0.000000
# 6 0.000000 0.000000 0.000000 0.000000 0.000000 0.075408
#
#
# Mechanical properties :
#
#
# Convention : Reuss Voigt Hill
#
# Bulk Modulus (GPa) = 26.26639 40.56641 33.41640
# Shear Modulus (GPa) = 25.31660 9.99812 17.65736
#
# Velocity S-wave (km/s) = 3.45605 2.17188 2.88629
# Velocity P-wave (km/s) = 5.32147 5.04267 5.18394
#
# Compressibility (1/GPa) = 0.03807147
#
# Stress axis : x y z
#
# Youngs Moduli (GPa) = 70.74149 39.93935 79.18586
#
# Poissons Ratio (x) = -0.00234 0.57899
# Poissons Ratio (y) = -0.00414 -0.03070
# Poissons Ratio (z) = 0.51724 -0.01548
#
# Static dielectric constant tensor:
#      x y z
#    x 1.755670 0.000000 0.000000 
#    y 0.000000 1.830490 0.000000 
#    z 0.000000 0.000000 1.756180 
# 
# From -- ./inp_files/15813.got.cif
#   From: 2010.05.17/outbox.cif.g08.bks.cpg/sg38_8_cif.got.tgz:15813.got - 2010.06.03 18:07:57.
