data_PCOD9356104
_publ_section_title
;
Structure prediction by ZEFSAII (Michael W. Deem and Ramdas Pophale) SiO2 
 PCOD9356104
Probable space group: A M M 2
;
_chemical_formula_sum "Si O2"
_cell_formula_units_Z 64
_cell_length_a 15.107779
_cell_length_b 7.567601
_cell_length_c 25.893809
_cell_angle_alpha 90.000000
_cell_angle_beta 90.000000
_cell_angle_gamma 90.000000
_cell_volume 2960.429951
_symmetry_space_group_name_H-M "A M M 2"
_symmetry_group_IT_number 38
_symmetry_cell_setting 'orthorhombic'
loop_
_space_group_symop_operation_xyz
x,y,z
-x,-y,z
-x,y,z
x,-y,z
x,1/2+y,1/2+z
-x,1/2-y,1/2+z
-x,1/2+y,1/2+z
x,1/2-y,1/2+z
loop_
_atom_site_type_symbol
_atom_site_label
_atom_site_fract_x
_atom_site_fract_y
_atom_site_fract_z
Si Si1 0.838736 0.209873 0.692520
Si Si2 0.904105 0.212852 0.080996
Si Si3 0.594673 0.715800 0.762261
Si Si4 0.719944 0.709327 0.849830
Si Si5 0.601042 0.290997 0.448466
Si Si6 0.097707 0.211764 0.805321
Si Si7 0.352227 0.199394 0.155861
Si Si8 0.290153 0.217585 0.047604
O O1 0.897551 0.239148 0.641660
O O2 0.877274 0.273245 0.747163
O O3 0.747513 0.304922 0.678336
O O4 0.821717 0.000000 0.696711
O O5 0.812825 0.273971 0.053718
O O6 0.000000 0.275081 0.060948
O O7 0.903194 0.000000 0.077533
O O8 0.500000 0.758338 0.786711
O O9 0.600573 0.500000 0.758945
O O10 0.673720 0.781317 0.797792
O O11 0.597686 0.783547 0.703817
O O12 0.710200 0.500000 0.848942
O O13 0.662674 0.770343 0.898309
O O14 0.823681 0.747765 0.845067
O O15 0.500000 0.220642 0.443031
O O16 0.592180 0.500000 0.457350
O O17 0.657169 0.221655 0.497287
O O18 0.000000 0.277880 0.819451
O O19 0.093240 0.000000 0.802095
O O20 0.341739 0.278108 0.099230
O O21 0.386543 0.000000 0.148682
O O22 0.288928 0.000000 0.048525
#
# Coordination Sequence:
#
# PCOD9356104 Si02
#       8
#     8   8   8   8   8   8   8   8
#     4  10  18  29  48  75 111 148 180 215 259 315
#     4   9  17  30  50  76 106 141 181 223 267 318
#     4   9  17  29  49  78 108 137 171 214 267 321
#     4  11  22  37  57  80 110 143 181 230 277 327
#     4  10  21  38  59  81 106 142 187 232 279 330
#     4  10  21  36  54  78 110 147 185 224 270 327
#     4   9  16  30  51  76 109 144 179 219 264 315
#     4   8  16  31  52  77 104 134 178 229 269 314
#
# _framework density 21.618483000000001
#
# number of rings (size 3 to 8) (size 9 to 14) (size 15 to 20)
#    0.000    2.500    1.250    2.250    0.000    2.750 
#    0.000    5.625    0.000    3.375    0.000    0.000 
#    0.000    0.000    0.000    0.000    0.000    0.000 
#
# Total GULP energy -178445.534627 kJ/mol
# GULP energy per Si atom -5576.422957 kJ/mol
# Density = 2.156928 g / cm^3
# Si number density = 21.618483 Si / 1000 Ang^3
#
#
#
# Elastic Constant Matrix: (Units=GPa)
#
#
# Indices 1 2 3 4 5 6 
#
# 1 167.5428 1.3471 85.3828 0.0000 0.0000 0.0000
# 2 1.3471 55.8759 0.1456 0.0000 0.0000 0.0000
# 3 85.3828 0.1456 135.0330 0.0000 0.0000 0.0000
# 4 0.0000 0.0000 0.0000 13.7649 0.0000 0.0000
# 5 0.0000 0.0000 0.0000 0.0000 24.9436 0.0000
# 6 0.0000 0.0000 0.0000 0.0000 0.0000 1.3770
#
#
#
# Elastic Compliance Matrix: (Units=1/GPa)
#
#
# Indices 1 2 3 4 5 6 
#
# 1 0.008809 -0.000198 -0.005570 0.000000 0.000000 0.000000
# 2 -0.000198 0.017901 0.000106 0.000000 0.000000 0.000000
# 3 -0.005570 0.000106 0.010927 0.000000 0.000000 0.000000
# 4 0.000000 0.000000 0.000000 0.072648 0.000000 0.000000
# 5 0.000000 0.000000 0.000000 0.000000 0.040090 0.000000
# 6 0.000000 0.000000 0.000000 0.000000 0.000000 0.726241
#
#
# Mechanical properties :
#
#
# Convention : Reuss Voigt Hill
#
# Bulk Modulus (GPa) = 38.00282 59.13364 48.56823
# Shear Modulus (GPa) = 5.57593 26.12217 15.84905
#
# Velocity S-wave (km/s) = 1.60774 3.47987 2.71057
# Velocity P-wave (km/s) = 4.58950 6.59990 5.68428
#
# Compressibility (1/GPa) = 0.02631384
#
# Stress axis : x y z
#
# Youngs Moduli (GPa) = 113.52621 55.86188 91.51518
#
# Poissons Ratio (x) = 0.01105 0.50970
# Poissons Ratio (y) = 0.02246 -0.00968
# Poissons Ratio (z) = 0.63229 -0.00591
#
# Static dielectric constant tensor:
#      x y z
#    x 1.806550 0.000000 0.000000 
#    y 0.000000 1.832170 0.000000 
#    z 0.000000 0.000000 1.782440 
# 
# From -- ./inp_files/22994.got.cif
#   From: 2010.05.17/outbox.cif.g08.bks.cpg/sg38_12_cif.got.tgz:22994.got - 2010.06.03 18:07:57.
