data_PCOD9356385
_publ_section_title
;
Structure prediction by ZEFSAII (Michael W. Deem and Ramdas Pophale) SiO2 
 PCOD9356385
Probable space group: A M M 2
;
_chemical_formula_sum "Si O2"
_cell_formula_units_Z 64
_cell_length_a 7.708281
_cell_length_b 20.244842
_cell_length_c 21.320289
_cell_angle_alpha 90.000000
_cell_angle_beta 90.000000
_cell_angle_gamma 90.000000
_cell_volume 3327.093587
_symmetry_space_group_name_H-M "A M M 2"
_symmetry_group_IT_number 38
_symmetry_cell_setting 'orthorhombic'
loop_
_space_group_symop_operation_xyz
x,y,z
-x,-y,z
-x,y,z
x,-y,z
x,1/2+y,1/2+z
-x,1/2-y,1/2+z
-x,1/2+y,1/2+z
x,1/2-y,1/2+z
loop_
_atom_site_type_symbol
_atom_site_label
_atom_site_fract_x
_atom_site_fract_y
_atom_site_fract_z
Si Si1 0.702972 0.204827 0.658310
Si Si2 0.796432 0.784917 0.280309
Si Si3 0.290127 0.926779 0.864886
Si Si4 0.709316 0.426280 0.737321
Si Si5 0.288461 0.427314 0.590160
Si Si6 0.711877 0.927228 0.718459
Si Si7 0.798035 0.716943 0.406469
Si Si8 0.295043 0.211157 0.044243
O O1 0.500000 0.192653 0.644869
O O2 0.712957 0.252491 0.718699
O O3 0.778313 0.134389 0.678882
O O4 0.779682 0.241267 0.597873
O O5 0.775167 0.863700 0.275849
O O6 0.724643 0.752755 0.344377
O O7 0.000000 0.768490 0.276717
O O8 0.500000 0.925479 0.868454
O O9 0.239499 0.920296 0.791616
O O10 0.224645 0.861818 0.898969
O O11 0.234685 0.000000 0.886807
O O12 0.500000 0.424889 0.739776
O O13 0.766167 0.500000 0.757104
O O14 0.756796 0.418449 0.663722
O O15 0.500000 0.429180 0.586762
O O16 0.227764 0.500000 0.569570
O O17 0.225366 0.363422 0.552819
O O18 0.500000 0.925846 0.718176
O O19 0.765862 0.000000 0.696729
O O20 0.723856 0.736017 0.473780
O O21 0.000000 0.733192 0.408341
O O22 0.500000 0.205682 0.057618
#
# Coordination Sequence:
#
# PCOD9356385 Si02
#       8
#     8   8   8   8   8   8   8   8
#     4  10  18  32  56  80 102 131 172 219 265 308
#     4  11  22  34  51  76 106 140 175 211 257 306
#     4   9  17  31  53  78 102 134 174 213 257 307
#     4   9  17  32  56  82 105 130 165 214 264 306
#     4   8  14  27  48  74 102 128 159 201 250 305
#     4   8  14  26  49  80 106 127 159 208 263 311
#     4  11  24  37  48  70 107 148 180 211 254 302
#     4  10  20  33  51  75 100 135 177 215 260 306
#
# _framework density 19.236008000000002
#
# number of rings (size 3 to 8) (size 9 to 14) (size 15 to 20)
#    0.000    2.500    2.500    2.250    0.000    3.000 
#    0.000    1.250    0.000    1.125    0.000    1.750 
#    0.000    0.000    0.000    0.000    0.000    0.000 
#
# Total GULP energy -178483.033698 kJ/mol
# GULP energy per Si atom -5577.594803 kJ/mol
# Density = 1.919223 g / cm^3
# Si number density = 19.236008 Si / 1000 Ang^3
#
#
#
# Elastic Constant Matrix: (Units=GPa)
#
#
# Indices 1 2 3 4 5 6 
#
# 1 24.4595 -6.7859 -6.9688 0.0000 0.0000 0.0000
# 2 -6.7859 115.4802 56.2925 0.0000 0.0000 0.0000
# 3 -6.9688 56.2925 99.7154 0.0000 0.0000 0.0000
# 4 0.0000 0.0000 0.0000 20.7832 0.0000 0.0000
# 5 0.0000 0.0000 0.0000 0.0000 49.9304 0.0000
# 6 0.0000 0.0000 0.0000 0.0000 0.0000 -4.3106
#
#
#
# Elastic Compliance Matrix: (Units=1/GPa)
#
#
# Indices 1 2 3 4 5 6 
#
# 1 0.041884 0.001427 0.002122 0.000000 0.000000 0.000000
# 2 0.001427 0.011996 -0.006672 0.000000 0.000000 0.000000
# 3 0.002122 -0.006672 0.013944 0.000000 0.000000 0.000000
# 4 0.000000 0.000000 0.000000 0.048116 0.000000 0.000000
# 5 0.000000 0.000000 0.000000 0.000000 0.020028 0.000000
# 6 0.000000 0.000000 0.000000 0.000000 0.000000 -0.231986
#
#
# Mechanical properties :
#
#
# Convention : Reuss Voigt Hill
#
# Bulk Modulus (GPa) = 16.24001 36.08119 26.16060
# Shear Modulus (GPa) = -72.20639 26.42177 -22.89231
#
# Velocity S-wave (km/s) = -6.13340 3.71017 -3.45349
# Velocity P-wave (km/s) = 6.45734 6.09522 1.50758
#
# Compressibility (1/GPa) = 0.06157632
#
# Stress axis : x y z
#
# Youngs Moduli (GPa) = 23.87528 83.36210 71.71781
#
# Poissons Ratio (x) = -0.11896 -0.15215
# Poissons Ratio (y) = -0.03407 0.47852
# Poissons Ratio (z) = -0.05065 0.55622
#
# Static dielectric constant tensor:
#      x y z
#    x 1.702690 0.000000 0.000000 
#    y 0.000000 1.700970 0.000000 
#    z 0.000000 0.000000 1.661990 
# 
# From -- ./inp_files/17221.got.cif
#   From: 2010.05.17/outbox.cif.g08.bks.cpg/sg38_9_cif.got.tgz:17221.got - 2010.06.03 18:07:57.
