data_PCOD9356238
_publ_section_title
;
Structure prediction by ZEFSAII (Michael W. Deem and Ramdas Pophale) SiO2 
 PCOD9356238
Probable space group: A M M 2
;
_chemical_formula_sum "Si O2"
_cell_formula_units_Z 58
_cell_length_a 7.284813
_cell_length_b 14.516611
_cell_length_c 26.258742
_cell_angle_alpha 90.000000
_cell_angle_beta 90.000000
_cell_angle_gamma 90.000000
_cell_volume 2776.882882
_symmetry_space_group_name_H-M "A M M 2"
_symmetry_group_IT_number 38
_symmetry_cell_setting 'orthorhombic'
loop_
_space_group_symop_operation_xyz
x,y,z
-x,-y,z
-x,y,z
x,-y,z
x,1/2+y,1/2+z
-x,1/2-y,1/2+z
-x,1/2+y,1/2+z
x,1/2-y,1/2+z
loop_
_atom_site_type_symbol
_atom_site_label
_atom_site_fract_x
_atom_site_fract_y
_atom_site_fract_z
Si Si1 0.223758 0.834527 0.587100
Si Si2 0.205535 0.787203 0.173147
Si Si3 0.720591 0.398850 0.350907
Si Si4 0.776261 0.893127 0.269643
Si Si5 0.500000 0.500000 0.111917
Si Si6 0.777541 0.394389 0.977007
Si Si7 0.212801 0.196114 0.373839
Si Si8 0.277475 0.897280 0.732062
O O1 0.278708 0.742697 0.618142
O O2 0.339473 0.919169 0.609451
O O3 0.268782 0.836281 0.527079
O O4 0.000000 0.846186 0.592146
O O5 0.291729 0.853005 0.215767
O O6 0.200343 0.688205 0.201726
O O7 0.000000 0.822525 0.164201
O O8 0.500000 0.399853 0.351857
O O9 0.783444 0.500000 0.368814
O O10 0.779201 0.306200 0.378649
O O11 0.773764 0.389233 0.291489
O O12 0.711360 0.835890 0.319033
O O13 0.000000 0.885121 0.267878
O O14 0.730652 0.000000 0.276153
O O15 0.715932 0.500000 0.984503
O O16 0.709873 0.353314 0.923739
O O17 0.000000 0.396330 0.975035
O O18 0.000000 0.168121 0.372011
O O19 0.500000 0.893861 0.728351
O O20 0.223169 0.000000 0.715415
#
# Coordination Sequence:
#
# PCOD9356238 Si02
#       8
#     8   8   8   8   2   8   8   8
#     4  10  22  37  53  80 116 147 185 230 277 335
#     4  10  20  32  49  74 104 136 172 220 270 317
#     4   9  18  33  47  67 102 142 171 209 269 322
#     4   9  17  31  51  77 105 135 179 225 269 329
#     4  12  22  36  60  82 106 156 190 224 280 332
#     4   9  17  33  53  74 109 144 169 216 274 321
#     4  10  18  30  53  80 102 136 180 220 268 322
#     4   9  18  29  45  66  96 134 170 207 255 319
#
# _framework density 20.886728999999999
#
# number of rings (size 3 to 8) (size 9 to 14) (size 15 to 20)
#    0.000    2.483    2.069    1.448    1.931    2.207 
#    1.241    1.379    0.000    3.310    0.000    3.862 
#    0.000    0.000    0.000    0.000    0.000    0.138 
#
# Total GULP energy -161540.576219 kJ/mol
# GULP energy per Si atom -5570.364697 kJ/mol
# Density = 2.083919 g / cm^3
# Si number density = 20.886729 Si / 1000 Ang^3
#
#
#
# Elastic Constant Matrix: (Units=GPa)
#
#
# Indices 1 2 3 4 5 6 
#
# 1 98.0813 -5.5647 6.0957 0.0000 0.0000 0.0000
# 2 -5.5647 87.8878 56.6620 0.0000 0.0000 0.0000
# 3 6.0957 56.6620 135.7217 0.0000 0.0000 0.0000
# 4 0.0000 0.0000 0.0000 29.6073 0.0000 0.0000
# 5 0.0000 0.0000 0.0000 0.0000 -23.6360 0.0000
# 6 0.0000 0.0000 0.0000 0.0000 0.0000 21.8962
#
#
#
# Elastic Compliance Matrix: (Units=1/GPa)
#
#
# Indices 1 2 3 4 5 6 
#
# 1 0.010332 0.001304 -0.001009 0.000000 0.000000 0.000000
# 2 0.001304 0.015733 -0.006627 0.000000 0.000000 0.000000
# 3 -0.001009 -0.006627 0.010180 0.000000 0.000000 0.000000
# 4 0.000000 0.000000 0.000000 0.033775 0.000000 0.000000
# 5 0.000000 0.000000 0.000000 0.000000 -0.042308 0.000000
# 6 0.000000 0.000000 0.000000 0.000000 0.000000 0.045670
#
#
# Mechanical properties :
#
#
# Convention : Reuss Voigt Hill
#
# Bulk Modulus (GPa) = 42.40304 48.45296 45.42800
# Shear Modulus (GPa) = 53.24465 23.20668 38.22567
#
# Velocity S-wave (km/s) = 5.05445 3.33689 4.28266
# Velocity P-wave (km/s) = 7.37623 6.17210 6.80087
#
# Compressibility (1/GPa) = 0.02358322
#
# Stress axis : x y z
#
# Youngs Moduli (GPa) = 96.78362 63.55981 98.23178
#
# Poissons Ratio (x) = -0.08291 0.09908
# Poissons Ratio (y) = -0.12625 0.65098
# Poissons Ratio (z) = 0.09762 0.42121
#
# Static dielectric constant tensor:
#      x y z
#    x 1.831160 0.000000 0.000000 
#    y 0.000000 1.713960 0.000000 
#    z 0.000000 0.000000 1.797340 
# 
# From -- ./inp_files/23577.got.cif
#   From: 2010.05.17/outbox.cif.g08.bks.cpg/sg38_12_cif.got.tgz:23577.got - 2010.06.03 18:07:57.
