data_PCOD9356649
_publ_section_title
;
Structure prediction by ZEFSAII (Michael W. Deem and Ramdas Pophale) SiO2 
 PCOD9356649
Probable space group: A M M 2
;
_chemical_formula_sum "Si O2"
_cell_formula_units_Z 56
_cell_length_a 18.619964
_cell_length_b 7.963652
_cell_length_c 19.665667
_cell_angle_alpha 90.000000
_cell_angle_beta 90.000000
_cell_angle_gamma 90.000000
_cell_volume 2916.082400
_symmetry_space_group_name_H-M "A M M 2"
_symmetry_group_IT_number 38
_symmetry_cell_setting 'orthorhombic'
loop_
_space_group_symop_operation_xyz
x,y,z
-x,-y,z
-x,y,z
x,-y,z
x,1/2+y,1/2+z
-x,1/2-y,1/2+z
-x,1/2+y,1/2+z
x,1/2-y,1/2+z
loop_
_atom_site_type_symbol
_atom_site_label
_atom_site_fract_x
_atom_site_fract_y
_atom_site_fract_z
Si Si1 0.686211 0.808984 0.995690
Si Si2 0.582051 0.294860 0.614071
Si Si3 0.297781 0.798421 0.216512
Si Si4 0.915754 0.190399 0.176838
Si Si5 0.797798 0.311615 0.092867
Si Si6 0.081494 0.198164 0.830480
Si Si7 0.760707 0.796713 0.863141
O O1 0.710921 0.730970 0.924600
O O2 0.662673 0.000000 0.981802
O O3 0.627086 0.735014 0.047723
O O4 0.758980 0.808816 0.040268
O O5 0.500000 0.238209 0.613850
O O6 0.582451 0.500000 0.611319
O O7 0.625808 0.249796 0.682528
O O8 0.241218 0.716312 0.165017
O O9 0.277614 0.744997 0.292080
O O10 0.292293 0.000000 0.212073
O O11 0.878790 0.275123 0.112603
O O12 0.905706 0.279337 0.249493
O O13 0.000000 0.184342 0.165791
O O14 0.887477 0.000000 0.183396
O O15 0.786883 0.500000 0.068505
O O16 0.155813 0.265022 0.863701
O O17 0.000000 0.267279 0.844727
O O18 0.078237 0.000000 0.845570
O O19 0.764506 0.000000 0.869268
#
# Coordination Sequence:
#
# PCOD9356649 Si02
#       7
#     8   8   8   8   8   8   8
#     4   9  19  34  52  74 102 136 174 210 252 311
#     4   8  15  31  54  76  98 131 174 215 255 305
#     4  10  19  31  52  77 100 129 168 211 256 306
#     4  10  19  30  47  72  99 129 170 219 263 302
#     4  11  20  32  50  72  99 132 170 212 257 306
#     4   9  17  29  46  69  98 135 174 212 258 305
#     4  10  19  32  50  75 106 137 171 214 258 307
#
# _framework density 19.203845999999999
#
# number of rings (size 3 to 8) (size 9 to 14) (size 15 to 20)
#    0.000    2.429    1.429    3.000    0.000    1.429 
#    0.000    1.429    0.000   14.143    0.000    0.000 
#    0.000    0.000    0.000    0.000    0.000    0.000 
#
# Total GULP energy -155919.393173 kJ/mol
# GULP energy per Si atom -5568.549756 kJ/mol
# Density = 1.916014 g / cm^3
# Si number density = 19.203846 Si / 1000 Ang^3
#
#
#
# Elastic Constant Matrix: (Units=GPa)
#
#
# Indices 1 2 3 4 5 6 
#
# 1 121.5556 3.0801 46.4343 0.0000 0.0000 0.0000
# 2 3.0801 31.5243 -7.0289 0.0000 0.0000 0.0000
# 3 46.4343 -7.0289 92.7582 0.0000 0.0000 0.0000
# 4 0.0000 0.0000 0.0000 12.2647 0.0000 0.0000
# 5 0.0000 0.0000 0.0000 0.0000 20.4278 0.0000
# 6 0.0000 0.0000 0.0000 0.0000 0.0000 10.6977
#
#
#
# Elastic Compliance Matrix: (Units=1/GPa)
#
#
# Indices 1 2 3 4 5 6 
#
# 1 0.010319 -0.002197 -0.005332 0.000000 0.000000 0.000000
# 2 -0.002197 0.032735 0.003580 0.000000 0.000000 0.000000
# 3 -0.005332 0.003580 0.013721 0.000000 0.000000 0.000000
# 4 0.000000 0.000000 0.000000 0.081535 0.000000 0.000000
# 5 0.000000 0.000000 0.000000 0.000000 0.048953 0.000000
# 6 0.000000 0.000000 0.000000 0.000000 0.000000 0.093478
#
#
# Mechanical properties :
#
#
# Convention : Reuss Voigt Hill
#
# Bulk Modulus (GPa) = 20.45947 36.75656 28.60802
# Shear Modulus (GPa) = 16.39712 22.23488 19.31600
#
# Velocity S-wave (km/s) = 2.92523 3.40639 3.17494
# Velocity P-wave (km/s) = 4.69961 5.88669 5.32632
#
# Compressibility (1/GPa) = 0.04887712
#
# Stress axis : x y z
#
# Youngs Moduli (GPa) = 96.90585 30.54874 72.87913
#
# Poissons Ratio (x) = 0.06712 0.38861
# Poissons Ratio (y) = 0.21292 -0.26094
# Poissons Ratio (z) = 0.51673 -0.10938
#
# Static dielectric constant tensor:
#      x y z
#    x 1.721060 0.000000 0.000000 
#    y 0.000000 1.724780 0.000000 
#    z 0.000000 0.000000 1.656460 
# 
# From -- ./inp_files/18810.got.cif
#   From: 2010.05.17/outbox.cif.g08.bks.cpg/sg38_10_cif.got.tgz:18810.got - 2010.06.03 18:07:57.
