data_PCOD9356071
_publ_section_title
;
Structure prediction by ZEFSAII (Michael W. Deem and Ramdas Pophale) SiO2 
 PCOD9356071
Probable space group: A M M 2
;
_chemical_formula_sum "Si O2"
_cell_formula_units_Z 64
_cell_length_a 20.071646
_cell_length_b 8.989375
_cell_length_c 21.081720
_cell_angle_alpha 90.000000
_cell_angle_beta 90.000000
_cell_angle_gamma 90.000000
_cell_volume 3803.807474
_symmetry_space_group_name_H-M "A M M 2"
_symmetry_group_IT_number 38
_symmetry_cell_setting 'orthorhombic'
loop_
_space_group_symop_operation_xyz
x,y,z
-x,-y,z
-x,y,z
x,-y,z
x,1/2+y,1/2+z
-x,1/2-y,1/2+z
-x,1/2+y,1/2+z
x,1/2-y,1/2+z
loop_
_atom_site_type_symbol
_atom_site_label
_atom_site_fract_x
_atom_site_fract_y
_atom_site_fract_z
Si Si1 0.290354 0.178682 0.168960
Si Si2 0.149471 0.818993 0.118478
Si Si3 0.427122 0.325526 0.165255
Si Si4 0.710536 0.677420 0.818681
Si Si5 0.079171 0.676383 0.749425
Si Si6 0.573595 0.174621 0.819009
Si Si7 0.842829 0.178144 0.864750
Si Si8 0.922977 0.318455 0.490413
O O1 0.225535 0.229572 0.130190
O O2 0.360329 0.242795 0.144784
O O3 0.281210 0.218869 0.243663
O O4 0.293421 0.000000 0.166767
O O5 0.107342 0.778758 0.180804
O O6 0.150344 0.000000 0.116211
O O7 0.114174 0.767716 0.054278
O O8 0.500000 0.269404 0.143438
O O9 0.422621 0.500000 0.149528
O O10 0.427571 0.314887 0.242142
O O11 0.714834 0.500000 0.822740
O O12 0.637783 0.733558 0.839866
O O13 0.769736 0.752406 0.857572
O O14 0.094226 0.500000 0.757707
O O15 0.115028 0.766167 0.804623
O O16 0.000000 0.695562 0.751696
O O17 0.500000 0.223749 0.841284
O O18 0.581622 0.000000 0.834486
O O19 0.881624 0.225628 0.928306
O O20 0.838054 0.000000 0.864479
O O21 0.924042 0.500000 0.491476
O O22 0.000000 0.269570 0.488074
#
# Coordination Sequence:
#
# PCOD9356071 Si02
#       8
#     8   8   8   8   8   8   8   8
#     4   9  16  26  43  67  94 120 153 198 237 275
#     4   9  16  30  49  71  96 122 158 201 242 285
#     4   8  14  24  38  59  91 128 159 185 222 278
#     4  10  18  29  45  68  98 129 165 202 240 289
#     4  10  19  32  52  74  95 122 156 195 244 298
#     4   8  14  25  41  64  96 131 163 195 238 289
#     4  11  21  32  48  71  99 128 160 201 248 293
#     4   9  18  32  50  71  94 123 161 204 246 291
#
# _framework density 16.825247000000001
#
# number of rings (size 3 to 8) (size 9 to 14) (size 15 to 20)
#    0.000    2.750    1.250    2.250    0.000    3.250 
#    0.000    2.500    0.000    3.000    0.000    0.875 
#    0.000    3.000    0.000    0.000    0.000    0.000 
#
# Total GULP energy -178282.174496 kJ/mol
# GULP energy per Si atom -5571.317953 kJ/mol
# Density = 1.678695 g / cm^3
# Si number density = 16.825247 Si / 1000 Ang^3
#
#
#
# Elastic Constant Matrix: (Units=GPa)
#
#
# Indices 1 2 3 4 5 6 
#
# 1 179.4226 49.0783 71.3326 0.0000 0.0000 0.0000
# 2 49.0783 23.6826 25.0233 0.0000 0.0000 0.0000
# 3 71.3326 25.0233 90.3900 0.0000 0.0000 0.0000
# 4 0.0000 0.0000 0.0000 12.3063 0.0000 0.0000
# 5 0.0000 0.0000 0.0000 0.0000 18.5437 0.0000
# 6 0.0000 0.0000 0.0000 0.0000 0.0000 29.5596
#
#
#
# Elastic Compliance Matrix: (Units=1/GPa)
#
#
# Indices 1 2 3 4 5 6 
#
# 1 0.013931 -0.024386 -0.004243 0.000000 0.000000 0.000000
# 2 -0.024386 0.102371 -0.009096 0.000000 0.000000 0.000000
# 3 -0.004243 -0.009096 0.016929 0.000000 0.000000 0.000000
# 4 0.000000 0.000000 0.000000 0.081259 0.000000 0.000000
# 5 0.000000 0.000000 0.000000 0.000000 0.053927 0.000000
# 6 0.000000 0.000000 0.000000 0.000000 0.000000 0.033830
#
#
# Mechanical properties :
#
#
# Convention : Reuss Voigt Hill
#
# Bulk Modulus (GPa) = 17.30617 64.92928 41.11772
# Shear Modulus (GPa) = 12.59584 21.95266 17.27425
#
# Velocity S-wave (km/s) = 2.73907 3.61604 3.20767
# Velocity P-wave (km/s) = 4.50683 7.49056 6.18143
#
# Compressibility (1/GPa) = 0.05778288
#
# Stress axis : x y z
#
# Youngs Moduli (GPa) = 71.78467 9.76835 59.06936
#
# Poissons Ratio (x) = 0.23821 0.25060
# Poissons Ratio (y) = 1.75054 0.53727
# Poissons Ratio (z) = 0.30455 0.08885
#
# Static dielectric constant tensor:
#      x y z
#    x 1.589890 0.000000 0.000000 
#    y 0.000000 1.563940 0.000000 
#    z 0.000000 0.000000 1.549980 
# 
# From -- ./inp_files/18908.got.cif
#   From: 2010.05.17/outbox.cif.g08.bks.cpg/sg38_10_cif.got.tgz:18908.got - 2010.06.03 18:07:57.
