data_PCOD9356529
_publ_section_title
;
Structure prediction by ZEFSAII (Michael W. Deem and Ramdas Pophale) SiO2 
 PCOD9356529
Probable space group: A M M 2
;
_chemical_formula_sum "Si O2"
_cell_formula_units_Z 64
_cell_length_a 9.353647
_cell_length_b 33.614649
_cell_length_c 11.948075
_cell_angle_alpha 90.000000
_cell_angle_beta 90.000000
_cell_angle_gamma 90.000000
_cell_volume 3756.708494
_symmetry_space_group_name_H-M "A M M 2"
_symmetry_group_IT_number 38
_symmetry_cell_setting 'orthorhombic'
loop_
_space_group_symop_operation_xyz
x,y,z
-x,-y,z
-x,y,z
x,-y,z
x,1/2+y,1/2+z
-x,1/2-y,1/2+z
-x,1/2+y,1/2+z
x,1/2-y,1/2+z
loop_
_atom_site_type_symbol
_atom_site_label
_atom_site_fract_x
_atom_site_fract_y
_atom_site_fract_z
Si Si1 0.333585 0.325367 0.070840
Si Si2 0.166495 0.454748 0.962692
Si Si3 0.832599 0.819755 0.980369
Si Si4 0.671076 0.544986 0.197957
Si Si5 0.332376 0.314103 0.712731
Si Si6 0.339554 0.111687 0.368903
Si Si7 0.167019 0.729760 0.909743
Si Si8 0.671672 0.871033 0.801064
O O1 0.500000 0.312152 0.073013
O O2 0.296910 0.344163 0.190690
O O3 0.324637 0.360820 0.979535
O O4 0.234330 0.290828 0.020670
O O5 0.186299 0.500000 0.923755
O O6 0.252641 0.450282 0.078518
O O7 0.000000 0.448175 0.985156
O O8 0.226017 0.423006 0.876005
O O9 0.749823 0.814315 0.096587
O O10 0.000000 0.828588 0.998726
O O11 0.823269 0.777078 0.919058
O O12 0.756912 0.852790 0.904262
O O13 0.500000 0.547050 0.180769
O O14 0.704498 0.500000 0.239715
O O15 0.708981 0.583006 0.273701
O O16 0.500000 0.303606 0.701161
O O17 0.324800 0.358156 0.766475
O O18 0.256227 0.285949 0.803849
O O19 0.500000 0.094899 0.369802
O O20 0.000000 0.718378 0.899806
O O21 0.500000 0.868854 0.819515
#
# Coordination Sequence:
#
# PCOD9356529 Si02
#       8
#     8   8   8   8   8   8   8   8
#     4   9  18  33  53  80 108 138 181 222 261 316
#     4  10  19  28  44  77 114 143 173 211 261 322
#     4  11  25  40  55  79 110 144 182 224 273 326
#     4   9  17  32  54  78 109 146 181 223 272 321
#     4  10  22  40  60  79 102 137 183 227 268 317
#     4   9  17  33  54  76 102 135 175 219 264 313
#     4  10  22  38  56  79 109 142 177 221 272 325
#     4  10  20  35  55  82 112 144 185 227 269 323
#
# _framework density 17.036190000000001
#
# number of rings (size 3 to 8) (size 9 to 14) (size 15 to 20)
#    0.000    2.250    1.250    2.250    1.750    6.250 
#    0.000    0.000    0.000    0.750    0.000    1.750 
#    0.000    0.000    0.000    0.000    0.000    0.000 
#
# Total GULP energy -178515.715831 kJ/mol
# GULP energy per Si atom -5578.616120 kJ/mol
# Density = 1.699741 g / cm^3
# Si number density = 17.036190 Si / 1000 Ang^3
#
#
#
# Elastic Constant Matrix: (Units=GPa)
#
#
# Indices 1 2 3 4 5 6 
#
# 1 80.6361 49.6745 45.5279 0.0000 0.0000 0.0000
# 2 49.6745 73.5677 27.0875 0.0000 0.0000 0.0000
# 3 45.5279 27.0875 78.4045 0.0000 0.0000 0.0000
# 4 0.0000 0.0000 0.0000 16.9495 0.0000 0.0000
# 5 0.0000 0.0000 0.0000 0.0000 16.7082 0.0000
# 6 0.0000 0.0000 0.0000 0.0000 0.0000 22.2394
#
#
#
# Elastic Compliance Matrix: (Units=1/GPa)
#
#
# Indices 1 2 3 4 5 6 
#
# 1 0.027584 -0.014583 -0.010979 0.000000 0.000000 0.000000
# 2 -0.014583 0.023283 0.000424 0.000000 0.000000 0.000000
# 3 -0.010979 0.000424 0.018983 0.000000 0.000000 0.000000
# 4 0.000000 0.000000 0.000000 0.058999 0.000000 0.000000
# 5 0.000000 0.000000 0.000000 0.000000 0.059851 0.000000
# 6 0.000000 0.000000 0.000000 0.000000 0.000000 0.044965
#
#
# Mechanical properties :
#
#
# Convention : Reuss Voigt Hill
#
# Bulk Modulus (GPa) = 51.08724 53.02091 52.05407
# Shear Modulus (GPa) = 17.21372 18.53401 17.87386
#
# Velocity S-wave (km/s) = 3.18216 3.30194 3.24260
# Velocity P-wave (km/s) = 6.59955 6.76219 6.68136
#
# Compressibility (1/GPa) = 0.01957436
#
# Stress axis : x y z
#
# Youngs Moduli (GPa) = 36.25320 42.94910 52.67758
#
# Poissons Ratio (x) = 0.62631 0.57836
# Poissons Ratio (y) = 0.52867 -0.02232
# Poissons Ratio (z) = 0.39803 -0.01820
#
# Static dielectric constant tensor:
#      x y z
#    x 1.573490 0.000000 0.000000 
#    y 0.000000 1.590580 0.000000 
#    z 0.000000 0.000000 1.551430 
# 
# From -- ./inp_files/8616.got.cif
#   From: 2010.05.17/outbox.cif.g08.bks.cpg/sg38_5_cif.got.tgz:8616.got - 2010.06.03 18:07:57.
