data_PCOD9356782
_publ_section_title
;
Structure prediction by ZEFSAII (Michael W. Deem and Ramdas Pophale) SiO2 
 PCOD9356782
Probable space group: A M M 2
;
_chemical_formula_sum "Si O2"
_cell_formula_units_Z 64
_cell_length_a 15.384440
_cell_length_b 7.443152
_cell_length_c 25.574545
_cell_angle_alpha 90.000000
_cell_angle_beta 90.000000
_cell_angle_gamma 90.000000
_cell_volume 2928.508549
_symmetry_space_group_name_H-M "A M M 2"
_symmetry_group_IT_number 38
_symmetry_cell_setting 'orthorhombic'
loop_
_space_group_symop_operation_xyz
x,y,z
-x,-y,z
-x,y,z
x,-y,z
x,1/2+y,1/2+z
-x,1/2-y,1/2+z
-x,1/2+y,1/2+z
x,1/2-y,1/2+z
loop_
_atom_site_type_symbol
_atom_site_label
_atom_site_fract_x
_atom_site_fract_y
_atom_site_fract_z
Si Si1 0.720194 0.715011 0.507970
Si Si2 0.669414 0.784753 0.696548
Si Si3 0.906223 0.785469 0.547378
Si Si4 0.591610 0.212275 0.092308
Si Si5 0.398580 0.280222 0.411100
Si Si6 0.905619 0.781208 0.780021
Si Si7 0.287243 0.219425 0.810600
Si Si8 0.859440 0.281280 0.163360
O O1 0.715071 0.500000 0.506294
O O2 0.822349 0.751591 0.511856
O O3 0.673716 0.785146 0.560735
O O4 0.660848 0.778779 0.459985
O O5 0.598732 0.735278 0.654180
O O6 0.668247 0.722316 0.756097
O O7 0.760038 0.724417 0.671020
O O8 0.671792 0.000000 0.699028
O O9 0.892768 0.717695 0.607172
O O10 0.000000 0.720388 0.527721
O O11 0.910508 0.000000 0.551728
O O12 0.500000 0.287192 0.072891
O O13 0.590545 0.000000 0.082275
O O14 0.500000 0.223441 0.412835
O O15 0.400558 0.500000 0.411455
O O16 0.345533 0.223918 0.359366
O O17 0.814737 0.724098 0.807083
O O18 0.902210 0.728395 0.718533
O O19 0.000000 0.724452 0.801613
O O20 0.903867 0.000000 0.781083
O O21 0.285738 0.000000 0.811523
O O22 0.864063 0.500000 0.162503
#
# Coordination Sequence:
#
# PCOD9356782 Si02
#       8
#     8   8   8   8   8   8   8   8
#     4  10  20  34  51  70  96 130 169 210 245 282
#     4   9  16  28  47  72 101 127 154 197 248 295
#     4  10  19  31  50  74 100 132 166 198 241 296
#     4  10  20  32  46  67  96 131 167 200 243 300
#     4   9  17  31  50  68  89 125 171 211 247 291
#     4   8  12  19  34  59  93 127 153 182 229 287
#     4   8  15  26  43  70  98 122 156 202 248 292
#     4   8  13  23  40  64  94 126 157 187 223 277
#
# _framework density 21.854129
#
# number of rings (size 3 to 8) (size 9 to 14) (size 15 to 20)
#    0.000    3.000    1.250    2.250    0.000    4.000 
#    0.000    1.875    0.000    4.125    0.000    0.000 
#    0.000    0.000    0.000    0.000    0.000    0.000 
#
# Total GULP energy -178361.213315 kJ/mol
# GULP energy per Si atom -5573.787916 kJ/mol
# Density = 2.180439 g / cm^3
# Si number density = 21.854129 Si / 1000 Ang^3
#
#
#
# Elastic Constant Matrix: (Units=GPa)
#
#
# Indices 1 2 3 4 5 6 
#
# 1 205.9569 5.6631 98.3814 0.0000 0.0000 0.0000
# 2 5.6631 63.9770 3.9219 0.0000 0.0000 0.0000
# 3 98.3814 3.9219 124.4296 0.0000 0.0000 0.0000
# 4 0.0000 0.0000 0.0000 5.2899 0.0000 0.0000
# 5 0.0000 0.0000 0.0000 0.0000 21.2323 0.0000
# 6 0.0000 0.0000 0.0000 0.0000 0.0000 7.3589
#
#
#
# Elastic Compliance Matrix: (Units=1/GPa)
#
#
# Indices 1 2 3 4 5 6 
#
# 1 0.007808 -0.000313 -0.006164 0.000000 0.000000 0.000000
# 2 -0.000313 0.015673 -0.000246 0.000000 0.000000 0.000000
# 3 -0.006164 -0.000246 0.012918 0.000000 0.000000 0.000000
# 4 0.000000 0.000000 0.000000 0.189038 0.000000 0.000000
# 5 0.000000 0.000000 0.000000 0.000000 0.047098 0.000000
# 6 0.000000 0.000000 0.000000 0.000000 0.000000 0.135890
#
#
# Mechanical properties :
#
#
# Convention : Reuss Voigt Hill
#
# Bulk Modulus (GPa) = 43.56763 67.81069 55.68916
# Shear Modulus (GPa) = 11.64080 25.86936 18.75508
#
# Velocity S-wave (km/s) = 2.31044 3.44427 2.93267
# Velocity P-wave (km/s) = 5.20543 6.84934 6.08317
#
# Compressibility (1/GPa) = 0.02295282
#
# Stress axis : x y z
#
# Youngs Moduli (GPa) = 128.06799 63.80213 77.41167
#
# Poissons Ratio (x) = 0.01999 0.47716
# Poissons Ratio (y) = 0.04013 0.01906
# Poissons Ratio (z) = 0.78939 0.01571
#
# Static dielectric constant tensor:
#      x y z
#    x 1.844140 0.000000 0.000000 
#    y 0.000000 1.877380 0.000000 
#    z 0.000000 0.000000 1.782290 
# 
# From -- ./inp_files/22999.got.cif
#   From: 2010.05.17/outbox.cif.g08.bks.cpg/sg38_12_cif.got.tgz:22999.got - 2010.06.03 18:07:57.
