data_PCOD9356411
_publ_section_title
;
Structure prediction by ZEFSAII (Michael W. Deem and Ramdas Pophale) SiO2 
 PCOD9356411
Probable space group: A M M 2
;
_chemical_formula_sum "Si O2"
_cell_formula_units_Z 56
_cell_length_a 8.722141
_cell_length_b 19.498358
_cell_length_c 18.108425
_cell_angle_alpha 90.000000
_cell_angle_beta 90.000000
_cell_angle_gamma 90.000000
_cell_volume 3079.653260
_symmetry_space_group_name_H-M "A M M 2"
_symmetry_group_IT_number 38
_symmetry_cell_setting 'orthorhombic'
loop_
_space_group_symop_operation_xyz
x,y,z
-x,-y,z
-x,y,z
x,-y,z
x,1/2+y,1/2+z
-x,1/2-y,1/2+z
-x,1/2+y,1/2+z
x,1/2-y,1/2+z
loop_
_atom_site_type_symbol
_atom_site_label
_atom_site_fract_x
_atom_site_fract_y
_atom_site_fract_z
Si Si1 0.678064 0.814881 0.814320
Si Si2 0.685022 0.211650 0.431853
Si Si3 0.314717 0.421768 0.019809
Si Si4 0.178316 0.424048 0.587682
Si Si5 0.827140 0.078044 0.909930
Si Si6 0.820997 0.346787 0.159324
Si Si7 0.319752 0.282291 0.585162
O O1 0.500000 0.804294 0.795972
O O2 0.739687 0.745829 0.855247
O O3 0.700786 0.873336 0.875714
O O4 0.761663 0.844156 0.742681
O O5 0.500000 0.207872 0.425441
O O6 0.738357 0.137044 0.461343
O O7 0.716508 0.264273 0.499494
O O8 0.500000 0.420477 0.018783
O O9 0.264835 0.500000 0.004640
O O10 0.261808 0.397199 0.101070
O O11 0.227990 0.500000 0.612744
O O12 0.181303 0.424308 0.498377
O O13 0.279949 0.359216 0.608312
O O14 0.000000 0.414253 0.609241
O O15 0.000000 0.102424 0.890477
O O16 0.810841 0.000000 0.883094
O O17 0.781921 0.270883 0.130055
O O18 0.000000 0.361384 0.157009
O O19 0.500000 0.267677 0.595977
#
# Coordination Sequence:
#
# PCOD9356411 Si02
#       7
#     8   8   8   8   8   8   8
#     4  11  20  33  51  74 104 139 177 218 262 314
#     4   8  16  30  51  78 102 128 167 216 265 308
#     4   9  18  36  60  83 107 136 173 219 272 328
#     4   9  17  29  47  73 104 135 165 201 249 301
#     4   9  18  31  46  69 103 137 168 202 241 293
#     4  11  23  36  51  74 104 140 177 217 267 319
#     4  10  18  33  53  75 100 130 173 220 260 308
#
# _framework density 18.183864
#
# number of rings (size 3 to 8) (size 9 to 14) (size 15 to 20)
#    0.000    2.429    1.429    3.857    0.000    1.429 
#    0.000    2.143    0.000    0.857    0.000    2.000 
#    0.000    0.000    0.000    0.000    0.000    0.000 
#
# Total GULP energy -155934.580705 kJ/mol
# GULP energy per Si atom -5569.092168 kJ/mol
# Density = 1.814248 g / cm^3
# Si number density = 18.183864 Si / 1000 Ang^3
#
#
#
# Elastic Constant Matrix: (Units=GPa)
#
#
# Indices 1 2 3 4 5 6 
#
# 1 19.9408 6.7537 -0.3457 0.0000 0.0000 0.0000
# 2 6.7537 96.1514 -2.8194 0.0000 0.0000 0.0000
# 3 -0.3457 -2.8194 13.0118 0.0000 0.0000 0.0000
# 4 0.0000 0.0000 0.0000 9.7523 0.0000 0.0000
# 5 0.0000 0.0000 0.0000 0.0000 11.8630 0.0000
# 6 0.0000 0.0000 0.0000 0.0000 0.0000 22.8373
#
#
#
# Elastic Compliance Matrix: (Units=1/GPa)
#
#
# Indices 1 2 3 4 5 6 
#
# 1 0.051375 -0.003591 0.000587 0.000000 0.000000 0.000000
# 2 -0.003591 0.010718 0.002227 0.000000 0.000000 0.000000
# 3 0.000587 0.002227 0.077352 0.000000 0.000000 0.000000
# 4 0.000000 0.000000 0.000000 0.102540 0.000000 0.000000
# 5 0.000000 0.000000 0.000000 0.000000 0.084296 0.000000
# 6 0.000000 0.000000 0.000000 0.000000 0.000000 0.043788
#
#
# Mechanical properties :
#
#
# Convention : Reuss Voigt Hill
#
# Bulk Modulus (GPa) = 7.25220 15.14235 11.19727
# Shear Modulus (GPa) = 11.97358 17.25822 14.61590
#
# Velocity S-wave (km/s) = 2.56886 3.08408 2.83818
# Velocity P-wave (km/s) = 3.57710 4.58558 4.11237
#
# Compressibility (1/GPa) = 0.13788924
#
# Stress axis : x y z
#
# Youngs Moduli (GPa) = 19.46475 93.30259 12.92799
#
# Poissons Ratio (x) = 0.33508 -0.00759
# Poissons Ratio (y) = 0.06990 -0.02879
# Poissons Ratio (z) = -0.01142 -0.20778
#
# Static dielectric constant tensor:
#      x y z
#    x 1.640780 0.000000 0.000000 
#    y 0.000000 1.662420 0.000000 
#    z 0.000000 0.000000 1.649580 
# 
# From -- ./inp_files/17086.got.cif
#   From: 2010.05.17/outbox.cif.g08.bks.cpg/sg38_9_cif.got.tgz:17086.got - 2010.06.03 18:07:57.
