data_PCOD9356487
_publ_section_title
;
Structure prediction by ZEFSAII (Michael W. Deem and Ramdas Pophale) SiO2 
 PCOD9356487
Probable space group: A M M 2
;
_chemical_formula_sum "Si O2"
_cell_formula_units_Z 36
_cell_length_a 16.001018
_cell_length_b 7.583525
_cell_length_c 16.566669
_cell_angle_alpha 90.000000
_cell_angle_beta 90.000000
_cell_angle_gamma 90.000000
_cell_volume 2010.267872
_symmetry_space_group_name_H-M "A M M 2"
_symmetry_group_IT_number 38
_symmetry_cell_setting 'orthorhombic'
loop_
_space_group_symop_operation_xyz
x,y,z
-x,-y,z
-x,y,z
x,-y,z
x,1/2+y,1/2+z
-x,1/2-y,1/2+z
-x,1/2+y,1/2+z
x,1/2-y,1/2+z
loop_
_atom_site_type_symbol
_atom_site_label
_atom_site_fract_x
_atom_site_fract_y
_atom_site_fract_z
Si Si1 0.841526 0.000000 0.182460
Si Si2 0.315994 0.208592 0.428016
Si Si3 0.500000 0.294424 0.935154
Si Si4 0.000000 0.794534 0.430157
Si Si5 0.316508 0.500000 0.567410
Si Si6 0.500000 0.500000 0.571316
Si Si7 0.000000 0.000000 0.065734
Si Si8 0.841827 0.295268 0.317475
O O1 0.756698 0.000000 0.131597
O O2 0.845538 0.830943 0.240623
O O3 0.918673 0.000000 0.121428
O O4 0.410370 0.238653 0.393837
O O5 0.309111 0.331231 0.507388
O O6 0.244026 0.261346 0.365952
O O7 0.307539 0.000000 0.446372
O O8 0.500000 0.500000 0.958210
O O9 0.500000 0.169792 0.012864
O O10 0.918420 0.752591 0.376649
O O11 0.000000 0.669226 0.507467
O O12 0.000000 0.000000 0.451748
O O13 0.408101 0.500000 0.609775
O O14 0.847871 0.500000 0.295624
#
# Coordination Sequence:
#
# PCOD9356487 Si02
#       8
#     4   8   4   4   4   2   2   8
#     4  12  26  40  58  90 129 154 190 242 301 356
#     4  10  18  35  61  88 116 157 204 247 290 346
#     4   8  16  28  53  89 115 143 202 257 284 326
#     4  12  23  43  71  91 110 151 200 244 289 350
#     4  10  20  36  60  88 120 154 204 248 290 350
#     4   8  16  32  54  82 118 158 188 244 304 336
#     4  12  26  42  66  94 118 148 200 244 288 356
#     4  12  23  40  62  87 121 160 193 239 299 352
#
# _framework density 17.908062000000001
#
# number of rings (size 3 to 8) (size 9 to 14) (size 15 to 20)
#    0.000    1.333    4.444    2.000    0.000    1.778 
#    0.000    1.111    0.000    0.000    0.000    0.000 
#    0.000    0.000    0.000    0.000    0.000    0.000 
#
# Total GULP energy -100440.552778 kJ/mol
# GULP energy per Si atom -5580.030710 kJ/mol
# Density = 1.786730 g / cm^3
# Si number density = 17.908062 Si / 1000 Ang^3
#
#
#
# Elastic Constant Matrix: (Units=GPa)
#
#
# Indices 1 2 3 4 5 6 
#
# 1 196.6608 58.2560 85.7777 0.0000 0.0000 0.0000
# 2 58.2560 163.5393 64.9999 0.0000 0.0000 0.0000
# 3 85.7777 64.9999 104.1601 0.0000 0.0000 0.0000
# 4 0.0000 0.0000 0.0000 35.8220 0.0000 0.0000
# 5 0.0000 0.0000 0.0000 0.0000 -28.4259 0.0000
# 6 0.0000 0.0000 0.0000 0.0000 0.0000 23.0250
#
#
#
# Elastic Compliance Matrix: (Units=1/GPa)
#
#
# Indices 1 2 3 4 5 6 
#
# 1 0.007947 -0.000305 -0.006354 0.000000 0.000000 0.000000
# 2 -0.000305 0.008143 -0.004830 0.000000 0.000000 0.000000
# 3 -0.006354 -0.004830 0.017847 0.000000 0.000000 0.000000
# 4 0.000000 0.000000 0.000000 0.027916 0.000000 0.000000
# 5 0.000000 0.000000 0.000000 0.000000 -0.035179 0.000000
# 6 0.000000 0.000000 0.000000 0.000000 0.000000 0.043431
#
#
# Mechanical properties :
#
#
# Convention : Reuss Voigt Hill
#
# Bulk Modulus (GPa) = 91.25241 98.04748 94.64994
# Shear Modulus (GPa) = 51.68698 23.10598 37.39648
#
# Velocity S-wave (km/s) = 5.37820 3.59591 4.57469
# Velocity P-wave (km/s) = 9.46749 8.49177 8.99287
#
# Compressibility (1/GPa) = 0.01095861
#
# Stress axis : x y z
#
# Youngs Moduli (GPa) = 125.83961 122.79947 56.03152
#
# Poissons Ratio (x) = 0.03751 0.35600
# Poissons Ratio (y) = 0.03844 0.27064
# Poissons Ratio (z) = 0.79953 0.59315
#
# Static dielectric constant tensor:
#      x y z
#    x 1.647060 0.000000 0.000000 
#    y 0.000000 1.611780 0.000000 
#    z 0.000000 0.000000 1.553250 
# 
# From -- ./inp_files/14254.got.cif
#   From: 2010.05.17/outbox.cif.g08.bks.cpg/sg38_8_cif.got.tgz:14254.got - 2010.06.03 18:07:57.
