data_PCOD9356653
_publ_section_title
;
Structure prediction by ZEFSAII (Michael W. Deem and Ramdas Pophale) SiO2 
 PCOD9356653
Probable space group: A M M 2
;
_chemical_formula_sum "Si O2"
_cell_formula_units_Z 56
_cell_length_a 17.949706
_cell_length_b 20.886158
_cell_length_c 8.134845
_cell_angle_alpha 90.000000
_cell_angle_beta 90.000000
_cell_angle_gamma 90.000000
_cell_volume 3049.756608
_symmetry_space_group_name_H-M "A M M 2"
_symmetry_group_IT_number 38
_symmetry_cell_setting 'orthorhombic'
loop_
_space_group_symop_operation_xyz
x,y,z
-x,-y,z
-x,y,z
x,-y,z
x,1/2+y,1/2+z
-x,1/2-y,1/2+z
-x,1/2+y,1/2+z
x,1/2-y,1/2+z
loop_
_atom_site_type_symbol
_atom_site_label
_atom_site_fract_x
_atom_site_fract_y
_atom_site_fract_z
Si Si1 0.741857 0.179860 0.809780
Si Si2 0.641745 0.075673 0.205663
Si Si3 0.587469 0.427910 0.051183
Si Si4 0.202278 0.925591 0.041983
Si Si5 0.164889 0.717527 0.014879
Si Si6 0.087925 0.830328 0.205713
Si Si7 0.584841 0.151102 0.887291
O O1 0.773714 0.182901 0.627003
O O2 0.655838 0.195795 0.849920
O O3 0.762976 0.110907 0.885118
O O4 0.789293 0.232001 0.907232
O O5 0.624484 0.101045 0.388078
O O6 0.729797 0.079166 0.171682
O O7 0.619741 0.000000 0.197764
O O8 0.601063 0.113882 0.058242
O O9 0.500000 0.430470 0.010940
O O10 0.616972 0.500000 0.069512
O O11 0.591950 0.394670 0.227500
O O12 0.132618 0.885121 0.107651
O O13 0.185928 0.000000 0.012519
O O14 0.109743 0.761796 0.123764
O O15 0.119017 0.673101 0.891433
O O16 0.000000 0.839743 0.200387
O O17 0.500000 0.176699 0.890382
#
# Coordination Sequence:
#
# PCOD9356653 Si02
#       7
#     8   8   8   8   8   8   8
#     4   9  19  36  56  76 105 141 183 231 273 318
#     4   9  17  30  47  68 101 143 184 224 261 316
#     4   9  17  27  42  68  99 136 182 226 268 313
#     4   9  19  34  52  80 111 143 175 205 270 343
#     4   9  19  36  57  80 102 137 184 234 269 308
#     4  10  19  33  57  83 107 134 173 225 271 319
#     4  10  19  30  47  73 104 139 180 229 283 328
#
# _framework density 18.362120999999998
#
# number of rings (size 3 to 8) (size 9 to 14) (size 15 to 20)
#    0.000    2.714    0.000    1.286    2.000    2.286 
#    0.000    2.143    0.000    0.000    0.000    0.000 
#    0.000    0.000    0.000    0.000    0.000    0.000 
#
# Total GULP energy -155943.880334 kJ/mol
# GULP energy per Si atom -5569.424298 kJ/mol
# Density = 1.832033 g / cm^3
# Si number density = 18.362121 Si / 1000 Ang^3
#
#
#
# Elastic Constant Matrix: (Units=GPa)
#
#
# Indices 1 2 3 4 5 6 
#
# 1 124.8994 21.2661 25.8459 0.0000 0.0000 0.0000
# 2 21.2661 36.1549 4.9095 0.0000 0.0000 0.0000
# 3 25.8459 4.9095 67.5833 0.0000 0.0000 0.0000
# 4 0.0000 0.0000 0.0000 2.7272 0.0000 0.0000
# 5 0.0000 0.0000 0.0000 0.0000 25.1669 0.0000
# 6 0.0000 0.0000 0.0000 0.0000 0.0000 13.0006
#
#
#
# Elastic Compliance Matrix: (Units=1/GPa)
#
#
# Indices 1 2 3 4 5 6 
#
# 1 0.009568 -0.005182 -0.003283 0.000000 0.000000 0.000000
# 2 -0.005182 0.030741 -0.000251 0.000000 0.000000 0.000000
# 3 -0.003283 -0.000251 0.016070 0.000000 0.000000 0.000000
# 4 0.000000 0.000000 0.000000 0.366683 0.000000 0.000000
# 5 0.000000 0.000000 0.000000 0.000000 0.039735 0.000000
# 6 0.000000 0.000000 0.000000 0.000000 0.000000 0.076920
#
#
# Mechanical properties :
#
#
# Convention : Reuss Voigt Hill
#
# Bulk Modulus (GPa) = 25.67589 36.96451 31.32020
# Shear Modulus (GPa) = 8.76991 19.95333 14.36162
#
# Velocity S-wave (km/s) = 2.18780 3.30002 2.79970
# Velocity P-wave (km/s) = 4.51612 5.89023 5.24834
#
# Compressibility (1/GPa) = 0.03894705
#
# Stress axis : x y z
#
# Youngs Moduli (GPa) = 104.51418 32.52984 62.22689
#
# Poissons Ratio (x) = 0.16857 0.20427
# Poissons Ratio (y) = 0.54161 0.01564
# Poissons Ratio (z) = 0.34309 0.00818
#
# Static dielectric constant tensor:
#      x y z
#    x 1.644200 0.000000 0.000000 
#    y 0.000000 1.645500 0.000000 
#    z 0.000000 0.000000 1.660470 
# 
# From -- ./inp_files/6431.got.cif
#   From: 2010.05.17/outbox.cif.g08.bks.cpg/sg38_4_cif.got.tgz:6431.got - 2010.06.03 18:07:57.
