data_PCOD9356611
_publ_section_title
;
Structure prediction by ZEFSAII (Michael W. Deem and Ramdas Pophale) SiO2 
 PCOD9356611
Probable space group: A M M 2
;
_chemical_formula_sum "Si O2"
_cell_formula_units_Z 64
_cell_length_a 7.907401
_cell_length_b 23.961901
_cell_length_c 19.809752
_cell_angle_alpha 90.000000
_cell_angle_beta 90.000000
_cell_angle_gamma 90.000000
_cell_volume 3753.479700
_symmetry_space_group_name_H-M "A M M 2"
_symmetry_group_IT_number 38
_symmetry_cell_setting 'orthorhombic'
loop_
_space_group_symop_operation_xyz
x,y,z
-x,-y,z
-x,y,z
x,-y,z
x,1/2+y,1/2+z
-x,1/2-y,1/2+z
-x,1/2+y,1/2+z
x,1/2-y,1/2+z
loop_
_atom_site_type_symbol
_atom_site_label
_atom_site_fract_x
_atom_site_fract_y
_atom_site_fract_z
Si Si1 0.295669 0.770480 0.962830
Si Si2 0.302594 0.379316 0.121647
Si Si3 0.200303 0.936477 0.484056
Si Si4 0.199448 0.562307 0.256389
Si Si5 0.704759 0.157775 0.385452
Si Si6 0.200806 0.671014 0.330768
Si Si7 0.300388 0.716659 0.755025
Si Si8 0.707686 0.250878 0.112184
O O1 0.500000 0.771974 0.961685
O O2 0.244233 0.709882 0.933192
O O3 0.233118 0.815891 0.909238
O O4 0.238897 0.773918 0.040233
O O5 0.500000 0.376608 0.139454
O O6 0.217272 0.415667 0.179882
O O7 0.238571 0.315666 0.117988
O O8 0.283296 0.407303 0.048783
O O9 0.234629 0.899002 0.418630
O O10 0.000000 0.937173 0.496636
O O11 0.260080 0.000000 0.476563
O O12 0.272629 0.500000 0.263407
O O13 0.267901 0.611768 0.304082
O O14 0.000000 0.558375 0.271376
O O15 0.500000 0.157161 0.384679
O O16 0.767960 0.173434 0.310558
O O17 0.280211 0.722036 0.288398
O O18 0.000000 0.673342 0.318248
O O19 0.500000 0.705440 0.749383
O O20 0.231887 0.719260 0.679232
O O21 0.500000 0.251187 0.112129
#
# Coordination Sequence:
#
# PCOD9356611 Si02
#       8
#     8   8   8   8   8   8   8   8
#     4   9  17  31  49  68  93 122 150 185 233 280
#     4  11  20  32  49  69  93 124 163 197 225 269
#     4  11  23  35  46  63  93 131 163 194 234 272
#     4  10  21  35  47  63  94 131 162 194 233 272
#     4   9  17  30  48  70  91 118 156 194 229 273
#     4  10  19  30  45  68  92 120 158 194 228 269
#     4   9  17  31  50  69  93 120 148 187 236 282
#     4   9  16  29  49  71  94 122 151 181 228 283
#
# _framework density 17.050844000000001
#
# number of rings (size 3 to 8) (size 9 to 14) (size 15 to 20)
#    0.000    2.250    2.500    2.250    0.000    5.250 
#    0.000    0.625    0.000    0.000    0.000    0.875 
#    0.000    5.000    0.000    0.000    0.000    0.000 
#
# Total GULP energy -178459.164246 kJ/mol
# GULP energy per Si atom -5576.848883 kJ/mol
# Density = 1.701204 g / cm^3
# Si number density = 17.050844 Si / 1000 Ang^3
#
#
#
# Elastic Constant Matrix: (Units=GPa)
#
#
# Indices 1 2 3 4 5 6 
#
# 1 11.8541 -5.7077 -6.0537 0.0000 0.0000 0.0000
# 2 -5.7077 70.9466 43.3715 0.0000 0.0000 0.0000
# 3 -6.0537 43.3715 124.7822 0.0000 0.0000 0.0000
# 4 0.0000 0.0000 0.0000 15.1187 0.0000 0.0000
# 5 0.0000 0.0000 0.0000 0.0000 24.8230 0.0000
# 6 0.0000 0.0000 0.0000 0.0000 0.0000 15.9171
#
#
#
# Elastic Compliance Matrix: (Units=1/GPa)
#
#
# Indices 1 2 3 4 5 6 
#
# 1 0.088277 0.005694 0.002304 0.000000 0.000000 0.000000
# 2 0.005694 0.018265 -0.006072 0.000000 0.000000 0.000000
# 3 0.002304 -0.006072 0.010236 0.000000 0.000000 0.000000
# 4 0.000000 0.000000 0.000000 0.066143 0.000000 0.000000
# 5 0.000000 0.000000 0.000000 0.000000 0.040285 0.000000
# 6 0.000000 0.000000 0.000000 0.000000 0.000000 0.062826
#
#
# Mechanical properties :
#
#
# Convention : Reuss Voigt Hill
#
# Bulk Modulus (GPa) = 8.28991 30.08923 19.18957
# Shear Modulus (GPa) = 15.50905 22.90328 19.20616
#
# Velocity S-wave (km/s) = 3.01919 3.66899 3.35984
# Velocity P-wave (km/s) = 4.12631 5.96940 5.13129
#
# Compressibility (1/GPa) = 0.12062863
#
# Stress axis : x y z
#
# Youngs Moduli (GPa) = 11.32799 54.74832 97.69087
#
# Poissons Ratio (x) = -0.31172 -0.22505
# Poissons Ratio (y) = -0.06450 0.59322
# Poissons Ratio (z) = -0.02610 0.33246
#
# Static dielectric constant tensor:
#      x y z
#    x 1.601110 0.000000 0.000000 
#    y 0.000000 1.568200 0.000000 
#    z 0.000000 0.000000 1.591570 
# 
# From -- ./inp_files/20240.got.cif
#   From: 2010.05.17/outbox.cif.g08.bks.cpg/sg38_11_cif.got.tgz:20240.got - 2010.06.03 18:07:57.
