data_PCOD9356775
_publ_section_title
;
Structure prediction by ZEFSAII (Michael W. Deem and Ramdas Pophale) SiO2 
 PCOD9356775
Probable space group: A M M 2
;
_chemical_formula_sum "Si O2"
_cell_formula_units_Z 64
_cell_length_a 7.770144
_cell_length_b 30.122330
_cell_length_c 12.599100
_cell_angle_alpha 90.000000
_cell_angle_beta 90.000000
_cell_angle_gamma 90.000000
_cell_volume 2948.880356
_symmetry_space_group_name_H-M "A M M 2"
_symmetry_group_IT_number 38
_symmetry_cell_setting 'orthorhombic'
loop_
_space_group_symop_operation_xyz
x,y,z
-x,-y,z
-x,y,z
x,-y,z
x,1/2+y,1/2+z
-x,1/2-y,1/2+z
-x,1/2+y,1/2+z
x,1/2-y,1/2+z
loop_
_atom_site_type_symbol
_atom_site_label
_atom_site_fract_x
_atom_site_fract_y
_atom_site_fract_z
Si Si1 0.800173 0.452991 0.572590
Si Si2 0.201609 0.950233 0.544582
Si Si3 0.296027 0.167064 0.230945
Si Si4 0.297285 0.066487 0.305372
Si Si5 0.805839 0.277501 0.919918
Si Si6 0.696525 0.140479 0.002718
Si Si7 0.788290 0.650824 0.094153
Si Si8 0.196813 0.190641 0.816685
O O1 0.735858 0.500000 0.531449
O O2 0.785443 0.453217 0.700011
O O3 0.699330 0.411052 0.531539
O O4 0.000000 0.447688 0.544641
O O5 0.219024 0.947407 0.416854
O O6 0.269613 0.901109 0.582330
O O7 0.000000 0.950686 0.573503
O O8 0.271356 0.000000 0.575682
O O9 0.500000 0.178059 0.230369
O O10 0.278954 0.119087 0.285779
O O11 0.194750 0.200025 0.304659
O O12 0.236206 0.164256 0.109491
O O13 0.500000 0.055786 0.306476
O O14 0.723030 0.230171 0.889061
O O15 0.000000 0.268692 0.959466
O O16 0.732456 0.314788 0.000523
O O17 0.500000 0.153953 0.985612
O O18 0.800770 0.149950 0.897785
O O19 0.731665 0.673795 0.204635
O O20 0.000000 0.649009 0.090822
O O21 0.000000 0.204441 0.794446
#
# Coordination Sequence:
#
# PCOD9356775 Si02
#       8
#     8   8   8   8   8   8   8   8
#     4  10  20  34  55  83 113 149 194 239 286 340
#     4  10  19  32  53  78 108 151 196 237 289 348
#     4   9  19  34  52  78 112 146 180 222 276 338
#     4  10  19  31  49  78 117 153 184 229 288 346
#     4  10  20  34  59  86 109 144 185 233 291 341
#     4  10  22  39  57  81 116 152 189 233 284 340
#     4   9  19  37  55  81 117 144 186 247 292 341
#     4  10  22  38  59  83 111 148 193 240 288 347
#
# _framework density 21.703154000000001
#
# number of rings (size 3 to 8) (size 9 to 14) (size 15 to 20)
#    0.000    2.250    1.250    2.250    1.750    5.750 
#    0.000    1.875    0.000    2.250    0.000    0.000 
#    0.000    0.000    0.000    0.000    0.000    0.000 
#
# Total GULP energy -178309.305566 kJ/mol
# GULP energy per Si atom -5572.165799 kJ/mol
# Density = 2.165376 g / cm^3
# Si number density = 21.703154 Si / 1000 Ang^3
#
#
#
# Elastic Constant Matrix: (Units=GPa)
#
#
# Indices 1 2 3 4 5 6 
#
# 1 29.2987 16.8755 1.0403 0.0000 0.0000 0.0000
# 2 16.8755 132.7250 59.2702 0.0000 0.0000 0.0000
# 3 1.0403 59.2702 100.4937 0.0000 0.0000 0.0000
# 4 0.0000 0.0000 0.0000 28.7265 0.0000 0.0000
# 5 0.0000 0.0000 0.0000 0.0000 129.4567 0.0000
# 6 0.0000 0.0000 0.0000 0.0000 0.0000 27.0611
#
#
#
# Elastic Compliance Matrix: (Units=1/GPa)
#
#
# Indices 1 2 3 4 5 6 
#
# 1 0.037618 -0.006257 0.003301 0.000000 0.000000 0.000000
# 2 -0.006257 0.011269 -0.006582 0.000000 0.000000 0.000000
# 3 0.003301 -0.006582 0.013798 0.000000 0.000000 0.000000
# 4 0.000000 0.000000 0.000000 0.034811 0.000000 0.000000
# 5 0.000000 0.000000 0.000000 0.000000 0.007725 0.000000
# 6 0.000000 0.000000 0.000000 0.000000 0.000000 0.036953
#
#
# Mechanical properties :
#
#
# Convention : Reuss Voigt Hill
#
# Bulk Modulus (GPa) = 22.93052 46.32103 34.62577
# Shear Modulus (GPa) = 28.44357 49.40428 38.92393
#
# Velocity S-wave (km/s) = 3.62411 4.77630 4.23953
# Velocity P-wave (km/s) = 5.30101 7.19769 6.32090
#
# Compressibility (1/GPa) = 0.04361000
#
# Stress axis : x y z
#
# Youngs Moduli (GPa) = 26.58308 88.73863 72.47178
#
# Poissons Ratio (x) = 0.55524 -0.23923
# Poissons Ratio (y) = 0.16633 0.47698
# Poissons Ratio (z) = -0.08775 0.58404
#
# Static dielectric constant tensor:
#      x y z
#    x 1.792400 0.000000 0.000000 
#    y 0.000000 1.882200 0.000000 
#    z 0.000000 0.000000 1.749880 
# 
# From -- ./inp_files/8565.got.cif
#   From: 2010.05.17/outbox.cif.g08.bks.cpg/sg38_5_cif.got.tgz:8565.got - 2010.06.03 18:07:57.
