data_PCOD9356270
_publ_section_title
;
Structure prediction by ZEFSAII (Michael W. Deem and Ramdas Pophale) SiO2 
 PCOD9356270
Probable space group: A M M 2
;
_chemical_formula_sum "Si O2"
_cell_formula_units_Z 58
_cell_length_a 26.575341
_cell_length_b 7.628026
_cell_length_c 14.646292
_cell_angle_alpha 90.000000
_cell_angle_beta 90.000000
_cell_angle_gamma 90.000000
_cell_volume 2969.058118
_symmetry_space_group_name_H-M "A M M 2"
_symmetry_group_IT_number 38
_symmetry_cell_setting 'orthorhombic'
loop_
_space_group_symop_operation_xyz
x,y,z
-x,-y,z
-x,y,z
x,-y,z
x,1/2+y,1/2+z
-x,1/2-y,1/2+z
-x,1/2+y,1/2+z
x,1/2-y,1/2+z
loop_
_atom_site_type_symbol
_atom_site_label
_atom_site_fract_x
_atom_site_fract_y
_atom_site_fract_z
Si Si1 0.667156 0.291311 0.713080
Si Si2 0.751060 0.213869 0.070613
Si Si3 0.863557 0.295277 0.593877
Si Si4 0.944136 0.788211 0.446092
Si Si5 0.669588 0.290520 0.426978
Si Si6 0.944353 0.714060 0.734166
Si Si7 0.584645 0.805636 0.569340
Si Si8 0.500000 0.000000 0.067860
O O1 0.663079 0.500000 0.701363
O O2 0.717169 0.234904 0.657878
O O3 0.669174 0.251997 0.820156
O O4 0.619761 0.211973 0.659405
O O5 0.808063 0.279306 0.078001
O O6 0.752581 0.000000 0.067931
O O7 0.719942 0.269120 0.980635
O O8 0.856018 0.500000 0.616681
O O9 0.898796 0.282986 0.505467
O O10 0.898471 0.218468 0.673817
O O11 0.938955 0.739537 0.340094
O O12 0.000000 0.729967 0.477097
O O13 0.943044 0.000000 0.451449
O O14 0.666576 0.500000 0.436754
O O15 0.622468 0.215184 0.483178
O O16 0.944490 0.500000 0.729210
O O17 0.000000 0.772215 0.702834
O O18 0.543925 0.653502 0.568004
O O19 0.562547 0.000000 0.567192
#
# Coordination Sequence:
#
# PCOD9356270 Si02
#       8
#     8   8   8   8   8   8   8   2
#     4  10  19  37  61  86 116 153 200 245 289 351
#     4   8  18  33  51  79 112 145 178 233 294 342
#     4  10  18  31  51  75 102 133 178 229 282 329
#     4   9  18  32  47  66  96 135 173 220 284 345
#     4  10  19  37  60  84 117 157 201 243 287 350
#     4   8  15  28  46  66  92 132 178 219 270 342
#     4  11  22  40  66  92 125 168 202 241 303 346
#     4  12  22  44  64  94 136 162 198 256 290 338
#
# _framework density 19.534814000000001
#
# number of rings (size 3 to 8) (size 9 to 14) (size 15 to 20)
#    0.000    2.483    1.379    3.103    0.000    1.931 
#    0.000    6.897    0.000    0.828    0.000    0.000 
#    0.000    0.000    0.000    0.000    0.000    0.000 
#
# Total GULP energy -161554.431712 kJ/mol
# GULP energy per Si atom -5570.842473 kJ/mol
# Density = 1.949035 g / cm^3
# Si number density = 19.534814 Si / 1000 Ang^3
#
#
#
# Elastic Constant Matrix: (Units=GPa)
#
#
# Indices 1 2 3 4 5 6 
#
# 1 178.2649 32.7271 67.4531 0.0000 0.0000 0.0000
# 2 32.7271 89.2764 7.5528 0.0000 0.0000 0.0000
# 3 67.4531 7.5528 128.5114 0.0000 0.0000 0.0000
# 4 0.0000 0.0000 0.0000 15.0248 0.0000 0.0000
# 5 0.0000 0.0000 0.0000 0.0000 -9.7008 0.0000
# 6 0.0000 0.0000 0.0000 0.0000 0.0000 8.5449
#
#
#
# Elastic Compliance Matrix: (Units=1/GPa)
#
#
# Indices 1 2 3 4 5 6 
#
# 1 0.007488 -0.002425 -0.003788 0.000000 0.000000 0.000000
# 2 -0.002425 0.012042 0.000565 0.000000 0.000000 0.000000
# 3 -0.003788 0.000565 0.009736 0.000000 0.000000 0.000000
# 4 0.000000 0.000000 0.000000 0.066556 0.000000 0.000000
# 5 0.000000 0.000000 0.000000 0.000000 -0.103084 0.000000
# 6 0.000000 0.000000 0.000000 0.000000 0.000000 0.117028
#
#
# Mechanical properties :
#
#
# Convention : Reuss Voigt Hill
#
# Bulk Modulus (GPa) = 55.64348 67.94653 61.79500
# Shear Modulus (GPa) = 39.35374 21.99510 30.67442
#
# Velocity S-wave (km/s) = 4.49324 3.35915 3.96693
# Velocity P-wave (km/s) = 7.44748 7.06420 7.25837
#
# Compressibility (1/GPa) = 0.01797156
#
# Stress axis : x y z
#
# Youngs Moduli (GPa) = 133.54708 83.04157 102.70772
#
# Poissons Ratio (x) = 0.20133 0.38904
# Poissons Ratio (y) = 0.32379 -0.05801
# Poissons Ratio (z) = 0.50585 -0.04691
#
# Static dielectric constant tensor:
#      x y z
#    x 1.667890 0.000000 0.000000 
#    y 0.000000 1.721680 0.000000 
#    z 0.000000 0.000000 1.674160 
# 
# From -- ./inp_files/15718.got.cif
#   From: 2010.05.17/outbox.cif.g08.bks.cpg/sg38_8_cif.got.tgz:15718.got - 2010.06.03 18:07:57.
