data_PCOD9356382
_publ_section_title
;
Structure prediction by ZEFSAII (Michael W. Deem and Ramdas Pophale) SiO2 
 PCOD9356382
Probable space group: A M M 2
;
_chemical_formula_sum "Si O2"
_cell_formula_units_Z 64
_cell_length_a 8.583952
_cell_length_b 20.209270
_cell_length_c 21.268200
_cell_angle_alpha 90.000000
_cell_angle_beta 90.000000
_cell_angle_gamma 90.000000
_cell_volume 3689.509580
_symmetry_space_group_name_H-M "A M M 2"
_symmetry_group_IT_number 38
_symmetry_cell_setting 'orthorhombic'
loop_
_space_group_symop_operation_xyz
x,y,z
-x,-y,z
-x,y,z
x,-y,z
x,1/2+y,1/2+z
-x,1/2-y,1/2+z
-x,1/2+y,1/2+z
x,1/2-y,1/2+z
loop_
_atom_site_type_symbol
_atom_site_label
_atom_site_fract_x
_atom_site_fract_y
_atom_site_fract_z
Si Si1 0.810421 0.573043 0.591280
Si Si2 0.188406 0.712764 0.539827
Si Si3 0.188403 0.212895 0.286041
Si Si4 0.315704 0.209858 0.906333
Si Si5 0.813989 0.425230 0.358619
Si Si6 0.314920 0.075222 0.718183
Si Si7 0.810461 0.073055 0.238724
Si Si8 0.188077 0.204068 0.661822
O O1 0.758214 0.500000 0.569790
O O2 0.757485 0.637520 0.554039
O O3 0.769127 0.580742 0.665001
O O4 0.000000 0.572898 0.588660
O O5 0.250485 0.734801 0.472660
O O6 0.236273 0.758795 0.598220
O O7 0.000000 0.712189 0.538336
O O8 0.251275 0.248611 0.347587
O O9 0.241572 0.137014 0.277242
O O10 0.234020 0.253002 0.223104
O O11 0.000000 0.213751 0.288625
O O12 0.500000 0.212736 0.905921
O O13 0.261282 0.134025 0.896995
O O14 0.764601 0.500000 0.376171
O O15 0.768969 0.415452 0.285448
O O16 0.000000 0.421148 0.365228
O O17 0.500000 0.081552 0.728318
O O18 0.256984 0.131387 0.671240
O O19 0.282291 0.000000 0.697173
O O20 0.000000 0.073147 0.240410
O O21 0.758063 0.000000 0.259710
O O22 0.000000 0.200327 0.661891
#
# Coordination Sequence:
#
# PCOD9356382 Si02
#       8
#     8   8   8   8   8   8   8   8
#     4   8  13  24  46  76 106 133 163 200 245 300
#     4  10  20  35  53  77 107 141 180 222 261 309
#     4  10  18  32  55  81 106 137 176 222 266 314
#     4  12  25  37  50  74 108 148 183 220 269 322
#     4  10  20  35  55  77 103 139 182 224 265 314
#     4  10  20  33  52  80 111 140 172 216 270 326
#     4   8  13  24  48  82 111 131 160 209 263 309
#     4  10  19  32  55  82 106 137 180 226 268 311
#
# _framework density 17.346478999999999
#
# number of rings (size 3 to 8) (size 9 to 14) (size 15 to 20)
#    0.000    2.250    2.500    2.625    0.000    2.500 
#    0.000    1.250    0.000    1.125    0.000    3.500 
#    0.000    0.000    0.000    0.000    0.000    0.000 
#
# Total GULP energy -178517.656831 kJ/mol
# GULP energy per Si atom -5578.676776 kJ/mol
# Density = 1.730700 g / cm^3
# Si number density = 17.346479 Si / 1000 Ang^3
#
#
#
# Elastic Constant Matrix: (Units=GPa)
#
#
# Indices 1 2 3 4 5 6 
#
# 1 18.8592 24.6216 24.4832 0.0000 0.0000 0.0000
# 2 24.6216 111.3531 62.3478 0.0000 0.0000 0.0000
# 3 24.4832 62.3478 114.4476 0.0000 0.0000 0.0000
# 4 0.0000 0.0000 0.0000 21.5906 0.0000 0.0000
# 5 0.0000 0.0000 0.0000 0.0000 -57.3607 0.0000
# 6 0.0000 0.0000 0.0000 0.0000 0.0000 12.0675
#
#
#
# Elastic Compliance Matrix: (Units=1/GPa)
#
#
# Indices 1 2 3 4 5 6 
#
# 1 0.083498 -0.012175 -0.011230 0.000000 0.000000 0.000000
# 2 -0.012175 0.014697 -0.005402 0.000000 0.000000 0.000000
# 3 -0.011230 -0.005402 0.014083 0.000000 0.000000 0.000000
# 4 0.000000 0.000000 0.000000 0.046316 0.000000 0.000000
# 5 0.000000 0.000000 0.000000 0.000000 -0.017434 0.000000
# 6 0.000000 0.000000 0.000000 0.000000 0.000000 0.082867
#
#
# Mechanical properties :
#
#
# Convention : Reuss Voigt Hill
#
# Bulk Modulus (GPa) = 18.29344 51.95171 35.12257
# Shear Modulus (GPa) = 16.67430 4.13997 10.40714
#
# Velocity S-wave (km/s) = 3.10377 1.54655 2.45206
# Velocity P-wave (km/s) = 4.83873 5.76225 5.32057
#
# Compressibility (1/GPa) = 0.05466441
#
# Stress axis : x y z
#
# Youngs Moduli (GPa) = 11.97638 68.04049 71.00826
#
# Poissons Ratio (x) = 0.82838 0.79741
# Poissons Ratio (y) = 0.14581 0.38359
# Poissons Ratio (z) = 0.13449 0.36756
#
# Static dielectric constant tensor:
#      x y z
#    x 1.591700 0.000000 0.000000 
#    y 0.000000 1.612350 0.000000 
#    z 0.000000 0.000000 1.568780 
# 
# From -- ./inp_files/20250.got.cif
#   From: 2010.05.17/outbox.cif.g08.bks.cpg/sg38_11_cif.got.tgz:20250.got - 2010.06.03 18:07:57.
