data_PCOD9356299
_publ_section_title
;
Structure prediction by ZEFSAII (Michael W. Deem and Ramdas Pophale) SiO2 
 PCOD9356299
Probable space group: A M M 2
;
_chemical_formula_sum "Si O2"
_cell_formula_units_Z 64
_cell_length_a 15.124745
_cell_length_b 8.567127
_cell_length_c 25.424027
_cell_angle_alpha 90.000000
_cell_angle_beta 90.000000
_cell_angle_gamma 90.000000
_cell_volume 3294.333839
_symmetry_space_group_name_H-M "A M M 2"
_symmetry_group_IT_number 38
_symmetry_cell_setting 'orthorhombic'
loop_
_space_group_symop_operation_xyz
x,y,z
-x,-y,z
-x,y,z
x,-y,z
x,1/2+y,1/2+z
-x,1/2-y,1/2+z
-x,1/2+y,1/2+z
x,1/2-y,1/2+z
loop_
_atom_site_type_symbol
_atom_site_label
_atom_site_fract_x
_atom_site_fract_y
_atom_site_fract_z
Si Si1 0.161578 0.818259 0.271390
Si Si2 0.225259 0.312344 0.463293
Si Si3 0.400747 0.686383 0.919563
Si Si4 0.094178 0.186927 0.874106
Si Si5 0.654381 0.185059 0.807164
Si Si6 0.404460 0.187338 0.689706
Si Si7 0.896720 0.189296 0.557442
Si Si8 0.791009 0.687637 0.161280
O O1 0.097835 0.752742 0.315785
O O2 0.257242 0.781842 0.296576
O O3 0.161613 0.734198 0.215415
O O4 0.148175 0.000000 0.263524
O O5 0.228002 0.500000 0.464391
O O6 0.324143 0.247693 0.457971
O O7 0.174405 0.259402 0.410269
O O8 0.164896 0.252380 0.510766
O O9 0.500000 0.722780 0.938211
O O10 0.392367 0.500000 0.914277
O O11 0.388369 0.761954 0.861658
O O12 0.000000 0.228868 0.899393
O O13 0.099743 0.000000 0.870967
O O14 0.600667 0.208091 0.753034
O O15 0.675692 0.000000 0.810665
O O16 0.500000 0.249203 0.670984
O O17 0.311423 0.246381 0.665395
O O18 0.404662 0.000000 0.680941
O O19 0.848287 0.239705 0.611496
O O20 0.000000 0.239091 0.554504
O O21 0.896304 0.000000 0.555735
O O22 0.786006 0.500000 0.159373
#
# Coordination Sequence:
#
# PCOD9356299 Si02
#       8
#     8   8   8   8   8   8   8   8
#     4  11  21  33  53  83 120 157 192 239 297 349
#     4  11  23  40  63  87 115 152 197 248 299 354
#     4  11  23  37  56  86 122 158 197 242 292 346
#     4  10  21  37  57  82 113 151 192 236 295 365
#     4  10  18  31  52  79 114 158 202 239 284 345
#     4   8  14  26  48  78 109 143 188 237 280 332
#     4  10  22  41  64  87 113 151 199 252 308 361
#     4   9  19  36  57  81 112 152 198 244 295 356
#
# _framework density 19.427298
#
# number of rings (size 3 to 8) (size 9 to 14) (size 15 to 20)
#    0.000    2.000    1.250    3.750    0.000    4.000 
#    0.000    1.875    0.000    5.625    0.000    0.000 
#    0.000    0.000    0.000    0.000    0.000    0.000 
#
# Total GULP energy -178496.240458 kJ/mol
# GULP energy per Si atom -5578.007514 kJ/mol
# Density = 1.938308 g / cm^3
# Si number density = 19.427298 Si / 1000 Ang^3
#
#
#
# Elastic Constant Matrix: (Units=GPa)
#
#
# Indices 1 2 3 4 5 6 
#
# 1 120.8153 1.8284 57.7697 0.0000 0.0000 0.0000
# 2 1.8284 -8.2621 5.7718 0.0000 0.0000 0.0000
# 3 57.7697 5.7718 108.3912 0.0000 0.0000 0.0000
# 4 0.0000 0.0000 0.0000 25.1612 0.0000 0.0000
# 5 0.0000 0.0000 0.0000 0.0000 14.1409 0.0000
# 6 0.0000 0.0000 0.0000 0.0000 0.0000 15.5172
#
#
#
# Elastic Compliance Matrix: (Units=1/GPa)
#
#
# Indices 1 2 3 4 5 6 
#
# 1 0.011086 -0.001614 -0.005822 0.000000 0.000000 0.000000
# 2 -0.001614 -0.116458 0.007062 0.000000 0.000000 0.000000
# 3 -0.005822 0.007062 0.011953 0.000000 0.000000 0.000000
# 4 0.000000 0.000000 0.000000 0.039744 0.000000 0.000000
# 5 0.000000 0.000000 0.000000 0.000000 0.070717 0.000000
# 6 0.000000 0.000000 0.000000 0.000000 0.000000 0.064445
#
#
# Mechanical properties :
#
#
# Convention : Reuss Voigt Hill
#
# Bulk Modulus (GPa) = -10.61917 39.07602 14.22843
# Shear Modulus (GPa) = 98.33651 21.33547 59.83599
#
# Velocity S-wave (km/s) = 7.12233 3.31754 5.55579
# Velocity P-wave (km/s) = 7.88409 5.90190 6.96388
#
# Compressibility (1/GPa) = -0.09416935
#
# Stress axis : x y z
#
# Youngs Moduli (GPa) = 90.20717 -8.58677 83.66106
#
# Poissons Ratio (x) = -0.01386 0.48711
# Poissons Ratio (y) = 0.14561 -0.59079
# Poissons Ratio (z) = 0.52522 0.06064
#
# Static dielectric constant tensor:
#      x y z
#    x 1.738350 0.000000 0.000000 
#    y 0.000000 1.661330 0.000000 
#    z 0.000000 0.000000 1.667980 
# 
# From -- ./inp_files/22982.got.cif
#   From: 2010.05.17/outbox.cif.g08.bks.cpg/sg38_12_cif.got.tgz:22982.got - 2010.06.03 18:07:57.
