data_PCOD9356862
_publ_section_title
;
Structure prediction by ZEFSAII (Michael W. Deem and Ramdas Pophale) SiO2 
 PCOD9356862
Probable space group: A M M 2
;
_chemical_formula_sum "Si O2"
_cell_formula_units_Z 64
_cell_length_a 8.526469
_cell_length_b 31.233727
_cell_length_c 14.849597
_cell_angle_alpha 90.000000
_cell_angle_beta 90.000000
_cell_angle_gamma 90.000000
_cell_volume 3954.646740
_symmetry_space_group_name_H-M "A M M 2"
_symmetry_group_IT_number 38
_symmetry_cell_setting 'orthorhombic'
loop_
_space_group_symop_operation_xyz
x,y,z
-x,-y,z
-x,y,z
x,-y,z
x,1/2+y,1/2+z
-x,1/2-y,1/2+z
-x,1/2+y,1/2+z
x,1/2-y,1/2+z
loop_
_atom_site_type_symbol
_atom_site_label
_atom_site_fract_x
_atom_site_fract_y
_atom_site_fract_z
Si Si1 0.314580 0.793127 0.664050
Si Si2 0.189182 0.048172 0.070133
Si Si3 0.816948 0.867268 0.785338
Si Si4 0.814119 0.232589 0.474916
Si Si5 0.189636 0.135069 0.144783
Si Si6 0.188030 0.289309 0.773856
Si Si7 0.682160 0.674016 0.461390
Si Si8 0.312210 0.549148 0.368193
O O1 0.500000 0.790098 0.651432
O O2 0.271185 0.837123 0.714303
O O3 0.230465 0.790534 0.567365
O O4 0.261364 0.752424 0.725381
O O5 0.232415 0.084887 0.141571
O O6 0.000000 0.048223 0.062296
O O7 0.240265 0.000000 0.093778
O O8 0.255430 0.058267 0.970548
O O9 0.786374 0.844425 0.881165
O O10 0.755815 0.915404 0.800991
O O11 0.000000 0.867467 0.764121
O O12 0.780526 0.209306 0.380380
O O13 0.714616 0.275910 0.470614
O O14 0.000000 0.242998 0.476919
O O15 0.237504 0.166773 0.224930
O O16 0.000000 0.137637 0.138056
O O17 0.265705 0.153657 0.054793
O O18 0.000000 0.284708 0.762654
O O19 0.500000 0.665216 0.441689
O O20 0.500000 0.551627 0.366948
O O21 0.264871 0.500000 0.347904
#
# Coordination Sequence:
#
# PCOD9356862 Si02
#       8
#     8   8   8   8   8   8   8   8
#     4  12  24  36  53  76 103 134 174 221 263 308
#     4   9  17  29  47  72 103 138 173 210 256 310
#     4  12  23  36  53  74 103 142 180 215 257 314
#     4  11  22  37  53  71 101 139 177 216 261 310
#     4  10  19  32  50  73 102 139 178 213 254 310
#     4  10  21  35  53  73 100 137 176 214 259 314
#     4  12  22  31  48  75 105 137 175 217 258 302
#     4  10  20  33  50  75 107 137 169 213 261 310
#
# _framework density 16.183494
#
# number of rings (size 3 to 8) (size 9 to 14) (size 15 to 20)
#    0.000    1.250    3.750    4.125    0.000    1.250 
#    0.000    0.000    0.000    0.000    0.000    0.875 
#    0.000    3.000    0.000    0.000    0.000    0.000 
#
# Total GULP energy -178610.871454 kJ/mol
# GULP energy per Si atom -5581.589733 kJ/mol
# Density = 1.614666 g / cm^3
# Si number density = 16.183494 Si / 1000 Ang^3
#
#
#
# Elastic Constant Matrix: (Units=GPa)
#
#
# Indices 1 2 3 4 5 6 
#
# 1 26.8823 10.1301 13.8646 0.0000 0.0000 0.0000
# 2 10.1301 109.8091 40.8386 0.0000 0.0000 0.0000
# 3 13.8646 40.8386 80.2859 0.0000 0.0000 0.0000
# 4 0.0000 0.0000 0.0000 14.7317 0.0000 0.0000
# 5 0.0000 0.0000 0.0000 0.0000 -10.7497 0.0000
# 6 0.0000 0.0000 0.0000 0.0000 0.0000 16.9359
#
#
#
# Elastic Compliance Matrix: (Units=1/GPa)
#
#
# Indices 1 2 3 4 5 6 
#
# 1 0.041014 -0.001418 -0.006362 0.000000 0.000000 0.000000
# 2 -0.001418 0.011280 -0.005493 0.000000 0.000000 0.000000
# 3 -0.006362 -0.005493 0.016348 0.000000 0.000000 0.000000
# 4 0.000000 0.000000 0.000000 0.067881 0.000000 0.000000
# 5 0.000000 0.000000 0.000000 0.000000 -0.093026 0.000000
# 6 0.000000 0.000000 0.000000 0.000000 0.000000 0.059046
#
#
# Mechanical properties :
#
#
# Convention : Reuss Voigt Hill
#
# Bulk Modulus (GPa) = 23.75403 38.51600 31.13501
# Shear Modulus (GPa) = 34.93518 14.32651 24.63085
#
# Velocity S-wave (km/s) = 4.65121 2.97855 3.90548
# Velocity P-wave (km/s) = 6.59961 5.97329 6.29425
#
# Compressibility (1/GPa) = 0.04209812
#
# Stress axis : x y z
#
# Youngs Moduli (GPa) = 24.38166 88.64916 61.16869
#
# Poissons Ratio (x) = 0.12568 0.38913
# Poissons Ratio (y) = 0.03457 0.33601
# Poissons Ratio (z) = 0.15511 0.48696
#
# Static dielectric constant tensor:
#      x y z
#    x 1.545140 0.000000 0.000000 
#    y 0.000000 1.574430 0.000000 
#    z 0.000000 0.000000 1.526010 
# 
# From -- ./inp_files/13104.got.cif
#   From: 2010.05.17/outbox.cif.g08.bks.cpg/sg38_7_cif.got.tgz:13104.got - 2010.06.03 18:07:57.
