data_PCOD9356267
_publ_section_title
;
Structure prediction by ZEFSAII (Michael W. Deem and Ramdas Pophale) SiO2 
 PCOD9356267
Probable space group: A M M 2
;
_chemical_formula_sum "Si O2"
_cell_formula_units_Z 64
_cell_length_a 20.627437
_cell_length_b 7.546121
_cell_length_c 20.779016
_cell_angle_alpha 90.000000
_cell_angle_beta 90.000000
_cell_angle_gamma 90.000000
_cell_volume 3234.402110
_symmetry_space_group_name_H-M "A M M 2"
_symmetry_group_IT_number 38
_symmetry_cell_setting 'orthorhombic'
loop_
_space_group_symop_operation_xyz
x,y,z
-x,-y,z
-x,y,z
x,-y,z
x,1/2+y,1/2+z
-x,1/2-y,1/2+z
-x,1/2+y,1/2+z
x,1/2-y,1/2+z
loop_
_atom_site_type_symbol
_atom_site_label
_atom_site_fract_x
_atom_site_fract_y
_atom_site_fract_z
Si Si1 0.846955 0.204262 0.217090
Si Si2 0.346955 0.795738 0.617918
Si Si3 0.425930 0.782451 0.498132
Si Si4 0.796794 0.289648 0.583718
Si Si5 0.074070 0.717549 0.836875
Si Si6 0.820639 0.786935 0.440344
Si Si7 0.679362 0.786935 0.394664
Si Si8 0.296794 0.789648 0.751289
O O1 0.836066 0.280628 0.145725
O O2 0.896785 0.280516 0.268642
O O3 0.775454 0.209571 0.249330
O O4 0.866395 0.000000 0.207805
O O5 0.396785 0.719484 0.566366
O O6 0.275455 0.790429 0.585678
O O7 0.336067 0.719372 0.689283
O O8 0.366395 0.000000 0.627203
O O9 0.500000 0.728680 0.488766
O O10 0.377542 0.724064 0.441530
O O11 0.424393 0.000000 0.498777
O O12 0.788004 0.500000 0.592955
O O13 0.828938 0.257992 0.515121
O O14 0.075607 0.500000 0.836231
O O15 0.122458 0.775936 0.893478
O O16 0.000000 0.771320 0.846241
O O17 0.750000 0.720456 0.417504
O O18 0.819131 0.000000 0.435353
O O19 0.671061 0.742008 0.319887
O O20 0.680869 0.000000 0.399655
O O21 0.288004 0.000000 0.742053
#
# Coordination Sequence:
#
# PCOD9356267 Si02
#       8
#     8   8   8   8   8   8   8   8
#     4   9  17  32  50  71  98 127 163 203 242 287
#     4   9  17  32  50  71  98 127 163 203 242 287
#     4   9  17  31  52  73  93 126 171 206 236 286
#     4  10  19  29  48  76 102 126 158 202 250 290
#     4   9  17  31  52  73  93 126 171 206 236 286
#     4  10  18  31  51  73  98 128 163 204 244 285
#     4  10  18  31  51  73  98 128 163 204 244 285
#     4  10  19  29  48  76 102 126 158 202 250 290
#
# _framework density 19.787272999999999
#
# number of rings (size 3 to 8) (size 9 to 14) (size 15 to 20)
#    0.000    2.500    2.500    0.750    0.000    1.500 
#    0.000    1.250    0.000    4.500    0.000    0.000 
#    0.000    0.000    0.000    0.000    0.000    0.000 
#
# Total GULP energy -178515.249888 kJ/mol
# GULP energy per Si atom -5578.601559 kJ/mol
# Density = 1.974224 g / cm^3
# Si number density = 19.787273 Si / 1000 Ang^3
#
#
#
# Elastic Constant Matrix: (Units=GPa)
#
#
# Indices 1 2 3 4 5 6 
#
# 1 138.2755 2.6126 98.2392 0.0000 0.0000 0.0000
# 2 2.6126 50.9908 -2.9018 0.0000 0.0000 0.0000
# 3 98.2392 -2.9018 167.3336 0.0000 0.0000 0.0000
# 4 0.0000 0.0000 0.0000 17.0903 0.0000 0.0000
# 5 0.0000 0.0000 0.0000 0.0000 30.2648 0.0000
# 6 0.0000 0.0000 0.0000 0.0000 0.0000 4.3463
#
#
#
# Elastic Compliance Matrix: (Units=1/GPa)
#
#
# Indices 1 2 3 4 5 6 
#
# 1 0.012463 -0.001056 -0.007335 0.000000 0.000000 0.000000
# 2 -0.001056 0.019720 0.000962 0.000000 0.000000 0.000000
# 3 -0.007335 0.000962 0.010299 0.000000 0.000000 0.000000
# 4 0.000000 0.000000 0.000000 0.058513 0.000000 0.000000
# 5 0.000000 0.000000 0.000000 0.000000 0.033042 0.000000
# 6 0.000000 0.000000 0.000000 0.000000 0.000000 0.230081
#
#
# Mechanical properties :
#
#
# Convention : Reuss Voigt Hill
#
# Bulk Modulus (GPa) = 36.20044 61.38887 48.79466
# Shear Modulus (GPa) = 12.88046 27.58362 20.23204
#
# Velocity S-wave (km/s) = 2.55413 3.73769 3.20109
# Velocity P-wave (km/s) = 5.19929 7.05116 6.19482
#
# Compressibility (1/GPa) = 0.02762397
#
# Stress axis : x y z
#
# Youngs Moduli (GPa) = 80.23497 50.70932 97.09424
#
# Poissons Ratio (x) = 0.05355 0.71222
# Poissons Ratio (y) = 0.08473 -0.09340
# Poissons Ratio (z) = 0.58856 -0.04878
#
# Static dielectric constant tensor:
#      x y z
#    x 1.656860 0.000000 0.000000 
#    y 0.000000 1.759970 0.000000 
#    z 0.000000 0.000000 1.709670 
# 
# From -- ./inp_files/21453.got.cif
#   From: 2010.05.17/outbox.cif.g08.bks.cpg/sg38_11_cif.got.tgz:21453.got - 2010.06.03 18:07:57.
