data_PCOD9356063
_publ_section_title
;
Structure prediction by ZEFSAII (Michael W. Deem and Ramdas Pophale) SiO2 
 PCOD9356063
Probable space group: A M M 2
;
_chemical_formula_sum "Si O2"
_cell_formula_units_Z 64
_cell_length_a 9.272358
_cell_length_b 26.500303
_cell_length_c 18.684866
_cell_angle_alpha 90.000000
_cell_angle_beta 90.000000
_cell_angle_gamma 90.000000
_cell_volume 4591.250814
_symmetry_space_group_name_H-M "A M M 2"
_symmetry_group_IT_number 38
_symmetry_cell_setting 'orthorhombic'
loop_
_space_group_symop_operation_xyz
x,y,z
-x,-y,z
-x,y,z
x,-y,z
x,1/2+y,1/2+z
-x,1/2-y,1/2+z
-x,1/2+y,1/2+z
x,1/2-y,1/2+z
loop_
_atom_site_type_symbol
_atom_site_label
_atom_site_fract_x
_atom_site_fract_y
_atom_site_fract_z
Si Si1 0.333548 0.303029 0.950030
Si Si2 0.334630 0.301023 0.542158
Si Si3 0.171219 0.646712 0.419764
Si Si4 0.829192 0.559126 0.313343
Si Si5 0.172306 0.642884 0.073697
Si Si6 0.828033 0.248033 0.828934
Si Si7 0.171941 0.754989 0.662387
Si Si8 0.670724 0.940177 0.664322
O O1 0.500000 0.318443 0.941774
O O2 0.258473 0.288834 0.875381
O O3 0.331971 0.250701 0.995371
O O4 0.242767 0.341753 0.998119
O O5 0.500000 0.314519 0.555499
O O6 0.255714 0.341744 0.492416
O O7 0.252695 0.286399 0.614611
O O8 0.211021 0.595726 0.378321
O O9 0.197801 0.693407 0.365318
O O10 0.000000 0.646086 0.434602
O O11 0.810265 0.500000 0.330430
O O12 0.738364 0.570744 0.242366
O O13 0.000000 0.567595 0.297969
O O14 0.201223 0.690033 0.127670
O O15 0.246582 0.593972 0.107219
O O16 0.000000 0.637279 0.067788
O O17 0.787677 0.246597 0.745653
O O18 0.000000 0.257569 0.834496
O O19 0.000000 0.747150 0.656688
O O20 0.500000 0.929496 0.663707
O O21 0.691177 0.000000 0.651225
#
# Coordination Sequence:
#
# PCOD9356063 Si02
#       8
#     8   8   8   8   8   8   8   8
#     4   9  17  28  40  57  81 106 133 167 205 241
#     4   9  17  27  39  57  80 106 136 168 202 241
#     4   9  16  27  42  58  79 108 139 169 202 239
#     4   9  17  29  44  61  81 107 141 177 208 240
#     4  10  18  29  45  61  79 108 143 173 203 240
#     4   9  16  26  40  58  80 107 138 167 198 240
#     4   9  17  28  42  60  82 108 138 171 205 241
#     4  10  20  31  42  59  84 111 138 171 209 243
#
# _framework density 13.939557000000001
#
# number of rings (size 3 to 8) (size 9 to 14) (size 15 to 20)
#    0.000    2.750    0.000    2.250    0.000    7.250 
#    0.000    2.500    0.000    0.000    0.000    0.000 
#    0.000    1.000    0.000    8.250    0.000    3.875 
#
# Total GULP energy -178309.282767 kJ/mol
# GULP energy per Si atom -5572.165086 kJ/mol
# Density = 1.390783 g / cm^3
# Si number density = 13.939557 Si / 1000 Ang^3
#
#
#
# Elastic Constant Matrix: (Units=GPa)
#
#
# Indices 1 2 3 4 5 6 
#
# 1 64.7898 38.4012 49.2581 0.0000 0.0000 0.0000
# 2 38.4012 46.9262 29.3518 0.0000 0.0000 0.0000
# 3 49.2581 29.3518 88.6095 0.0000 0.0000 0.0000
# 4 0.0000 0.0000 0.0000 27.7862 0.0000 0.0000
# 5 0.0000 0.0000 0.0000 0.0000 10.8105 0.0000
# 6 0.0000 0.0000 0.0000 0.0000 0.0000 17.8000
#
#
#
# Elastic Compliance Matrix: (Units=1/GPa)
#
#
# Indices 1 2 3 4 5 6 
#
# 1 0.041156 -0.024431 -0.014786 0.000000 0.000000 0.000000
# 2 -0.024431 0.041382 -0.000126 0.000000 0.000000 0.000000
# 3 -0.014786 -0.000126 0.019547 0.000000 0.000000 0.000000
# 4 0.000000 0.000000 0.000000 0.035989 0.000000 0.000000
# 5 0.000000 0.000000 0.000000 0.000000 0.092503 0.000000
# 6 0.000000 0.000000 0.000000 0.000000 0.000000 0.056180
#
#
# Mechanical properties :
#
#
# Convention : Reuss Voigt Hill
#
# Bulk Modulus (GPa) = 42.73872 48.26085 45.49979
# Shear Modulus (GPa) = 13.39606 16.83361 15.11484
#
# Velocity S-wave (km/s) = 3.10338 3.47885 3.29646
# Velocity P-wave (km/s) = 6.60060 7.12974 6.87026
#
# Compressibility (1/GPa) = 0.02339799
#
# Stress axis : x y z
#
# Youngs Moduli (GPa) = 24.29750 24.16522 51.15871
#
# Poissons Ratio (x) = 0.59038 0.75644
# Poissons Ratio (y) = 0.59361 0.00647
# Poissons Ratio (z) = 0.35927 0.00306
#
# Static dielectric constant tensor:
#      x y z
#    x 1.466050 0.000000 0.000000 
#    y 0.000000 1.442420 0.000000 
#    z 0.000000 0.000000 1.440850 
# 
# From -- ./inp_files/17276.got.cif
#   From: 2010.05.17/outbox.cif.g08.bks.cpg/sg38_9_cif.got.tgz:17276.got - 2010.06.03 18:07:57.
