data_PCOD9356182
_publ_section_title
;
Structure prediction by ZEFSAII (Michael W. Deem and Ramdas Pophale) SiO2 
 PCOD9356182
Probable space group: A M M 2
;
_chemical_formula_sum "Si O2"
_cell_formula_units_Z 48
_cell_length_a 14.758631
_cell_length_b 7.338409
_cell_length_c 21.169931
_cell_angle_alpha 90.000000
_cell_angle_beta 90.000000
_cell_angle_gamma 90.000000
_cell_volume 2292.806637
_symmetry_space_group_name_H-M "A M M 2"
_symmetry_group_IT_number 38
_symmetry_cell_setting 'orthorhombic'
loop_
_space_group_symop_operation_xyz
x,y,z
-x,-y,z
-x,y,z
x,-y,z
x,1/2+y,1/2+z
-x,1/2-y,1/2+z
-x,1/2+y,1/2+z
x,1/2-y,1/2+z
loop_
_atom_site_type_symbol
_atom_site_label
_atom_site_fract_x
_atom_site_fract_y
_atom_site_fract_z
Si Si1 0.789794 0.781093 0.184370
Si Si2 0.212235 0.277404 0.434554
Si Si3 0.895988 0.777826 0.059831
Si Si4 0.398762 0.278279 0.635904
Si Si5 0.102969 0.215655 0.813011
Si Si6 0.601240 0.778439 0.988961
O O1 0.844788 0.717016 0.122878
O O2 0.685918 0.717130 0.177839
O O3 0.842759 0.737366 0.248025
O O4 0.786971 0.000000 0.180572
O O5 0.213441 0.500000 0.433271
O O6 0.155913 0.223132 0.496540
O O7 0.161862 0.212913 0.371666
O O8 0.315807 0.218370 0.445507
O O9 0.000000 0.719609 0.059444
O O10 0.895386 0.000000 0.060405
O O11 0.500000 0.218094 0.654139
O O12 0.399825 0.500000 0.636940
O O13 0.382931 0.227070 0.562405
O O14 0.000000 0.211651 0.309448
O O15 0.094611 0.000000 0.824023
O O16 0.500000 0.719054 0.970892
O O17 0.601115 0.000000 0.988415
#
# Coordination Sequence:
#
# PCOD9356182 Si02
#       6
#     8   8   8   8   8   8
#     4  10  18  30  49  72  94 119 155 197 235 272
#     4   9  15  26  42  62  88 118 152 188 228 273
#     4   9  15  23  40  66  88 107 145 199 236 258
#     4   8  13  23  42  70  99 120 143 185 240 283
#     4  10  21  34  46  63  94 133 161 185 229 286
#     4   8  12  20  38  65  93 115 140 185 240 279
#
# _framework density 20.935040000000001
#
# number of rings (size 3 to 8) (size 9 to 14) (size 15 to 20)
#    0.000    3.000    1.667    2.000    0.000    3.000 
#    0.000    0.833    0.000    2.500    0.000    0.000 
#    0.000    0.000    0.000    0.000    0.000    0.000 
#
# Total GULP energy -133962.267476 kJ/mol
# GULP energy per Si atom -5581.761145 kJ/mol
# Density = 2.088739 g / cm^3
# Si number density = 20.935040 Si / 1000 Ang^3
#
#
#
# Elastic Constant Matrix: (Units=GPa)
#
#
# Indices 1 2 3 4 5 6 
#
# 1 253.0068 6.7093 124.8521 0.0000 0.0000 0.0000
# 2 6.7093 78.8930 -0.3991 0.0000 0.0000 0.0000
# 3 124.8521 -0.3991 166.5456 0.0000 0.0000 0.0000
# 4 0.0000 0.0000 0.0000 5.0451 0.0000 0.0000
# 5 0.0000 0.0000 0.0000 0.0000 26.1376 0.0000
# 6 0.0000 0.0000 0.0000 0.0000 0.0000 -3.8012
#
#
#
# Elastic Compliance Matrix: (Units=1/GPa)
#
#
# Indices 1 2 3 4 5 6 
#
# 1 0.006298 -0.000559 -0.004722 0.000000 0.000000 0.000000
# 2 -0.000559 0.012725 0.000450 0.000000 0.000000 0.000000
# 3 -0.004722 0.000450 0.009546 0.000000 0.000000 0.000000
# 4 0.000000 0.000000 0.000000 0.198212 0.000000 0.000000
# 5 0.000000 0.000000 0.000000 0.000000 0.038259 0.000000
# 6 0.000000 0.000000 0.000000 0.000000 0.000000 -0.263072
#
#
# Mechanical properties :
#
#
# Convention : Reuss Voigt Hill
#
# Bulk Modulus (GPa) = 52.89727 84.53002 68.71365
# Shear Modulus (GPa) = 278.82238 29.96184 154.39211
#
# Velocity S-wave (km/s) = 11.55308 3.78720 8.59699
# Velocity P-wave (km/s) = 14.25788 7.71938 11.46464
#
# Compressibility (1/GPa) = 0.01890457
#
# Stress axis : x y z
#
# Youngs Moduli (GPa) = 158.78787 78.58393 104.75956
#
# Poissons Ratio (x) = 0.04397 0.49472
# Poissons Ratio (y) = 0.08884 -0.04713
# Poissons Ratio (z) = 0.74987 -0.03536
#
# Static dielectric constant tensor:
#      x y z
#    x 1.755610 0.000000 0.000000 
#    y 0.000000 1.856720 0.000000 
#    z 0.000000 0.000000 1.689920 
# 
# From -- ./inp_files/14478.got.cif
#   From: 2010.05.17/outbox.cif.g08.bks.cpg/sg38_8_cif.got.tgz:14478.got - 2010.06.03 18:07:57.
