data_PCOD9356119
_publ_section_title
;
Structure prediction by ZEFSAII (Michael W. Deem and Ramdas Pophale) SiO2 
 PCOD9356119
Probable space group: A M M 2
;
_chemical_formula_sum "Si O2"
_cell_formula_units_Z 64
_cell_length_a 8.483359
_cell_length_b 15.012172
_cell_length_c 28.872780
_cell_angle_alpha 90.000000
_cell_angle_beta 90.000000
_cell_angle_gamma 90.000000
_cell_volume 3677.053758
_symmetry_space_group_name_H-M "A M M 2"
_symmetry_group_IT_number 38
_symmetry_cell_setting 'orthorhombic'
loop_
_space_group_symop_operation_xyz
x,y,z
-x,-y,z
-x,y,z
x,-y,z
x,1/2+y,1/2+z
-x,1/2-y,1/2+z
-x,1/2+y,1/2+z
x,1/2-y,1/2+z
loop_
_atom_site_type_symbol
_atom_site_label
_atom_site_fract_x
_atom_site_fract_y
_atom_site_fract_z
Si Si1 0.690011 0.899619 0.815650
Si Si2 0.188640 0.601567 0.690193
Si Si3 0.811572 0.721718 0.504529
Si Si4 0.308358 0.397893 0.859710
Si Si5 0.688686 0.398434 0.587084
Si Si6 0.309091 0.720625 0.773281
Si Si7 0.189917 0.396818 0.417986
Si Si8 0.690312 0.897653 0.464913
O O1 0.500000 0.901753 0.814597
O O2 0.742306 0.822700 0.780595
O O3 0.739910 0.874596 0.867854
O O4 0.748692 0.000000 0.806369
O O5 0.240570 0.500000 0.702131
O O6 0.251796 0.621224 0.638838
O O7 0.248557 0.670769 0.728098
O O8 0.000000 0.602700 0.689197
O O9 0.750773 0.671072 0.549693
O O10 0.754772 0.666992 0.459118
O O11 0.755199 0.822862 0.498822
O O12 0.000000 0.719181 0.504659
O O13 0.500000 0.395434 0.860219
O O14 0.262080 0.500000 0.849865
O O15 0.255081 0.333277 0.819052
O O16 0.256963 0.375945 0.912036
O O17 0.500000 0.397266 0.586956
O O18 0.741544 0.500000 0.575528
O O19 0.500000 0.718451 0.772436
O O20 0.231577 0.500000 0.428257
O O21 0.000000 0.391538 0.415007
O O22 0.500000 0.894881 0.465567
O O23 0.737178 0.000000 0.474749
#
# Coordination Sequence:
#
# PCOD9356119 Si02
#       8
#     8   8   8   8   8   8   8   8
#     4   9  18  31  47  70 100 133 170 211 248 280
#     4  10  21  36  53  75 103 129 154 194 249 302
#     4  11  21  32  50  75 104 136 167 204 252 303
#     4   8  14  25  43  68  96 127 165 207 247 286
#     4  10  21  37  57  79 101 127 161 200 244 299
#     4  10  18  29  49  73  98 131 168 204 243 292
#     4   9  18  31  46  68 101 138 170 200 242 297
#     4   9  18  33  51  71  99 136 177 217 251 286
#
# _framework density 17.405238000000001
#
# number of rings (size 3 to 8) (size 9 to 14) (size 15 to 20)
#    0.000    2.500    0.000    3.375    0.000    5.250 
#    0.000    1.875    0.000    1.500    0.000    1.750 
#    0.000    0.000    0.000    0.000    0.000    0.000 
#
# Total GULP energy -178533.099922 kJ/mol
# GULP energy per Si atom -5579.159373 kJ/mol
# Density = 1.736562 g / cm^3
# Si number density = 17.405238 Si / 1000 Ang^3
#
#
#
# Elastic Constant Matrix: (Units=GPa)
#
#
# Indices 1 2 3 4 5 6 
#
# 1 18.2605 30.9555 24.7453 0.0000 0.0000 0.0000
# 2 30.9555 135.9318 105.4253 0.0000 0.0000 0.0000
# 3 24.7453 105.4253 112.1333 0.0000 0.0000 0.0000
# 4 0.0000 0.0000 0.0000 32.3539 0.0000 0.0000
# 5 0.0000 0.0000 0.0000 0.0000 73.6620 0.0000
# 6 0.0000 0.0000 0.0000 0.0000 0.0000 16.1881
#
#
#
# Elastic Compliance Matrix: (Units=1/GPa)
#
#
# Indices 1 2 3 4 5 6 
#
# 1 0.089340 -0.018664 -0.002168 0.000000 0.000000 0.000000
# 2 -0.018664 0.031063 -0.025086 0.000000 0.000000 0.000000
# 3 -0.002168 -0.025086 0.032982 0.000000 0.000000 0.000000
# 4 0.000000 0.000000 0.000000 0.030908 0.000000 0.000000
# 5 0.000000 0.000000 0.000000 0.000000 0.013576 0.000000
# 6 0.000000 0.000000 0.000000 0.000000 0.000000 0.061774
#
#
# Mechanical properties :
#
#
# Convention : Reuss Voigt Hill
#
# Bulk Modulus (GPa) = 16.24722 65.39754 40.82238
# Shear Modulus (GPa) = 13.44105 31.45411 22.44758
#
# Velocity S-wave (km/s) = 2.78194 4.25569 3.59514
# Velocity P-wave (km/s) = 4.43552 7.86148 6.38266
#
# Compressibility (1/GPa) = 0.06154900
#
# Stress axis : x y z
#
# Youngs Moduli (GPa) = 11.19319 32.19256 30.31969
#
# Poissons Ratio (x) = 0.60083 0.06574
# Poissons Ratio (y) = 0.20891 0.76060
# Poissons Ratio (z) = 0.02427 0.80759
#
# Static dielectric constant tensor:
#      x y z
#    x 1.587800 0.000000 0.000000 
#    y 0.000000 1.610160 0.000000 
#    z 0.000000 0.000000 1.559410 
# 
# From -- ./inp_files/22175.got.cif
#   From: 2010.05.17/outbox.cif.g08.bks.cpg/sg38_12_cif.got.tgz:22175.got - 2010.06.03 18:07:57.
