data_PCOD9356067
_publ_section_title
;
Structure prediction by ZEFSAII (Michael W. Deem and Ramdas Pophale) SiO2 
 PCOD9356067
Probable space group: A M M 2
;
_chemical_formula_sum "Si O2"
_cell_formula_units_Z 48
_cell_length_a 13.250741
_cell_length_b 7.342166
_cell_length_c 24.308215
_cell_angle_alpha 90.000000
_cell_angle_beta 90.000000
_cell_angle_gamma 90.000000
_cell_volume 2364.925333
_symmetry_space_group_name_H-M "A M M 2"
_symmetry_group_IT_number 38
_symmetry_cell_setting 'orthorhombic'
loop_
_space_group_symop_operation_xyz
x,y,z
-x,-y,z
-x,y,z
x,-y,z
x,1/2+y,1/2+z
-x,1/2-y,1/2+z
-x,1/2+y,1/2+z
x,1/2-y,1/2+z
loop_
_atom_site_type_symbol
_atom_site_label
_atom_site_fract_x
_atom_site_fract_y
_atom_site_fract_z
Si Si1 0.500000 0.777021 0.324440
Si Si2 0.696982 0.716843 0.759094
Si Si3 0.885394 0.278345 0.954097
Si Si4 0.693372 0.277505 0.022176
Si Si5 0.885756 0.778017 0.327817
Si Si6 0.500000 0.721629 0.950909
Si Si7 0.384470 0.782480 0.639709
O O1 0.400375 0.714975 0.292457
O O2 0.500000 0.720222 0.387760
O O3 0.500000 0.000000 0.323804
O O4 0.698429 0.500000 0.767239
O O5 0.800617 0.785756 0.785632
O O6 0.677896 0.747474 0.694877
O O7 0.885320 0.500000 0.954764
O O8 0.862093 0.225478 0.890942
O O9 0.000000 0.220776 0.967006
O O10 0.798927 0.217522 0.995828
O O11 0.695017 0.500000 0.022351
O O12 0.668819 0.216590 0.084042
O O13 0.600171 0.222339 0.983400
O O14 0.000000 0.719609 0.315008
O O15 0.886558 0.000000 0.327156
O O16 0.500000 0.500000 0.950861
O O17 0.500000 0.713271 0.644881
O O18 0.392161 0.000000 0.634187
#
# Coordination Sequence:
#
# PCOD9356067 Si02
#       7
#     4   8   8   8   8   4   8
#     4   9  16  23  37  65  91 105 130 181 230 256
#     4  10  18  29  45  66  90 115 147 184 218 256
#     4   8  13  22  38  61  88 113 135 170 223 269
#     4   9  15  24  38  57  82 111 143 174 211 258
#     4   8  14  25  42  65  92 118 142 174 222 271
#     4   9  14  21  36  59  83 103 128 173 222 256
#     4  10  19  31  44  61  88 123 154 179 213 261
#
# _framework density 20.296623
#
# number of rings (size 3 to 8) (size 9 to 14) (size 15 to 20)
#    0.000    3.000    1.667    2.000    0.000    4.000 
#    0.000    0.833    0.000    1.500    0.000    5.833 
#    0.000    1.333    0.000    0.000    0.000    0.000 
#
# Total GULP energy -133975.851057 kJ/mol
# GULP energy per Si atom -5582.327127 kJ/mol
# Density = 2.025043 g / cm^3
# Si number density = 20.296623 Si / 1000 Ang^3
#
#
#
# Elastic Constant Matrix: (Units=GPa)
#
#
# Indices 1 2 3 4 5 6 
#
# 1 191.6962 7.1616 133.9198 0.0000 0.0000 0.0000
# 2 7.1616 76.3307 0.4809 0.0000 0.0000 0.0000
# 3 133.9198 0.4809 196.5836 0.0000 0.0000 0.0000
# 4 0.0000 0.0000 0.0000 11.7799 0.0000 0.0000
# 5 0.0000 0.0000 0.0000 0.0000 24.2576 0.0000
# 6 0.0000 0.0000 0.0000 0.0000 0.0000 -3.8322
#
#
#
# Elastic Compliance Matrix: (Units=1/GPa)
#
#
# Indices 1 2 3 4 5 6 
#
# 1 0.010015 -0.000897 -0.006820 0.000000 0.000000 0.000000
# 2 -0.000897 0.013181 0.000579 0.000000 0.000000 0.000000
# 3 -0.006820 0.000579 0.009732 0.000000 0.000000 0.000000
# 4 0.000000 0.000000 0.000000 0.084890 0.000000 0.000000
# 5 0.000000 0.000000 0.000000 0.000000 0.041224 0.000000
# 6 0.000000 0.000000 0.000000 0.000000 0.000000 -0.260947
#
#
# Mechanical properties :
#
#
# Convention : Reuss Voigt Hill
#
# Bulk Modulus (GPa) = 53.61581 83.08165 68.34873
# Shear Modulus (GPa) = -61.41663 27.97760 -16.71952
#
# Velocity S-wave (km/s) = -5.50683 3.71676 -2.87323
# Velocity P-wave (km/s) = 3.73633 7.70984 4.76873
#
# Compressibility (1/GPa) = 0.01865122
#
# Stress axis : x y z
#
# Youngs Moduli (GPa) = 99.85336 75.86465 102.75778
#
# Poissons Ratio (x) = 0.06802 0.70083
# Poissons Ratio (y) = 0.08953 -0.05945
# Poissons Ratio (z) = 0.68102 -0.04389
#
# Static dielectric constant tensor:
#      x y z
#    x 1.697880 0.000000 0.000000 
#    y 0.000000 1.829620 0.000000 
#    z 0.000000 0.000000 1.678580 
# 
# From -- ./inp_files/20602.got.cif
#   From: 2010.05.17/outbox.cif.g08.bks.cpg/sg38_11_cif.got.tgz:20602.got - 2010.06.03 18:07:57.
