data_PCOD9356532
_publ_section_title
;
Structure prediction by ZEFSAII (Michael W. Deem and Ramdas Pophale) SiO2 
 PCOD9356532
Probable space group: A M M 2
;
_chemical_formula_sum "Si O2"
_cell_formula_units_Z 64
_cell_length_a 8.703647
_cell_length_b 19.011242
_cell_length_c 27.188954
_cell_angle_alpha 90.000000
_cell_angle_beta 90.000000
_cell_angle_gamma 90.000000
_cell_volume 4498.878442
_symmetry_space_group_name_H-M "A M M 2"
_symmetry_group_IT_number 38
_symmetry_cell_setting 'orthorhombic'
loop_
_space_group_symop_operation_xyz
x,y,z
-x,-y,z
-x,y,z
x,-y,z
x,1/2+y,1/2+z
-x,1/2-y,1/2+z
-x,1/2+y,1/2+z
x,1/2-y,1/2+z
loop_
_atom_site_type_symbol
_atom_site_label
_atom_site_fract_x
_atom_site_fract_y
_atom_site_fract_z
Si Si1 0.314976 0.160054 0.228040
Si Si2 0.185578 0.580291 0.823296
Si Si3 0.682547 0.661528 0.430543
Si Si4 0.183447 0.917609 0.023249
Si Si5 0.183776 0.787311 0.379722
Si Si6 0.184203 0.918107 0.835000
Si Si7 0.684227 0.707021 0.284411
Si Si8 0.684850 0.082256 0.129855
O O1 0.500000 0.153492 0.230123
O O2 0.248600 0.113845 0.272838
O O3 0.278109 0.242070 0.238651
O O4 0.263953 0.129586 0.175751
O O5 0.237244 0.500000 0.829009
O O6 0.228275 0.632086 0.868460
O O7 0.000000 0.581154 0.820399
O O8 0.500000 0.659470 0.426618
O O9 0.738455 0.629039 0.481575
O O10 0.740467 0.741486 0.422558
O O11 0.752349 0.614891 0.385881
O O12 0.238505 0.899007 0.078081
O O13 0.000000 0.911401 0.019568
O O14 0.224488 0.000000 0.015340
O O15 0.240008 0.747582 0.330451
O O16 0.000000 0.782564 0.383899
O O17 0.250933 0.871222 0.790405
O O18 0.000000 0.911927 0.835636
O O19 0.225862 0.000000 0.831603
O O20 0.500000 0.705437 0.290186
O O21 0.500000 0.088182 0.124855
O O22 0.719647 0.000000 0.140367
#
# Coordination Sequence:
#
# PCOD9356532 Si02
#       8
#     8   8   8   8   8   8   8   8
#     4   9  17  28  42  60  82 110 140 168 201 238
#     4   9  17  27  40  60  84 110 140 170 199 234
#     4  11  20  29  43  60  79 105 137 169 202 242
#     4  10  20  32  44  59  80 105 135 170 204 238
#     4   9  16  27  41  56  79 108 135 166 201 236
#     4  10  19  29  41  58  81 108 137 168 202 240
#     4   9  16  26  40  58  80 105 135 168 199 236
#     4   9  17  29  43  59  81 108 137 168 200 233
#
# _framework density 14.225768
#
# number of rings (size 3 to 8) (size 9 to 14) (size 15 to 20)
#    0.000    2.500    0.000    4.875    0.000    5.500 
#    0.000    1.250    0.000    0.000    0.000    0.000 
#    0.000    1.000    0.000    7.250    0.000    3.750 
#
# Total GULP energy -178241.766457 kJ/mol
# GULP energy per Si atom -5570.055202 kJ/mol
# Density = 1.419339 g / cm^3
# Si number density = 14.225768 Si / 1000 Ang^3
#
#
#
# Elastic Constant Matrix: (Units=GPa)
#
#
# Indices 1 2 3 4 5 6 
#
# 1 37.6862 33.2916 29.4203 0.0000 0.0000 0.0000
# 2 33.2916 116.2042 61.9034 0.0000 0.0000 0.0000
# 3 29.4203 61.9034 85.0402 0.0000 0.0000 0.0000
# 4 0.0000 0.0000 0.0000 28.7495 0.0000 0.0000
# 5 0.0000 0.0000 0.0000 0.0000 29.8893 0.0000
# 6 0.0000 0.0000 0.0000 0.0000 0.0000 15.6621
#
#
#
# Elastic Compliance Matrix: (Units=1/GPa)
#
#
# Indices 1 2 3 4 5 6 
#
# 1 0.039176 -0.006540 -0.008793 0.000000 0.000000 0.000000
# 2 -0.006540 0.015148 -0.008764 0.000000 0.000000 0.000000
# 3 -0.008793 -0.008764 0.021181 0.000000 0.000000 0.000000
# 4 0.000000 0.000000 0.000000 0.034783 0.000000 0.000000
# 5 0.000000 0.000000 0.000000 0.000000 0.033457 0.000000
# 6 0.000000 0.000000 0.000000 0.000000 0.000000 0.063848
#
#
# Mechanical properties :
#
#
# Convention : Reuss Voigt Hill
#
# Bulk Modulus (GPa) = 36.61455 54.24012 45.42733
# Shear Modulus (GPa) = 18.87570 22.48119 20.67844
#
# Velocity S-wave (km/s) = 3.64657 3.97963 3.81673
# Velocity P-wave (km/s) = 6.59727 7.70243 7.17117
#
# Compressibility (1/GPa) = 0.02731155
#
# Stress axis : x y z
#
# Youngs Moduli (GPa) = 25.52563 66.01583 47.21245
#
# Poissons Ratio (x) = 0.43172 0.41514
# Poissons Ratio (y) = 0.16693 0.41378
# Poissons Ratio (z) = 0.22445 0.57857
#
# Static dielectric constant tensor:
#      x y z
#    x 1.476260 0.000000 0.000000 
#    y 0.000000 1.501420 0.000000 
#    z 0.000000 0.000000 1.452470 
# 
# From -- ./inp_files/23642.got.cif
#   From: 2010.05.17/outbox.cif.g08.bks.cpg/sg38_12_cif.got.tgz:23642.got - 2010.06.03 18:07:57.
