data_PCOD9356916
_publ_section_title
;
Structure prediction by ZEFSAII (Michael W. Deem and Ramdas Pophale) SiO2 
 PCOD9356916
Probable space group: A M M 2
;
_chemical_formula_sum "Si O2"
_cell_formula_units_Z 48
_cell_length_a 8.792987
_cell_length_b 16.910286
_cell_length_c 18.958779
_cell_angle_alpha 90.000000
_cell_angle_beta 90.000000
_cell_angle_gamma 90.000000
_cell_volume 2819.017344
_symmetry_space_group_name_H-M "A M M 2"
_symmetry_group_IT_number 38
_symmetry_cell_setting 'orthorhombic'
loop_
_space_group_symop_operation_xyz
x,y,z
-x,-y,z
-x,y,z
x,-y,z
x,1/2+y,1/2+z
-x,1/2-y,1/2+z
-x,1/2+y,1/2+z
x,1/2-y,1/2+z
loop_
_atom_site_type_symbol
_atom_site_label
_atom_site_fract_x
_atom_site_fract_y
_atom_site_fract_z
Si Si1 0.181557 0.335286 0.814720
Si Si2 0.683296 0.410805 0.266148
Si Si3 0.319271 0.000000 0.297035
Si Si4 0.817443 0.178160 0.898169
Si Si5 0.182811 0.000000 0.140320
Si Si6 0.183205 0.837960 0.059683
Si Si7 0.317595 0.256845 0.182742
O O1 0.252972 0.420035 0.830408
O O2 0.216313 0.267195 0.871721
O O3 0.248713 0.302736 0.741056
O O4 0.000000 0.342565 0.807765
O O5 0.500000 0.410796 0.268392
O O6 0.735446 0.500000 0.251262
O O7 0.743608 0.380459 0.341446
O O8 0.728629 0.344529 0.208777
O O9 0.500000 0.000000 0.300071
O O10 0.264381 0.000000 0.215513
O O11 0.000000 0.167843 0.894790
O O12 0.767917 0.164508 0.978312
O O13 0.221411 0.078305 0.096009
O O14 0.000000 0.000000 0.152500
O O15 0.255828 0.769663 0.107325
O O16 0.000000 0.829871 0.061447
O O17 0.500000 0.251212 0.184381
#
# Coordination Sequence:
#
# PCOD9356916 Si02
#       7
#     8   8   4   8   4   8   8
#     4  10  19  34  53  75 103 137 172 211 261 304
#     4   9  19  35  53  75 103 135 169 211 259 304
#     4  12  22  32  52  80 106 131 174 217 250 303
#     4   9  20  35  54  78 103 135 171 210 255 310
#     4  10  20  32  50  76 108 141 164 199 258 309
#     4  10  20  34  52  76 107 138 168 205 257 309
#     4  10  19  32  52  76 101 135 175 213 253 303
#
# _framework density 17.027211000000001
#
# number of rings (size 3 to 8) (size 9 to 14) (size 15 to 20)
#    0.000    2.167    1.667    1.750    1.167    2.333 
#    0.000    0.000    1.833    0.000    0.000    0.000 
#    0.000    0.000    0.000    0.000    0.000    0.000 
#
# Total GULP energy -133921.030541 kJ/mol
# GULP energy per Si atom -5580.042939 kJ/mol
# Density = 1.698846 g / cm^3
# Si number density = 17.027211 Si / 1000 Ang^3
#
#
#
# Elastic Constant Matrix: (Units=GPa)
#
#
# Indices 1 2 3 4 5 6 
#
# 1 28.1411 31.4697 17.0626 0.0000 0.0000 0.0000
# 2 31.4697 133.6630 34.5713 0.0000 0.0000 0.0000
# 3 17.0626 34.5713 73.3575 0.0000 0.0000 0.0000
# 4 0.0000 0.0000 0.0000 16.1245 0.0000 0.0000
# 5 0.0000 0.0000 0.0000 0.0000 4.2980 0.0000
# 6 0.0000 0.0000 0.0000 0.0000 0.0000 23.2973
#
#
#
# Elastic Compliance Matrix: (Units=1/GPa)
#
#
# Indices 1 2 3 4 5 6 
#
# 1 0.051293 -0.010239 -0.007105 0.000000 0.000000 0.000000
# 2 -0.010239 0.010564 -0.002597 0.000000 0.000000 0.000000
# 3 -0.007105 -0.002597 0.016508 0.000000 0.000000 0.000000
# 4 0.000000 0.000000 0.000000 0.062017 0.000000 0.000000
# 5 0.000000 0.000000 0.000000 0.000000 0.232664 0.000000
# 6 0.000000 0.000000 0.000000 0.000000 0.000000 0.042923
#
#
# Mechanical properties :
#
#
# Convention : Reuss Voigt Hill
#
# Bulk Modulus (GPa) = 25.98528 44.59653 35.29090
# Shear Modulus (GPa) = 10.66826 18.88117 14.77471
#
# Velocity S-wave (km/s) = 2.50580 3.33360 2.94889
# Velocity P-wave (km/s) = 4.86479 6.40823 5.68909
#
# Compressibility (1/GPa) = 0.03848333
#
# Stress axis : x y z
#
# Youngs Moduli (GPa) = 19.49582 94.66297 60.57529
#
# Poissons Ratio (x) = 0.96923 0.43041
# Poissons Ratio (y) = 0.19961 0.15731
# Poissons Ratio (z) = 0.13852 0.24583
#
# Static dielectric constant tensor:
#      x y z
#    x 1.571670 0.000000 0.000000 
#    y 0.000000 1.589440 0.000000 
#    z 0.000000 0.000000 1.549550 
# 
# From -- ./inp_files/16673.got.cif
#   From: 2010.05.17/outbox.cif.g08.bks.cpg/sg38_9_cif.got.tgz:16673.got - 2010.06.03 18:07:57.
