data_PCOD9356599
_publ_section_title
;
Structure prediction by ZEFSAII (Michael W. Deem and Ramdas Pophale) SiO2 
 PCOD9356599
Probable space group: A M M 2
;
_chemical_formula_sum "Si O2"
_cell_formula_units_Z 56
_cell_length_a 8.651351
_cell_length_b 19.135147
_cell_length_c 21.438528
_cell_angle_alpha 90.000000
_cell_angle_beta 90.000000
_cell_angle_gamma 90.000000
_cell_volume 3549.038398
_symmetry_space_group_name_H-M "A M M 2"
_symmetry_group_IT_number 38
_symmetry_cell_setting 'orthorhombic'
loop_
_space_group_symop_operation_xyz
x,y,z
-x,-y,z
-x,y,z
x,-y,z
x,1/2+y,1/2+z
-x,1/2-y,1/2+z
-x,1/2+y,1/2+z
x,1/2-y,1/2+z
loop_
_atom_site_type_symbol
_atom_site_label
_atom_site_fract_x
_atom_site_fract_y
_atom_site_fract_z
Si Si1 0.682992 0.714112 0.653400
Si Si2 0.815632 0.648291 0.847247
Si Si3 0.315083 0.580640 0.972077
Si Si4 0.815500 0.655175 0.093904
Si Si5 0.186254 0.217809 0.778574
Si Si6 0.812467 0.421364 0.222558
Si Si7 0.686971 0.419817 0.720505
O O1 0.500000 0.716683 0.642849
O O2 0.764591 0.764565 0.604015
O O3 0.726305 0.748850 0.719788
O O4 0.731397 0.633782 0.665072
O O5 0.740178 0.617057 0.908697
O O6 0.779186 0.730632 0.835722
O O7 0.757940 0.607458 0.785544
O O8 0.000000 0.858933 0.351515
O O9 0.500000 0.580709 0.973618
O O10 0.260966 0.500000 0.973258
O O11 0.252746 0.621136 0.032206
O O12 0.764920 0.611070 0.155511
O O13 0.000000 0.652049 0.091685
O O14 0.227062 0.135940 0.775522
O O15 0.000000 0.222978 0.767427
O O16 0.753740 0.500000 0.231228
O O17 0.000000 0.424773 0.221173
O O18 0.500000 0.416077 0.726402
O O19 0.730728 0.500000 0.709383
#
# Coordination Sequence:
#
# PCOD9356599 Si02
#       7
#     8   8   8   8   8   8   8
#     4   9  16  27  44  64  87 116 148 181 220 263
#     4  10  19  30  44  63  89 120 152 185 221 263
#     4  11  23  35  46  63  88 117 150 186 221 261
#     4  10  19  31  46  64  89 119 150 182 216 261
#     4   8  15  27  42  62  87 114 146 182 218 259
#     4   8  13  23  42  66  88 110 137 171 212 255
#     4   9  17  29  45  66  92 120 149 183 223 266
#
# _framework density 15.778922
#
# number of rings (size 3 to 8) (size 9 to 14) (size 15 to 20)
#    0.000    2.714    0.000    3.429    0.000    4.857 
#    0.000    0.000    0.000    3.857    0.000    1.000 
#    0.000    3.429    0.000    0.000    0.000    0.000 
#
# Total GULP energy -155883.149615 kJ/mol
# GULP energy per Si atom -5567.255343 kJ/mol
# Density = 1.574301 g / cm^3
# Si number density = 15.778922 Si / 1000 Ang^3
#
#
#
# Elastic Constant Matrix: (Units=GPa)
#
#
# Indices 1 2 3 4 5 6 
#
# 1 27.0635 32.4246 25.3551 0.0000 0.0000 0.0000
# 2 32.4246 166.1218 67.7212 0.0000 0.0000 0.0000
# 3 25.3551 67.7212 75.9469 0.0000 0.0000 0.0000
# 4 0.0000 0.0000 0.0000 20.9089 0.0000 0.0000
# 5 0.0000 0.0000 0.0000 0.0000 21.8479 0.0000
# 6 0.0000 0.0000 0.0000 0.0000 0.0000 18.6232
#
#
#
# Elastic Compliance Matrix: (Units=1/GPa)
#
#
# Indices 1 2 3 4 5 6 
#
# 1 0.056537 -0.005249 -0.014195 0.000000 0.000000 0.000000
# 2 -0.005249 0.009945 -0.007115 0.000000 0.000000 0.000000
# 3 -0.014195 -0.007115 0.024251 0.000000 0.000000 0.000000
# 4 0.000000 0.000000 0.000000 0.047827 0.000000 0.000000
# 5 0.000000 0.000000 0.000000 0.000000 0.045771 0.000000
# 6 0.000000 0.000000 0.000000 0.000000 0.000000 0.053696
#
#
# Mechanical properties :
#
#
# Convention : Reuss Voigt Hill
#
# Bulk Modulus (GPa) = 26.58519 57.79268 42.18893
# Shear Modulus (GPa) = 16.46451 21.85142 19.15796
#
# Velocity S-wave (km/s) = 3.23375 3.72539 3.48824
# Velocity P-wave (km/s) = 5.55230 7.43039 6.55892
#
# Compressibility (1/GPa) = 0.03761493
#
# Stress axis : x y z
#
# Youngs Moduli (GPa) = 17.68745 100.55495 41.23542
#
# Poissons Ratio (x) = 0.52776 0.58534
# Poissons Ratio (y) = 0.09283 0.29341
# Poissons Ratio (z) = 0.25107 0.71550
#
# Static dielectric constant tensor:
#      x y z
#    x 1.534020 0.000000 0.000000 
#    y 0.000000 1.578430 0.000000 
#    z 0.000000 0.000000 1.496000 
# 
# From -- ./inp_files/17088.got.cif
#   From: 2010.05.17/outbox.cif.g08.bks.cpg/sg38_9_cif.got.tgz:17088.got - 2010.06.03 18:07:57.
