data_PCOD9356476
_publ_section_title
;
Structure prediction by ZEFSAII (Michael W. Deem and Ramdas Pophale) SiO2 
 PCOD9356476
Probable space group: A M M 2
;
_chemical_formula_sum "Si O2"
_cell_formula_units_Z 64
_cell_length_a 8.703205
_cell_length_b 15.901503
_cell_length_c 24.357251
_cell_angle_alpha 90.000000
_cell_angle_beta 90.000000
_cell_angle_gamma 90.000000
_cell_volume 3370.898379
_symmetry_space_group_name_H-M "A M M 2"
_symmetry_group_IT_number 38
_symmetry_cell_setting 'orthorhombic'
loop_
_space_group_symop_operation_xyz
x,y,z
-x,-y,z
-x,y,z
x,-y,z
x,1/2+y,1/2+z
-x,1/2-y,1/2+z
-x,1/2+y,1/2+z
x,1/2-y,1/2+z
loop_
_atom_site_type_symbol
_atom_site_label
_atom_site_fract_x
_atom_site_fract_y
_atom_site_fract_z
Si Si1 0.183864 0.905592 0.633300
Si Si2 0.813118 0.406237 0.871929
Si Si3 0.186156 0.747405 0.444030
Si Si4 0.682589 0.750914 0.066098
Si Si5 0.815600 0.665199 0.753640
Si Si6 0.184453 0.405515 0.634630
Si Si7 0.682085 0.351677 0.248656
Si Si8 0.815435 0.905474 0.864732
O O1 0.255209 0.832165 0.596607
O O2 0.238141 0.892700 0.695845
O O3 0.000000 0.897865 0.631253
O O4 0.226564 0.000000 0.615109
O O5 0.758948 0.500000 0.885892
O O6 0.763615 0.332172 0.912539
O O7 0.771668 0.381796 0.809595
O O8 0.000000 0.407288 0.873628
O O9 0.252745 0.744439 0.504674
O O10 0.231809 0.666947 0.407267
O O11 0.000000 0.747621 0.447154
O O12 0.500000 0.748339 0.065515
O O13 0.738449 0.832484 0.099616
O O14 0.785650 0.611956 0.698973
O O15 0.730516 0.753874 0.749530
O O16 0.000000 0.681549 0.756072
O O17 0.233552 0.500000 0.619881
O O18 0.000000 0.399943 0.627007
O O19 0.500000 0.360379 0.243486
O O20 0.739274 0.390645 0.305750
O O21 0.000000 0.898210 0.857587
O O22 0.781405 0.000000 0.884391
#
# Coordination Sequence:
#
# PCOD9356476 Si02
#       8
#     8   8   8   8   8   8   8   8
#     4  11  24  43  67  91 117 156 207 257 302 358
#     4   9  17  32  59  92 119 146 190 244 292 341
#     4  10  21  39  61  86 116 156 207 254 292 345
#     4  12  26  42  61  88 124 163 200 250 313 369
#     4  10  18  34  61  90 122 157 194 239 294 355
#     4  10  21  38  64  94 122 158 204 249 295 355
#     4  12  23  35  58  92 129 162 192 237 306 373
#     4  10  21  39  63  89 117 155 204 252 294 345
#
# _framework density 18.986037
#
# number of rings (size 3 to 8) (size 9 to 14) (size 15 to 20)
#    0.000    1.500    2.500    3.375    0.000    6.000 
#    0.000    2.500    0.000    1.875    0.000    0.000 
#    0.000    0.000    0.000    0.000    0.000    0.000 
#
# Total GULP energy -178849.813852 kJ/mol
# GULP energy per Si atom -5589.056683 kJ/mol
# Density = 1.894282 g / cm^3
# Si number density = 18.986037 Si / 1000 Ang^3
#
#
#
# Elastic Constant Matrix: (Units=GPa)
#
#
# Indices 1 2 3 4 5 6 
#
# 1 38.8532 50.5425 41.0967 0.0000 0.0000 0.0000
# 2 50.5425 174.9634 71.1474 0.0000 0.0000 0.0000
# 3 41.0967 71.1474 134.5492 0.0000 0.0000 0.0000
# 4 0.0000 0.0000 0.0000 -1.7811 0.0000 0.0000
# 5 0.0000 0.0000 0.0000 0.0000 -289.5995 0.0000
# 6 0.0000 0.0000 0.0000 0.0000 0.0000 -10.1059
#
#
#
# Elastic Compliance Matrix: (Units=1/GPa)
#
#
# Indices 1 2 3 4 5 6 
#
# 1 0.049367 -0.010356 -0.009602 0.000000 0.000000 0.000000
# 2 -0.010356 0.009454 -0.001836 0.000000 0.000000 0.000000
# 3 -0.009602 -0.001836 0.011336 0.000000 0.000000 0.000000
# 4 0.000000 0.000000 0.000000 -0.561452 0.000000 0.000000
# 5 0.000000 0.000000 0.000000 0.000000 -0.003453 0.000000
# 6 0.000000 0.000000 0.000000 0.000000 0.000000 -0.098953
#
#
# Mechanical properties :
#
#
# Convention : Reuss Voigt Hill
#
# Bulk Modulus (GPa) = 37.63977 74.88209 56.26093
# Shear Modulus (GPa) = -9.23774 -47.92534 -28.58154
#
# Velocity S-wave (km/s) = -2.20819 -5.02963 -3.88415
# Velocity P-wave (km/s) = 3.65603 2.40762 3.09541
#
# Compressibility (1/GPa) = 0.02656765
#
# Stress axis : x y z
#
# Youngs Moduli (GPa) = 20.25665 105.78031 88.21532
#
# Poissons Ratio (x) = 1.09546 0.84708
# Poissons Ratio (y) = 0.20978 0.16194
# Poissons Ratio (z) = 0.19451 0.19419
#
# Static dielectric constant tensor:
#      x y z
#    x 1.638590 0.000000 0.000000 
#    y 0.000000 1.663650 0.000000 
#    z 0.000000 0.000000 1.624440 
# 
# From -- ./inp_files/22179.got.cif
#   From: 2010.05.17/outbox.cif.g08.bks.cpg/sg38_12_cif.got.tgz:22179.got - 2010.06.03 18:07:57.
