data_PCOD9356422
_publ_section_title
;
Structure prediction by ZEFSAII (Michael W. Deem and Ramdas Pophale) SiO2 
 PCOD9356422
Probable space group: A M M 2
;
_chemical_formula_sum "Si O2"
_cell_formula_units_Z 56
_cell_length_a 9.153087
_cell_length_b 20.274177
_cell_length_c 15.363210
_cell_angle_alpha 90.000000
_cell_angle_beta 90.000000
_cell_angle_gamma 90.000000
_cell_volume 2850.970943
_symmetry_space_group_name_H-M "A M M 2"
_symmetry_group_IT_number 38
_symmetry_cell_setting 'orthorhombic'
loop_
_space_group_symop_operation_xyz
x,y,z
-x,-y,z
-x,y,z
x,-y,z
x,1/2+y,1/2+z
-x,1/2-y,1/2+z
-x,1/2+y,1/2+z
x,1/2-y,1/2+z
loop_
_atom_site_type_symbol
_atom_site_label
_atom_site_fract_x
_atom_site_fract_y
_atom_site_fract_z
Si Si1 0.323746 0.279960 0.524560
Si Si2 0.838215 0.078915 0.442403
Si Si3 0.676598 0.573142 0.473910
Si Si4 0.331415 0.878913 0.783778
Si Si5 0.344615 0.075768 0.594469
Si Si6 0.173266 0.244560 0.704160
Si Si7 0.328218 0.311939 0.856210
O O1 0.500000 0.278434 0.533712
O O2 0.276470 0.357212 0.516595
O O3 0.250515 0.249021 0.610139
O O4 0.290175 0.239365 0.435385
O O5 0.795673 0.098418 0.541572
O O6 0.714805 0.115564 0.388481
O O7 0.000000 0.103571 0.420900
O O8 0.838700 0.000000 0.431390
O O9 0.500000 0.571745 0.482579
O O10 0.730069 0.500000 0.502045
O O11 0.708512 0.583479 0.371302
O O12 0.500000 0.854286 0.796051
O O13 0.331850 0.922437 0.697369
O O14 0.225261 0.820452 0.756123
O O15 0.500000 0.110103 0.571486
O O16 0.357294 0.000000 0.567892
O O17 0.237710 0.299525 0.768771
O O18 0.000000 0.247764 0.695206
O O19 0.500000 0.305426 0.839583
#
# Coordination Sequence:
#
# PCOD9356422 Si02
#       7
#     8   8   8   8   8   8   8
#     4  10  21  39  62  89 120 157 202 255 305 358
#     4  10  21  36  54  80 117 156 191 236 298 361
#     4   9  17  33  60  90 119 154 199 253 309 359
#     4  10  18  33  55  84 116 149 193 246 300 354
#     4   9  17  29  49  79 113 150 191 233 281 343
#     4  12  25  38  57  85 118 157 199 246 305 369
#     4  11  22  40  64  88 114 151 200 253 301 351
#
# _framework density 19.642430999999998
#
# number of rings (size 3 to 8) (size 9 to 14) (size 15 to 20)
#    0.000    1.857    1.429    3.429    0.000    7.714 
#    0.000    0.714    0.000    5.143    0.000    0.000 
#    0.000    0.000    0.000    0.000    0.000    0.000 
#
# Total GULP energy -156039.109926 kJ/mol
# GULP energy per Si atom -5572.825354 kJ/mol
# Density = 1.959772 g / cm^3
# Si number density = 19.642431 Si / 1000 Ang^3
#
#
#
# Elastic Constant Matrix: (Units=GPa)
#
#
# Indices 1 2 3 4 5 6 
#
# 1 62.8072 17.8766 28.5251 0.0000 0.0000 0.0000
# 2 17.8766 80.0620 5.4875 0.0000 0.0000 0.0000
# 3 28.5251 5.4875 58.6744 0.0000 0.0000 0.0000
# 4 0.0000 0.0000 0.0000 21.7409 0.0000 0.0000
# 5 0.0000 0.0000 0.0000 0.0000 0.0775 0.0000
# 6 0.0000 0.0000 0.0000 0.0000 0.0000 19.1868
#
#
#
# Elastic Compliance Matrix: (Units=1/GPa)
#
#
# Indices 1 2 3 4 5 6 
#
# 1 0.021724 -0.004153 -0.010173 0.000000 0.000000 0.000000
# 2 -0.004153 0.013365 0.000769 0.000000 0.000000 0.000000
# 3 -0.010173 0.000769 0.021917 0.000000 0.000000 0.000000
# 4 0.000000 0.000000 0.000000 0.045996 0.000000 0.000000
# 5 0.000000 0.000000 0.000000 0.000000 12.904734 0.000000
# 6 0.000000 0.000000 0.000000 0.000000 0.000000 0.052119
#
#
# Mechanical properties :
#
#
# Convention : Reuss Voigt Hill
#
# Bulk Modulus (GPa) = 33.45391 33.92468 33.68930
# Shear Modulus (GPa) = 0.38177 18.17800 9.27989
#
# Velocity S-wave (km/s) = 0.44134 3.04541 2.17593
# Velocity P-wave (km/s) = 4.16271 5.44745 4.84782
#
# Compressibility (1/GPa) = 0.02989187
#
# Stress axis : x y z
#
# Youngs Moduli (GPa) = 46.03169 74.82243 45.62683
#
# Poissons Ratio (x) = 0.31077 0.46416
# Poissons Ratio (y) = 0.19119 -0.03510
# Poissons Ratio (z) = 0.46828 -0.05756
#
# Static dielectric constant tensor:
#      x y z
#    x 1.699340 0.000000 0.000000 
#    y 0.000000 1.801830 0.000000 
#    z 0.000000 0.000000 1.691430 
# 
# From -- ./inp_files/12367.got.cif
#   From: 2010.05.17/outbox.cif.g08.bks.cpg/sg38_7_cif.got.tgz:12367.got - 2010.06.03 18:07:57.
