data_PCOD9356829
_publ_section_title
;
Structure prediction by ZEFSAII (Michael W. Deem and Ramdas Pophale) SiO2 
 PCOD9356829
Probable space group: A M M 2
;
_chemical_formula_sum "Si O2"
_cell_formula_units_Z 56
_cell_length_a 7.602125
_cell_length_b 16.612157
_cell_length_c 20.278954
_cell_angle_alpha 90.000000
_cell_angle_beta 90.000000
_cell_angle_gamma 90.000000
_cell_volume 2560.982338
_symmetry_space_group_name_H-M "A M M 2"
_symmetry_group_IT_number 38
_symmetry_cell_setting 'orthorhombic'
loop_
_space_group_symop_operation_xyz
x,y,z
-x,-y,z
-x,y,z
x,-y,z
x,1/2+y,1/2+z
-x,1/2-y,1/2+z
-x,1/2+y,1/2+z
x,1/2-y,1/2+z
loop_
_atom_site_type_symbol
_atom_site_label
_atom_site_fract_x
_atom_site_fract_y
_atom_site_fract_z
Si Si1 0.787428 0.124798 0.306170
Si Si2 0.291519 0.091741 0.709827
Si Si3 0.702164 0.254899 0.128246
Si Si4 0.802040 0.739371 0.480818
Si Si5 0.702525 0.586153 0.949886
Si Si6 0.788371 0.692497 0.337729
Si Si7 0.295949 0.414893 0.663309
O O1 0.709876 0.085636 0.371190
O O2 0.741086 0.219904 0.308465
O O3 0.711119 0.085213 0.241771
O O4 0.000000 0.117306 0.307056
O O5 0.500000 0.085712 0.697127
O O6 0.223126 0.162174 0.659624
O O7 0.268279 0.125693 0.784654
O O8 0.220452 0.000000 0.702985
O O9 0.500000 0.253499 0.152388
O O10 0.791110 0.171112 0.149025
O O11 0.701963 0.243698 0.049608
O O12 0.809540 0.834224 0.464734
O O13 0.728022 0.695458 0.414858
O O14 0.000000 0.708646 0.492157
O O15 0.500000 0.596535 0.971862
O O16 0.766848 0.500000 0.975751
O O17 0.000000 0.689235 0.341495
O O18 0.500000 0.412415 0.640707
O O19 0.220095 0.500000 0.638640
#
# Coordination Sequence:
#
# PCOD9356829 Si02
#       7
#     8   8   8   8   8   8   8
#     4  10  19  31  51  80 113 144 177 222 275 331
#     4  10  21  37  60  89 117 151 198 246 293 348
#     4  10  21  38  57  82 117 154 190 240 295 346
#     4  10  22  38  57  81 111 150 194 241 293 351
#     4  10  20  33  51  77 109 145 184 225 275 338
#     4   9  19  36  56  81 112 148 189 234 285 342
#     4  10  20  34  54  80 109 144 186 227 275 338
#
# _framework density 21.866609
#
# number of rings (size 3 to 8) (size 9 to 14) (size 15 to 20)
#    0.000    2.143    1.429    2.571    0.000    8.000 
#    0.000    2.143    0.000    2.571    0.000    0.000 
#    0.000    0.000    0.000    0.000    0.000    0.000 
#
# Total GULP energy -155948.593635 kJ/mol
# GULP energy per Si atom -5569.592630 kJ/mol
# Density = 2.181684 g / cm^3
# Si number density = 21.866609 Si / 1000 Ang^3
#
#
#
# Elastic Constant Matrix: (Units=GPa)
#
#
# Indices 1 2 3 4 5 6 
#
# 1 58.6708 9.8810 -3.5388 0.0000 0.0000 0.0000
# 2 9.8810 163.3297 43.5465 0.0000 0.0000 0.0000
# 3 -3.5388 43.5465 87.5206 0.0000 0.0000 0.0000
# 4 0.0000 0.0000 0.0000 -378.0071 0.0000 0.0000
# 5 0.0000 0.0000 0.0000 0.0000 31.0265 0.0000
# 6 0.0000 0.0000 0.0000 0.0000 0.0000 36.0363
#
#
#
# Elastic Compliance Matrix: (Units=1/GPa)
#
#
# Indices 1 2 3 4 5 6 
#
# 1 0.017370 -0.001427 0.001413 0.000000 0.000000 0.000000
# 2 -0.001427 0.007176 -0.003628 0.000000 0.000000 0.000000
# 3 0.001413 -0.003628 0.013288 0.000000 0.000000 0.000000
# 4 0.000000 0.000000 0.000000 -0.002645 0.000000 0.000000
# 5 0.000000 0.000000 0.000000 0.000000 0.032231 0.000000
# 6 0.000000 0.000000 0.000000 0.000000 0.000000 0.027750
#
#
# Mechanical properties :
#
#
# Convention : Reuss Voigt Hill
#
# Bulk Modulus (GPa) = 32.73532 45.47762 39.10647
# Shear Modulus (GPa) = 44.38980 -44.88004 -0.24512
#
# Velocity S-wave (km/s) = 4.51047 -4.53531 -0.33518
# Velocity P-wave (km/s) = 6.49067 2.56563 4.21582
#
# Compressibility (1/GPa) = 0.03054804
#
# Stress axis : x y z
#
# Youngs Moduli (GPa) = 57.57098 139.34711 75.25412
#
# Poissons Ratio (x) = 0.19891 -0.10630
# Poissons Ratio (y) = 0.08218 0.27305
# Poissons Ratio (z) = -0.08132 0.50560
#
# Static dielectric constant tensor:
#      x y z
#    x 1.793000 0.000000 0.000000 
#    y 0.000000 1.882610 0.000000 
#    z 0.000000 0.000000 1.842840 
# 
# From -- ./inp_files/19735.got.cif
#   From: 2010.05.17/outbox.cif.g08.bks.cpg/sg38_10_cif.got.tgz:19735.got - 2010.06.03 18:07:57.
