data_PCOD9356412
_publ_section_title
;
Structure prediction by ZEFSAII (Michael W. Deem and Ramdas Pophale) SiO2 
 PCOD9356412
Probable space group: A M M 2
;
_chemical_formula_sum "Si O2"
_cell_formula_units_Z 64
_cell_length_a 20.395299
_cell_length_b 7.931771
_cell_length_c 20.748529
_cell_angle_alpha 90.000000
_cell_angle_beta 90.000000
_cell_angle_gamma 90.000000
_cell_volume 3356.506989
_symmetry_space_group_name_H-M "A M M 2"
_symmetry_group_IT_number 38
_symmetry_cell_setting 'orthorhombic'
loop_
_space_group_symop_operation_xyz
x,y,z
-x,-y,z
-x,y,z
x,-y,z
x,1/2+y,1/2+z
-x,1/2-y,1/2+z
-x,1/2+y,1/2+z
x,1/2-y,1/2+z
loop_
_atom_site_type_symbol
_atom_site_label
_atom_site_fract_x
_atom_site_fract_y
_atom_site_fract_z
Si Si1 0.424770 0.293056 0.579780
Si Si2 0.926951 0.701790 0.914124
Si Si3 0.668763 0.796959 0.193494
Si Si4 0.849893 0.701849 0.291408
Si Si5 0.326185 0.199079 0.971002
Si Si6 0.295466 0.202523 0.830863
Si Si7 0.816859 0.301979 0.012355
Si Si8 0.814481 0.200544 0.153467
O O1 0.500000 0.239239 0.576754
O O2 0.424165 0.500000 0.579412
O O3 0.387678 0.239759 0.645058
O O4 0.380879 0.232879 0.519595
O O5 0.929042 0.500000 0.923204
O O6 0.903931 0.736753 0.841425
O O7 0.000000 0.768904 0.926026
O O8 0.871194 0.767428 0.962929
O O9 0.662886 0.744052 0.267588
O O10 0.740161 0.736793 0.168412
O O11 0.670527 0.000000 0.191739
O O12 0.848946 0.500000 0.292342
O O13 0.778710 0.765246 0.317161
O O14 0.855504 0.758920 0.217524
O O15 0.322459 0.269745 0.898531
O O16 0.339802 0.000000 0.965321
O O17 0.253897 0.218633 0.001334
O O18 0.291044 0.000000 0.836060
O O19 0.808043 0.500000 0.999349
O O20 0.837610 0.277580 0.086344
O O21 0.811794 0.000000 0.145134
#
# Coordination Sequence:
#
# PCOD9356412 Si02
#       8
#     8   8   8   8   8   8   8   8
#     4   9  17  31  52  76 102 138 183 223 263 319
#     4  10  22  39  56  77 109 146 181 219 269 328
#     4   9  17  30  50  74 100 132 173 216 260 312
#     4  10  19  33  54  81 109 137 174 221 269 320
#     4  10  18  33  53  76 105 139 177 222 269 319
#     4   9  18  30  49  76 106 132 165 216 267 312
#     4  11  21  33  54  82 108 139 180 227 273 320
#     4  10  19  33  54  79 108 139 176 223 271 318
#
# _framework density 19.067442
#
# number of rings (size 3 to 8) (size 9 to 14) (size 15 to 20)
#    0.000    2.250    2.500    1.125    0.000    2.250 
#    0.000    1.250    0.000    4.500    0.000    0.000 
#    0.000    0.000    0.000    0.000    0.000    0.000 
#
# Total GULP energy -178540.880751 kJ/mol
# GULP energy per Si atom -5579.402523 kJ/mol
# Density = 1.902404 g / cm^3
# Si number density = 19.067442 Si / 1000 Ang^3
#
#
#
# Elastic Constant Matrix: (Units=GPa)
#
#
# Indices 1 2 3 4 5 6 
#
# 1 82.6147 -5.6729 40.3297 0.0000 0.0000 0.0000
# 2 -5.6729 12.3575 -12.1772 0.0000 0.0000 0.0000
# 3 40.3297 -12.1772 128.9075 0.0000 0.0000 0.0000
# 4 0.0000 0.0000 0.0000 22.0897 0.0000 0.0000
# 5 0.0000 0.0000 0.0000 0.0000 23.6267 0.0000
# 6 0.0000 0.0000 0.0000 0.0000 0.0000 11.3379
#
#
#
# Elastic Compliance Matrix: (Units=1/GPa)
#
#
# Indices 1 2 3 4 5 6 
#
# 1 0.014350 0.002386 -0.004264 0.000000 0.000000 0.000000
# 2 0.002386 0.089625 0.007720 0.000000 0.000000 0.000000
# 3 -0.004264 0.007720 0.009821 0.000000 0.000000 0.000000
# 4 0.000000 0.000000 0.000000 0.045270 0.000000 0.000000
# 5 0.000000 0.000000 0.000000 0.000000 0.042325 0.000000
# 6 0.000000 0.000000 0.000000 0.000000 0.000000 0.088200
#
#
# Mechanical properties :
#
#
# Convention : Reuss Voigt Hill
#
# Bulk Modulus (GPa) = 7.96945 29.87097 18.92021
# Shear Modulus (GPa) = 15.63799 24.83752 20.23775
#
# Velocity S-wave (km/s) = 2.86692 3.61309 3.26141
# Velocity P-wave (km/s) = 3.89200 5.75377 4.91190
#
# Compressibility (1/GPa) = 0.12547911
#
# Stress axis : x y z
#
# Youngs Moduli (GPa) = 69.68753 11.15756 101.82437
#
# Poissons Ratio (x) = -0.02662 0.43419
# Poissons Ratio (y) = -0.16624 -0.78610
# Poissons Ratio (z) = 0.29715 -0.08614
#
# Static dielectric constant tensor:
#      x y z
#    x 1.646830 0.000000 0.000000 
#    y 0.000000 1.687440 0.000000 
#    z 0.000000 0.000000 1.675870 
# 
# From -- ./inp_files/21344.got.cif
#   From: 2010.05.17/outbox.cif.g08.bks.cpg/sg38_11_cif.got.tgz:21344.got - 2010.06.03 18:07:57.
