data_PCOD9356046
_publ_section_title
;
Structure prediction by ZEFSAII (Michael W. Deem and Ramdas Pophale) SiO2 
 PCOD9356046
Probable space group: A M M 2
;
_chemical_formula_sum "Si O2"
_cell_formula_units_Z 64
_cell_length_a 14.396313
_cell_length_b 7.740953
_cell_length_c 29.340382
_cell_angle_alpha 90.000000
_cell_angle_beta 90.000000
_cell_angle_gamma 90.000000
_cell_volume 3269.726859
_symmetry_space_group_name_H-M "A M M 2"
_symmetry_group_IT_number 38
_symmetry_cell_setting 'orthorhombic'
loop_
_space_group_symop_operation_xyz
x,y,z
-x,-y,z
-x,y,z
x,-y,z
x,1/2+y,1/2+z
-x,1/2-y,1/2+z
-x,1/2+y,1/2+z
x,1/2-y,1/2+z
loop_
_atom_site_type_symbol
_atom_site_label
_atom_site_fract_x
_atom_site_fract_y
_atom_site_fract_z
Si Si1 0.889930 0.204995 0.464560
Si Si2 0.896038 0.205137 0.825874
Si Si3 0.894813 0.788973 0.565085
Si Si4 0.251650 0.306240 0.393723
Si Si5 0.605811 0.207181 0.072618
Si Si6 0.760691 0.794804 0.641869
Si Si7 0.609757 0.710071 0.470699
Si Si8 0.897231 0.294688 0.720192
O O1 0.862052 0.260870 0.515131
O O2 0.834425 0.311565 0.428376
O O3 0.000000 0.226227 0.460804
O O4 0.870318 0.000000 0.458798
O O5 0.803238 0.276868 0.850767
O O6 0.888376 0.227686 0.771659
O O7 0.000000 0.273708 0.839314
O O8 0.896995 0.000000 0.835688
O O9 0.832147 0.720200 0.604840
O O10 0.000000 0.732845 0.571160
O O11 0.894637 0.000000 0.565602
O O12 0.283324 0.500000 0.380577
O O13 0.331383 0.226823 0.426735
O O14 0.500000 0.268806 0.077259
O O15 0.663199 0.248982 0.118215
O O16 0.604555 0.000000 0.069071
O O17 0.639530 0.269722 0.022022
O O18 0.806990 0.746978 0.689892
O O19 0.764326 0.000000 0.640796
O O20 0.500000 0.749357 0.466263
O O21 0.619295 0.500000 0.470108
O O22 0.902402 0.500000 0.722364
O O23 0.000000 0.231842 0.702361
#
# Coordination Sequence:
#
# PCOD9356046 Si02
#       8
#     8   8   8   8   8   8   8   8
#     4   9  17  28  41  60  91 128 159 186 223 279
#     4   9  18  32  48  68  96 127 160 202 252 299
#     4   8  15  27  41  61  92 127 157 184 224 283
#     4  10  18  28  47  72  95 122 160 204 245 287
#     4   9  18  33  51  71 100 137 172 206 245 290
#     4  11  20  30  50  75  98 126 161 204 252 299
#     4   8  15  29  49  73 101 133 167 202 242 287
#     4  10  21  36  53  73  97 127 166 207 245 295
#
# _framework density 19.573501
#
# number of rings (size 3 to 8) (size 9 to 14) (size 15 to 20)
#    0.000    2.750    0.000    3.750    0.000    2.750 
#    0.000    1.875    0.000    3.375    0.000    1.750 
#    0.000    0.000    0.000    0.000    0.000    0.000 
#
# Total GULP energy -178139.617163 kJ/mol
# GULP energy per Si atom -5566.863036 kJ/mol
# Density = 1.952895 g / cm^3
# Si number density = 19.573501 Si / 1000 Ang^3
#
#
#
# Elastic Constant Matrix: (Units=GPa)
#
#
# Indices 1 2 3 4 5 6 
#
# 1 98.6968 8.2111 60.6868 0.0000 0.0000 0.0000
# 2 8.2111 32.9133 1.4590 0.0000 0.0000 0.0000
# 3 60.6868 1.4590 93.1137 0.0000 0.0000 0.0000
# 4 0.0000 0.0000 0.0000 5.1967 0.0000 0.0000
# 5 0.0000 0.0000 0.0000 0.0000 3.7030 0.0000
# 6 0.0000 0.0000 0.0000 0.0000 0.0000 10.2441
#
#
#
# Elastic Compliance Matrix: (Units=1/GPa)
#
#
# Indices 1 2 3 4 5 6 
#
# 1 0.017379 -0.003836 -0.011266 0.000000 0.000000 0.000000
# 2 -0.003836 0.031251 0.002011 0.000000 0.000000 0.000000
# 3 -0.011266 0.002011 0.018051 0.000000 0.000000 0.000000
# 4 0.000000 0.000000 0.000000 0.192432 0.000000 0.000000
# 5 0.000000 0.000000 0.000000 0.000000 0.270054 0.000000
# 6 0.000000 0.000000 0.000000 0.000000 0.000000 0.097617
#
#
# Mechanical properties :
#
#
# Convention : Reuss Voigt Hill
#
# Bulk Modulus (GPa) = 24.69363 40.60418 32.64890
# Shear Modulus (GPa) = 7.50227 14.11988 10.81107
#
# Velocity S-wave (km/s) = 1.95990 2.68876 2.35272
# Velocity P-wave (km/s) = 4.21483 5.51623 4.90885
#
# Compressibility (1/GPa) = 0.04049627
#
# Stress axis : x y z
#
# Youngs Moduli (GPa) = 57.54161 31.99925 55.39868
#
# Poissons Ratio (x) = 0.12275 0.62415
# Poissons Ratio (y) = 0.22074 -0.11138
# Poissons Ratio (z) = 0.64829 -0.06434
#
# Static dielectric constant tensor:
#      x y z
#    x 1.742570 0.000000 0.000000 
#    y 0.000000 1.725700 0.000000 
#    z 0.000000 0.000000 1.737380 
# 
# From -- ./inp_files/25104.got.cif
#   From: 2010.05.17/outbox.cif.g08.bks.cpg/sg38_13_cif.got.tgz:25104.got - 2010.06.03 18:07:57.
