data_PCOD9356898
_publ_section_title
;
Structure prediction by ZEFSAII (Michael W. Deem and Ramdas Pophale) SiO2 
 PCOD9356898
Probable space group: A M M 2
;
_chemical_formula_sum "Si O2"
_cell_formula_units_Z 64
_cell_length_a 15.170300
_cell_length_b 7.923015
_cell_length_c 25.656047
_cell_angle_alpha 90.000000
_cell_angle_beta 90.000000
_cell_angle_gamma 90.000000
_cell_volume 3083.716112
_symmetry_space_group_name_H-M "A M M 2"
_symmetry_group_IT_number 38
_symmetry_cell_setting 'orthorhombic'
loop_
_space_group_symop_operation_xyz
x,y,z
-x,-y,z
-x,y,z
x,-y,z
x,1/2+y,1/2+z
-x,1/2-y,1/2+z
-x,1/2+y,1/2+z
x,1/2-y,1/2+z
loop_
_atom_site_type_symbol
_atom_site_label
_atom_site_fract_x
_atom_site_fract_y
_atom_site_fract_z
Si Si1 0.102531 0.793650 0.875000
Si Si2 0.790281 0.793470 0.977459
Si Si3 0.907179 0.698122 0.195224
Si Si4 0.403870 0.295556 0.510385
Si Si5 0.774235 0.203792 0.778843
Si Si6 0.152497 0.190562 0.088462
Si Si7 0.402653 0.299872 0.732631
Si Si8 0.337459 0.693511 0.119775
O O1 0.154395 0.740890 0.927227
O O2 0.163763 0.741294 0.826442
O O3 0.000000 0.738711 0.872500
O O4 0.100373 0.000000 0.874605
O O5 0.687023 0.741263 0.981673
O O6 0.789865 0.000000 0.978483
O O7 0.839079 0.737297 0.030500
O O8 0.909181 0.500000 0.207728
O O9 0.823773 0.765612 0.226427
O O10 0.899038 0.716063 0.133591
O O11 0.000000 0.773906 0.213054
O O12 0.500000 0.245796 0.488359
O O13 0.401460 0.500000 0.512192
O O14 0.397882 0.228693 0.569703
O O15 0.673827 0.260319 0.773854
O O16 0.771141 0.000000 0.780000
O O17 0.252754 0.191265 0.109551
O O18 0.118588 0.000000 0.085176
O O19 0.500000 0.241322 0.748731
O O20 0.404495 0.500000 0.725335
O O21 0.379754 0.223691 0.675909
O O22 0.306205 0.500000 0.118162
#
# Coordination Sequence:
#
# PCOD9356898 Si02
#       8
#     8   8   8   8   8   8   8   8
#     4   9  17  32  56  83 109 140 180 228 279 324
#     4   8  16  30  49  76 107 138 179 227 271 319
#     4  10  20  33  50  76 110 145 178 219 276 334
#     4   9  17  30  48  72 106 146 184 223 269 321
#     4  10  20  35  56  81 108 140 182 229 272 321
#     4  10  19  32  51  77 111 148 184 222 268 322
#     4  11  23  37  54  77 108 146 182 219 270 328
#     4  11  20  31  50  77 109 144 182 224 268 319
#
# _framework density 20.754179000000001
#
# number of rings (size 3 to 8) (size 9 to 14) (size 15 to 20)
#    0.000    2.250    1.250    3.375    0.000    5.000 
#    0.000    1.875    0.000    7.125    0.000    0.000 
#    0.000    0.000    0.000    0.000    0.000    0.000 
#
# Total GULP energy -178448.777367 kJ/mol
# GULP energy per Si atom -5576.524293 kJ/mol
# Density = 2.070694 g / cm^3
# Si number density = 20.754179 Si / 1000 Ang^3
#
#
#
# Elastic Constant Matrix: (Units=GPa)
#
#
# Indices 1 2 3 4 5 6 
#
# 1 157.9438 4.7196 73.2416 0.0000 0.0000 0.0000
# 2 4.7196 32.2729 4.9014 0.0000 0.0000 0.0000
# 3 73.2416 4.9014 118.3027 0.0000 0.0000 0.0000
# 4 0.0000 0.0000 0.0000 15.0833 0.0000 0.0000
# 5 0.0000 0.0000 0.0000 0.0000 13.6845 0.0000
# 6 0.0000 0.0000 0.0000 0.0000 0.0000 17.5778
#
#
#
# Elastic Compliance Matrix: (Units=1/GPa)
#
#
# Indices 1 2 3 4 5 6 
#
# 1 0.008888 -0.000467 -0.005483 0.000000 0.000000 0.000000
# 2 -0.000467 0.031206 -0.001004 0.000000 0.000000 0.000000
# 3 -0.005483 -0.001004 0.011889 0.000000 0.000000 0.000000
# 4 0.000000 0.000000 0.000000 0.066298 0.000000 0.000000
# 5 0.000000 0.000000 0.000000 0.000000 0.073075 0.000000
# 6 0.000000 0.000000 0.000000 0.000000 0.000000 0.056890
#
#
# Mechanical properties :
#
#
# Convention : Reuss Voigt Hill
#
# Bulk Modulus (GPa) = 26.26356 52.69383 39.47870
# Shear Modulus (GPa) = 18.19190 24.31290 21.25240
#
# Velocity S-wave (km/s) = 2.96386 3.42639 3.20348
# Velocity P-wave (km/s) = 4.93909 6.41078 5.72245
#
# Compressibility (1/GPa) = 0.03807557
#
# Stress axis : x y z
#
# Youngs Moduli (GPa) = 112.51112 32.04462 84.11012
#
# Poissons Ratio (x) = 0.01497 0.46120
# Poissons Ratio (y) = 0.05254 0.08443
# Poissons Ratio (z) = 0.61693 0.03217
#
# Static dielectric constant tensor:
#      x y z
#    x 1.798910 0.000000 0.000000 
#    y 0.000000 1.743650 0.000000 
#    z 0.000000 0.000000 1.729040 
# 
# From -- ./inp_files/22968.got.cif
#   From: 2010.05.17/outbox.cif.g08.bks.cpg/sg38_12_cif.got.tgz:22968.got - 2010.06.03 18:07:57.
