data_PCOD9356017
_publ_section_title
;
Structure prediction by ZEFSAII (Michael W. Deem and Ramdas Pophale) SiO2 
 PCOD9356017
Probable space group: A M M 2
;
_chemical_formula_sum "Si O2"
_cell_formula_units_Z 64
_cell_length_a 7.657750
_cell_length_b 19.375970
_cell_length_c 22.461688
_cell_angle_alpha 90.000000
_cell_angle_beta 90.000000
_cell_angle_gamma 90.000000
_cell_volume 3332.782927
_symmetry_space_group_name_H-M "A M M 2"
_symmetry_group_IT_number 38
_symmetry_cell_setting 'orthorhombic'
loop_
_space_group_symop_operation_xyz
x,y,z
-x,-y,z
-x,y,z
x,-y,z
x,1/2+y,1/2+z
-x,1/2-y,1/2+z
-x,1/2+y,1/2+z
x,1/2-y,1/2+z
loop_
_atom_site_type_symbol
_atom_site_label
_atom_site_fract_x
_atom_site_fract_y
_atom_site_fract_z
Si Si1 0.794004 0.923676 0.007790
Si Si2 0.790938 0.372495 0.169212
Si Si3 0.207276 0.327934 0.404909
Si Si4 0.705023 0.222351 0.493852
Si Si5 0.289035 0.723629 0.622450
Si Si6 0.786017 0.578509 0.297792
Si Si7 0.210854 0.075595 0.541887
Si Si8 0.300173 0.924321 0.142709
O O1 0.700165 0.923918 0.070710
O O2 0.000000 0.910031 0.019749
O O3 0.784326 0.000000 0.981233
O O4 0.719804 0.871654 0.960207
O O5 0.753900 0.291459 0.160331
O O6 0.725539 0.402858 0.231251
O O7 0.725168 0.409441 0.109279
O O8 0.000000 0.381690 0.169610
O O9 0.231230 0.251218 0.430399
O O10 0.272939 0.362252 0.344178
O O11 0.000000 0.340248 0.403758
O O12 0.500000 0.233695 0.495302
O O13 0.776862 0.260415 0.554462
O O14 0.738673 0.141507 0.503132
O O15 0.500000 0.717669 0.619130
O O16 0.222363 0.652302 0.652262
O O17 0.734864 0.500000 0.314092
O O18 0.000000 0.579103 0.297088
O O19 0.000000 0.074911 0.543708
O O20 0.270640 0.000000 0.522018
O O21 0.500000 0.924450 0.164680
O O22 0.222243 0.000000 0.159470
#
# Coordination Sequence:
#
# PCOD9356017 Si02
#       8
#     8   8   8   8   8   8   8   8
#     4   9  16  24  36  57  84 114 147 181 216 255
#     4   9  17  29  48  70  91 120 157 195 232 274
#     4  10  18  28  44  64  90 123 156 189 225 267
#     4  10  19  30  44  65  93 123 154 189 232 279
#     4   9  17  29  43  62  89 120 152 190 236 280
#     4   9  17  30  48  70  95 124 160 197 230 269
#     4   9  17  30  49  72  95 119 150 191 238 284
#     4   9  16  26  40  58  83 116 150 181 218 268
#
# _framework density 19.203168999999999
#
# number of rings (size 3 to 8) (size 9 to 14) (size 15 to 20)
#    0.000    2.750    1.250    1.125    0.000    4.250 
#    0.000    0.625    0.000    3.000    0.000    0.875 
#    0.000    5.000    0.000    0.000    0.000    0.125 
#
# Total GULP energy -178160.429046 kJ/mol
# GULP energy per Si atom -5567.513408 kJ/mol
# Density = 1.915946 g / cm^3
# Si number density = 19.203169 Si / 1000 Ang^3
#
#
#
# Elastic Constant Matrix: (Units=GPa)
#
#
# Indices 1 2 3 4 5 6 
#
# 1 37.6159 -0.6176 2.3816 0.0000 0.0000 0.0000
# 2 -0.6176 124.8532 38.8572 0.0000 0.0000 0.0000
# 3 2.3816 38.8572 70.1299 0.0000 0.0000 0.0000
# 4 0.0000 0.0000 0.0000 24.0261 0.0000 0.0000
# 5 0.0000 0.0000 0.0000 0.0000 -14.7610 0.0000
# 6 0.0000 0.0000 0.0000 0.0000 0.0000 -7.6071
#
#
#
# Elastic Compliance Matrix: (Units=1/GPa)
#
#
# Indices 1 2 3 4 5 6 
#
# 1 0.026668 0.000500 -0.001183 0.000000 0.000000 0.000000
# 2 0.000500 0.009688 -0.005385 0.000000 0.000000 0.000000
# 3 -0.001183 -0.005385 0.017283 0.000000 0.000000 0.000000
# 4 0.000000 0.000000 0.000000 0.041621 0.000000 0.000000
# 5 0.000000 0.000000 0.000000 0.000000 -0.067746 0.000000
# 6 0.000000 0.000000 0.000000 0.000000 0.000000 -0.131456
#
#
# Mechanical properties :
#
#
# Convention : Reuss Voigt Hill
#
# Bulk Modulus (GPa) = 24.09434 34.87125 29.48280
# Shear Modulus (GPa) = -64.12447 13.13013 -25.49717
#
# Velocity S-wave (km/s) = -5.78491 2.61769 -3.64780
# Velocity P-wave (km/s) = 5.66091 5.22829 1.53475
#
# Compressibility (1/GPa) = 0.04150352
#
# Stress axis : x y z
#
# Youngs Moduli (GPa) = 37.49873 103.22346 57.86053
#
# Poissons Ratio (x) = -0.05161 0.06843
# Poissons Ratio (y) = -0.01875 0.31156
# Poissons Ratio (z) = 0.04435 0.55583
#
# Static dielectric constant tensor:
#      x y z
#    x 1.711480 0.000000 0.000000 
#    y 0.000000 1.765720 0.000000 
#    z 0.000000 0.000000 1.650600 
# 
# From -- ./inp_files/22266.got.cif
#   From: 2010.05.17/outbox.cif.g08.bks.cpg/sg38_12_cif.got.tgz:22266.got - 2010.06.03 18:07:57.
