data_PCOD9356003
_publ_section_title
;
Structure prediction by ZEFSAII (Michael W. Deem and Ramdas Pophale) SiO2 
 PCOD9356003
Probable space group: A M M 2
;
_chemical_formula_sum "Si O2"
_cell_formula_units_Z 64
_cell_length_a 8.736649
_cell_length_b 18.995574
_cell_length_c 27.062259
_cell_angle_alpha 90.000000
_cell_angle_beta 90.000000
_cell_angle_gamma 90.000000
_cell_volume 4491.189248
_symmetry_space_group_name_H-M "A M M 2"
_symmetry_group_IT_number 38
_symmetry_cell_setting 'orthorhombic'
loop_
_space_group_symop_operation_xyz
x,y,z
-x,-y,z
-x,y,z
x,-y,z
x,1/2+y,1/2+z
-x,1/2-y,1/2+z
-x,1/2+y,1/2+z
x,1/2-y,1/2+z
loop_
_atom_site_type_symbol
_atom_site_label
_atom_site_fract_x
_atom_site_fract_y
_atom_site_fract_z
Si Si1 0.685020 0.156046 0.593470
Si Si2 0.817549 0.337767 0.797020
Si Si3 0.323893 0.207504 0.142613
Si Si4 0.683443 0.582351 0.889945
Si Si5 0.676280 0.792927 0.746707
Si Si6 0.182410 0.416920 0.997597
Si Si7 0.313770 0.581407 0.702479
Si Si8 0.816690 0.081559 0.690416
O O1 0.500000 0.155919 0.595391
O O2 0.742162 0.235961 0.604428
O O3 0.743487 0.126710 0.541826
O O4 0.745895 0.108081 0.638541
O O5 0.754516 0.368448 0.848122
O O6 0.759387 0.258927 0.784823
O O7 0.752440 0.387370 0.753187
O O8 0.000000 0.339433 0.796199
O O9 0.500000 0.195426 0.127677
O O10 0.323740 0.249904 0.194684
O O11 0.257950 0.131936 0.157835
O O12 0.500000 0.587951 0.889278
O O13 0.723406 0.500000 0.880010
O O14 0.746636 0.599976 0.944241
O O15 0.500000 0.803545 0.760926
O O16 0.755884 0.866302 0.732998
O O17 0.211784 0.500000 0.006746
O O18 0.000000 0.406537 0.996563
O O19 0.500000 0.587173 0.705046
O O20 0.274149 0.500000 0.696312
O O21 0.000000 0.087638 0.687160
O O22 0.776602 0.000000 0.698776
#
# Coordination Sequence:
#
# PCOD9356003 Si02
#       8
#     8   8   8   8   8   8   8   8
#     4  10  18  28  43  60  82 115 150 178 208 253
#     4  11  20  29  43  62  86 114 142 174 214 255
#     4   7  13  25  39  57  79 104 137 175 208 240
#     4  10  20  33  47  62  82 110 144 178 211 252
#     4   9  17  30  45  60  81 110 145 179 209 248
#     4  10  20  32  44  60  83 108 138 180 222 254
#     4   9  16  27  43  61  83 113 147 179 210 247
#     4  10  19  29  42  63  90 116 143 177 216 255
#
# _framework density 14.250123
#
# number of rings (size 3 to 8) (size 9 to 14) (size 15 to 20)
#    0.000    2.500    0.000    5.250    0.000    5.750 
#    0.000    0.625    0.000    0.000    0.000    0.000 
#    0.000    1.000    0.000    5.000    0.000    3.375 
#
# Total GULP energy -178287.545648 kJ/mol
# GULP energy per Si atom -5571.485801 kJ/mol
# Density = 1.421769 g / cm^3
# Si number density = 14.250123 Si / 1000 Ang^3
#
#
#
# Elastic Constant Matrix: (Units=GPa)
#
#
# Indices 1 2 3 4 5 6 
#
# 1 58.5332 46.9693 39.4443 0.0000 0.0000 0.0000
# 2 46.9693 127.4034 69.0524 0.0000 0.0000 0.0000
# 3 39.4443 69.0524 92.8545 0.0000 0.0000 0.0000
# 4 0.0000 0.0000 0.0000 27.9683 0.0000 0.0000
# 5 0.0000 0.0000 0.0000 0.0000 18.6367 0.0000
# 6 0.0000 0.0000 0.0000 0.0000 0.0000 18.7620
#
#
#
# Elastic Compliance Matrix: (Units=1/GPa)
#
#
# Indices 1 2 3 4 5 6 
#
# 1 0.026534 -0.006153 -0.006696 0.000000 0.000000 0.000000
# 2 -0.006153 0.014576 -0.008226 0.000000 0.000000 0.000000
# 3 -0.006696 -0.008226 0.019731 0.000000 0.000000 0.000000
# 4 0.000000 0.000000 0.000000 0.035755 0.000000 0.000000
# 5 0.000000 0.000000 0.000000 0.000000 0.053658 0.000000
# 6 0.000000 0.000000 0.000000 0.000000 0.000000 0.053299
#
#
# Mechanical properties :
#
#
# Convention : Reuss Voigt Hill
#
# Bulk Modulus (GPa) = 53.49950 65.52479 59.51214
# Shear Modulus (GPa) = 19.84665 21.29508 20.57087
#
# Velocity S-wave (km/s) = 3.73599 3.86991 3.80354
# Velocity P-wave (km/s) = 7.49899 8.12712 7.81936
#
# Compressibility (1/GPa) = 0.01869176
#
# Stress axis : x y z
#
# Youngs Moduli (GPa) = 37.68768 68.60681 50.68178
#
# Poissons Ratio (x) = 0.42214 0.33935
# Poissons Ratio (y) = 0.23190 0.41689
# Poissons Ratio (z) = 0.25234 0.56434
#
# Static dielectric constant tensor:
#      x y z
#    x 1.480500 0.000000 0.000000 
#    y 0.000000 1.488110 0.000000 
#    z 0.000000 0.000000 1.443100 
# 
# From -- ./inp_files/22254.got.cif
#   From: 2010.05.17/outbox.cif.g08.bks.cpg/sg38_12_cif.got.tgz:22254.got - 2010.06.03 18:07:57.
