data_PCOD9356205
_publ_section_title
;
Structure prediction by ZEFSAII (Michael W. Deem and Ramdas Pophale) SiO2 
 PCOD9356205
Probable space group: A M M 2
;
_chemical_formula_sum "Si O2"
_cell_formula_units_Z 56
_cell_length_a 14.837063
_cell_length_b 8.373321
_cell_length_c 26.550486
_cell_angle_alpha 90.000000
_cell_angle_beta 90.000000
_cell_angle_gamma 90.000000
_cell_volume 3298.512670
_symmetry_space_group_name_H-M "A M M 2"
_symmetry_group_IT_number 38
_symmetry_cell_setting 'orthorhombic'
loop_
_space_group_symop_operation_xyz
x,y,z
-x,-y,z
-x,y,z
x,-y,z
x,1/2+y,1/2+z
-x,1/2-y,1/2+z
-x,1/2+y,1/2+z
x,1/2-y,1/2+z
loop_
_atom_site_type_symbol
_atom_site_label
_atom_site_fract_x
_atom_site_fract_y
_atom_site_fract_z
Si Si1 0.101165 0.692626 0.359390
Si Si2 0.286783 0.690415 0.821092
Si Si3 0.603814 0.307215 0.615472
Si Si4 0.603264 0.190716 0.725863
Si Si5 0.604445 0.693290 0.920101
Si Si6 0.100252 0.805458 0.976640
Si Si7 0.711861 0.806734 0.018077
O O1 0.104122 0.500000 0.357984
O O2 0.183324 0.758724 0.327358
O O3 0.113729 0.740668 0.418070
O O4 0.000000 0.742482 0.344128
O O5 0.292211 0.500000 0.820871
O O6 0.333366 0.753081 0.770765
O O7 0.341561 0.749003 0.870518
O O8 0.500000 0.254308 0.607407
O O9 0.604119 0.500000 0.615086
O O10 0.632157 0.250941 0.670803
O O11 0.666447 0.250389 0.569841
O O12 0.500000 0.248987 0.734236
O O13 0.601677 0.000000 0.725113
O O14 0.500000 0.743531 0.918038
O O15 0.606680 0.500000 0.920821
O O16 0.652541 0.755203 0.970285
O O17 0.185665 0.750742 0.008757
O O18 0.000000 0.752561 0.992394
O O19 0.099799 0.000000 0.977551
O O20 0.712935 0.000000 0.019147
#
# Coordination Sequence:
#
# PCOD9356205 Si02
#       7
#     8   8   8   8   8   8   8
#     4   9  17  31  51  74 102 135 170 208 249 295
#     4  11  21  33  51  74 103 135 166 207 257 305
#     4   9  18  32  49  71  98 128 165 210 257 298
#     4  10  21  36  54  74  95 128 175 217 252 300
#     4  10  21  33  44  66 102 137 162 192 246 305
#     4   8  14  26  46  72 101 131 163 201 242 285
#     4  10  18  30  51  75  99 129 168 207 243 294
#
# _framework density 16.977349
#
# number of rings (size 3 to 8) (size 9 to 14) (size 15 to 20)
#    0.000    2.429    1.429    2.571    0.000    3.714 
#    0.000    1.429    0.000    1.286    0.000    2.000 
#    0.000    0.000    0.000    0.000    0.000    0.000 
#
# Total GULP energy -156175.998994 kJ/mol
# GULP energy per Si atom -5577.714250 kJ/mol
# Density = 1.693871 g / cm^3
# Si number density = 16.977349 Si / 1000 Ang^3
#
#
#
# Elastic Constant Matrix: (Units=GPa)
#
#
# Indices 1 2 3 4 5 6 
#
# 1 149.0375 17.7940 102.0923 0.0000 0.0000 0.0000
# 2 17.7940 9.3315 19.9509 0.0000 0.0000 0.0000
# 3 102.0923 19.9509 149.8103 0.0000 0.0000 0.0000
# 4 0.0000 0.0000 0.0000 20.0656 0.0000 0.0000
# 5 0.0000 0.0000 0.0000 0.0000 22.0873 0.0000
# 6 0.0000 0.0000 0.0000 0.0000 0.0000 18.6089
#
#
#
# Elastic Compliance Matrix: (Units=1/GPa)
#
#
# Indices 1 2 3 4 5 6 
#
# 1 0.013017 -0.008187 -0.007780 0.000000 0.000000 0.000000
# 2 -0.008187 0.154973 -0.015059 0.000000 0.000000 0.000000
# 3 -0.007780 -0.015059 0.013983 0.000000 0.000000 0.000000
# 4 0.000000 0.000000 0.000000 0.049837 0.000000 0.000000
# 5 0.000000 0.000000 0.000000 0.000000 0.045275 0.000000
# 6 0.000000 0.000000 0.000000 0.000000 0.000000 0.053738
#
#
# Mechanical properties :
#
#
# Convention : Reuss Voigt Hill
#
# Bulk Modulus (GPa) = 8.33893 65.31708 36.82800
# Shear Modulus (GPa) = 11.55139 23.37515 17.46327
#
# Velocity S-wave (km/s) = 2.61128 3.71461 3.21069
# Velocity P-wave (km/s) = 3.74355 7.54681 5.95687
#
# Compressibility (1/GPa) = 0.11991952
#
# Stress axis : x y z
#
# Youngs Moduli (GPa) = 76.82365 6.45273 71.51652
#
# Poissons Ratio (x) = 0.05283 0.55643
# Poissons Ratio (y) = 0.62895 1.07699
# Poissons Ratio (z) = 0.59772 0.09717
#
# Static dielectric constant tensor:
#      x y z
#    x 1.584930 0.000000 0.000000 
#    y 0.000000 1.582450 0.000000 
#    z 0.000000 0.000000 1.544290 
# 
# From -- ./inp_files/21090.got.cif
#   From: 2010.05.17/outbox.cif.g08.bks.cpg/sg38_11_cif.got.tgz:21090.got - 2010.06.03 18:07:57.
