data_PCOD9356280
_publ_section_title
;
Structure prediction by ZEFSAII (Michael W. Deem and Ramdas Pophale) SiO2 
 PCOD9356280
Probable space group: A M M 2
;
_chemical_formula_sum "Si O2"
_cell_formula_units_Z 64
_cell_length_a 8.477177
_cell_length_b 23.975625
_cell_length_c 19.814077
_cell_angle_alpha 90.000000
_cell_angle_beta 90.000000
_cell_angle_gamma 90.000000
_cell_volume 4027.124301
_symmetry_space_group_name_H-M "A M M 2"
_symmetry_group_IT_number 38
_symmetry_cell_setting 'orthorhombic'
loop_
_space_group_symop_operation_xyz
x,y,z
-x,-y,z
-x,y,z
x,-y,z
x,1/2+y,1/2+z
-x,1/2-y,1/2+z
-x,1/2+y,1/2+z
x,1/2-y,1/2+z
loop_
_atom_site_type_symbol
_atom_site_label
_atom_site_fract_x
_atom_site_fract_y
_atom_site_fract_z
Si Si1 0.812755 0.660805 0.235930
Si Si2 0.690934 0.753649 0.963943
Si Si3 0.309603 0.277860 0.109869
Si Si4 0.689125 0.435631 0.325251
Si Si5 0.187996 0.119502 0.963087
Si Si6 0.691390 0.335076 0.689060
Si Si7 0.691273 0.936515 0.099550
Si Si8 0.690900 0.230964 0.315446
O O1 0.762064 0.676728 0.160130
O O2 0.745601 0.603080 0.263978
O O3 0.745384 0.710522 0.283181
O O4 0.000000 0.660770 0.241640
O O5 0.500000 0.754584 0.964546
O O6 0.747365 0.817501 0.966242
O O7 0.743764 0.727614 0.892804
O O8 0.741367 0.722151 0.032039
O O9 0.500000 0.282333 0.113221
O O10 0.267034 0.217026 0.140651
O O11 0.500000 0.433630 0.328876
O O12 0.738739 0.500000 0.318674
O O13 0.756010 0.409370 0.394126
O O14 0.000000 0.120885 0.964728
O O15 0.251822 0.085584 0.027254
O O16 0.500000 0.337331 0.690450
O O17 0.746877 0.392538 0.656221
O O18 0.744639 0.317311 0.763879
O O19 0.500000 0.935700 0.099085
O O20 0.742758 0.000000 0.111090
O O21 0.500000 0.231257 0.314935
#
# Coordination Sequence:
#
# PCOD9356280 Si02
#       8
#     8   8   8   8   8   8   8   8
#     4  11  21  32  48  73 100 125 156 202 252 293
#     4  10  18  31  52  72  94 130 169 200 236 289
#     4   9  17  31  50  68  92 126 163 201 239 288
#     4  11  23  38  54  69  91 130 174 206 236 287
#     4  12  23  32  45  69 102 132 160 204 248 285
#     4   8  14  27  45  68  91 117 159 205 241 276
#     4  10  19  32  49  66  91 132 174 204 234 283
#     4   9  17  30  50  70  93 126 163 201 242 290
#
# _framework density 15.892234
#
# number of rings (size 3 to 8) (size 9 to 14) (size 15 to 20)
#    0.000    2.000    2.500    3.750    0.000    3.250 
#    0.000    0.000    0.000    0.000    0.000    0.875 
#    0.000    5.000    0.000    0.000    0.000    0.000 
#
# Total GULP energy -178512.835708 kJ/mol
# GULP energy per Si atom -5578.526116 kJ/mol
# Density = 1.585606 g / cm^3
# Si number density = 15.892234 Si / 1000 Ang^3
#
#
#
# Elastic Constant Matrix: (Units=GPa)
#
#
# Indices 1 2 3 4 5 6 
#
# 1 12.6969 9.5454 19.8658 0.0000 0.0000 0.0000
# 2 9.5454 86.9724 65.8608 0.0000 0.0000 0.0000
# 3 19.8658 65.8608 142.3568 0.0000 0.0000 0.0000
# 4 0.0000 0.0000 0.0000 17.5021 0.0000 0.0000
# 5 0.0000 0.0000 0.0000 0.0000 -1.4358 0.0000
# 6 0.0000 0.0000 0.0000 0.0000 0.0000 -6.3933
#
#
#
# Elastic Compliance Matrix: (Units=1/GPa)
#
#
# Indices 1 2 3 4 5 6 
#
# 1 0.100782 -0.000632 -0.013771 0.000000 0.000000 0.000000
# 2 -0.000632 0.017702 -0.008102 0.000000 0.000000 0.000000
# 3 -0.013771 -0.008102 0.012695 0.000000 0.000000 0.000000
# 4 0.000000 0.000000 0.000000 0.057136 0.000000 0.000000
# 5 0.000000 0.000000 0.000000 0.000000 -0.696475 0.000000
# 6 0.000000 0.000000 0.000000 0.000000 0.000000 -0.156415
#
#
# Mechanical properties :
#
#
# Convention : Reuss Voigt Hill
#
# Bulk Modulus (GPa) = 11.60531 48.06335 29.83433
# Shear Modulus (GPa) = -8.46251 11.71821 1.62785
#
# Velocity S-wave (km/s) = -2.31009 2.71837 1.01318
# Velocity P-wave (km/s) = 0.45059 6.33732 4.49248
#
# Compressibility (1/GPa) = 0.08616744
#
# Stress axis : x y z
#
# Youngs Moduli (GPa) = 9.92246 56.48952 78.77366
#
# Poissons Ratio (x) = 0.03573 1.08482
# Poissons Ratio (y) = 0.00628 0.63820
# Poissons Ratio (z) = 0.13665 0.45766
#
# Static dielectric constant tensor:
#      x y z
#    x 1.532260 0.000000 0.000000 
#    y 0.000000 1.511570 0.000000 
#    z 0.000000 0.000000 1.548200 
# 
# From -- ./inp_files/20206.got.cif
#   From: 2010.05.17/outbox.cif.g08.bks.cpg/sg38_11_cif.got.tgz:20206.got - 2010.06.03 18:07:57.
