data_PCOD9356065
_publ_section_title
;
Structure prediction by ZEFSAII (Michael W. Deem and Ramdas Pophale) SiO2 
 PCOD9356065
Probable space group: A M M 2
;
_chemical_formula_sum "Si O2"
_cell_formula_units_Z 64
_cell_length_a 8.343371
_cell_length_b 24.086929
_cell_length_c 19.827052
_cell_angle_alpha 90.000000
_cell_angle_beta 90.000000
_cell_angle_gamma 90.000000
_cell_volume 3984.566998
_symmetry_space_group_name_H-M "A M M 2"
_symmetry_group_IT_number 38
_symmetry_cell_setting 'orthorhombic'
loop_
_space_group_symop_operation_xyz
x,y,z
-x,-y,z
-x,y,z
x,-y,z
x,1/2+y,1/2+z
-x,1/2-y,1/2+z
-x,1/2+y,1/2+z
x,1/2-y,1/2+z
loop_
_atom_site_type_symbol
_atom_site_label
_atom_site_fract_x
_atom_site_fract_y
_atom_site_fract_z
Si Si1 0.191559 0.230654 0.759560
Si Si2 0.193035 0.936931 0.267295
Si Si3 0.693860 0.228303 0.052244
Si Si4 0.806483 0.335939 0.132090
Si Si5 0.194277 0.876975 0.404975
Si Si6 0.195794 0.436721 0.044037
Si Si7 0.308541 0.249802 0.904482
Si Si8 0.308637 0.161744 0.180180
O O1 0.246143 0.183522 0.706497
O O2 0.242677 0.222910 0.836320
O O3 0.258640 0.289014 0.731377
O O4 0.000000 0.234292 0.756572
O O5 0.247608 0.909365 0.337824
O O6 0.241661 0.895883 0.207411
O O7 0.000000 0.938610 0.270092
O O8 0.251847 0.000000 0.260303
O O9 0.500000 0.228612 0.052756
O O10 0.751428 0.287284 0.081608
O O11 0.747810 0.182108 0.106279
O O12 0.748046 0.223142 0.975074
O O13 0.751147 0.394834 0.103021
O O14 0.000000 0.336536 0.131831
O O15 0.242782 0.909827 0.472392
O O16 0.257785 0.814401 0.405252
O O17 0.000000 0.874277 0.404221
O O18 0.251041 0.500000 0.050686
O O19 0.000000 0.437683 0.044525
O O20 0.500000 0.247062 0.902458
O O21 0.500000 0.158618 0.179438
#
# Coordination Sequence:
#
# PCOD9356065 Si02
#       8
#     8   8   8   8   8   8   8   8
#     4  10  19  30  45  66  93 120 151 191 232 275
#     4  10  20  32  46  67  96 128 159 190 225 267
#     4   9  19  32  46  65  92 119 148 190 237 276
#     4   9  17  29  46  68  90 117 153 189 225 269
#     4  10  18  29  45  65  93 126 158 186 215 260
#     4   9  16  27  45  68  92 121 156 188 219 261
#     4  11  20  30  46  68  93 123 154 187 229 276
#     4  10  19  32  48  67  90 119 154 193 234 276
#
# _framework density 16.061971
#
# number of rings (size 3 to 8) (size 9 to 14) (size 15 to 20)
#    0.000    2.250    2.500    1.500    0.000    3.250 
#    0.000    0.000    0.000    2.250    0.000    0.875 
#    0.000    3.000    0.000    0.000    0.000    0.000 
#
# Total GULP energy -178440.196857 kJ/mol
# GULP energy per Si atom -5576.256152 kJ/mol
# Density = 1.602541 g / cm^3
# Si number density = 16.061971 Si / 1000 Ang^3
#
#
#
# Elastic Constant Matrix: (Units=GPa)
#
#
# Indices 1 2 3 4 5 6 
#
# 1 5.7879 8.6410 8.8964 0.0000 0.0000 0.0000
# 2 8.6410 89.4788 63.9345 0.0000 0.0000 0.0000
# 3 8.8964 63.9345 140.0964 0.0000 0.0000 0.0000
# 4 0.0000 0.0000 0.0000 20.6400 0.0000 0.0000
# 5 0.0000 0.0000 0.0000 0.0000 16.0109 0.0000
# 6 0.0000 0.0000 0.0000 0.0000 0.0000 -11.2023
#
#
#
# Elastic Compliance Matrix: (Units=1/GPa)
#
#
# Indices 1 2 3 4 5 6 
#
# 1 0.205132 -0.015584 -0.005915 0.000000 0.000000 0.000000
# 2 -0.015584 0.017767 -0.007119 0.000000 0.000000 0.000000
# 3 -0.005915 -0.007119 0.010762 0.000000 0.000000 0.000000
# 4 0.000000 0.000000 0.000000 0.048450 0.000000 0.000000
# 5 0.000000 0.000000 0.000000 0.000000 0.062457 0.000000
# 6 0.000000 0.000000 0.000000 0.000000 0.000000 -0.089268
#
#
# Mechanical properties :
#
#
# Convention : Reuss Voigt Hill
#
# Bulk Modulus (GPa) = 5.66805 44.25633 24.96219
# Shear Modulus (GPa) = 13.46462 15.34914 14.40688
#
# Velocity S-wave (km/s) = 2.89847 3.09466 2.99817
# Velocity P-wave (km/s) = 3.83901 6.35473 5.24979
#
# Compressibility (1/GPa) = 0.17642759
#
# Stress axis : x y z
#
# Youngs Moduli (GPa) = 4.87491 56.28357 92.91782
#
# Poissons Ratio (x) = 0.87710 0.54957
# Poissons Ratio (y) = 0.07597 0.66145
# Poissons Ratio (z) = 0.02883 0.40066
#
# Static dielectric constant tensor:
#      x y z
#    x 1.552880 0.000000 0.000000 
#    y 0.000000 1.516750 0.000000 
#    z 0.000000 0.000000 1.563410 
# 
# From -- ./inp_files/17339.got.cif
#   From: 2010.05.17/outbox.cif.g08.bks.cpg/sg38_9_cif.got.tgz:17339.got - 2010.06.03 18:07:57.
