data_PCOD9356227
_publ_section_title
;
Structure prediction by ZEFSAII (Michael W. Deem and Ramdas Pophale) SiO2 
 PCOD9356227
Probable space group: A M M 2
;
_chemical_formula_sum "Si O2"
_cell_formula_units_Z 64
_cell_length_a 14.799148
_cell_length_b 10.013787
_cell_length_c 24.480740
_cell_angle_alpha 90.000000
_cell_angle_beta 90.000000
_cell_angle_gamma 90.000000
_cell_volume 3627.935893
_symmetry_space_group_name_H-M "A M M 2"
_symmetry_group_IT_number 38
_symmetry_cell_setting 'orthorhombic'
loop_
_space_group_symop_operation_xyz
x,y,z
-x,-y,z
-x,y,z
x,-y,z
x,1/2+y,1/2+z
-x,1/2-y,1/2+z
-x,1/2+y,1/2+z
x,1/2-y,1/2+z
loop_
_atom_site_type_symbol
_atom_site_label
_atom_site_fract_x
_atom_site_fract_y
_atom_site_fract_z
Si Si1 0.605278 0.651165 0.743190
Si Si2 0.771673 0.159959 0.932885
Si Si3 0.197876 0.153576 0.613465
Si Si4 0.102831 0.662614 0.222807
Si Si5 0.402231 0.342732 0.500273
Si Si6 0.257562 0.158124 0.804570
Si Si7 0.107678 0.658667 0.001709
Si Si8 0.601508 0.240759 0.621752
O O1 0.500000 0.664249 0.758404
O O2 0.635146 0.500000 0.754448
O O3 0.664614 0.756862 0.775816
O O4 0.609585 0.677365 0.677948
O O5 0.750506 0.178298 0.869121
O O6 0.854798 0.249150 0.953301
O O7 0.786477 0.000000 0.942110
O O8 0.684562 0.207783 0.967936
O O9 0.152365 0.212468 0.667794
O O10 0.159152 0.208366 0.556691
O O11 0.306193 0.157090 0.618576
O O12 0.168367 0.000000 0.612152
O O13 0.100900 0.500000 0.220935
O O14 0.164409 0.696507 0.274467
O O15 0.000000 0.709326 0.225842
O O16 0.500000 0.284332 0.483545
O O17 0.404663 0.500000 0.488725
O O18 0.395172 0.323365 0.565394
O O19 0.273548 0.000000 0.794670
O O20 0.127782 0.500000 0.992978
O O21 0.000000 0.670766 0.008745
O O22 0.500000 0.177404 0.623063
#
# Coordination Sequence:
#
# PCOD9356227 Si02
#       8
#     8   8   8   8   8   8   8   8
#     4  10  21  36  55  81 112 146 182 221 271 331
#     4  10  21  36  56  81 109 142 184 230 271 316
#     4  10  18  31  52  79 108 140 178 221 272 331
#     4   9  17  31  52  76 102 135 177 224 271 319
#     4   9  17  31  51  74 102 137 176 216 263 321
#     4  10  21  36  55  82 109 141 186 230 271 316
#     4  10  21  37  57  81 109 143 182 224 274 332
#     4  10  18  30  52  79 105 138 178 220 269 328
#
# _framework density 17.640885000000001
#
# number of rings (size 3 to 8) (size 9 to 14) (size 15 to 20)
#    0.000    2.250    2.500    0.750    0.000    5.250 
#    0.000    3.750    0.000    0.750    0.000    0.000 
#    0.000    0.000    0.000    0.000    0.000    0.000 
#
# Total GULP energy -178187.557337 kJ/mol
# GULP energy per Si atom -5568.361167 kJ/mol
# Density = 1.760073 g / cm^3
# Si number density = 17.640885 Si / 1000 Ang^3
#
#
#
# Elastic Constant Matrix: (Units=GPa)
#
#
# Indices 1 2 3 4 5 6 
#
# 1 112.7008 37.6161 60.2133 0.0000 0.0000 0.0000
# 2 37.6161 39.3219 38.3539 0.0000 0.0000 0.0000
# 3 60.2133 38.3539 101.8595 0.0000 0.0000 0.0000
# 4 0.0000 0.0000 0.0000 17.5476 0.0000 0.0000
# 5 0.0000 0.0000 0.0000 0.0000 14.2688 0.0000
# 6 0.0000 0.0000 0.0000 0.0000 0.0000 25.7410
#
#
#
# Elastic Compliance Matrix: (Units=1/GPa)
#
#
# Indices 1 2 3 4 5 6 
#
# 1 0.014678 -0.008816 -0.005357 0.000000 0.000000 0.000000
# 2 -0.008816 0.045487 -0.011916 0.000000 0.000000 0.000000
# 3 -0.005357 -0.011916 0.017471 0.000000 0.000000 0.000000
# 4 0.000000 0.000000 0.000000 0.056988 0.000000 0.000000
# 5 0.000000 0.000000 0.000000 0.000000 0.070083 0.000000
# 6 0.000000 0.000000 0.000000 0.000000 0.000000 0.038848
#
#
# Mechanical properties :
#
#
# Convention : Reuss Voigt Hill
#
# Bulk Modulus (GPa) = 39.28055 58.47208 48.87631
# Shear Modulus (GPa) = 16.43547 19.35808 17.89677
#
# Velocity S-wave (km/s) = 3.05564 3.31621 3.18859
# Velocity P-wave (km/s) = 5.89613 6.91959 6.42826
#
# Compressibility (1/GPa) = 0.02545789
#
# Stress axis : x y z
#
# Youngs Moduli (GPa) = 68.13086 21.98410 57.23696
#
# Poissons Ratio (x) = 0.19380 0.30663
# Poissons Ratio (y) = 0.60062 0.68206
# Poissons Ratio (z) = 0.36499 0.26197
#
# Static dielectric constant tensor:
#      x y z
#    x 1.619430 0.000000 0.000000 
#    y 0.000000 1.589290 0.000000 
#    z 0.000000 0.000000 1.603870 
# 
# From -- ./inp_files/22582.got.cif
#   From: 2010.05.17/outbox.cif.g08.bks.cpg/sg38_12_cif.got.tgz:22582.got - 2010.06.03 18:07:57.
