data_PCOD9356964
_publ_section_title
;
Structure prediction by ZEFSAII (Michael W. Deem and Ramdas Pophale) SiO2 
 PCOD9356964
Probable space group: A M M 2
;
_chemical_formula_sum "Si O2"
_cell_formula_units_Z 64
_cell_length_a 7.864560
_cell_length_b 29.226056
_cell_length_c 12.856081
_cell_angle_alpha 90.000000
_cell_angle_beta 90.000000
_cell_angle_gamma 90.000000
_cell_volume 2954.971130
_symmetry_space_group_name_H-M "A M M 2"
_symmetry_group_IT_number 38
_symmetry_cell_setting 'orthorhombic'
loop_
_space_group_symop_operation_xyz
x,y,z
-x,-y,z
-x,y,z
x,-y,z
x,1/2+y,1/2+z
-x,1/2-y,1/2+z
-x,1/2+y,1/2+z
x,1/2-y,1/2+z
loop_
_atom_site_type_symbol
_atom_site_label
_atom_site_fract_x
_atom_site_fract_y
_atom_site_fract_z
Si Si1 0.700431 0.691589 0.050720
Si Si2 0.293383 0.590741 0.993067
Si Si3 0.791282 0.623152 0.596493
Si Si4 0.202503 0.051703 0.270404
Si Si5 0.801570 0.951967 0.940655
Si Si6 0.195643 0.212211 0.992324
Si Si7 0.303410 0.179098 0.773167
Si Si8 0.304060 0.428459 0.218879
O O1 0.500000 0.683257 0.066570
O O2 0.769480 0.700744 0.167195
O O3 0.764721 0.644137 0.000606
O O4 0.721420 0.738059 0.988339
O O5 0.500000 0.589979 0.992935
O O6 0.233634 0.566059 0.889353
O O7 0.238185 0.566945 0.101431
O O8 0.735465 0.592952 0.695520
O O9 0.732807 0.592488 0.498016
O O10 0.731786 0.674913 0.574282
O O11 0.000000 0.626107 0.598164
O O12 0.000000 0.049520 0.252501
O O13 0.269542 0.000000 0.250628
O O14 0.788421 0.949711 0.816860
O O15 0.000000 0.952790 0.968905
O O16 0.723851 0.000000 0.976840
O O17 0.207048 0.189641 0.878587
O O18 0.000000 0.220184 0.019085
O O19 0.500000 0.193150 0.790343
O O20 0.302119 0.125578 0.744439
O O21 0.500000 0.443953 0.221181
#
# Coordination Sequence:
#
# PCOD9356964 Si02
#       8
#     8   8   8   8   8   8   8   8
#     4   9  20  38  57  79 109 149 193 233 281 343
#     4   9  20  39  59  79 109 148 188 232 284 336
#     4   9  19  36  54  77 111 148 185 227 279 337
#     4  10  21  38  60  83 112 154 198 239 285 342
#     4  10  19  32  53  79 107 140 177 219 271 332
#     4  11  21  33  55  85 114 145 185 236 290 340
#     4   9  18  35  56  75 103 144 183 223 274 334
#     4   9  18  34  55  77 104 139 177 222 276 330
#
# _framework density 21.658417
#
# number of rings (size 3 to 8) (size 9 to 14) (size 15 to 20)
#    0.000    2.500    1.250    2.250    0.000    5.000 
#    0.000    9.375    0.000    1.500    0.000    0.000 
#    0.000    0.000    0.000    0.000    0.000    0.000 
#
# Total GULP energy -178398.069746 kJ/mol
# GULP energy per Si atom -5574.939680 kJ/mol
# Density = 2.160912 g / cm^3
# Si number density = 21.658417 Si / 1000 Ang^3
#
#
#
# Elastic Constant Matrix: (Units=GPa)
#
#
# Indices 1 2 3 4 5 6 
#
# 1 21.4047 2.0484 -6.8338 0.0000 0.0000 0.0000
# 2 2.0484 62.9758 9.6623 0.0000 0.0000 0.0000
# 3 -6.8338 9.6623 91.6438 0.0000 0.0000 0.0000
# 4 0.0000 0.0000 0.0000 107.1625 0.0000 0.0000
# 5 0.0000 0.0000 0.0000 0.0000 26.7656 0.0000
# 6 0.0000 0.0000 0.0000 0.0000 0.0000 14.6328
#
#
#
# Elastic Compliance Matrix: (Units=1/GPa)
#
#
# Indices 1 2 3 4 5 6 
#
# 1 0.048143 -0.002152 0.003817 0.000000 0.000000 0.000000
# 2 -0.002152 0.016236 -0.001872 0.000000 0.000000 0.000000
# 3 0.003817 -0.001872 0.011394 0.000000 0.000000 0.000000
# 4 0.000000 0.000000 0.000000 0.009332 0.000000 0.000000
# 5 0.000000 0.000000 0.000000 0.000000 0.037361 0.000000
# 6 0.000000 0.000000 0.000000 0.000000 0.000000 0.068339
#
#
# Mechanical properties :
#
#
# Convention : Reuss Voigt Hill
#
# Bulk Modulus (GPa) = 13.26973 20.64201 16.95587
# Shear Modulus (GPa) = 23.11180 41.12201 32.11691
#
# Velocity S-wave (km/s) = 3.27020 4.36209 3.85500
# Velocity P-wave (km/s) = 4.51653 5.90947 5.25932
#
# Compressibility (1/GPa) = 0.07535946
#
# Stress axis : x y z
#
# Youngs Moduli (GPa) = 20.77134 61.59015 87.76674
#
# Poissons Ratio (x) = 0.13251 -0.33499
# Poissons Ratio (y) = 0.04469 0.16433
# Poissons Ratio (z) = -0.07928 0.11532
#
# Static dielectric constant tensor:
#      x y z
#    x 1.797300 0.000000 0.000000 
#    y 0.000000 1.825690 0.000000 
#    z 0.000000 0.000000 1.792770 
# 
# From -- ./inp_files/8613.got.cif
#   From: 2010.05.17/outbox.cif.g08.bks.cpg/sg38_5_cif.got.tgz:8613.got - 2010.06.03 18:07:57.
