data_PCOD9356252
_publ_section_title
;
Structure prediction by ZEFSAII (Michael W. Deem and Ramdas Pophale) SiO2 
 PCOD9356252
Probable space group: A M M 2
;
_chemical_formula_sum "Si O2"
_cell_formula_units_Z 48
_cell_length_a 7.708520
_cell_length_b 17.178220
_cell_length_c 19.090085
_cell_angle_alpha 90.000000
_cell_angle_beta 90.000000
_cell_angle_gamma 90.000000
_cell_volume 2527.883331
_symmetry_space_group_name_H-M "A M M 2"
_symmetry_group_IT_number 38
_symmetry_cell_setting 'orthorhombic'
loop_
_space_group_symop_operation_xyz
x,y,z
-x,-y,z
-x,y,z
x,-y,z
x,1/2+y,1/2+z
-x,1/2-y,1/2+z
-x,1/2+y,1/2+z
x,1/2-y,1/2+z
loop_
_atom_site_type_symbol
_atom_site_label
_atom_site_fract_x
_atom_site_fract_y
_atom_site_fract_z
Si Si1 0.209451 0.587577 0.214440
Si Si2 0.213713 0.000000 0.184010
Si Si3 0.208924 0.158400 0.419391
Si Si4 0.799543 0.167158 0.152760
Si Si5 0.298698 0.255327 0.288848
Si Si6 0.213046 0.680035 0.077999
Si Si7 0.788086 0.500000 0.846050
O O1 0.271844 0.500000 0.228902
O O2 0.260193 0.655326 0.268819
O O3 0.265141 0.617597 0.137222
O O4 0.000000 0.585802 0.214027
O O5 0.275645 0.919190 0.150847
O O6 0.264703 0.000000 0.265370
O O7 0.000000 0.000000 0.182896
O O8 0.254675 0.228632 0.367089
O O9 0.270977 0.165440 0.499069
O O10 0.000000 0.154924 0.422165
O O11 0.271047 0.078233 0.384356
O O12 0.796895 0.200280 0.232280
O O13 0.724267 0.236089 0.105764
O O14 0.000000 0.159722 0.131477
O O15 0.500000 0.241198 0.276577
O O16 0.000000 0.680212 0.078520
O O17 0.000000 0.500000 0.847200
#
# Coordination Sequence:
#
# PCOD9356252 Si02
#       7
#     8   4   8   8   8   8   4
#     4   9  18  34  56  80 101 124 161 210 256 298
#     4   9  14  24  48  74  94 119 156 201 245 286
#     4  10  18  31  49  71 102 133 162 199 246 299
#     4   9  16  31  50  72  96 126 164 205 251 294
#     4  11  21  32  48  71  99 136 171 202 241 290
#     4   8  16  28  49  76 100 125 155 198 250 300
#     4   9  16  24  44  74  96 123 156 193 243 292
#
# _framework density 18.988219000000001
#
# number of rings (size 3 to 8) (size 9 to 14) (size 15 to 20)
#    0.000    2.667    1.667    2.500    1.167    0.333 
#    0.000    5.000    1.833    0.000    0.000    0.000 
#    0.000    0.000    0.000    0.000    0.000    0.000 
#
# Total GULP energy -133823.401588 kJ/mol
# GULP energy per Si atom -5575.975066 kJ/mol
# Density = 1.894500 g / cm^3
# Si number density = 18.988219 Si / 1000 Ang^3
#
#
#
# Elastic Constant Matrix: (Units=GPa)
#
#
# Indices 1 2 3 4 5 6 
#
# 1 35.3459 3.5168 2.1208 0.0000 0.0000 0.0000
# 2 3.5168 147.8730 41.1292 0.0000 0.0000 0.0000
# 3 2.1208 41.1292 80.8563 0.0000 0.0000 0.0000
# 4 0.0000 0.0000 0.0000 18.2793 0.0000 0.0000
# 5 0.0000 0.0000 0.0000 0.0000 -13.5932 0.0000
# 6 0.0000 0.0000 0.0000 0.0000 0.0000 -14.6640
#
#
#
# Elastic Compliance Matrix: (Units=1/GPa)
#
#
# Indices 1 2 3 4 5 6 
#
# 1 0.028374 -0.000545 -0.000467 0.000000 0.000000 0.000000
# 2 -0.000545 0.007887 -0.003998 0.000000 0.000000 0.000000
# 3 -0.000467 -0.003998 0.014413 0.000000 0.000000 0.000000
# 4 0.000000 0.000000 0.000000 0.054707 0.000000 0.000000
# 5 0.000000 0.000000 0.000000 0.000000 -0.073566 0.000000
# 6 0.000000 0.000000 0.000000 0.000000 0.000000 -0.068194
#
#
# Mechanical properties :
#
#
# Convention : Reuss Voigt Hill
#
# Bulk Modulus (GPa) = 24.59699 39.73432 32.16566
# Shear Modulus (GPa) = -390.40291 12.49164 -188.95563
#
# Velocity S-wave (km/s) = -14.35441 2.56767 -9.98639
# Velocity P-wave (km/s) = 16.17869 5.45543 10.77006
#
# Compressibility (1/GPa) = 0.04065538
#
# Stress axis : x y z
#
# Youngs Moduli (GPa) = 35.24348 126.78334 69.37966
#
# Poissons Ratio (x) = 0.06908 0.03240
# Poissons Ratio (y) = 0.01920 0.27737
# Poissons Ratio (z) = 0.01646 0.50686
#
# Static dielectric constant tensor:
#      x y z
#    x 1.695420 0.000000 0.000000 
#    y 0.000000 1.673030 0.000000 
#    z 0.000000 0.000000 1.633940 
# 
# From -- ./inp_files/19924.got.cif
#   From: 2010.05.17/outbox.cif.g08.bks.cpg/sg38_10_cif.got.tgz:19924.got - 2010.06.03 18:07:57.
