data_PCOD9356931
_publ_section_title
;
Structure prediction by ZEFSAII (Michael W. Deem and Ramdas Pophale) SiO2 
 PCOD9356931
Probable space group: A M M 2
;
_chemical_formula_sum "Si O2"
_cell_formula_units_Z 64
_cell_length_a 9.008431
_cell_length_b 16.311065
_cell_length_c 23.023825
_cell_angle_alpha 90.000000
_cell_angle_beta 90.000000
_cell_angle_gamma 90.000000
_cell_volume 3383.054159
_symmetry_space_group_name_H-M "A M M 2"
_symmetry_group_IT_number 38
_symmetry_cell_setting 'orthorhombic'
loop_
_space_group_symop_operation_xyz
x,y,z
-x,-y,z
-x,y,z
x,-y,z
x,1/2+y,1/2+z
-x,1/2-y,1/2+z
-x,1/2+y,1/2+z
x,1/2-y,1/2+z
loop_
_atom_site_type_symbol
_atom_site_label
_atom_site_fract_x
_atom_site_fract_y
_atom_site_fract_z
Si Si1 0.831717 0.808850 0.747040
Si Si2 0.819421 0.407652 0.923021
Si Si3 0.322610 0.265126 0.131897
Si Si4 0.323198 0.904916 0.978366
Si Si5 0.663145 0.903494 0.840991
Si Si6 0.172422 0.623776 0.790793
Si Si7 0.178366 0.733973 0.013371
Si Si8 0.678046 0.913396 0.171713
O O1 0.725894 0.809333 0.691161
O O2 0.782266 0.869881 0.796918
O O3 0.823576 0.720445 0.778044
O O4 0.000000 0.822136 0.727438
O O5 0.774205 0.500000 0.941841
O O6 0.774151 0.395332 0.855700
O O7 0.000000 0.406153 0.923154
O O8 0.773034 0.331273 0.963525
O O9 0.500000 0.267415 0.124745
O O10 0.240915 0.296879 0.074923
O O11 0.271954 0.170148 0.141470
O O12 0.500000 0.900005 0.991830
O O13 0.304487 0.892612 0.908988
O O14 0.277828 0.000000 0.991872
O O15 0.241637 0.826272 0.005098
O O16 0.500000 0.865961 0.828877
O O17 0.652943 0.000000 0.832324
O O18 0.265936 0.587930 0.737859
O O19 0.000000 0.597272 0.786229
O O20 0.000000 0.737187 0.013389
O O21 0.500000 0.910974 0.171247
O O22 0.726276 0.000000 0.144432
#
# Coordination Sequence:
#
# PCOD9356931 Si02
#       8
#     8   8   8   8   8   8   8   8
#     4  10  19  32  52  79 107 134 169 216 268 317
#     4   9  18  33  53  77 106 140 174 210 260 319
#     4  10  21  37  54  71  98 140 182 218 261 316
#     4   9  19  36  57  81 111 147 181 213 262 332
#     4   9  18  33  53  78 107 138 173 212 258 320
#     4   9  17  30  51  78 105 133 164 199 247 311
#     4  11  22  36  55  79 106 138 182 234 277 314
#     4   9  18  32  50  74 102 130 162 202 249 303
#
# _framework density 18.917816999999999
#
# number of rings (size 3 to 8) (size 9 to 14) (size 15 to 20)
#    0.000    2.500    0.000    3.000    0.000    4.250 
#    0.000    4.375    0.000    5.250    0.000    0.000 
#    0.000    0.000    0.000    0.000    0.000    0.000 
#
# Total GULP energy -178363.299401 kJ/mol
# GULP energy per Si atom -5573.853106 kJ/mol
# Density = 1.887476 g / cm^3
# Si number density = 18.917817 Si / 1000 Ang^3
#
#
#
# Elastic Constant Matrix: (Units=GPa)
#
#
# Indices 1 2 3 4 5 6 
#
# 1 24.6505 16.6689 24.2552 0.0000 0.0000 0.0000
# 2 16.6689 45.4043 40.0641 0.0000 0.0000 0.0000
# 3 24.2552 40.0641 65.4955 0.0000 0.0000 0.0000
# 4 0.0000 0.0000 0.0000 2.5473 0.0000 0.0000
# 5 0.0000 0.0000 0.0000 0.0000 3.5740 0.0000
# 6 0.0000 0.0000 0.0000 0.0000 0.0000 18.5562
#
#
#
# Elastic Compliance Matrix: (Units=1/GPa)
#
#
# Indices 1 2 3 4 5 6 
#
# 1 0.064485 -0.005653 -0.020423 0.000000 0.000000 0.000000
# 2 -0.005653 0.048350 -0.027483 0.000000 0.000000 0.000000
# 3 -0.020423 -0.027483 0.039643 0.000000 0.000000 0.000000
# 4 0.000000 0.000000 0.000000 0.392575 0.000000 0.000000
# 5 0.000000 0.000000 0.000000 0.000000 0.279799 0.000000
# 6 0.000000 0.000000 0.000000 0.000000 0.000000 0.053890
#
#
# Mechanical properties :
#
#
# Convention : Reuss Voigt Hill
#
# Bulk Modulus (GPa) = 22.04544 33.05853 27.55199
# Shear Modulus (GPa) = 4.99510 8.57296 6.78403
#
# Velocity S-wave (km/s) = 1.62670 2.13109 1.89574
# Velocity P-wave (km/s) = 3.89959 4.85470 4.40312
#
# Compressibility (1/GPa) = 0.04536085
#
# Stress axis : x y z
#
# Youngs Moduli (GPa) = 15.50745 20.68253 25.22520
#
# Poissons Ratio (x) = 0.11692 0.51518
# Poissons Ratio (y) = 0.08766 0.69325
# Poissons Ratio (z) = 0.31671 0.56841
#
# Static dielectric constant tensor:
#      x y z
#    x 1.653550 0.000000 0.000000 
#    y 0.000000 1.714860 0.000000 
#    z 0.000000 0.000000 1.656710 
# 
# From -- ./inp_files/22193.got.cif
#   From: 2010.05.17/outbox.cif.g08.bks.cpg/sg38_12_cif.got.tgz:22193.got - 2010.06.03 18:07:57.
