data_PCOD9356211
_publ_section_title
;
Structure prediction by ZEFSAII (Michael W. Deem and Ramdas Pophale) SiO2 
 PCOD9356211
Probable space group: A M M 2
;
_chemical_formula_sum "Si O2"
_cell_formula_units_Z 64
_cell_length_a 19.575689
_cell_length_b 20.819152
_cell_length_c 8.722052
_cell_angle_alpha 90.000000
_cell_angle_beta 90.000000
_cell_angle_gamma 90.000000
_cell_volume 3554.665706
_symmetry_space_group_name_H-M "A M M 2"
_symmetry_group_IT_number 38
_symmetry_cell_setting 'orthorhombic'
loop_
_space_group_symop_operation_xyz
x,y,z
-x,-y,z
-x,y,z
x,-y,z
x,1/2+y,1/2+z
-x,1/2-y,1/2+z
-x,1/2+y,1/2+z
x,1/2-y,1/2+z
loop_
_atom_site_type_symbol
_atom_site_label
_atom_site_fract_x
_atom_site_fract_y
_atom_site_fract_z
Si Si1 0.142608 0.074365 0.792100
Si Si2 0.723192 0.343851 0.297073
Si Si3 0.723798 0.792630 0.446919
Si Si4 0.078929 0.928438 0.461560
Si Si5 0.920884 0.689357 0.455494
Si Si6 0.426425 0.292304 0.957871
Si Si7 0.426549 0.842203 0.805779
Si Si8 0.137558 0.688000 0.781886
O O1 0.216445 0.105948 0.820071
O O2 0.125556 0.078006 0.611541
O O3 0.138782 0.000000 0.838564
O O4 0.089135 0.120841 0.875496
O O5 0.726669 0.283907 0.414470
O O6 0.647556 0.374575 0.312942
O O7 0.731345 0.312734 0.125455
O O8 0.647374 0.814954 0.396635
O O9 0.785944 0.819180 0.346261
O O10 0.095601 0.872344 0.344959
O O11 0.000000 0.923557 0.510772
O O12 0.089108 0.000000 0.395973
O O13 0.871872 0.691105 0.601712
O O14 0.895068 0.746356 0.346449
O O15 0.000000 0.699819 0.497899
O O16 0.500000 0.316584 0.895168
O O17 0.426453 0.216194 0.926708
O O18 0.426291 0.308468 0.137925
O O19 0.500000 0.876892 0.819733
#
# Coordination Sequence:
#
# PCOD9356211 Si02
#       8
#     8   8   8   8   8   8   8   8
#     4  11  23  39  56  75 101 138 180 223 269 319
#     4  10  18  32  51  78 106 138 174 214 261 313
#     4  10  18  30  51  78 107 137 170 211 258 305
#     4  10  21  38  58  77 102 136 173 214 263 319
#     4  12  25  38  56  79 105 137 173 222 272 322
#     4   8  14  24  40  67 103 138 165 197 246 301
#     4   8  14  24  42  68 102 136 167 204 250 304
#     4  12  22  38  57  83 110 136 173 217 265 319
#
# _framework density 18.004505000000002
#
# number of rings (size 3 to 8) (size 9 to 14) (size 15 to 20)
#    0.000    1.875    2.500    3.000    0.000    1.250 
#    0.000    0.000    0.000    0.375    0.000    0.000 
#    0.000    0.500    0.000    0.000    0.000    0.000 
#
# Total GULP energy -178299.632122 kJ/mol
# GULP energy per Si atom -5571.863504 kJ/mol
# Density = 1.796353 g / cm^3
# Si number density = 18.004505 Si / 1000 Ang^3
#
#
#
# Elastic Constant Matrix: (Units=GPa)
#
#
# Indices 1 2 3 4 5 6 
#
# 1 114.8458 14.2631 -2.7781 0.0000 0.0000 0.0000
# 2 14.2631 75.7417 22.5983 0.0000 0.0000 0.0000
# 3 -2.7781 22.5983 33.9947 0.0000 0.0000 0.0000
# 4 0.0000 0.0000 0.0000 16.1795 0.0000 0.0000
# 5 0.0000 0.0000 0.0000 0.0000 20.7516 0.0000
# 6 0.0000 0.0000 0.0000 0.0000 0.0000 16.6737
#
#
#
# Elastic Compliance Matrix: (Units=1/GPa)
#
#
# Indices 1 2 3 4 5 6 
#
# 1 0.009063 -0.002404 0.002339 0.000000 0.000000 0.000000
# 2 -0.002404 0.017107 -0.011569 0.000000 0.000000 0.000000
# 3 0.002339 -0.011569 0.037298 0.000000 0.000000 0.000000
# 4 0.000000 0.000000 0.000000 0.061807 0.000000 0.000000
# 5 0.000000 0.000000 0.000000 0.000000 0.048189 0.000000
# 6 0.000000 0.000000 0.000000 0.000000 0.000000 0.059975
#
#
# Mechanical properties :
#
#
# Convention : Reuss Voigt Hill
#
# Bulk Modulus (GPa) = 24.87601 32.52764 28.70183
# Shear Modulus (GPa) = 18.51123 23.42087 20.96605
#
# Velocity S-wave (km/s) = 3.20995 3.61062 3.41616
# Velocity P-wave (km/s) = 5.25213 5.95716 5.61572
#
# Compressibility (1/GPa) = 0.04019937
#
# Stress axis : x y z
#
# Youngs Moduli (GPa) = 110.34454 58.45501 26.81116
#
# Poissons Ratio (x) = 0.14055 -0.06271
# Poissons Ratio (y) = 0.26532 0.31017
# Poissons Ratio (z) = -0.25809 0.67625
#
# Static dielectric constant tensor:
#      x y z
#    x 1.699030 0.000000 0.000000 
#    y 0.000000 1.583710 0.000000 
#    z 0.000000 0.000000 1.615820 
# 
# From -- ./inp_files/6852.got.cif
#   From: 2010.05.17/outbox.cif.g08.bks.cpg/sg38_4_cif.got.tgz:6852.got - 2010.06.03 18:07:57.
