data_PCOD9356919
_publ_section_title
;
Structure prediction by ZEFSAII (Michael W. Deem and Ramdas Pophale) SiO2 
 PCOD9356919
Probable space group: A M M 2
;
_chemical_formula_sum "Si O2"
_cell_formula_units_Z 64
_cell_length_a 7.828445
_cell_length_b 16.736721
_cell_length_c 23.245188
_cell_angle_alpha 90.000000
_cell_angle_beta 90.000000
_cell_angle_gamma 90.000000
_cell_volume 3045.642641
_symmetry_space_group_name_H-M "A M M 2"
_symmetry_group_IT_number 38
_symmetry_cell_setting 'orthorhombic'
loop_
_space_group_symop_operation_xyz
x,y,z
-x,-y,z
-x,y,z
x,-y,z
x,1/2+y,1/2+z
-x,1/2-y,1/2+z
-x,1/2+y,1/2+z
x,1/2-y,1/2+z
loop_
_atom_site_type_symbol
_atom_site_label
_atom_site_fract_x
_atom_site_fract_y
_atom_site_fract_z
Si Si1 0.695877 0.618543 0.820750
Si Si2 0.208313 0.240806 0.660901
Si Si3 0.200027 0.915517 0.193382
Si Si4 0.802180 0.410137 0.509180
Si Si5 0.694942 0.907589 0.879955
Si Si6 0.705655 0.411506 0.949498
Si Si7 0.793881 0.732029 0.035754
Si Si8 0.199099 0.287615 0.286208
O O1 0.500000 0.591218 0.818080
O O2 0.785172 0.588628 0.762676
O O3 0.768131 0.597209 0.883337
O O4 0.702216 0.713803 0.813934
O O5 0.269233 0.332797 0.668357
O O6 0.262965 0.206256 0.599830
O O7 0.257584 0.198749 0.720606
O O8 0.000000 0.241697 0.659587
O O9 0.000000 0.916210 0.178520
O O10 0.276247 0.000000 0.173783
O O11 0.729685 0.500000 0.522547
O O12 0.792565 0.401903 0.440125
O O13 0.729558 0.324085 0.528944
O O14 0.000000 0.412587 0.528269
O O15 0.500000 0.879119 0.889268
O O16 0.778895 0.860535 0.828394
O O17 0.688906 0.000000 0.864570
O O18 0.500000 0.412125 0.946391
O O19 0.760893 0.500000 0.971070
O O20 0.749527 0.334654 0.988353
O O21 0.000000 0.737679 0.033997
O O22 0.000000 0.263592 0.283730
#
# Coordination Sequence:
#
# PCOD9356919 Si02
#       8
#     8   8   8   8   8   8   8   8
#     4  10  19  32  52  76 103 133 164 203 254 310
#     4   8  17  33  50  71  99 130 166 207 251 298
#     4   9  17  30  50  76 105 135 165 200 245 299
#     4   9  18  32  52  80 110 138 169 206 251 305
#     4  10  20  33  50  74 103 132 164 205 253 305
#     4  10  22  38  53  72 101 137 174 213 262 313
#     4  10  20  35  55  77 102 135 176 218 255 297
#     4  10  19  33  53  75 101 132 165 204 253 307
#
# _framework density 21.013627
#
# number of rings (size 3 to 8) (size 9 to 14) (size 15 to 20)
#    0.000    2.500    0.000    3.000    0.000    5.750 
#    0.000    6.250    0.000    3.750    0.000    3.500 
#    0.000    0.000    0.000    0.000    0.000    0.000 
#
# Total GULP energy -178361.502707 kJ/mol
# GULP energy per Si atom -5573.796960 kJ/mol
# Density = 2.096580 g / cm^3
# Si number density = 21.013627 Si / 1000 Ang^3
#
#
#
# Elastic Constant Matrix: (Units=GPa)
#
#
# Indices 1 2 3 4 5 6 
#
# 1 37.2355 5.4414 1.8707 0.0000 0.0000 0.0000
# 2 5.4414 72.2279 53.4348 0.0000 0.0000 0.0000
# 3 1.8707 53.4348 110.6271 0.0000 0.0000 0.0000
# 4 0.0000 0.0000 0.0000 1.8894 0.0000 0.0000
# 5 0.0000 0.0000 0.0000 0.0000 41.7086 0.0000
# 6 0.0000 0.0000 0.0000 0.0000 0.0000 -5.9306
#
#
#
# Elastic Compliance Matrix: (Units=1/GPa)
#
#
# Indices 1 2 3 4 5 6 
#
# 1 0.027203 -0.002659 0.000825 0.000000 0.000000 0.000000
# 2 -0.002659 0.021803 -0.010486 0.000000 0.000000 0.000000
# 3 0.000825 -0.010486 0.014091 0.000000 0.000000 0.000000
# 4 0.000000 0.000000 0.000000 0.529261 0.000000 0.000000
# 5 0.000000 0.000000 0.000000 0.000000 0.023976 0.000000
# 6 0.000000 0.000000 0.000000 0.000000 0.000000 -0.168617
#
#
# Mechanical properties :
#
#
# Convention : Reuss Voigt Hill
#
# Bulk Modulus (GPa) = 26.00464 37.95379 31.97921
# Shear Modulus (GPa) = 10.30550 18.15640 14.23095
#
# Velocity S-wave (km/s) = 2.21695 2.94263 2.60518
# Velocity P-wave (km/s) = 4.35375 5.44483 4.92957
#
# Compressibility (1/GPa) = 0.03845468
#
# Stress axis : x y z
#
# Youngs Moduli (GPa) = 36.76021 45.86446 70.96942
#
# Poissons Ratio (x) = 0.12197 -0.05852
# Poissons Ratio (y) = 0.09776 0.74422
# Poissons Ratio (z) = -0.03031 0.48096
#
# Static dielectric constant tensor:
#      x y z
#    x 1.806900 0.000000 0.000000 
#    y 0.000000 1.774810 0.000000 
#    z 0.000000 0.000000 1.756070 
# 
# From -- ./inp_files/20105.got.cif
#   From: 2010.05.17/outbox.cif.g08.bks.cpg/sg38_11_cif.got.tgz:20105.got - 2010.06.03 18:07:57.
