data_PCOD9356688
_publ_section_title
;
Structure prediction by ZEFSAII (Michael W. Deem and Ramdas Pophale) SiO2 
 PCOD9356688
Probable space group: A M M 2
;
_chemical_formula_sum "Si O2"
_cell_formula_units_Z 64
_cell_length_a 20.467443
_cell_length_b 7.899838
_cell_length_c 20.813382
_cell_angle_alpha 90.000000
_cell_angle_beta 90.000000
_cell_angle_gamma 90.000000
_cell_volume 3365.304995
_symmetry_space_group_name_H-M "A M M 2"
_symmetry_group_IT_number 38
_symmetry_cell_setting 'orthorhombic'
loop_
_space_group_symop_operation_xyz
x,y,z
-x,-y,z
-x,y,z
x,-y,z
x,1/2+y,1/2+z
-x,1/2-y,1/2+z
-x,1/2+y,1/2+z
x,1/2-y,1/2+z
loop_
_atom_site_type_symbol
_atom_site_label
_atom_site_fract_x
_atom_site_fract_y
_atom_site_fract_z
Si Si1 0.847037 0.796511 0.204050
Si Si2 0.332777 0.794203 0.602991
Si Si3 0.573194 0.798716 0.492485
Si Si4 0.814299 0.299069 0.565361
Si Si5 0.073710 0.707389 0.824733
Si Si6 0.815597 0.801998 0.423461
Si Si7 0.672305 0.697735 0.382888
Si Si8 0.299846 0.795524 0.742399
O O1 0.848558 0.733433 0.130609
O O2 0.901069 0.737674 0.254508
O O3 0.775822 0.754117 0.232933
O O4 0.851300 0.000000 0.200599
O O5 0.389093 0.731779 0.555480
O O6 0.262715 0.734528 0.576578
O O7 0.336555 0.740133 0.677423
O O8 0.331819 0.000000 0.601819
O O9 0.500000 0.729776 0.484162
O O10 0.620065 0.774035 0.431513
O O11 0.567762 0.000000 0.501888
O O12 0.824599 0.500000 0.560456
O O13 0.833823 0.218844 0.497949
O O14 0.073657 0.500000 0.825559
O O15 0.127188 0.762831 0.877026
O O16 0.000000 0.763283 0.837828
O O17 0.745813 0.716983 0.410030
O O18 0.805890 0.000000 0.409250
O O19 0.656843 0.500000 0.379068
O O20 0.673542 0.769179 0.310337
O O21 0.301969 0.000000 0.744449
#
# Coordination Sequence:
#
# PCOD9356688 Si02
#       8
#     8   8   8   8   8   8   8   8
#     4   9  17  31  51  75 101 132 170 212 257 307
#     4   9  17  32  52  74 101 134 171 208 254 309
#     4  10  21  36  54  76 104 140 181 219 258 312
#     4  10  19  30  49  78 107 131 165 215 264 305
#     4   9  18  33  53  76 102 137 181 220 258 312
#     4  11  20  32  53  77 103 138 178 220 261 309
#     4  11  21  33  52  79 109 138 171 218 267 313
#     4   9  18  31  50  77 105 131 165 212 261 304
#
# _framework density 19.017592
#
# number of rings (size 3 to 8) (size 9 to 14) (size 15 to 20)
#    0.000    2.250    2.500    1.125    0.000    1.250 
#    0.000    1.250    0.000    6.375    0.000    0.000 
#    0.000    0.000    0.000    0.000    0.000    0.000 
#
# Total GULP energy -178491.769326 kJ/mol
# GULP energy per Si atom -5577.867791 kJ/mol
# Density = 1.897431 g / cm^3
# Si number density = 19.017592 Si / 1000 Ang^3
#
#
#
# Elastic Constant Matrix: (Units=GPa)
#
#
# Indices 1 2 3 4 5 6 
#
# 1 96.0610 -4.6760 55.8166 0.0000 0.0000 0.0000
# 2 -4.6760 17.6300 -5.0822 0.0000 0.0000 0.0000
# 3 55.8166 -5.0822 143.3476 0.0000 0.0000 0.0000
# 4 0.0000 0.0000 0.0000 16.5173 0.0000 0.0000
# 5 0.0000 0.0000 0.0000 0.0000 21.9282 0.0000
# 6 0.0000 0.0000 0.0000 0.0000 0.0000 8.6114
#
#
#
# Elastic Compliance Matrix: (Units=1/GPa)
#
#
# Indices 1 2 3 4 5 6 
#
# 1 0.013530 0.002091 -0.005194 0.000000 0.000000 0.000000
# 2 0.002091 0.057630 0.001229 0.000000 0.000000 0.000000
# 3 -0.005194 0.001229 0.009042 0.000000 0.000000 0.000000
# 4 0.000000 0.000000 0.000000 0.060543 0.000000 0.000000
# 5 0.000000 0.000000 0.000000 0.000000 0.045603 0.000000
# 6 0.000000 0.000000 0.000000 0.000000 0.000000 0.116125
#
#
# Mechanical properties :
#
#
# Convention : Reuss Voigt Hill
#
# Bulk Modulus (GPa) = 13.07967 38.79505 25.93736
# Shear Modulus (GPa) = 15.07360 23.47673 19.27517
#
# Velocity S-wave (km/s) = 2.81839 3.51732 3.18707
# Velocity P-wave (km/s) = 4.18135 6.07777 5.21646
#
# Compressibility (1/GPa) = 0.07645451
#
# Stress axis : x y z
#
# Youngs Moduli (GPa) = 73.91034 17.35193 110.59373
#
# Poissons Ratio (x) = -0.03629 0.57444
# Poissons Ratio (y) = -0.15456 -0.13591
# Poissons Ratio (z) = 0.38390 -0.02132
#
# Static dielectric constant tensor:
#      x y z
#    x 1.628840 0.000000 0.000000 
#    y 0.000000 1.679840 0.000000 
#    z 0.000000 0.000000 1.698130 
# 
# From -- ./inp_files/21406.got.cif
#   From: 2010.05.17/outbox.cif.g08.bks.cpg/sg38_11_cif.got.tgz:21406.got - 2010.06.03 18:07:57.
