data_PCOD9356231
_publ_section_title
;
Structure prediction by ZEFSAII (Michael W. Deem and Ramdas Pophale) SiO2 
 PCOD9356231
Probable space group: A M M 2
;
_chemical_formula_sum "Si O2"
_cell_formula_units_Z 56
_cell_length_a 15.830192
_cell_length_b 8.868732
_cell_length_c 20.496867
_cell_angle_alpha 90.000000
_cell_angle_beta 90.000000
_cell_angle_gamma 90.000000
_cell_volume 2877.631619
_symmetry_space_group_name_H-M "A M M 2"
_symmetry_group_IT_number 38
_symmetry_cell_setting 'orthorhombic'
loop_
_space_group_symop_operation_xyz
x,y,z
-x,-y,z
-x,y,z
x,-y,z
x,1/2+y,1/2+z
-x,1/2-y,1/2+z
-x,1/2+y,1/2+z
x,1/2-y,1/2+z
loop_
_atom_site_type_symbol
_atom_site_label
_atom_site_fract_x
_atom_site_fract_y
_atom_site_fract_z
Si Si1 0.724540 0.319635 0.736410
Si Si2 0.270210 0.820428 0.601214
Si Si3 0.093415 0.176826 0.066176
Si Si4 0.091917 0.318328 0.785687
Si Si5 0.146282 0.823667 0.918532
Si Si6 0.322654 0.319992 0.958198
Si Si7 0.595378 0.820391 0.839338
O O1 0.721274 0.500000 0.737978
O O2 0.697115 0.258433 0.666164
O O3 0.822449 0.272407 0.748663
O O4 0.664650 0.254311 0.792500
O O5 0.172862 0.769489 0.591682
O O6 0.318743 0.776983 0.534510
O O7 0.274489 0.000000 0.607753
O O8 0.000000 0.225105 0.087562
O O9 0.104659 0.000000 0.084446
O O10 0.097983 0.185075 0.987356
O O11 0.094558 0.500000 0.791013
O O12 0.098617 0.246385 0.857391
O O13 0.000000 0.277843 0.756770
O O14 0.232557 0.732086 0.929095
O O15 0.164917 0.000000 0.906261
O O16 0.330635 0.500000 0.953524
O O17 0.390404 0.240063 0.912536
O O18 0.500000 0.784361 0.817805
O O19 0.606482 0.000000 0.838405
#
# Coordination Sequence:
#
# PCOD9356231 Si02
#       7
#     8   8   8   8   8   8   8
#     4  11  23  40  62  88 123 166 206 247 300 359
#     4  10  22  38  58  84 118 159 202 249 302 355
#     4   9  18  32  50  76 112 154 203 254 302 355
#     4  10  21  35  52  79 117 160 204 250 300 354
#     4  10  18  30  52  81 114 152 196 250 304 351
#     4  10  20  37  61  89 119 154 195 242 300 359
#     4  11  24  42  67  97 125 154 192 245 305 361
#
# _framework density 19.460448
#
# number of rings (size 3 to 8) (size 9 to 14) (size 15 to 20)
#    0.000    1.857    1.429    2.571    0.000    5.714 
#    0.000    2.143    0.000    0.857    0.000    0.000 
#    0.000    0.000    0.000    0.000    0.000    0.000 
#
# Total GULP energy -156365.663204 kJ/mol
# GULP energy per Si atom -5584.487972 kJ/mol
# Density = 1.941616 g / cm^3
# Si number density = 19.460448 Si / 1000 Ang^3
#
#
#
# Elastic Constant Matrix: (Units=GPa)
#
#
# Indices 1 2 3 4 5 6 
#
# 1 76.9014 33.9490 46.4479 0.0000 0.0000 0.0000
# 2 33.9490 42.5950 39.3073 0.0000 0.0000 0.0000
# 3 46.4479 39.3073 115.3887 0.0000 0.0000 0.0000
# 4 0.0000 0.0000 0.0000 31.4010 0.0000 0.0000
# 5 0.0000 0.0000 0.0000 0.0000 -2.6325 0.0000
# 6 0.0000 0.0000 0.0000 0.0000 0.0000 22.6174
#
#
#
# Elastic Compliance Matrix: (Units=1/GPa)
#
#
# Indices 1 2 3 4 5 6 
#
# 1 0.021297 -0.013219 -0.004070 0.000000 0.000000 0.000000
# 2 -0.013219 0.042445 -0.009138 0.000000 0.000000 0.000000
# 3 -0.004070 -0.009138 0.013418 0.000000 0.000000 0.000000
# 4 0.000000 0.000000 0.000000 0.031846 0.000000 0.000000
# 5 0.000000 0.000000 0.000000 0.000000 -0.379861 0.000000
# 6 0.000000 0.000000 0.000000 0.000000 0.000000 0.044214
#
#
# Mechanical properties :
#
#
# Convention : Reuss Voigt Hill
#
# Bulk Modulus (GPa) = 41.14068 52.69928 46.91998
# Shear Modulus (GPa) = -30.17770 17.95590 -6.11090
#
# Velocity S-wave (km/s) = -3.94219 3.04087 -1.77397
# Velocity P-wave (km/s) = 0.68221 6.28237 4.46842
#
# Compressibility (1/GPa) = 0.02430684
#
# Stress axis : x y z
#
# Youngs Moduli (GPa) = 46.95401 23.55977 74.52908
#
# Poissons Ratio (x) = 0.31143 0.30333
# Poissons Ratio (y) = 0.62067 0.68105
# Poissons Ratio (z) = 0.19110 0.21529
#
# Static dielectric constant tensor:
#      x y z
#    x 1.688160 0.000000 0.000000 
#    y 0.000000 1.645300 0.000000 
#    z 0.000000 0.000000 1.685390 
# 
# From -- ./inp_files/21013.got.cif
#   From: 2010.05.17/outbox.cif.g08.bks.cpg/sg38_11_cif.got.tgz:21013.got - 2010.06.03 18:07:57.
