data_PCOD9356414
_publ_section_title
;
Structure prediction by ZEFSAII (Michael W. Deem and Ramdas Pophale) SiO2 
 PCOD9356414
Probable space group: A M M 2
;
_chemical_formula_sum "Si O2"
_cell_formula_units_Z 40
_cell_length_a 7.435065
_cell_length_b 23.501365
_cell_length_c 10.716435
_cell_angle_alpha 90.000000
_cell_angle_beta 90.000000
_cell_angle_gamma 90.000000
_cell_volume 1872.527443
_symmetry_space_group_name_H-M "A M M 2"
_symmetry_group_IT_number 38
_symmetry_cell_setting 'orthorhombic'
loop_
_space_group_symop_operation_xyz
x,y,z
-x,-y,z
-x,y,z
x,-y,z
x,1/2+y,1/2+z
-x,1/2-y,1/2+z
-x,1/2+y,1/2+z
x,1/2-y,1/2+z
loop_
_atom_site_type_symbol
_atom_site_label
_atom_site_fract_x
_atom_site_fract_y
_atom_site_fract_z
Si Si1 0.291006 0.000000 0.359200
Si Si2 0.780225 0.305447 0.021217
Si Si3 0.782892 0.500000 0.154237
Si Si4 0.779959 0.826281 0.018716
Si Si5 0.208930 0.125946 0.280595
Si Si6 0.219823 0.879170 0.758252
O O1 0.265322 0.000000 0.508412
O O2 0.216141 0.058664 0.304518
O O3 0.500000 0.000000 0.330703
O O4 0.726693 0.239797 0.015422
O O5 0.723987 0.336112 0.148741
O O6 0.000000 0.306829 0.021437
O O7 0.715979 0.341005 0.901004
O O8 0.721002 0.557621 0.220521
O O9 0.000000 0.500000 0.158438
O O10 0.716708 0.855310 0.146905
O O11 0.000000 0.827626 0.017060
O O12 0.720961 0.858449 0.893812
O O13 0.000000 0.143009 0.276606
O O14 0.000000 0.879406 0.758636
#
# Coordination Sequence:
#
# PCOD9356414 Si02
#       6
#     4   8   4   8   8   8
#     4  12  24  37  54  74 100 136 182 226 261 305
#     4   9  15  26  47  77 112 140 163 201 253 305
#     4  10  18  33  54  74  98 132 172 214 261 307
#     4   9  17  27  45  81 116 135 160 205 258 308
#     4  10  19  33  55  81 108 138 172 211 257 308
#     4   9  16  26  45  73 105 135 164 203 250 298
#
# _framework density 21.361502000000002
#
# number of rings (size 3 to 8) (size 9 to 14) (size 15 to 20)
#    0.000    2.400    2.000    2.100    0.000    5.600 
#    0.000    3.000    0.000    3.600    0.000    0.000 
#    0.000    0.000    0.000    0.000    0.000    0.000 
#
# Total GULP energy -111743.749666 kJ/mol
# GULP energy per Si atom -5587.187483 kJ/mol
# Density = 2.131288 g / cm^3
# Si number density = 21.361502 Si / 1000 Ang^3
#
#
#
# Elastic Constant Matrix: (Units=GPa)
#
#
# Indices 1 2 3 4 5 6 
#
# 1 62.6180 -16.9198 -0.7644 0.0000 0.0000 0.0000
# 2 -16.9198 166.6085 115.8177 0.0000 0.0000 0.0000
# 3 -0.7644 115.8177 227.7141 0.0000 0.0000 0.0000
# 4 0.0000 0.0000 0.0000 -43.5746 0.0000 0.0000
# 5 0.0000 0.0000 0.0000 0.0000 -37.4026 0.0000
# 6 0.0000 0.0000 0.0000 0.0000 0.0000 -169.9566
#
#
#
# Elastic Compliance Matrix: (Units=1/GPa)
#
#
# Indices 1 2 3 4 5 6 
#
# 1 0.016645 0.002555 -0.001244 0.000000 0.000000 0.000000
# 2 0.002555 0.009677 -0.004913 0.000000 0.000000 0.000000
# 3 -0.001244 -0.004913 0.006886 0.000000 0.000000 0.000000
# 4 0.000000 0.000000 0.000000 -0.022949 0.000000 0.000000
# 5 0.000000 0.000000 0.000000 0.000000 -0.026736 0.000000
# 6 0.000000 0.000000 0.000000 0.000000 0.000000 -0.005884
#
#
# Mechanical properties :
#
#
# Convention : Reuss Voigt Hill
#
# Bulk Modulus (GPa) = 38.45520 72.57861 55.51690
# Shear Modulus (GPa) = -770.54055 -26.26628 -398.40342
#
# Velocity S-wave (km/s) = -19.01309 -3.51038 -13.67151
# Velocity P-wave (km/s) = 21.53963 4.19759 14.93881
#
# Compressibility (1/GPa) = 0.02600429
#
# Stress axis : x y z
#
# Youngs Moduli (GPa) = 60.07811 103.33815 145.21768
#
# Poissons Ratio (x) = -0.26401 0.18058
# Poissons Ratio (y) = -0.15349 0.71349
# Poissons Ratio (z) = 0.07471 0.50772
#
# Static dielectric constant tensor:
#      x y z
#    x 1.826750 0.000000 0.000000 
#    y 0.000000 1.730950 0.000000 
#    z 0.000000 0.000000 1.733290 
# 
# From -- ./inp_files/3494.got.cif
#   From: 2010.05.17/outbox.cif.g08.bks.cpg/sg38_2_cif.got.tgz:3494.got - 2010.06.03 18:07:57.
