data_PCOD9356242
_publ_section_title
;
Structure prediction by ZEFSAII (Michael W. Deem and Ramdas Pophale) SiO2 
 PCOD9356242
Probable space group: A M M 2
;
_chemical_formula_sum "Si O2"
_cell_formula_units_Z 48
_cell_length_a 8.043476
_cell_length_b 17.237867
_cell_length_c 19.048927
_cell_angle_alpha 90.000000
_cell_angle_beta 90.000000
_cell_angle_gamma 90.000000
_cell_volume 2641.178865
_symmetry_space_group_name_H-M "A M M 2"
_symmetry_group_IT_number 38
_symmetry_cell_setting 'orthorhombic'
loop_
_space_group_symop_operation_xyz
x,y,z
-x,-y,z
-x,y,z
x,-y,z
x,1/2+y,1/2+z
-x,1/2-y,1/2+z
-x,1/2+y,1/2+z
x,1/2-y,1/2+z
loop_
_atom_site_type_symbol
_atom_site_label
_atom_site_fract_x
_atom_site_fract_y
_atom_site_fract_z
Si Si1 0.799657 0.817686 0.001020
Si Si2 0.299827 0.657663 0.341776
Si Si3 0.198551 0.000000 0.603516
Si Si4 0.799857 0.087406 0.136293
Si Si5 0.702083 0.000000 0.765509
Si Si6 0.200805 0.669107 0.081888
Si Si7 0.698763 0.764132 0.218925
O O1 0.740681 0.877400 0.061453
O O2 0.740996 0.732272 0.025232
O O3 0.000000 0.817934 0.004252
O O4 0.749794 0.837043 0.922459
O O5 0.500000 0.657688 0.338967
O O6 0.243659 0.577229 0.306370
O O7 0.240438 0.728872 0.292734
O O8 0.230819 0.000000 0.686749
O O9 0.265271 0.918358 0.574444
O O10 0.000000 0.000000 0.591859
O O11 0.757248 0.150852 0.195350
O O12 0.000000 0.084169 0.132858
O O13 0.737621 0.000000 0.148064
O O14 0.500000 0.000000 0.761774
O O15 0.247006 0.704729 0.157536
O O16 0.000000 0.666771 0.078845
O O17 0.500000 0.765482 0.220057
#
# Coordination Sequence:
#
# PCOD9356242 Si02
#       7
#     8   8   4   8   4   8   8
#     4   9  19  33  51  73 101 134 166 202 248 300
#     4  10  21  34  49  72 105 138 166 201 247 297
#     4  10  18  30  54  80 100 125 166 211 248 295
#     4   9  19  36  55  76 102 130 165 211 256 296
#     4  10  20  34  48  72 108 135 160 201 250 297
#     4   9  18  33  51  75 102 131 166 209 252 294
#     4  10  19  32  52  75 100 134 170 206 247 297
#
# _framework density 18.173703
#
# number of rings (size 3 to 8) (size 9 to 14) (size 15 to 20)
#    0.000    2.500    1.667    1.500    1.167    5.000 
#    0.000    0.000    1.833    0.000    0.000    0.000 
#    0.000    0.000    0.000    0.000    0.000    0.000 
#
# Total GULP energy -133810.436046 kJ/mol
# GULP energy per Si atom -5575.434835 kJ/mol
# Density = 1.813234 g / cm^3
# Si number density = 18.173703 Si / 1000 Ang^3
#
#
#
# Elastic Constant Matrix: (Units=GPa)
#
#
# Indices 1 2 3 4 5 6 
#
# 1 9.4077 15.9371 3.0056 0.0000 0.0000 0.0000
# 2 15.9371 170.1794 44.1198 0.0000 0.0000 0.0000
# 3 3.0056 44.1198 68.3210 0.0000 0.0000 0.0000
# 4 0.0000 0.0000 0.0000 18.9618 0.0000 0.0000
# 5 0.0000 0.0000 0.0000 0.0000 26.0675 0.0000
# 6 0.0000 0.0000 0.0000 0.0000 0.0000 16.6767
#
#
#
# Elastic Compliance Matrix: (Units=1/GPa)
#
#
# Indices 1 2 3 4 5 6 
#
# 1 0.126696 -0.012515 0.002508 0.000000 0.000000 0.000000
# 2 -0.012515 0.008294 -0.004805 0.000000 0.000000 0.000000
# 3 0.002508 -0.004805 0.017630 0.000000 0.000000 0.000000
# 4 0.000000 0.000000 0.000000 0.052738 0.000000 0.000000
# 5 0.000000 0.000000 0.000000 0.000000 0.038362 0.000000
# 6 0.000000 0.000000 0.000000 0.000000 0.000000 0.059964
#
#
# Mechanical properties :
#
#
# Convention : Reuss Voigt Hill
#
# Bulk Modulus (GPa) = 8.13042 41.55924 24.84483
# Shear Modulus (GPa) = 13.35804 24.66424 19.01114
#
# Velocity S-wave (km/s) = 2.71407 3.68793 3.23782
# Velocity P-wave (km/s) = 3.78219 6.40718 5.26103
#
# Compressibility (1/GPa) = 0.12299488
#
# Stress axis : x y z
#
# Youngs Moduli (GPa) = 7.89290 120.56868 56.72253
#
# Poissons Ratio (x) = 1.50894 -0.14227
# Poissons Ratio (y) = 0.09878 0.27258
# Poissons Ratio (z) = -0.01980 0.57939
#
# Static dielectric constant tensor:
#      x y z
#    x 1.643070 0.000000 0.000000 
#    y 0.000000 1.660940 0.000000 
#    z 0.000000 0.000000 1.593650 
# 
# From -- ./inp_files/16671.got.cif
#   From: 2010.05.17/outbox.cif.g08.bks.cpg/sg38_9_cif.got.tgz:16671.got - 2010.06.03 18:07:57.
