data_PCOD9356780
_publ_section_title
;
Structure prediction by ZEFSAII (Michael W. Deem and Ramdas Pophale) SiO2 
 PCOD9356780
Probable space group: A M M 2
;
_chemical_formula_sum "Si O2"
_cell_formula_units_Z 64
_cell_length_a 9.025667
_cell_length_b 27.571271
_cell_length_c 15.155754
_cell_angle_alpha 90.000000
_cell_angle_beta 90.000000
_cell_angle_gamma 90.000000
_cell_volume 3771.495907
_symmetry_space_group_name_H-M "A M M 2"
_symmetry_group_IT_number 38
_symmetry_cell_setting 'orthorhombic'
loop_
_space_group_symop_operation_xyz
x,y,z
-x,-y,z
-x,y,z
x,-y,z
x,1/2+y,1/2+z
-x,1/2-y,1/2+z
-x,1/2+y,1/2+z
x,1/2-y,1/2+z
loop_
_atom_site_type_symbol
_atom_site_label
_atom_site_fract_x
_atom_site_fract_y
_atom_site_fract_z
Si Si1 0.676527 0.668820 0.209570
Si Si2 0.823708 0.669312 0.394066
Si Si3 0.676680 0.782793 0.210670
Si Si4 0.323627 0.556891 0.711045
Si Si5 0.823013 0.283508 0.895995
Si Si6 0.175697 0.442511 0.897131
Si Si7 0.322062 0.863430 0.518337
Si Si8 0.322369 0.636601 0.568853
O O1 0.500000 0.663966 0.222807
O O2 0.758480 0.654765 0.299231
O O3 0.706357 0.726115 0.193173
O O4 0.719045 0.640208 0.121406
O O5 0.786093 0.726526 0.407591
O O6 0.755709 0.640016 0.475141
O O7 0.000000 0.665187 0.392920
O O8 0.500000 0.788506 0.226805
O O9 0.763918 0.797281 0.298787
O O10 0.716099 0.816406 0.128237
O O11 0.500000 0.563649 0.726689
O O12 0.297445 0.500000 0.693432
O O13 0.238121 0.570394 0.800281
O O14 0.281989 0.590400 0.628767
O O15 0.743771 0.316955 0.967494
O O16 0.000000 0.289384 0.900799
O O17 0.202716 0.500000 0.909783
O O18 0.257122 0.410241 0.969624
O O19 0.000000 0.433788 0.900209
O O20 0.500000 0.862529 0.511905
O O21 0.500000 0.636457 0.556143
#
# Coordination Sequence:
#
# PCOD9356780 Si02
#       8
#     8   8   8   8   8   8   8   8
#     4   9  19  34  50  69  96 130 168 209 248 289
#     4  10  21  34  49  71 100 134 169 207 251 297
#     4   9  17  30  48  71  99 132 169 205 243 292
#     4   9  18  33  53  78 106 134 166 205 248 295
#     4  10  20  32  47  72 105 136 165 202 249 298
#     4  10  21  36  54  78 107 135 161 196 247 301
#     4  11  21  33  53  77  99 130 171 209 247 293
#     4  10  19  31  50  73  98 131 169 207 247 293
#
# _framework density 16.969394000000001
#
# number of rings (size 3 to 8) (size 9 to 14) (size 15 to 20)
#    0.000    2.250    0.000    3.000    0.000    6.250 
#    0.000    2.500    0.000    0.750    0.000    1.750 
#    0.000    0.000    0.000    0.000    0.000    0.000 
#
# Total GULP energy -178650.166335 kJ/mol
# GULP energy per Si atom -5582.817698 kJ/mol
# Density = 1.693077 g / cm^3
# Si number density = 16.969394 Si / 1000 Ang^3
#
#
#
# Elastic Constant Matrix: (Units=GPa)
#
#
# Indices 1 2 3 4 5 6 
#
# 1 48.2643 41.1664 67.5960 0.0000 0.0000 0.0000
# 2 41.1664 58.9302 71.4026 0.0000 0.0000 0.0000
# 3 67.5960 71.4026 169.9783 0.0000 0.0000 0.0000
# 4 0.0000 0.0000 0.0000 25.9777 0.0000 0.0000
# 5 0.0000 0.0000 0.0000 0.0000 -26.4849 0.0000
# 6 0.0000 0.0000 0.0000 0.0000 0.0000 19.2774
#
#
#
# Elastic Compliance Matrix: (Units=1/GPa)
#
#
# Indices 1 2 3 4 5 6 
#
# 1 0.063507 -0.028030 -0.013481 0.000000 0.000000 0.000000
# 2 -0.028030 0.046930 -0.008567 0.000000 0.000000 0.000000
# 3 -0.013481 -0.008567 0.014843 0.000000 0.000000 0.000000
# 4 0.000000 0.000000 0.000000 0.038495 0.000000 0.000000
# 5 0.000000 0.000000 0.000000 0.000000 -0.037757 0.000000
# 6 0.000000 0.000000 0.000000 0.000000 0.000000 0.051874
#
#
# Mechanical properties :
#
#
# Convention : Reuss Voigt Hill
#
# Bulk Modulus (GPa) = 39.80130 70.83363 55.31746
# Shear Modulus (GPa) = 17.45675 10.22124 13.83900
#
# Velocity S-wave (km/s) = 3.21085 2.45691 2.85884
# Velocity P-wave (km/s) = 6.10342 7.06266 6.60049
#
# Compressibility (1/GPa) = 0.02512481
#
# Stress axis : x y z
#
# Youngs Moduli (GPa) = 15.74622 21.30822 67.37252
#
# Poissons Ratio (x) = 0.59727 0.90823
# Poissons Ratio (y) = 0.44136 0.57719
# Poissons Ratio (z) = 0.21227 0.18255
#
# Static dielectric constant tensor:
#      x y z
#    x 1.561330 0.000000 0.000000 
#    y 0.000000 1.575070 0.000000 
#    z 0.000000 0.000000 1.550170 
# 
# From -- ./inp_files/8642.got.cif
#   From: 2010.05.17/outbox.cif.g08.bks.cpg/sg38_5_cif.got.tgz:8642.got - 2010.06.03 18:07:57.
