data_PCOD9356114
_publ_section_title
;
Structure prediction by ZEFSAII (Michael W. Deem and Ramdas Pophale) SiO2 
 PCOD9356114
Probable space group: A M M 2
;
_chemical_formula_sum "Si O2"
_cell_formula_units_Z 48
_cell_length_a 17.018837
_cell_length_b 8.562087
_cell_length_c 18.997370
_cell_angle_alpha 90.000000
_cell_angle_beta 90.000000
_cell_angle_gamma 90.000000
_cell_volume 2768.235263
_symmetry_space_group_name_H-M "A M M 2"
_symmetry_group_IT_number 38
_symmetry_cell_setting 'orthorhombic'
loop_
_space_group_symop_operation_xyz
x,y,z
-x,-y,z
-x,y,z
x,-y,z
x,1/2+y,1/2+z
-x,1/2-y,1/2+z
-x,1/2+y,1/2+z
x,1/2-y,1/2+z
loop_
_atom_site_type_symbol
_atom_site_label
_atom_site_fract_x
_atom_site_fract_y
_atom_site_fract_z
Si Si1 0.255097 0.311192 0.085760
Si Si2 0.167062 0.816052 0.212951
Si Si3 0.682501 0.186361 0.795127
Si Si4 0.586450 0.810959 0.665010
Si Si5 0.087759 0.686473 0.343002
Si Si6 0.760108 0.813075 0.423552
O O1 0.253337 0.500000 0.090203
O O2 0.185614 0.247405 0.135362
O O3 0.339406 0.258456 0.117974
O O4 0.246340 0.264931 0.004740
O O5 0.246799 0.774065 0.255331
O O6 0.102041 0.735169 0.261734
O O7 0.154031 0.000000 0.211642
O O8 0.607199 0.221495 0.746953
O O9 0.691280 0.240234 0.875149
O O10 0.696520 0.000000 0.791077
O O11 0.500000 0.751003 0.646078
O O12 0.584817 0.000000 0.658316
O O13 0.094681 0.500000 0.348096
O O14 0.156830 0.760605 0.389910
O O15 0.000000 0.734113 0.364830
O O16 0.754804 0.000000 0.419488
#
# Coordination Sequence:
#
# PCOD9356114 Si02
#       6
#     8   8   8   8   8   8
#     4   9  18  32  49  70  97 129 163 197 237 285
#     4  10  18  29  49  72  93 120 155 193 232 278
#     4   9  16  28  47  68  92 123 158 194 233 280
#     4   8  14  27  48  70  91 122 165 205 239 280
#     4  10  20  34  52  72  95 124 158 197 240 284
#     4  10  19  31  49  72  98 128 161 196 237 285
#
# _framework density 17.339566999999999
#
# number of rings (size 3 to 8) (size 9 to 14) (size 15 to 20)
#    0.000    2.667    0.000    6.000    0.000    2.667 
#    0.000    1.667    0.000   14.500    0.000    0.000 
#    0.000    0.000    0.000    0.000    0.000    0.000 
#
# Total GULP energy -133625.184663 kJ/mol
# GULP energy per Si atom -5567.716028 kJ/mol
# Density = 1.730010 g / cm^3
# Si number density = 17.339567 Si / 1000 Ang^3
#
#
#
# Elastic Constant Matrix: (Units=GPa)
#
#
# Indices 1 2 3 4 5 6 
#
# 1 76.8580 9.3852 35.3476 0.0000 0.0000 0.0000
# 2 9.3852 18.0373 15.4878 0.0000 0.0000 0.0000
# 3 35.3476 15.4878 134.0631 0.0000 0.0000 0.0000
# 4 0.0000 0.0000 0.0000 27.2669 0.0000 0.0000
# 5 0.0000 0.0000 0.0000 0.0000 13.2670 0.0000
# 6 0.0000 0.0000 0.0000 0.0000 0.0000 2.0547
#
#
#
# Elastic Compliance Matrix: (Units=1/GPa)
#
#
# Indices 1 2 3 4 5 6 
#
# 1 0.015196 -0.004958 -0.003434 0.000000 0.000000 0.000000
# 2 -0.004958 0.063164 -0.005990 0.000000 0.000000 0.000000
# 3 -0.003434 -0.005990 0.009057 0.000000 0.000000 0.000000
# 4 0.000000 0.000000 0.000000 0.036675 0.000000 0.000000
# 5 0.000000 0.000000 0.000000 0.000000 0.075375 0.000000
# 6 0.000000 0.000000 0.000000 0.000000 0.000000 0.486700
#
#
# Mechanical properties :
#
#
# Convention : Reuss Voigt Hill
#
# Bulk Modulus (GPa) = 17.04958 38.82217 27.93588
# Shear Modulus (GPa) = 6.80754 19.76690 13.28722
#
# Velocity S-wave (km/s) = 1.98357 3.38003 2.77121
# Velocity P-wave (km/s) = 3.88589 6.13765 5.13668
#
# Compressibility (1/GPa) = 0.05865246
#
# Stress axis : x y z
#
# Youngs Moduli (GPa) = 65.80820 15.83186 110.41782
#
# Poissons Ratio (x) = 0.07850 0.37915
# Poissons Ratio (y) = 0.32629 0.66138
# Poissons Ratio (z) = 0.22597 0.09483
#
# Static dielectric constant tensor:
#      x y z
#    x 1.610120 0.000000 0.000000 
#    y 0.000000 1.587080 0.000000 
#    z 0.000000 0.000000 1.619590 
# 
# From -- ./inp_files/18585.got.cif
#   From: 2010.05.17/outbox.cif.g08.bks.cpg/sg38_10_cif.got.tgz:18585.got - 2010.06.03 18:07:57.
