data_PCOD9356569
_publ_section_title
;
Structure prediction by ZEFSAII (Michael W. Deem and Ramdas Pophale) SiO2 
 PCOD9356569
Probable space group: A M M 2
;
_chemical_formula_sum "Si O2"
_cell_formula_units_Z 64
_cell_length_a 7.764622
_cell_length_b 24.172925
_cell_length_c 19.759513
_cell_angle_alpha 90.000000
_cell_angle_beta 90.000000
_cell_angle_gamma 90.000000
_cell_volume 3708.734628
_symmetry_space_group_name_H-M "A M M 2"
_symmetry_group_IT_number 38
_symmetry_cell_setting 'orthorhombic'
loop_
_space_group_symop_operation_xyz
x,y,z
-x,-y,z
-x,y,z
x,-y,z
x,1/2+y,1/2+z
-x,1/2-y,1/2+z
-x,1/2+y,1/2+z
x,1/2-y,1/2+z
loop_
_atom_site_type_symbol
_atom_site_label
_atom_site_fract_x
_atom_site_fract_y
_atom_site_fract_z
Si Si1 0.298844 0.735706 0.195570
Si Si2 0.200327 0.341811 0.615486
Si Si3 0.295171 0.875773 0.349780
Si Si4 0.800481 0.751560 0.844858
Si Si5 0.790073 0.768607 0.993694
Si Si6 0.711187 0.563203 0.987102
Si Si7 0.791054 0.063285 0.210332
Si Si8 0.295693 0.160486 0.578392
O O1 0.500000 0.743155 0.178866
O O2 0.210570 0.792188 0.170440
O O3 0.282460 0.728359 0.275315
O O4 0.229820 0.685582 0.149203
O O5 0.272175 0.315456 0.546288
O O6 0.274672 0.396285 0.650751
O O7 0.000000 0.353376 0.601738
O O8 0.500000 0.866986 0.355475
O O9 0.213560 0.815103 0.346783
O O10 0.236726 0.909872 0.415527
O O11 0.259501 0.909956 0.281883
O O12 0.730102 0.773329 0.916474
O O13 0.000000 0.767037 0.841149
O O14 0.000000 0.768524 0.993968
O O15 0.733695 0.709676 0.024356
O O16 0.500000 0.563065 0.987399
O O17 0.767839 0.500000 0.993222
O O18 0.772954 0.603924 0.046626
O O19 0.000000 0.063464 0.207814
O O20 0.732188 0.000000 0.205048
O O21 0.500000 0.152246 0.586431
#
# Coordination Sequence:
#
# PCOD9356569 Si02
#       8
#     8   8   8   8   8   8   8   8
#     4  10  19  29  45  67  90 116 148 185 229 272
#     4   9  17  31  47  64  88 117 148 184 224 266
#     4  11  20  30  45  65  92 124 157 188 217 259
#     4  11  20  30  45  66  92 122 153 186 225 271
#     4   9  18  30  46  65  87 116 149 183 224 271
#     4   9  17  29  45  65  90 121 153 184 220 260
#     4  10  20  32  46  65  92 124 154 185 222 265
#     4   9  17  30  46  66  90 115 147 188 225 264
#
# _framework density 17.256557999999998
#
# number of rings (size 3 to 8) (size 9 to 14) (size 15 to 20)
#    0.000    2.250    2.500    1.500    0.000    1.750 
#    0.000    0.000    0.000    1.125    0.000    0.875 
#    0.000    1.000    0.000    0.000    0.000    0.000 
#
# Total GULP energy -178455.518251 kJ/mol
# GULP energy per Si atom -5576.734945 kJ/mol
# Density = 1.721728 g / cm^3
# Si number density = 17.256558 Si / 1000 Ang^3
#
#
#
# Elastic Constant Matrix: (Units=GPa)
#
#
# Indices 1 2 3 4 5 6 
#
# 1 22.7735 -3.3560 -6.5632 0.0000 0.0000 0.0000
# 2 -3.3560 88.6621 63.5876 0.0000 0.0000 0.0000
# 3 -6.5632 63.5876 136.1453 0.0000 0.0000 0.0000
# 4 0.0000 0.0000 0.0000 22.6698 0.0000 0.0000
# 5 0.0000 0.0000 0.0000 0.0000 11.5968 0.0000
# 6 0.0000 0.0000 0.0000 0.0000 0.0000 4.3120
#
#
#
# Elastic Compliance Matrix: (Units=1/GPa)
#
#
# Indices 1 2 3 4 5 6 
#
# 1 0.044532 0.000219 0.002044 0.000000 0.000000 0.000000
# 2 0.000219 0.016961 -0.007911 0.000000 0.000000 0.000000
# 3 0.002044 -0.007911 0.011139 0.000000 0.000000 0.000000
# 4 0.000000 0.000000 0.000000 0.044112 0.000000 0.000000
# 5 0.000000 0.000000 0.000000 0.000000 0.086231 0.000000
# 6 0.000000 0.000000 0.000000 0.000000 0.000000 0.231911
#
#
# Mechanical properties :
#
#
# Convention : Reuss Voigt Hill
#
# Bulk Modulus (GPa) = 16.30340 39.43531 27.86936
# Shear Modulus (GPa) = 10.71523 20.64321 15.67922
#
# Velocity S-wave (km/s) = 2.49456 3.46244 3.01756
# Velocity P-wave (km/s) = 4.21489 6.23592 5.32221
#
# Compressibility (1/GPa) = 0.06133688
#
# Stress axis : x y z
#
# Youngs Moduli (GPa) = 22.45567 58.95937 89.77812
#
# Poissons Ratio (x) = -0.01294 -0.18353
# Poissons Ratio (y) = -0.00493 0.71024
# Poissons Ratio (z) = -0.04591 0.46643
#
# Static dielectric constant tensor:
#      x y z
#    x 1.635270 0.000000 0.000000 
#    y 0.000000 1.571400 0.000000 
#    z 0.000000 0.000000 1.605200 
# 
# From -- ./inp_files/17295.got.cif
#   From: 2010.05.17/outbox.cif.g08.bks.cpg/sg38_9_cif.got.tgz:17295.got - 2010.06.03 18:07:57.
