data_PCOD9356434
_publ_section_title
;
Structure prediction by ZEFSAII (Michael W. Deem and Ramdas Pophale) SiO2 
 PCOD9356434
Probable space group: A M M 2
;
_chemical_formula_sum "Si O2"
_cell_formula_units_Z 40
_cell_length_a 7.622151
_cell_length_b 23.920995
_cell_length_c 10.505657
_cell_angle_alpha 90.000000
_cell_angle_beta 90.000000
_cell_angle_gamma 90.000000
_cell_volume 1915.490515
_symmetry_space_group_name_H-M "A M M 2"
_symmetry_group_IT_number 38
_symmetry_cell_setting 'orthorhombic'
loop_
_space_group_symop_operation_xyz
x,y,z
-x,-y,z
-x,y,z
x,-y,z
x,1/2+y,1/2+z
-x,1/2-y,1/2+z
-x,1/2+y,1/2+z
x,1/2-y,1/2+z
loop_
_atom_site_type_symbol
_atom_site_label
_atom_site_fract_x
_atom_site_fract_y
_atom_site_fract_z
Si Si1 0.293316 0.000000 0.393510
Si Si2 0.793354 0.302833 0.062096
Si Si3 0.787354 0.500000 0.191774
Si Si4 0.788659 0.823533 0.051729
Si Si5 0.291338 0.121581 0.321884
Si Si6 0.215216 0.880433 0.792215
O O1 0.272687 0.000000 0.545690
O O2 0.219807 0.058628 0.341301
O O3 0.500000 0.000000 0.361833
O O4 0.720450 0.240210 0.052629
O O5 0.723300 0.339690 0.178834
O O6 0.000000 0.296322 0.088462
O O7 0.776114 0.337126 0.931690
O O8 0.729070 0.556589 0.260783
O O9 0.000000 0.500000 0.189293
O O10 0.747051 0.854089 0.183302
O O11 0.000000 0.820969 0.040626
O O12 0.726000 0.857178 0.928095
O O13 0.500000 0.119299 0.339616
O O14 0.000000 0.880692 0.791065
#
# Coordination Sequence:
#
# PCOD9356434 Si02
#       6
#     4   8   4   8   8   8
#     4  10  22  39  56  78 112 152 192 233 278 332
#     4  10  19  36  61  84 110 148 189 231 281 335
#     4  10  18  33  58  82 106 138 186 239 282 332
#     4  10  21  37  57  84 117 149 183 229 286 339
#     4  11  23  38  57  83 116 153 193 234 277 332
#     4   9  18  32  54  83 108 137 182 233 279 326
#
# _framework density 20.882380000000001
#
# number of rings (size 3 to 8) (size 9 to 14) (size 15 to 20)
#    0.000    2.000    2.000    1.800    0.000    5.600 
#    0.000    3.000    0.000    0.000    0.000    0.000 
#    0.000    0.000    0.000    0.000    0.000    0.000 
#
# Total GULP energy -111744.944441 kJ/mol
# GULP energy per Si atom -5587.247222 kJ/mol
# Density = 2.083485 g / cm^3
# Si number density = 20.882380 Si / 1000 Ang^3
#
#
#
# Elastic Constant Matrix: (Units=GPa)
#
#
# Indices 1 2 3 4 5 6 
#
# 1 34.0389 -7.2915 -27.6179 0.0000 0.0000 0.0000
# 2 -7.2915 234.0850 108.3899 0.0000 0.0000 0.0000
# 3 -27.6179 108.3899 164.2517 0.0000 0.0000 0.0000
# 4 0.0000 0.0000 0.0000 8.5019 0.0000 0.0000
# 5 0.0000 0.0000 0.0000 0.0000 162.4967 0.0000
# 6 0.0000 0.0000 0.0000 0.0000 0.0000 6.3846
#
#
#
# Elastic Compliance Matrix: (Units=1/GPa)
#
#
# Indices 1 2 3 4 5 6 
#
# 1 0.034892 -0.002347 0.007416 0.000000 0.000000 0.000000
# 2 -0.002347 0.006309 -0.004558 0.000000 0.000000 0.000000
# 3 0.007416 -0.004558 0.010343 0.000000 0.000000 0.000000
# 4 0.000000 0.000000 0.000000 0.117620 0.000000 0.000000
# 5 0.000000 0.000000 0.000000 0.000000 0.006154 0.000000
# 6 0.000000 0.000000 0.000000 0.000000 0.000000 0.156628
#
#
# Mechanical properties :
#
#
# Convention : Reuss Voigt Hill
#
# Bulk Modulus (GPa) = 19.02380 64.37073 41.69726
# Shear Modulus (GPa) = 14.34935 59.40297 36.87616
#
# Velocity S-wave (km/s) = 2.62420 5.33931 4.20682
# Velocity P-wave (km/s) = 4.27921 8.30080 6.60359
#
# Compressibility (1/GPa) = 0.05256575
#
# Stress axis : x y z
#
# Youngs Moduli (GPa) = 28.65973 158.49160 96.68295
#
# Poissons Ratio (x) = 0.37195 -0.71696
# Poissons Ratio (y) = 0.06726 0.44070
# Poissons Ratio (z) = -0.21253 0.72244
#
# Static dielectric constant tensor:
#      x y z
#    x 1.774870 0.000000 0.000000 
#    y 0.000000 1.750440 0.000000 
#    z 0.000000 0.000000 1.685350 
# 
# From -- ./inp_files/3492.got.cif
#   From: 2010.05.17/outbox.cif.g08.bks.cpg/sg38_2_cif.got.tgz:3492.got - 2010.06.03 18:07:57.
