data_PCOD9356113
_publ_section_title
;
Structure prediction by ZEFSAII (Michael W. Deem and Ramdas Pophale) SiO2 
 PCOD9356113
Probable space group: A M M 2
;
_chemical_formula_sum "Si O2"
_cell_formula_units_Z 64
_cell_length_a 7.477816
_cell_length_b 17.073705
_cell_length_c 23.261472
_cell_angle_alpha 90.000000
_cell_angle_beta 90.000000
_cell_angle_gamma 90.000000
_cell_volume 2969.885744
_symmetry_space_group_name_H-M "A M M 2"
_symmetry_group_IT_number 38
_symmetry_cell_setting 'orthorhombic'
loop_
_space_group_symop_operation_xyz
x,y,z
-x,-y,z
-x,y,z
x,-y,z
x,1/2+y,1/2+z
-x,1/2-y,1/2+z
-x,1/2+y,1/2+z
x,1/2-y,1/2+z
loop_
_atom_site_type_symbol
_atom_site_label
_atom_site_fract_x
_atom_site_fract_y
_atom_site_fract_z
Si Si1 0.296572 0.612095 0.349040
Si Si2 0.284709 0.248110 0.512506
Si Si3 0.718762 0.411371 0.219757
Si Si4 0.788700 0.282431 0.884464
Si Si5 0.785147 0.911376 0.167946
Si Si6 0.713127 0.230007 0.636599
Si Si7 0.718693 0.917504 0.975761
Si Si8 0.217742 0.414579 0.800311
O O1 0.500000 0.583212 0.346999
O O2 0.218789 0.595592 0.286343
O O3 0.299492 0.704135 0.361064
O O4 0.217976 0.582695 0.409438
O O5 0.500000 0.250733 0.515406
O O6 0.239044 0.207704 0.452352
O O7 0.219606 0.212159 0.572078
O O8 0.220510 0.338244 0.505781
O O9 0.500000 0.408368 0.220701
O O10 0.766325 0.500000 0.199114
O O11 0.779957 0.335033 0.182802
O O12 0.719541 0.351590 0.845239
O O13 0.000000 0.272989 0.875157
O O14 0.740218 0.824442 0.143903
O O15 0.725883 0.904603 0.234551
O O16 0.000000 0.915306 0.165640
O O17 0.722869 0.000000 0.147876
O O18 0.500000 0.219978 0.637808
O O19 0.500000 0.914559 0.974661
O O20 0.771443 0.000000 0.003137
O O21 0.271803 0.500000 0.819874
O O22 0.000000 0.411643 0.799086
#
# Coordination Sequence:
#
# PCOD9356113 Si02
#       8
#     8   8   8   8   8   8   8   8
#     4   9  16  27  46  70  95 120 148 190 243 297
#     4   9  19  33  46  64  94 129 162 197 239 285
#     4   9  17  30  50  75 100 130 170 209 246 294
#     4  10  18  29  49  72  92 120 158 199 240 283
#     4   9  18  33  53  76 103 134 162 192 242 307
#     4  10  20  33  50  72  99 133 172 213 249 282
#     4   8  13  23  41  62  82 110 148 183 218 270
#     4   8  15  29  48  70  95 122 153 189 235 294
#
# _framework density 21.549651000000001
#
# number of rings (size 3 to 8) (size 9 to 14) (size 15 to 20)
#    0.000    3.000    0.000    3.000    0.000    2.750 
#    0.000    2.500    0.000   14.250    0.000    0.000 
#    0.000    0.000    0.000    0.000    0.000    0.000 
#
# Total GULP energy -178242.560697 kJ/mol
# GULP energy per Si atom -5570.080022 kJ/mol
# Density = 2.150060 g / cm^3
# Si number density = 21.549651 Si / 1000 Ang^3
#
#
#
# Elastic Constant Matrix: (Units=GPa)
#
#
# Indices 1 2 3 4 5 6 
#
# 1 66.4743 0.6938 4.4041 0.0000 0.0000 0.0000
# 2 0.6938 106.9214 59.6609 0.0000 0.0000 0.0000
# 3 4.4041 59.6609 103.4179 0.0000 0.0000 0.0000
# 4 0.0000 0.0000 0.0000 -9.4997 0.0000 0.0000
# 5 0.0000 0.0000 0.0000 0.0000 5.4853 0.0000
# 6 0.0000 0.0000 0.0000 0.0000 0.0000 -7.5770
#
#
#
# Elastic Compliance Matrix: (Units=1/GPa)
#
#
# Indices 1 2 3 4 5 6 
#
# 1 0.015097 0.000385 -0.000865 0.000000 0.000000 0.000000
# 2 0.000385 0.013802 -0.007979 0.000000 0.000000 0.000000
# 3 -0.000865 -0.007979 0.014309 0.000000 0.000000 0.000000
# 4 0.000000 0.000000 0.000000 -0.105267 0.000000 0.000000
# 5 0.000000 0.000000 0.000000 0.000000 0.182305 0.000000
# 6 0.000000 0.000000 0.000000 0.000000 0.000000 -0.131978
#
#
# Mechanical properties :
#
#
# Convention : Reuss Voigt Hill
#
# Bulk Modulus (GPa) = 38.03696 45.14792 41.59244
# Shear Modulus (GPa) = 358.44773 11.81871 185.13322
#
# Velocity S-wave (km/s) = 12.91111 2.34442 9.27882
# Velocity P-wave (km/s) = 15.49037 5.32208 11.58180
#
# Compressibility (1/GPa) = 0.02629022
#
# Stress axis : x y z
#
# Youngs Moduli (GPa) = 66.23970 72.45201 69.88503
#
# Poissons Ratio (x) = -0.02786 0.06043
# Poissons Ratio (y) = -0.02547 0.55760
# Poissons Ratio (z) = 0.05728 0.57808
#
# Static dielectric constant tensor:
#      x y z
#    x 1.846210 0.000000 0.000000 
#    y 0.000000 1.847180 0.000000 
#    z 0.000000 0.000000 1.786050 
# 
# From -- ./inp_files/20101.got.cif
#   From: 2010.05.17/outbox.cif.g08.bks.cpg/sg38_11_cif.got.tgz:20101.got - 2010.06.03 18:07:57.
