data_PCOD9356351
_publ_section_title
;
Structure prediction by ZEFSAII (Michael W. Deem and Ramdas Pophale) SiO2 
 PCOD9356351
Probable space group: A M M 2
;
_chemical_formula_sum "Si O2"
_cell_formula_units_Z 64
_cell_length_a 17.955436
_cell_length_b 18.821144
_cell_length_c 9.910652
_cell_angle_alpha 90.000000
_cell_angle_beta 90.000000
_cell_angle_gamma 90.000000
_cell_volume 3349.224037
_symmetry_space_group_name_H-M "A M M 2"
_symmetry_group_IT_number 38
_symmetry_cell_setting 'orthorhombic'
loop_
_space_group_symop_operation_xyz
x,y,z
-x,-y,z
-x,y,z
x,-y,z
x,1/2+y,1/2+z
-x,1/2-y,1/2+z
-x,1/2+y,1/2+z
x,1/2-y,1/2+z
loop_
_atom_site_type_symbol
_atom_site_label
_atom_site_fract_x
_atom_site_fract_y
_atom_site_fract_z
Si Si1 0.582429 0.835341 0.747560
Si Si2 0.179502 0.084213 0.019085
Si Si3 0.344779 0.856849 0.018565
Si Si4 0.087036 0.819223 0.212928
Si Si5 0.915593 0.085229 0.760801
Si Si6 0.307436 0.812216 0.519143
Si Si7 0.582613 0.664296 0.790082
Si Si8 0.869599 0.184072 0.527601
O O1 0.500000 0.857177 0.700365
O O2 0.605289 0.869905 0.887938
O O3 0.650196 0.845736 0.645922
O O4 0.578698 0.749819 0.768664
O O5 0.266475 0.103230 0.017328
O O6 0.140499 0.110008 0.879095
O O7 0.169277 0.000000 0.026347
O O8 0.139072 0.121041 0.145572
O O9 0.324184 0.772493 0.018926
O O10 0.393995 0.870279 0.149954
O O11 0.102269 0.809733 0.373255
O O12 0.000000 0.836093 0.195570
O O13 0.106176 0.749822 0.123016
O O14 0.898349 0.117267 0.614263
O O15 0.000000 0.105915 0.799445
O O16 0.911561 0.000000 0.754763
O O17 0.349745 0.845669 0.392295
O O18 0.219677 0.820505 0.520832
O O19 0.500000 0.642417 0.836488
#
# Coordination Sequence:
#
# PCOD9356351 Si02
#       8
#     8   8   8   8   8   8   8   8
#     4   9  17  28  48  78 109 146 184 226 280 337
#     4  11  23  40  62  86 117 158 205 249 300 363
#     4  10  18  32  51  77 112 147 185 238 285 338
#     4  12  25  40  60  87 118 155 199 249 308 364
#     4  10  22  41  62  84 114 154 199 248 301 358
#     4  10  19  30  52  77 116 145 183 234 287 342
#     4   9  17  29  48  76 109 147 184 226 281 337
#     4  12  24  39  61  89 121 156 194 248 301 366
#
# _framework density 19.108903000000002
#
# number of rings (size 3 to 8) (size 9 to 14) (size 15 to 20)
#    0.000    1.625    1.250    4.500    3.500    4.250 
#    0.000    0.000    0.000    1.500    0.000    0.000 
#    0.000    5.000    0.000    0.000    0.000    0.000 
#
# Total GULP energy -178578.149400 kJ/mol
# GULP energy per Si atom -5580.567169 kJ/mol
# Density = 1.906541 g / cm^3
# Si number density = 19.108903 Si / 1000 Ang^3
#
#
#
# Elastic Constant Matrix: (Units=GPa)
#
#
# Indices 1 2 3 4 5 6 
#
# 1 83.5370 4.7169 -5.3448 0.0000 0.0000 0.0000
# 2 4.7169 28.5672 19.5026 0.0000 0.0000 0.0000
# 3 -5.3448 19.5026 99.1121 0.0000 0.0000 0.0000
# 4 0.0000 0.0000 0.0000 16.5266 0.0000 0.0000
# 5 0.0000 0.0000 0.0000 0.0000 35.7044 0.0000
# 6 0.0000 0.0000 0.0000 0.0000 0.0000 40.5657
#
#
#
# Elastic Compliance Matrix: (Units=1/GPa)
#
#
# Indices 1 2 3 4 5 6 
#
# 1 0.012210 -0.002848 0.001219 0.000000 0.000000 0.000000
# 2 -0.002848 0.041102 -0.008241 0.000000 0.000000 0.000000
# 3 0.001219 -0.008241 0.011777 0.000000 0.000000 0.000000
# 4 0.000000 0.000000 0.000000 0.060509 0.000000 0.000000
# 5 0.000000 0.000000 0.000000 0.000000 0.028008 0.000000
# 6 0.000000 0.000000 0.000000 0.000000 0.000000 0.024651
#
#
# Mechanical properties :
#
#
# Convention : Reuss Voigt Hill
#
# Bulk Modulus (GPa) = 22.05208 27.66284 24.85746
# Shear Modulus (GPa) = 23.46178 31.38211 27.42194
#
# Velocity S-wave (km/s) = 3.50779 4.05690 3.79230
# Velocity P-wave (km/s) = 5.28880 6.03758 5.67555
#
# Compressibility (1/GPa) = 0.04534720
#
# Stress axis : x y z
#
# Youngs Moduli (GPa) = 81.90312 24.32989 84.91142
#
# Poissons Ratio (x) = 0.06929 -0.10349
# Poissons Ratio (y) = 0.23327 0.69978
# Poissons Ratio (z) = -0.09983 0.20051
#
# Static dielectric constant tensor:
#      x y z
#    x 1.644780 0.000000 0.000000 
#    y 0.000000 1.664670 0.000000 
#    z 0.000000 0.000000 1.752870 
# 
# From -- ./inp_files/6493.got.cif
#   From: 2010.05.17/outbox.cif.g08.bks.cpg/sg38_4_cif.got.tgz:6493.got - 2010.06.03 18:07:57.
