data_PCOD9356200
_publ_section_title
;
Structure prediction by ZEFSAII (Michael W. Deem and Ramdas Pophale) SiO2 
 PCOD9356200
Probable space group: A M M 2
;
_chemical_formula_sum "Si O2"
_cell_formula_units_Z 56
_cell_length_a 10.840615
_cell_length_b 13.531444
_cell_length_c 23.005296
_cell_angle_alpha 90.000000
_cell_angle_beta 90.000000
_cell_angle_gamma 90.000000
_cell_volume 3374.627886
_symmetry_space_group_name_H-M "A M M 2"
_symmetry_group_IT_number 38
_symmetry_cell_setting 'orthorhombic'
loop_
_space_group_symop_operation_xyz
x,y,z
-x,-y,z
-x,y,z
x,-y,z
x,1/2+y,1/2+z
-x,1/2-y,1/2+z
-x,1/2+y,1/2+z
x,1/2-y,1/2+z
loop_
_atom_site_type_symbol
_atom_site_label
_atom_site_fract_x
_atom_site_fract_y
_atom_site_fract_z
Si Si1 0.500000 0.117896 0.683571
Si Si2 0.276083 0.617954 0.268299
Si Si3 0.500000 0.118131 0.552040
Si Si4 0.143383 0.612827 0.158156
Si Si5 0.140663 0.618481 0.930273
Si Si6 0.646395 0.756216 0.879724
Si Si7 0.357713 0.884943 0.996421
Si Si8 0.757341 0.706297 0.043463
O O1 0.383102 0.142343 0.722045
O O2 0.500000 0.156585 0.618545
O O3 0.500000 0.000000 0.676998
O O4 0.280469 0.500000 0.282853
O O5 0.159850 0.637840 0.226320
O O6 0.302473 0.684359 0.323915
O O7 0.625450 0.158407 0.525447
O O8 0.500000 0.000000 0.549818
O O9 0.192195 0.500000 0.151989
O O10 0.209885 0.675995 0.108723
O O11 0.000000 0.613516 0.144027
O O12 0.157026 0.500000 0.931237
O O13 0.253325 0.671207 0.895541
O O14 0.000000 0.639127 0.908716
O O15 0.150347 0.661492 0.995976
O O16 0.500000 0.727268 0.872080
O O17 0.648150 0.833049 0.933515
O O18 0.500000 0.875615 0.017179
O O19 0.328146 0.000000 0.992611
O O20 0.264815 0.822440 0.035966
#
# Coordination Sequence:
#
# PCOD9356200 Si02
#       8
#     4   8   4   8   8   8   8   8
#     4   9  16  26  43  71 107 137 155 187 246 308
#     4  10  18  30  50  77 107 136 165 202 253 312
#     4  11  18  26  44  79 113 133 160 209 263 312
#     4  10  20  32  48  74 107 140 171 207 256 317
#     4  10  22  38  54  73 102 140 175 210 259 316
#     4  10  20  33  54  81 103 133 174 214 259 302
#     4   9  18  32  48  72 105 135 170 212 255 305
#     4  11  19  31  51  77 103 136 172 209 261 311
#
# _framework density 16.594422000000002
#
# number of rings (size 3 to 8) (size 9 to 14) (size 15 to 20)
#    0.000    2.000    2.857    2.143    1.000    2.571 
#    0.000    0.000    0.000   15.000    0.000    0.000 
#    0.000    0.000    0.000    0.000    0.000    0.000 
#
# Total GULP energy -155914.905508 kJ/mol
# GULP energy per Si atom -5568.389482 kJ/mol
# Density = 1.655665 g / cm^3
# Si number density = 16.594422 Si / 1000 Ang^3
#
#
#
# Elastic Constant Matrix: (Units=GPa)
#
#
# Indices 1 2 3 4 5 6 
#
# 1 91.0408 48.2627 30.5875 0.0000 0.0000 0.0000
# 2 48.2627 99.9371 37.9864 0.0000 0.0000 0.0000
# 3 30.5875 37.9864 83.4835 0.0000 0.0000 0.0000
# 4 0.0000 0.0000 0.0000 24.9807 0.0000 0.0000
# 5 0.0000 0.0000 0.0000 0.0000 12.2187 0.0000
# 6 0.0000 0.0000 0.0000 0.0000 0.0000 17.9271
#
#
#
# Elastic Compliance Matrix: (Units=1/GPa)
#
#
# Indices 1 2 3 4 5 6 
#
# 1 0.015253 -0.006338 -0.002705 0.000000 0.000000 0.000000
# 2 -0.006338 0.014732 -0.004381 0.000000 0.000000 0.000000
# 3 -0.002705 -0.004381 0.014963 0.000000 0.000000 0.000000
# 4 0.000000 0.000000 0.000000 0.040031 0.000000 0.000000
# 5 0.000000 0.000000 0.000000 0.000000 0.081842 0.000000
# 6 0.000000 0.000000 0.000000 0.000000 0.000000 0.055781
#
#
# Mechanical properties :
#
#
# Convention : Reuss Voigt Hill
#
# Bulk Modulus (GPa) = 55.24765 56.45940 55.85352
# Shear Modulus (GPa) = 19.57075 21.53363 20.55219
#
# Velocity S-wave (km/s) = 3.43790 3.60619 3.52305
# Velocity P-wave (km/s) = 7.00886 7.17192 7.09086
#
# Compressibility (1/GPa) = 0.01810032
#
# Stress axis : x y z
#
# Youngs Moduli (GPa) = 65.56250 67.87739 66.83195
#
# Poissons Ratio (x) = 0.43020 0.18075
# Poissons Ratio (y) = 0.41553 0.29281
# Poissons Ratio (z) = 0.17732 0.29739
#
# Static dielectric constant tensor:
#      x y z
#    x 1.650810 0.000000 0.000000 
#    y 0.000000 1.556420 0.000000 
#    z 0.000000 0.000000 1.571470 
# 
# From -- ./inp_files/22569.got.cif
#   From: 2010.05.17/outbox.cif.g08.bks.cpg/sg38_12_cif.got.tgz:22569.got - 2010.06.03 18:07:57.
