data_PCOD9356388
_publ_section_title
;
Structure prediction by ZEFSAII (Michael W. Deem and Ramdas Pophale) SiO2 
 PCOD9356388
Probable space group: A M M 2
;
_chemical_formula_sum "Si O2"
_cell_formula_units_Z 48
_cell_length_a 7.467095
_cell_length_b 18.488643
_cell_length_c 15.916371
_cell_angle_alpha 90.000000
_cell_angle_beta 90.000000
_cell_angle_gamma 90.000000
_cell_volume 2197.357736
_symmetry_space_group_name_H-M "A M M 2"
_symmetry_group_IT_number 38
_symmetry_cell_setting 'orthorhombic'
loop_
_space_group_symop_operation_xyz
x,y,z
-x,-y,z
-x,y,z
x,-y,z
x,1/2+y,1/2+z
-x,1/2-y,1/2+z
-x,1/2+y,1/2+z
x,1/2-y,1/2+z
loop_
_atom_site_type_symbol
_atom_site_label
_atom_site_fract_x
_atom_site_fract_y
_atom_site_fract_z
Si Si1 0.785409 0.500000 0.700930
Si Si2 0.216453 0.420811 0.193644
Si Si3 0.707175 0.734444 0.118641
Si Si4 0.783298 0.379928 0.381152
Si Si5 0.218274 0.000000 0.010527
Si Si6 0.711220 0.841050 0.264897
Si Si7 0.296411 0.222469 0.432262
O O1 0.718305 0.500000 0.605176
O O2 0.728780 0.424922 0.742631
O O3 0.000000 0.500000 0.699288
O O4 0.275069 0.500000 0.161649
O O5 0.285297 0.347985 0.150803
O O6 0.263473 0.414591 0.292006
O O7 0.000000 0.418591 0.187508
O O8 0.500000 0.757689 0.108494
O O9 0.783913 0.789001 0.189825
O O10 0.787606 0.732896 0.024653
O O11 0.726308 0.430165 0.457935
O O12 0.702577 0.301410 0.390944
O O13 0.000000 0.373582 0.383070
O O14 0.000000 0.000000 0.011126
O O15 0.500000 0.822791 0.270939
O O16 0.787209 0.825537 0.357974
O O17 0.500000 0.195724 0.447372
#
# Coordination Sequence:
#
# PCOD9356388 Si02
#       7
#     4   8   8   8   4   8   8
#     4  11  23  37  57  84 111 144 190 233 271 326
#     4  10  20  35  56  83 116 149 180 222 278 333
#     4  10  21  38  60  84 110 145 189 232 275 331
#     4  10  18  32  56  82 111 145 179 219 275 336
#     4   9  18  33  53  82 115 142 174 225 283 330
#     4  10  21  39  59  79 113 150 180 227 283 328
#     4  10  21  37  57  82 109 144 187 228 277 329
#
# _framework density 21.844417
#
# number of rings (size 3 to 8) (size 9 to 14) (size 15 to 20)
#    0.000    2.000    2.500    1.250    0.000    2.333 
#    1.500    1.250    0.000    0.000    0.000    0.000 
#    0.000    0.000    0.000    0.000    0.000    0.000 
#
# Total GULP energy -133983.187775 kJ/mol
# GULP energy per Si atom -5582.632824 kJ/mol
# Density = 2.179470 g / cm^3
# Si number density = 21.844417 Si / 1000 Ang^3
#
#
#
# Elastic Constant Matrix: (Units=GPa)
#
#
# Indices 1 2 3 4 5 6 
#
# 1 63.4467 -9.2174 11.7450 0.0000 0.0000 0.0000
# 2 -9.2174 131.1402 45.6245 0.0000 0.0000 0.0000
# 3 11.7450 45.6245 132.2933 0.0000 0.0000 0.0000
# 4 0.0000 0.0000 0.0000 -40.0862 0.0000 0.0000
# 5 0.0000 0.0000 0.0000 0.0000 -2.5513 0.0000
# 6 0.0000 0.0000 0.0000 0.0000 0.0000 45.8586
#
#
#
# Elastic Compliance Matrix: (Units=1/GPa)
#
#
# Indices 1 2 3 4 5 6 
#
# 1 0.016426 0.001888 -0.002110 0.000000 0.000000 0.000000
# 2 0.001888 0.008882 -0.003231 0.000000 0.000000 0.000000
# 3 -0.002110 -0.003231 0.008861 0.000000 0.000000 0.000000
# 4 0.000000 0.000000 0.000000 -0.024946 0.000000 0.000000
# 5 0.000000 0.000000 0.000000 0.000000 -0.391961 0.000000
# 6 0.000000 0.000000 0.000000 0.000000 0.000000 0.021806
#
#
# Mechanical properties :
#
#
# Convention : Reuss Voigt Hill
#
# Bulk Modulus (GPa) = 36.67732 47.02049 41.84891
# Shear Modulus (GPa) = -14.49526 19.22610 2.36542
#
# Velocity S-wave (km/s) = -2.57878 2.96993 1.04173
# Velocity P-wave (km/s) = 2.82133 5.77344 4.54381
#
# Compressibility (1/GPa) = 0.02726480
#
# Stress axis : x y z
#
# Youngs Moduli (GPa) = 60.87863 112.58458 112.86040
#
# Poissons Ratio (x) = -0.21261 0.23809
# Poissons Ratio (y) = -0.11497 0.36464
# Poissons Ratio (z) = 0.12843 0.36375
#
# Static dielectric constant tensor:
#      x y z
#    x 1.874090 0.000000 0.000000 
#    y 0.000000 1.833970 0.000000 
#    z 0.000000 0.000000 1.819350 
# 
# From -- ./inp_files/12084.got.cif
#   From: 2010.05.17/outbox.cif.g08.bks.cpg/sg38_7_cif.got.tgz:12084.got - 2010.06.03 18:07:57.
