data_PCOD9356319
_publ_section_title
;
Structure prediction by ZEFSAII (Michael W. Deem and Ramdas Pophale) SiO2 
 PCOD9356319
Probable space group: A M M 2
;
_chemical_formula_sum "Si O2"
_cell_formula_units_Z 64
_cell_length_a 8.979271
_cell_length_b 17.991580
_cell_length_c 21.204835
_cell_angle_alpha 90.000000
_cell_angle_beta 90.000000
_cell_angle_gamma 90.000000
_cell_volume 3425.668078
_symmetry_space_group_name_H-M "A M M 2"
_symmetry_group_IT_number 38
_symmetry_cell_setting 'orthorhombic'
loop_
_space_group_symop_operation_xyz
x,y,z
-x,-y,z
-x,y,z
x,-y,z
x,1/2+y,1/2+z
-x,1/2-y,1/2+z
-x,1/2+y,1/2+z
x,1/2-y,1/2+z
loop_
_atom_site_type_symbol
_atom_site_label
_atom_site_fract_x
_atom_site_fract_y
_atom_site_fract_z
Si Si1 0.671905 0.802481 0.803580
Si Si2 0.671241 0.878654 0.298843
Si Si3 0.178863 0.795451 0.932698
Si Si4 0.821448 0.805993 0.673706
Si Si5 0.823767 0.583368 0.062985
Si Si6 0.818555 0.418346 0.533493
Si Si7 0.320685 0.132465 0.436559
Si Si8 0.177728 0.629997 0.670163
O O1 0.500000 0.824234 0.810617
O O2 0.675989 0.711930 0.800828
O O3 0.767320 0.824046 0.864526
O O4 0.740960 0.829538 0.738016
O O5 0.500000 0.901970 0.293148
O O6 0.727834 0.900610 0.368444
O O7 0.756255 0.900027 0.235477
O O8 0.253646 0.715301 0.942112
O O9 0.000000 0.787597 0.933761
O O10 0.226775 0.852222 0.987306
O O11 0.775811 0.855174 0.613846
O O12 0.790329 0.718401 0.664153
O O13 0.000000 0.813644 0.681220
O O14 0.806216 0.500000 0.088884
O O15 0.000000 0.595391 0.050340
O O16 0.736586 0.590079 0.997646
O O17 0.773271 0.500000 0.510845
O O18 0.768247 0.406712 0.605477
O O19 0.000000 0.416265 0.534721
O O20 0.500000 0.136182 0.435037
O O21 0.000000 0.621500 0.673476
#
# Coordination Sequence:
#
# PCOD9356319 Si02
#       8
#     8   8   8   8   8   8   8   8
#     4   9  17  30  49  75 103 128 161 208 256 302
#     4   8  16  30  47  70  98 125 157 200 248 296
#     4  10  18  31  54  78 100 131 170 212 255 300
#     4   9  17  31  51  75 100 128 165 207 253 303
#     4  10  21  36  53  75 104 136 173 217 258 301
#     4   9  18  32  49  72 102 133 166 205 249 296
#     4  10  20  34  53  76 103 135 169 208 256 310
#     4   9  16  28  50  75  96 123 161 204 247 293
#
# _framework density 18.682486000000001
#
# number of rings (size 3 to 8) (size 9 to 14) (size 15 to 20)
#    0.000    2.750    0.000    2.625    0.000    6.250 
#    0.000    5.000    0.000    9.375    0.000    0.000 
#    0.000    0.000    0.000    0.000    0.000    0.000 
#
# Total GULP energy -178427.273862 kJ/mol
# GULP energy per Si atom -5575.852308 kJ/mol
# Density = 1.863996 g / cm^3
# Si number density = 18.682486 Si / 1000 Ang^3
#
#
#
# Elastic Constant Matrix: (Units=GPa)
#
#
# Indices 1 2 3 4 5 6 
#
# 1 26.1597 15.5493 21.4530 0.0000 0.0000 0.0000
# 2 15.5493 41.2946 24.9890 0.0000 0.0000 0.0000
# 3 21.4530 24.9890 101.9470 0.0000 0.0000 0.0000
# 4 0.0000 0.0000 0.0000 -13.9454 0.0000 0.0000
# 5 0.0000 0.0000 0.0000 0.0000 10.8446 0.0000
# 6 0.0000 0.0000 0.0000 0.0000 0.0000 3.8066
#
#
#
# Elastic Compliance Matrix: (Units=1/GPa)
#
#
# Indices 1 2 3 4 5 6 
#
# 1 0.053665 -0.015703 -0.007444 0.000000 0.000000 0.000000
# 2 -0.015703 0.033029 -0.004792 0.000000 0.000000 0.000000
# 3 -0.007444 -0.004792 0.012550 0.000000 0.000000 0.000000
# 4 0.000000 0.000000 0.000000 -0.071708 0.000000 0.000000
# 5 0.000000 0.000000 0.000000 0.000000 0.092212 0.000000
# 6 0.000000 0.000000 0.000000 0.000000 0.000000 0.262702
#
#
# Mechanical properties :
#
#
# Convention : Reuss Voigt Hill
#
# Bulk Modulus (GPa) = 23.05887 32.59821 27.82854
# Shear Modulus (GPa) = 11.04286 7.30181 9.17233
#
# Velocity S-wave (km/s) = 2.43385 1.97911 2.21816
# Velocity P-wave (km/s) = 4.50194 4.76539 4.63554
#
# Compressibility (1/GPa) = 0.04336727
#
# Stress axis : x y z
#
# Youngs Moduli (GPa) = 18.63408 30.27676 79.68168
#
# Poissons Ratio (x) = 0.47543 0.59314
# Poissons Ratio (y) = 0.29261 0.38180
# Poissons Ratio (z) = 0.13871 0.14507
#
# Static dielectric constant tensor:
#      x y z
#    x 1.629490 0.000000 0.000000 
#    y 0.000000 1.641660 0.000000 
#    z 0.000000 0.000000 1.651850 
# 
# From -- ./inp_files/20063.got.cif
#   From: 2010.05.17/outbox.cif.g08.bks.cpg/sg38_11_cif.got.tgz:20063.got - 2010.06.03 18:07:57.
