data_PCOD9356811
_publ_section_title
;
Structure prediction by ZEFSAII (Michael W. Deem and Ramdas Pophale) SiO2 
 PCOD9356811
Probable space group: A M M 2
;
_chemical_formula_sum "Si O2"
_cell_formula_units_Z 48
_cell_length_a 14.445428
_cell_length_b 12.196849
_cell_length_c 14.872101
_cell_angle_alpha 90.000000
_cell_angle_beta 90.000000
_cell_angle_gamma 90.000000
_cell_volume 2620.296202
_symmetry_space_group_name_H-M "A M M 2"
_symmetry_group_IT_number 38
_symmetry_cell_setting 'orthorhombic'
loop_
_space_group_symop_operation_xyz
x,y,z
-x,-y,z
-x,y,z
x,-y,z
x,1/2+y,1/2+z
-x,1/2-y,1/2+z
-x,1/2+y,1/2+z
x,1/2-y,1/2+z
loop_
_atom_site_type_symbol
_atom_site_label
_atom_site_fract_x
_atom_site_fract_y
_atom_site_fract_z
Si Si1 0.390453 0.870792 0.458710
Si Si2 0.895463 0.124859 0.922309
Si Si3 0.100270 0.122626 0.250928
Si Si4 0.898822 0.793271 0.587038
Si Si5 0.258927 0.247587 0.823723
Si Si6 0.705533 0.624725 0.144842
O O1 0.500000 0.857964 0.446431
O O2 0.334254 0.788509 0.394504
O O3 0.362007 0.848976 0.562079
O O4 0.367368 0.000000 0.441038
O O5 0.811040 0.151667 0.856297
O O6 0.000000 0.133091 0.882186
O O7 0.887276 0.000000 0.956387
O O8 0.888934 0.215235 0.000389
O O9 0.100039 0.210148 0.171349
O O10 0.187451 0.151823 0.310893
O O11 0.000000 0.129894 0.298319
O O12 0.107951 0.000000 0.214375
O O13 0.809188 0.866424 0.603134
O O14 0.000000 0.848238 0.582930
O O15 0.300308 0.207213 0.728913
O O16 0.688521 0.500000 0.174701
#
# Coordination Sequence:
#
# PCOD9356811 Si02
#       6
#     8   8   8   8   8   8
#     4  10  22  41  62  82 108 144 187 237 292 344
#     4  10  19  31  50  79 116 154 188 224 272 329
#     4   9  17  29  47  74 108 142 179 223 269 322
#     4   9  17  31  51  77 109 150 190 223 264 322
#     4  11  20  34  57  83 109 147 188 235 275 338
#     4  10  21  37  57  85 115 147 185 227 281 339
#
# _framework density 18.318539999999999
#
# number of rings (size 3 to 8) (size 9 to 14) (size 15 to 20)
#    0.000    2.167    1.667    2.000    0.000    3.667 
#    0.000    0.000    0.000    1.500    0.000    0.000 
#    0.000    0.000    0.000    0.000    0.000    0.000 
#
# Total GULP energy -133773.267365 kJ/mol
# GULP energy per Si atom -5573.886140 kJ/mol
# Density = 1.827685 g / cm^3
# Si number density = 18.318540 Si / 1000 Ang^3
#
#
#
# Elastic Constant Matrix: (Units=GPa)
#
#
# Indices 1 2 3 4 5 6 
#
# 1 83.7451 25.9503 43.3554 0.0000 0.0000 0.0000
# 2 25.9503 59.1312 25.6973 0.0000 0.0000 0.0000
# 3 43.3554 25.6973 70.7149 0.0000 0.0000 0.0000
# 4 0.0000 0.0000 0.0000 12.2387 0.0000 0.0000
# 5 0.0000 0.0000 0.0000 0.0000 16.1267 0.0000
# 6 0.0000 0.0000 0.0000 0.0000 0.0000 16.6066
#
#
#
# Elastic Compliance Matrix: (Units=1/GPa)
#
#
# Indices 1 2 3 4 5 6 
#
# 1 0.018157 -0.003718 -0.009781 0.000000 0.000000 0.000000
# 2 -0.003718 0.020844 -0.005295 0.000000 0.000000 0.000000
# 3 -0.009781 -0.005295 0.022062 0.000000 0.000000 0.000000
# 4 0.000000 0.000000 0.000000 0.081708 0.000000 0.000000
# 5 0.000000 0.000000 0.000000 0.000000 0.062009 0.000000
# 6 0.000000 0.000000 0.000000 0.000000 0.000000 0.060217
#
#
# Mechanical properties :
#
#
# Convention : Reuss Voigt Hill
#
# Bulk Modulus (GPa) = 42.59776 44.84412 43.72094
# Shear Modulus (GPa) = 16.10772 16.90028 16.50400
#
# Velocity S-wave (km/s) = 2.96854 3.04069 3.00483
# Velocity P-wave (km/s) = 5.92064 6.07133 5.99646
#
# Compressibility (1/GPa) = 0.02347541
#
# Stress axis : x y z
#
# Youngs Moduli (GPa) = 55.07634 47.97462 45.32625
#
# Poissons Ratio (x) = 0.17835 0.44333
# Poissons Ratio (y) = 0.20475 0.24002
# Poissons Ratio (z) = 0.53869 0.25404
#
# Static dielectric constant tensor:
#      x y z
#    x 1.648610 0.000000 0.000000 
#    y 0.000000 1.628010 0.000000 
#    z 0.000000 0.000000 1.645580 
# 
# From -- ./inp_files/13710.got.cif
#   From: 2010.05.17/outbox.cif.g08.bks.cpg/sg38_7_cif.got.tgz:13710.got - 2010.06.03 18:07:57.
