data_PCOD9356856
_publ_section_title
;
Structure prediction by ZEFSAII (Michael W. Deem and Ramdas Pophale) SiO2 
 PCOD9356856
Probable space group: A M M 2
;
_chemical_formula_sum "Si O2"
_cell_formula_units_Z 64
_cell_length_a 8.593727
_cell_length_b 23.951882
_cell_length_c 19.616431
_cell_angle_alpha 90.000000
_cell_angle_beta 90.000000
_cell_angle_gamma 90.000000
_cell_volume 4037.766417
_symmetry_space_group_name_H-M "A M M 2"
_symmetry_group_IT_number 38
_symmetry_cell_setting 'orthorhombic'
loop_
_space_group_symop_operation_xyz
x,y,z
-x,-y,z
-x,y,z
x,-y,z
x,1/2+y,1/2+z
-x,1/2-y,1/2+z
-x,1/2+y,1/2+z
x,1/2-y,1/2+z
loop_
_atom_site_type_symbol
_atom_site_label
_atom_site_fract_x
_atom_site_fract_y
_atom_site_fract_z
Si Si1 0.687011 0.731737 0.793990
Si Si2 0.688637 0.334575 0.664913
Si Si3 0.311288 0.063797 0.075087
Si Si4 0.313331 0.564853 0.297146
Si Si5 0.813065 0.617735 0.436688
Si Si6 0.185233 0.337404 0.210489
Si Si7 0.686406 0.223218 0.583560
Si Si8 0.813897 0.751563 0.940228
O O1 0.500000 0.732453 0.797651
O O2 0.737472 0.683697 0.740578
O O3 0.742271 0.789811 0.759820
O O4 0.756792 0.726739 0.868813
O O5 0.500000 0.335558 0.665523
O O6 0.741754 0.392887 0.633388
O O7 0.734165 0.283693 0.614835
O O8 0.500000 0.065399 0.072350
O O9 0.263635 0.000000 0.087057
O O10 0.248038 0.085875 0.003164
O O11 0.500000 0.568493 0.295432
O O12 0.268028 0.500000 0.291574
O O13 0.254312 0.589835 0.368753
O O14 0.243536 0.603389 0.237890
O O15 0.765915 0.682909 0.440727
O O16 0.000000 0.615386 0.434136
O O17 0.241074 0.322048 0.134578
O O18 0.000000 0.334014 0.215181
O O19 0.500000 0.219588 0.587115
O O20 0.742717 0.221864 0.506201
O O21 0.000000 0.749521 0.943988
#
# Coordination Sequence:
#
# PCOD9356856 Si02
#       8
#     8   8   8   8   8   8   8   8
#     4  10  19  32  51  71  96 131 169 208 252 304
#     4   8  16  30  47  70  94 122 163 205 245 288
#     4  10  19  32  50  70  96 133 174 211 245 289
#     4  11  23  37  53  72  97 135 180 215 246 295
#     4  11  22  33  46  69 103 138 170 208 251 295
#     4  11  21  34  51  74 102 130 164 210 258 305
#     4  10  19  33  53  72  97 132 167 206 250 304
#     4  11  21  32  48  75 103 132 166 207 258 304
#
# _framework density 15.850346999999999
#
# number of rings (size 3 to 8) (size 9 to 14) (size 15 to 20)
#    0.000    1.750    2.500    4.125    0.000    3.750 
#    0.000    0.625    0.000    0.000    0.000    0.875 
#    0.000    5.000    0.000    0.000    0.000    0.000 
#
# Total GULP energy -178637.253068 kJ/mol
# GULP energy per Si atom -5582.414158 kJ/mol
# Density = 1.581427 g / cm^3
# Si number density = 15.850347 Si / 1000 Ang^3
#
#
#
# Elastic Constant Matrix: (Units=GPa)
#
#
# Indices 1 2 3 4 5 6 
#
# 1 37.1313 23.3274 20.1744 0.0000 0.0000 0.0000
# 2 23.3274 95.0820 64.7622 0.0000 0.0000 0.0000
# 3 20.1744 64.7622 129.3248 0.0000 0.0000 0.0000
# 4 0.0000 0.0000 0.0000 19.5593 0.0000 0.0000
# 5 0.0000 0.0000 0.0000 0.0000 12.5976 0.0000
# 6 0.0000 0.0000 0.0000 0.0000 0.0000 14.6629
#
#
#
# Elastic Compliance Matrix: (Units=1/GPa)
#
#
# Indices 1 2 3 4 5 6 
#
# 1 0.032059 -0.006767 -0.001612 0.000000 0.000000 0.000000
# 2 -0.006767 0.017390 -0.007653 0.000000 0.000000 0.000000
# 3 -0.001612 -0.007653 0.011816 0.000000 0.000000 0.000000
# 4 0.000000 0.000000 0.000000 0.051127 0.000000 0.000000
# 5 0.000000 0.000000 0.000000 0.000000 0.079380 0.000000
# 6 0.000000 0.000000 0.000000 0.000000 0.000000 0.068199
#
#
# Mechanical properties :
#
#
# Convention : Reuss Voigt Hill
#
# Bulk Modulus (GPa) = 34.24576 53.11847 43.68212
# Shear Modulus (GPa) = 16.56894 19.58221 18.07557
#
# Velocity S-wave (km/s) = 3.23667 3.51870 3.38063
# Velocity P-wave (km/s) = 5.96830 7.07768 6.54654
#
# Compressibility (1/GPa) = 0.02920069
#
# Stress axis : x y z
#
# Youngs Moduli (GPa) = 31.19255 57.50461 84.62915
#
# Poissons Ratio (x) = 0.38914 0.13645
# Poissons Ratio (y) = 0.21108 0.64764
# Poissons Ratio (z) = 0.05029 0.44007
#
# Static dielectric constant tensor:
#      x y z
#    x 1.530510 0.000000 0.000000 
#    y 0.000000 1.522130 0.000000 
#    z 0.000000 0.000000 1.519240 
# 
# From -- ./inp_files/17287.got.cif
#   From: 2010.05.17/outbox.cif.g08.bks.cpg/sg38_9_cif.got.tgz:17287.got - 2010.06.03 18:07:57.
