data_PCOD9356207
_publ_section_title
;
Structure prediction by ZEFSAII (Michael W. Deem and Ramdas Pophale) SiO2 
 PCOD9356207
Probable space group: A M M 2
;
_chemical_formula_sum "Si O2"
_cell_formula_units_Z 64
_cell_length_a 16.454912
_cell_length_b 18.122293
_cell_length_c 9.028383
_cell_angle_alpha 90.000000
_cell_angle_beta 90.000000
_cell_angle_gamma 90.000000
_cell_volume 2692.270460
_symmetry_space_group_name_H-M "A M M 2"
_symmetry_group_IT_number 38
_symmetry_cell_setting 'orthorhombic'
loop_
_space_group_symop_operation_xyz
x,y,z
-x,-y,z
-x,y,z
x,-y,z
x,1/2+y,1/2+z
-x,1/2-y,1/2+z
-x,1/2+y,1/2+z
x,1/2-y,1/2+z
loop_
_atom_site_type_symbol
_atom_site_label
_atom_site_fract_x
_atom_site_fract_y
_atom_site_fract_z
Si Si1 0.092808 0.613649 0.896970
Si Si2 0.247359 0.262713 0.227181
Si Si3 0.910982 0.268767 0.532914
Si Si4 0.659471 0.582740 0.558694
Si Si5 0.854430 0.581580 0.559103
Si Si6 0.336525 0.143467 0.382540
Si Si7 0.767918 0.419492 0.132028
Si Si8 0.589827 0.731922 0.539022
O O1 0.123350 0.590169 0.734437
O O2 0.152133 0.586110 0.027713
O O3 0.000000 0.587990 0.915365
O O4 0.090108 0.702379 0.917194
O O5 0.168459 0.241391 0.133568
O O6 0.261924 0.202360 0.354623
O O7 0.237731 0.350401 0.243093
O O8 0.333161 0.250710 0.142688
O O9 0.899376 0.351936 0.475830
O O10 0.000000 0.264804 0.606840
O O11 0.633695 0.500000 0.518359
O O12 0.757073 0.587799 0.547123
O O13 0.645054 0.598458 0.734402
O O14 0.614223 0.650717 0.478296
O O15 0.879520 0.500000 0.511037
O O16 0.305750 0.092319 0.515151
O O17 0.407228 0.199385 0.427643
O O18 0.763796 0.500000 0.202423
O O19 0.500000 0.727585 0.604233
#
# Coordination Sequence:
#
# PCOD9356207 Si02
#       8
#     8   8   8   8   8   8   8   8
#     4  10  20  30  47  78 113 146 186 228 265 316
#     4   9  19  35  52  77 112 143 176 226 268 322
#     4  10  19  33  51  78 114 153 185 218 270 326
#     4  10  20  35  57  84 112 142 176 224 280 329
#     4  11  20  32  53  83 113 143 183 229 275 320
#     4  10  18  33  56  79 102 139 179 220 262 323
#     4  10  18  30  51  76 105 139 175 219 272 314
#     4  10  21  36  56  80 107 141 182 225 272 329
#
# _framework density 23.771756
#
# number of rings (size 3 to 8) (size 9 to 14) (size 15 to 20)
#    0.000    2.000    3.750    1.125    0.000    4.000 
#    0.000    0.625    0.000    9.000    0.000    0.875 
#    0.000    8.750    0.000    0.000    0.000    0.000 
#
# Total GULP energy -178729.646597 kJ/mol
# GULP energy per Si atom -5585.301456 kJ/mol
# Density = 2.371765 g / cm^3
# Si number density = 23.771756 Si / 1000 Ang^3
#
#
#
# Elastic Constant Matrix: (Units=GPa)
#
#
# Indices 1 2 3 4 5 6 
#
# 1 159.7577 29.2621 24.1936 0.0000 0.0000 0.0000
# 2 29.2621 196.2282 4.7078 0.0000 0.0000 0.0000
# 3 24.1936 4.7078 49.4112 0.0000 0.0000 0.0000
# 4 0.0000 0.0000 0.0000 17.8319 0.0000 0.0000
# 5 0.0000 0.0000 0.0000 0.0000 22.3070 0.0000
# 6 0.0000 0.0000 0.0000 0.0000 0.0000 13.2421
#
#
#
# Elastic Compliance Matrix: (Units=1/GPa)
#
#
# Indices 1 2 3 4 5 6 
#
# 1 0.006935 -0.000955 -0.003305 0.000000 0.000000 0.000000
# 2 -0.000955 0.005239 -0.000032 0.000000 0.000000 0.000000
# 3 -0.003305 -0.000032 0.021859 0.000000 0.000000 0.000000
# 4 0.000000 0.000000 0.000000 0.056079 0.000000 0.000000
# 5 0.000000 0.000000 0.000000 0.000000 0.044829 0.000000
# 6 0.000000 0.000000 0.000000 0.000000 0.000000 0.075517
#
#
# Mechanical properties :
#
#
# Convention : Reuss Voigt Hill
#
# Bulk Modulus (GPa) = 39.29070 57.96933 48.63002
# Shear Modulus (GPa) = 21.97566 33.82511 27.90039
#
# Velocity S-wave (km/s) = 3.04377 3.77624 3.42962
# Velocity P-wave (km/s) = 5.37744 6.59182 6.01535
#
# Compressibility (1/GPa) = 0.02545131
#
# Stress axis : x y z
#
# Youngs Moduli (GPa) = 144.19983 190.86673 45.74690
#
# Poissons Ratio (x) = 0.18225 0.15117
# Poissons Ratio (y) = 0.13769 0.00145
# Poissons Ratio (z) = 0.47652 0.00604
#
# Static dielectric constant tensor:
#      x y z
#    x 1.880330 0.000000 0.000000 
#    y 0.000000 1.970750 0.000000 
#    z 0.000000 0.000000 1.992310 
# 
# From -- ./inp_files/10266.got.cif
#   From: 2010.05.17/outbox.cif.g08.bks.cpg/sg38_6_cif.got.tgz:10266.got - 2010.06.03 18:07:57.
