data_PCOD9356875
_publ_section_title
;
Structure prediction by ZEFSAII (Michael W. Deem and Ramdas Pophale) SiO2 
 PCOD9356875
Probable space group: A M M 2
;
_chemical_formula_sum "Si O2"
_cell_formula_units_Z 52
_cell_length_a 21.219322
_cell_length_b 24.451732
_cell_length_c 5.411089
_cell_angle_alpha 90.000000
_cell_angle_beta 90.000000
_cell_angle_gamma 90.000000
_cell_volume 2807.539062
_symmetry_space_group_name_H-M "A M M 2"
_symmetry_group_IT_number 38
_symmetry_cell_setting 'orthorhombic'
loop_
_space_group_symop_operation_xyz
x,y,z
-x,-y,z
-x,y,z
x,-y,z
x,1/2+y,1/2+z
-x,1/2-y,1/2+z
-x,1/2+y,1/2+z
x,1/2-y,1/2+z
loop_
_atom_site_type_symbol
_atom_site_label
_atom_site_fract_x
_atom_site_fract_y
_atom_site_fract_z
Si Si1 0.859763 0.308587 0.859180
Si Si2 0.000000 0.280143 0.717632
Si Si3 0.366351 0.564871 0.776283
Si Si4 0.189601 0.817965 0.859955
Si Si5 0.500000 0.870333 0.283142
Si Si6 0.500000 0.201690 0.783078
Si Si7 0.317496 0.384405 0.274256
Si Si8 0.365945 0.727390 0.282941
O O1 0.932538 0.305686 0.781126
O O2 0.826078 0.247916 0.880420
O O3 0.825277 0.338365 0.634675
O O4 0.854197 0.334044 0.129453
O O5 0.000000 0.268329 0.424731
O O6 0.375175 0.500000 0.779016
O O7 0.434884 0.594269 0.781560
O O8 0.329532 0.582240 0.525100
O O9 0.326710 0.582877 0.020252
O O10 0.256074 0.844880 0.787898
O O11 0.500000 0.836004 0.538136
O O12 0.500000 0.836142 0.027663
O O13 0.439130 0.241303 0.786701
O O14 0.369682 0.337253 0.269527
O O15 0.335452 0.747714 0.537279
#
# Coordination Sequence:
#
# PCOD9356875 Si02
#       8
#     8   4   8   8   4   4   8   8
#     4  10  19  32  50  80 114 169 194 228 262 305
#     4  12  16  30  48  78 120 162 214 236 258 298
#     4  12  25  45  66  84 104 138 183 251 327 365
#     4  10  20  32  49  74 113 149 196 221 261 315
#     4  12  21  43  64  85 104 133 176 255 307 378
#     4  12  22  41  55  77 118 135 185 223 286 338
#     4  12  25  41  59  86 113 146 192 243 275 354
#     4  12  24  37  56  79 110 153 180 217 272 326
#
# _framework density 18.521557999999999
#
# number of rings (size 3 to 8) (size 9 to 14) (size 15 to 20)
#    0.000    0.615    6.154    3.923    4.308    0.000 
#    0.000    2.308    0.000    0.000    0.000    0.000 
#    0.000    0.000    0.000   80.308    0.000    0.000 
#
# Total GULP energy -144797.435090 kJ/mol
# GULP energy per Si atom -5569.132119 kJ/mol
# Density = 1.847940 g / cm^3
# Si number density = 18.521558 Si / 1000 Ang^3
#
#
#
# Elastic Constant Matrix: (Units=GPa)
#
#
# Indices 1 2 3 4 5 6 
#
# 1 68.4777 10.6931 -5.8268 0.0000 0.0000 0.0000
# 2 10.6931 71.4030 45.7005 0.0000 0.0000 0.0000
# 3 -5.8268 45.7005 155.4431 0.0000 0.0000 0.0000
# 4 0.0000 0.0000 0.0000 21.9564 0.0000 0.0000
# 5 0.0000 0.0000 0.0000 0.0000 22.0048 0.0000
# 6 0.0000 0.0000 0.0000 0.0000 0.0000 10.5528
#
#
#
# Elastic Compliance Matrix: (Units=1/GPa)
#
#
# Indices 1 2 3 4 5 6 
#
# 1 0.015243 -0.003262 0.001531 0.000000 0.000000 0.000000
# 2 -0.003262 0.017949 -0.005399 0.000000 0.000000 0.000000
# 3 0.001531 -0.005399 0.008078 0.000000 0.000000 0.000000
# 4 0.000000 0.000000 0.000000 0.045545 0.000000 0.000000
# 5 0.000000 0.000000 0.000000 0.000000 0.045445 0.000000
# 6 0.000000 0.000000 0.000000 0.000000 0.000000 0.094761
#
#
# Mechanical properties :
#
#
# Convention : Reuss Voigt Hill
#
# Bulk Modulus (GPa) = 37.02619 44.05081 40.53850
# Shear Modulus (GPa) = 19.97714 27.21995 23.59855
#
# Velocity S-wave (km/s) = 3.28775 3.83774 3.57334
# Velocity P-wave (km/s) = 5.86913 6.59339 6.24178
#
# Compressibility (1/GPa) = 0.02700791
#
# Stress axis : x y z
#
# Youngs Moduli (GPa) = 65.60405 55.71219 123.79254
#
# Poissons Ratio (x) = 0.18175 -0.18947
# Poissons Ratio (y) = 0.21402 0.66841
# Poissons Ratio (z) = -0.10041 0.30081
#
# Static dielectric constant tensor:
#      x y z
#    x 1.821580 0.000000 0.000000 
#    y 0.000000 1.671540 0.000000 
#    z 0.000000 0.000000 1.739360 
# 
# From -- ./inp_files/1915.got.cif
#   From: 2010.05.17/outbox.cif.g08.bks.cpg/sg38_1_cif.got.tgz:1915.got - 2010.06.03 18:07:57.
