data_PCOD9356859
_publ_section_title
;
Structure prediction by ZEFSAII (Michael W. Deem and Ramdas Pophale) SiO2 
 PCOD9356859
Probable space group: A M M 2
;
_chemical_formula_sum "Si O2"
_cell_formula_units_Z 48
_cell_length_a 9.142406
_cell_length_b 8.036312
_cell_length_c 35.563267
_cell_angle_alpha 90.000000
_cell_angle_beta 90.000000
_cell_angle_gamma 90.000000
_cell_volume 2612.876864
_symmetry_space_group_name_H-M "A M M 2"
_symmetry_group_IT_number 38
_symmetry_cell_setting 'orthorhombic'
loop_
_space_group_symop_operation_xyz
x,y,z
-x,-y,z
-x,y,z
x,-y,z
x,1/2+y,1/2+z
-x,1/2-y,1/2+z
-x,1/2+y,1/2+z
x,1/2-y,1/2+z
loop_
_atom_site_type_symbol
_atom_site_label
_atom_site_fract_x
_atom_site_fract_y
_atom_site_fract_z
Si Si1 0.167975 0.804763 0.635960
Si Si2 0.178190 0.000000 0.851008
Si Si3 0.668179 0.700012 0.980812
Si Si4 0.823651 0.693362 0.903260
Si Si5 0.331635 0.802438 0.062049
Si Si6 0.178494 0.683985 0.715707
Si Si7 0.821188 0.000000 0.764509
O O1 0.250867 0.776783 0.597232
O O2 0.228106 0.711785 0.672688
O O3 0.000000 0.750894 0.630409
O O4 0.168009 0.000000 0.645525
O O5 0.222978 0.831867 0.872947
O O6 0.226417 0.000000 0.807763
O O7 0.000000 0.000000 0.850879
O O8 0.500000 0.760210 0.977062
O O9 0.665503 0.500000 0.982833
O O10 0.758914 0.743155 0.943791
O O11 0.729304 0.762733 0.020620
O O12 0.780076 0.500000 0.895192
O O13 0.000000 0.695338 0.905095
O O14 0.500000 0.743356 0.061690
O O15 0.329767 0.000000 0.067252
O O16 0.220359 0.500000 0.728955
O O17 0.226286 0.834794 0.742214
O O18 0.000000 0.690946 0.714605
O O19 0.000000 0.000000 0.764348
#
# Coordination Sequence:
#
# PCOD9356859 Si02
#       7
#     8   4   8   8   8   8   4
#     4  10  19  32  50  72 100 132 170 213 254 299
#     4   9  18  30  47  71 101 133 165 205 251 299
#     4   9  18  33  51  70  94 126 165 206 248 294
#     4   9  18  32  49  71 100 131 163 202 249 300
#     4  10  21  34  48  71 101 131 168 212 253 301
#     4   9  16  27  45  69  99 133 166 204 247 293
#     4   9  16  28  44  69 101 131 165 203 249 303
#
# _framework density 18.370556000000001
#
# number of rings (size 3 to 8) (size 9 to 14) (size 15 to 20)
#    0.000    2.667    0.833    1.000    1.167    3.333 
#    0.000    5.000    0.000    0.000    0.000    2.333 
#    0.000    2.667    0.000    0.000    0.000    0.000 
#
# Total GULP energy -133772.837072 kJ/mol
# GULP energy per Si atom -5573.868211 kJ/mol
# Density = 1.832874 g / cm^3
# Si number density = 18.370556 Si / 1000 Ang^3
#
#
#
# Elastic Constant Matrix: (Units=GPa)
#
#
# Indices 1 2 3 4 5 6 
#
# 1 7.9908 15.1339 22.7527 0.0000 0.0000 0.0000
# 2 15.1339 102.6982 76.4598 0.0000 0.0000 0.0000
# 3 22.7527 76.4598 151.9395 0.0000 0.0000 0.0000
# 4 0.0000 0.0000 0.0000 19.9490 0.0000 0.0000
# 5 0.0000 0.0000 0.0000 0.0000 -25.3608 0.0000
# 6 0.0000 0.0000 0.0000 0.0000 0.0000 10.9341
#
#
#
# Elastic Compliance Matrix: (Units=1/GPa)
#
#
# Indices 1 2 3 4 5 6 
#
# 1 0.228713 -0.013120 -0.027647 0.000000 0.000000 0.000000
# 2 -0.013120 0.016324 -0.006250 0.000000 0.000000 0.000000
# 3 -0.027647 -0.006250 0.013867 0.000000 0.000000 0.000000
# 4 0.000000 0.000000 0.000000 0.050128 0.000000 0.000000
# 5 0.000000 0.000000 0.000000 0.000000 -0.039431 0.000000
# 6 0.000000 0.000000 0.000000 0.000000 0.000000 0.091457
#
#
# Mechanical properties :
#
#
# Convention : Reuss Voigt Hill
#
# Bulk Modulus (GPa) = 6.06542 54.59127 30.32835
# Shear Modulus (GPa) = 9.80301 10.98994 10.39647
#
# Velocity S-wave (km/s) = 2.31254 2.44854 2.38151
# Velocity P-wave (km/s) = 3.23100 6.14614 4.90991
#
# Compressibility (1/GPa) = 0.16486900
#
# Stress axis : x y z
#
# Youngs Moduli (GPa) = 4.37230 61.26046 72.11528
#
# Poissons Ratio (x) = 0.80376 1.99376
# Poissons Ratio (y) = 0.05737 0.45070
# Poissons Ratio (z) = 0.12088 0.38286
#
# Static dielectric constant tensor:
#      x y z
#    x 1.626980 0.000000 0.000000 
#    y 0.000000 1.653600 0.000000 
#    z 0.000000 0.000000 1.618840 
# 
# From -- ./inp_files/24311.got.cif
#   From: 2010.05.17/outbox.cif.g08.bks.cpg/sg38_13_cif.got.tgz:24311.got - 2010.06.03 18:07:57.
