data_PCOD9356613
_publ_section_title
;
Structure prediction by ZEFSAII (Michael W. Deem and Ramdas Pophale) SiO2 
 PCOD9356613
Probable space group: A M M 2
;
_chemical_formula_sum "Si O2"
_cell_formula_units_Z 64
_cell_length_a 7.461153
_cell_length_b 15.292806
_cell_length_c 28.720205
_cell_angle_alpha 90.000000
_cell_angle_beta 90.000000
_cell_angle_gamma 90.000000
_cell_volume 3277.031836
_symmetry_space_group_name_H-M "A M M 2"
_symmetry_group_IT_number 38
_symmetry_cell_setting 'orthorhombic'
loop_
_space_group_symop_operation_xyz
x,y,z
-x,-y,z
-x,y,z
x,-y,z
x,1/2+y,1/2+z
-x,1/2-y,1/2+z
-x,1/2+y,1/2+z
x,1/2-y,1/2+z
loop_
_atom_site_type_symbol
_atom_site_label
_atom_site_fract_x
_atom_site_fract_y
_atom_site_fract_z
Si Si1 0.213519 0.098143 0.082390
Si Si2 0.214231 0.598185 0.202331
Si Si3 0.716525 0.400243 0.041051
Si Si4 0.715545 0.401230 0.474907
Si Si5 0.718538 0.401421 0.934044
Si Si6 0.790954 0.727756 0.125038
Si Si7 0.719436 0.724031 0.391945
Si Si8 0.284958 0.901113 0.810290
O O1 0.287420 0.177243 0.113241
O O2 0.000000 0.093949 0.089897
O O3 0.285967 0.000000 0.089858
O O4 0.239305 0.120915 0.027997
O O5 0.284943 0.500000 0.193253
O O6 0.287392 0.670371 0.166984
O O7 0.245172 0.618481 0.256489
O O8 0.000000 0.594190 0.195212
O O9 0.500000 0.397639 0.041990
O O10 0.771518 0.500000 0.052660
O O11 0.782183 0.331384 0.078653
O O12 0.771429 0.382315 0.987688
O O13 0.500000 0.403071 0.471830
O O14 0.780593 0.500000 0.465482
O O15 0.777067 0.332511 0.436735
O O16 0.500000 0.402117 0.934004
O O17 0.776760 0.500000 0.922371
O O18 0.777187 0.323638 0.900313
O O19 0.000000 0.742126 0.136267
O O20 0.500000 0.724868 0.391298
O O21 0.780023 0.672130 0.346158
O O22 0.500000 0.904369 0.815235
O O23 0.218346 0.000000 0.820513
#
# Coordination Sequence:
#
# PCOD9356613 Si02
#       8
#     8   8   8   8   8   8   8   8
#     4   9  18  31  44  61  88 118 147 180 214 248
#     4   9  18  32  47  63  84 108 135 170 213 260
#     4   9  17  28  43  66  94 119 144 176 212 251
#     4   9  16  26  42  64  88 114 143 173 208 251
#     4   8  14  24  38  59  87 116 143 169 199 239
#     4  10  19  30  46  65  85 114 149 180 213 256
#     4   9  15  24  41  62  84 111 141 172 205 244
#     4   9  17  29  45  65  86 106 132 169 212 254
#
# _framework density 19.529866999999999
#
# number of rings (size 3 to 8) (size 9 to 14) (size 15 to 20)
#    0.000    3.000    0.000    2.250    0.000    4.250 
#    0.000    1.875    0.000    4.500    0.000    0.000 
#    0.000    0.000    0.000    0.000    0.000    0.000 
#
# Total GULP energy -178522.735954 kJ/mol
# GULP energy per Si atom -5578.835499 kJ/mol
# Density = 1.948542 g / cm^3
# Si number density = 19.529867 Si / 1000 Ang^3
#
#
#
# Elastic Constant Matrix: (Units=GPa)
#
#
# Indices 1 2 3 4 5 6 
#
# 1 56.6439 3.0344 -0.2640 0.0000 0.0000 0.0000
# 2 3.0344 167.6521 119.4067 0.0000 0.0000 0.0000
# 3 -0.2640 119.4067 111.6312 0.0000 0.0000 0.0000
# 4 0.0000 0.0000 0.0000 25.4352 0.0000 0.0000
# 5 0.0000 0.0000 0.0000 0.0000 11.0244 0.0000
# 6 0.0000 0.0000 0.0000 0.0000 0.0000 4.6149
#
#
#
# Elastic Compliance Matrix: (Units=1/GPa)
#
#
# Indices 1 2 3 4 5 6 
#
# 1 0.017741 -0.001474 0.001618 0.000000 0.000000 0.000000
# 2 -0.001474 0.025167 -0.026924 0.000000 0.000000 0.000000
# 3 0.001618 -0.026924 0.037761 0.000000 0.000000 0.000000
# 4 0.000000 0.000000 0.000000 0.039316 0.000000 0.000000
# 5 0.000000 0.000000 0.000000 0.000000 0.090708 0.000000
# 6 0.000000 0.000000 0.000000 0.000000 0.000000 0.216689
#
#
# Mechanical properties :
#
#
# Convention : Reuss Voigt Hill
#
# Bulk Modulus (GPa) = 36.88594 64.47571 50.68082
# Shear Modulus (GPa) = 10.20456 22.46490 16.33473
#
# Velocity S-wave (km/s) = 2.28833 3.39526 2.89519
# Velocity P-wave (km/s) = 5.09017 6.96103 6.09778
#
# Compressibility (1/GPa) = 0.02711060
#
# Stress axis : x y z
#
# Youngs Moduli (GPa) = 56.36772 39.73416 26.48240
#
# Poissons Ratio (x) = 0.05856 -0.04286
# Poissons Ratio (y) = 0.08307 0.71300
# Poissons Ratio (z) = -0.09122 1.06979
#
# Static dielectric constant tensor:
#      x y z
#    x 1.738760 0.000000 0.000000 
#    y 0.000000 1.711060 0.000000 
#    z 0.000000 0.000000 1.646680 
# 
# From -- ./inp_files/24764.got.cif
#   From: 2010.05.17/outbox.cif.g08.bks.cpg/sg38_13_cif.got.tgz:24764.got - 2010.06.03 18:07:57.
