data_PCOD9356779
_publ_section_title
;
Structure prediction by ZEFSAII (Michael W. Deem and Ramdas Pophale) SiO2 
 PCOD9356779
Probable space group: A M M 2
;
_chemical_formula_sum "Si O2"
_cell_formula_units_Z 64
_cell_length_a 19.664433
_cell_length_b 7.349929
_cell_length_c 20.348705
_cell_angle_alpha 90.000000
_cell_angle_beta 90.000000
_cell_angle_gamma 90.000000
_cell_volume 2941.042824
_symmetry_space_group_name_H-M "A M M 2"
_symmetry_group_IT_number 38
_symmetry_cell_setting 'orthorhombic'
loop_
_space_group_symop_operation_xyz
x,y,z
-x,-y,z
-x,y,z
x,-y,z
x,1/2+y,1/2+z
-x,1/2-y,1/2+z
-x,1/2+y,1/2+z
x,1/2-y,1/2+z
loop_
_atom_site_type_symbol
_atom_site_label
_atom_site_fract_x
_atom_site_fract_y
_atom_site_fract_z
Si Si1 0.804148 0.215045 0.536550
Si Si2 0.077794 0.778726 0.781630
Si Si3 0.671075 0.793778 0.809106
Si Si4 0.077962 0.221839 0.632158
Si Si5 0.346543 0.221824 0.561317
Si Si6 0.578010 0.222681 0.693079
Si Si7 0.578152 0.220351 0.429118
Si Si8 0.194003 0.719496 0.380678
O O1 0.868283 0.286062 0.577899
O O2 0.731360 0.285790 0.561703
O O3 0.808758 0.234945 0.457762
O O4 0.803017 0.000000 0.549492
O O5 0.096906 0.724954 0.706997
O O6 0.129619 0.718549 0.837805
O O7 0.000000 0.721808 0.793500
O O8 0.078357 0.000000 0.782244
O O9 0.632655 0.712152 0.746705
O O10 0.614274 0.796216 0.865283
O O11 0.737855 0.713104 0.843734
O O12 0.690423 0.000000 0.789628
O O13 0.000000 0.279229 0.619748
O O14 0.077198 0.000000 0.631260
O O15 0.393102 0.276260 0.622244
O O16 0.380699 0.277622 0.493261
O O17 0.345491 0.000000 0.561790
O O18 0.500000 0.281021 0.704194
O O19 0.576971 0.000000 0.696060
O O20 0.500000 0.273840 0.433610
O O21 0.580998 0.000000 0.425253
O O22 0.195894 0.500000 0.378927
#
# Coordination Sequence:
#
# PCOD9356779 Si02
#       8
#     8   8   8   8   8   8   8   8
#     4  10  19  31  50  73  98 127 159 197 241 286
#     4   8  15  29  49  73 100 128 161 202 243 283
#     4  10  20  32  48  72 100 126 156 199 245 289
#     4   8  15  28  48  75 101 124 157 202 245 283
#     4   9  17  29  46  70  95 120 155 198 239 279
#     4   9  17  29  46  69  94 118 152 201 247 281
#     4  10  19  32  51  71  94 127 163 196 234 286
#     4  10  20  32  48  72 101 131 163 196 236 289
#
# _framework density 21.760988000000001
#
# number of rings (size 3 to 8) (size 9 to 14) (size 15 to 20)
#    0.000    2.750    1.250    1.500    1.750    2.750 
#    0.000    0.000    0.000    2.250    0.000    1.750 
#    0.000    0.000    0.000    0.000    0.000    0.000 
#
# Total GULP energy -178672.110436 kJ/mol
# GULP energy per Si atom -5583.503451 kJ/mol
# Density = 2.171146 g / cm^3
# Si number density = 21.760988 Si / 1000 Ang^3
#
#
#
# Elastic Constant Matrix: (Units=GPa)
#
#
# Indices 1 2 3 4 5 6 
#
# 1 108.3667 -1.8094 17.4741 0.0000 0.0000 0.0000
# 2 -1.8094 79.1761 -10.9146 0.0000 0.0000 0.0000
# 3 17.4741 -10.9146 58.0430 0.0000 0.0000 0.0000
# 4 0.0000 0.0000 0.0000 11.0336 0.0000 0.0000
# 5 0.0000 0.0000 0.0000 0.0000 48.0007 0.0000
# 6 0.0000 0.0000 0.0000 0.0000 0.0000 -1.9077
#
#
#
# Elastic Compliance Matrix: (Units=1/GPa)
#
#
# Indices 1 2 3 4 5 6 
#
# 1 0.009701 -0.000186 -0.002956 0.000000 0.000000 0.000000
# 2 -0.000186 0.012970 0.002495 0.000000 0.000000 0.000000
# 3 -0.002956 0.002495 0.018588 0.000000 0.000000 0.000000
# 4 0.000000 0.000000 0.000000 0.090633 0.000000 0.000000
# 5 0.000000 0.000000 0.000000 0.000000 0.020833 0.000000
# 6 0.000000 0.000000 0.000000 0.000000 0.000000 -0.524184
#
#
# Mechanical properties :
#
#
# Convention : Reuss Voigt Hill
#
# Bulk Modulus (GPa) = 25.02147 28.34287 26.68217
# Shear Modulus (GPa) = -14.01171 27.48102 6.73465
#
# Velocity S-wave (km/s) = -2.54025 3.55753 1.76112
# Velocity P-wave (km/s) = 1.70863 5.47061 4.05259
#
# Compressibility (1/GPa) = 0.03996568
#
# Stress axis : x y z
#
# Youngs Moduli (GPa) = 103.07778 77.10248 53.79954
#
# Poissons Ratio (x) = 0.01432 0.15901
# Poissons Ratio (y) = 0.01915 -0.13422
# Poissons Ratio (z) = 0.30465 -0.19236
#
# Static dielectric constant tensor:
#      x y z
#    x 1.763430 0.000000 0.000000 
#    y 0.000000 1.877930 0.000000 
#    z 0.000000 0.000000 1.733270 
# 
# From -- ./inp_files/18752.got.cif
#   From: 2010.05.17/outbox.cif.g08.bks.cpg/sg38_10_cif.got.tgz:18752.got - 2010.06.03 18:07:57.
