data_PCOD9356276
_publ_section_title
;
Structure prediction by ZEFSAII (Michael W. Deem and Ramdas Pophale) SiO2 
 PCOD9356276
Probable space group: A M M 2
;
_chemical_formula_sum "Si O2"
_cell_formula_units_Z 64
_cell_length_a 9.047622
_cell_length_b 23.681614
_cell_length_c 19.467224
_cell_angle_alpha 90.000000
_cell_angle_beta 90.000000
_cell_angle_gamma 90.000000
_cell_volume 4171.092030
_symmetry_space_group_name_H-M "A M M 2"
_symmetry_group_IT_number 38
_symmetry_cell_setting 'orthorhombic'
loop_
_space_group_symop_operation_xyz
x,y,z
-x,-y,z
-x,y,z
x,-y,z
x,1/2+y,1/2+z
-x,1/2-y,1/2+z
-x,1/2+y,1/2+z
x,1/2-y,1/2+z
loop_
_atom_site_type_symbol
_atom_site_label
_atom_site_fract_x
_atom_site_fract_y
_atom_site_fract_z
Si Si1 0.676393 0.274212 0.791740
Si Si2 0.677664 0.434889 0.997857
Si Si3 0.677148 0.115410 0.646715
Si Si4 0.176477 0.566317 0.283321
Si Si5 0.824267 0.163116 0.413017
Si Si6 0.322638 0.751086 0.637647
Si Si7 0.676394 0.659234 0.374983
Si Si8 0.176320 0.222597 0.997305
O O1 0.500000 0.282902 0.797238
O O2 0.759023 0.318765 0.839627
O O3 0.717522 0.274249 0.711826
O O4 0.706604 0.211890 0.823153
O O5 0.500000 0.430294 0.991487
O O6 0.719937 0.500000 0.987877
O O7 0.715018 0.415067 0.075245
O O8 0.752498 0.392540 0.944635
O O9 0.500000 0.110292 0.658018
O O10 0.760440 0.088160 0.710696
O O11 0.711195 0.181908 0.640144
O O12 0.209427 0.500000 0.291035
O O13 0.251730 0.604079 0.342008
O O14 0.000000 0.574025 0.285089
O O15 0.789769 0.215928 0.463722
O O16 0.000000 0.157513 0.409248
O O17 0.500000 0.746024 0.628625
O O18 0.240452 0.723282 0.573727
O O19 0.500000 0.653445 0.380618
O O20 0.746887 0.677464 0.447282
O O21 0.000000 0.215209 0.996856
#
# Coordination Sequence:
#
# PCOD9356276 Si02
#       8
#     8   8   8   8   8   8   8   8
#     4   9  18  32  50  71  96 126 163 206 249 289
#     4  10  20  33  50  70  95 132 173 209 243 281
#     4  10  19  33  50  70  98 134 176 210 237 284
#     4  11  23  35  48  70 102 137 170 208 253 297
#     4  10  20  32  47  70  97 129 164 202 249 294
#     4  10  18  31  51  75  99 130 167 203 244 292
#     4  10  19  34  53  72  94 129 171 211 248 288
#     4  10  20  32  48  73 102 131 161 201 253 301
#
# _framework density 15.343704000000001
#
# number of rings (size 3 to 8) (size 9 to 14) (size 15 to 20)
#    0.000    2.000    2.500    1.875    0.000    4.750 
#    0.000    0.000    0.000    0.000    0.000    0.875 
#    0.000    1.000    0.000    0.000    0.000    0.000 
#
# Total GULP energy -178611.990019 kJ/mol
# GULP energy per Si atom -5581.624688 kJ/mol
# Density = 1.530878 g / cm^3
# Si number density = 15.343704 Si / 1000 Ang^3
#
#
#
# Elastic Constant Matrix: (Units=GPa)
#
#
# Indices 1 2 3 4 5 6 
#
# 1 45.2077 51.6109 62.0856 0.0000 0.0000 0.0000
# 2 51.6109 99.6075 74.6429 0.0000 0.0000 0.0000
# 3 62.0856 74.6429 144.4062 0.0000 0.0000 0.0000
# 4 0.0000 0.0000 0.0000 19.1670 0.0000 0.0000
# 5 0.0000 0.0000 0.0000 0.0000 7.9829 0.0000
# 6 0.0000 0.0000 0.0000 0.0000 0.0000 20.7606
#
#
#
# Elastic Compliance Matrix: (Units=1/GPa)
#
#
# Indices 1 2 3 4 5 6 
#
# 1 0.081490 -0.026065 -0.021563 0.000000 0.000000 0.000000
# 2 -0.026065 0.024724 -0.001573 0.000000 0.000000 0.000000
# 3 -0.021563 -0.001573 0.017009 0.000000 0.000000 0.000000
# 4 0.000000 0.000000 0.000000 0.052173 0.000000 0.000000
# 5 0.000000 0.000000 0.000000 0.000000 0.125268 0.000000
# 6 0.000000 0.000000 0.000000 0.000000 0.000000 0.048168
#
#
# Mechanical properties :
#
#
# Convention : Reuss Voigt Hill
#
# Bulk Modulus (GPa) = 40.28927 73.98893 57.13910
# Shear Modulus (GPa) = 10.97676 16.30754 13.64215
#
# Velocity S-wave (km/s) = 2.67758 3.26362 2.98502
# Velocity P-wave (km/s) = 5.98950 7.90743 7.01432
#
# Compressibility (1/GPa) = 0.02482051
#
# Stress axis : x y z
#
# Youngs Moduli (GPa) = 12.27143 40.44682 58.79323
#
# Poissons Ratio (x) = 1.05425 1.26774
# Poissons Ratio (y) = 0.31986 0.09250
# Poissons Ratio (z) = 0.26461 0.06363
#
# Static dielectric constant tensor:
#      x y z
#    x 1.508020 0.000000 0.000000 
#    y 0.000000 1.486990 0.000000 
#    z 0.000000 0.000000 1.495250 
# 
# From -- ./inp_files/17153.got.cif
#   From: 2010.05.17/outbox.cif.g08.bks.cpg/sg38_9_cif.got.tgz:17153.got - 2010.06.03 18:07:57.
