data_PCOD9356619
_publ_section_title
;
Structure prediction by ZEFSAII (Michael W. Deem and Ramdas Pophale) SiO2 
 PCOD9356619
Probable space group: A M M 2
;
_chemical_formula_sum "Si O2"
_cell_formula_units_Z 52
_cell_length_a 34.331388
_cell_length_b 14.495405
_cell_length_c 5.082280
_cell_angle_alpha 90.000000
_cell_angle_beta 90.000000
_cell_angle_gamma 90.000000
_cell_volume 2529.183292
_symmetry_space_group_name_H-M "A M M 2"
_symmetry_group_IT_number 38
_symmetry_cell_setting 'orthorhombic'
loop_
_space_group_symop_operation_xyz
x,y,z
-x,-y,z
-x,y,z
x,-y,z
x,1/2+y,1/2+z
-x,1/2-y,1/2+z
-x,1/2+y,1/2+z
x,1/2-y,1/2+z
loop_
_atom_site_type_symbol
_atom_site_label
_atom_site_fract_x
_atom_site_fract_y
_atom_site_fract_z
Si Si1 0.042112 0.184912 0.708600
Si Si2 0.123660 0.188957 0.584731
Si Si3 0.663803 0.311251 0.711570
Si Si4 0.206555 0.610767 0.236801
Si Si5 0.582067 0.185522 0.086933
Si Si6 0.251827 0.389221 0.735864
Si Si7 0.500000 0.685454 0.705117
O O1 0.042666 0.268859 0.496286
O O2 0.083255 0.136159 0.651698
O O3 0.000000 0.137134 0.675103
O O4 0.123168 0.223570 0.284934
O O5 0.163485 0.138500 0.652070
O O6 0.663116 0.225086 0.509729
O O7 0.623258 0.362939 0.645586
O O8 0.704408 0.361633 0.667595
O O9 0.207744 0.500000 0.242642
O O10 0.220664 0.644320 0.520622
O O11 0.237872 0.643135 0.021173
O O12 0.581942 0.271659 0.294874
O O13 0.541050 0.136255 0.146198
O O14 0.250314 0.500000 0.737976
O O15 0.500000 0.771656 0.497289
#
# Coordination Sequence:
#
# PCOD9356619 Si02
#       7
#     8   8   8   8   8   8   4
#     4   8  14  25  41  63  90 115 139 172 213 254
#     4  10  19  30  48  72  92 114 149 186 217 255
#     4  10  19  30  46  68  90 112 144 187 224 252
#     4  10  21  35  48  64  90 120 148 181 222 265
#     4   8  14  23  36  57  83 108 135 169 211 253
#     4  10  21  35  48  63  87 121 152 177 218 272
#     4   8  12  20  34  52  79 110 133 160 204 256
#
# _framework density 20.559995000000001
#
# number of rings (size 3 to 8) (size 9 to 14) (size 15 to 20)
#    0.000    2.769    0.000    1.846    0.000    3.692 
#    0.000    0.000    0.000    0.462    0.000    0.538 
#    0.000   16.000    0.000   41.385    0.000    4.000 
#
# Total GULP energy -144824.494218 kJ/mol
# GULP energy per Si atom -5570.172855 kJ/mol
# Density = 2.051320 g / cm^3
# Si number density = 20.559995 Si / 1000 Ang^3
#
#
#
# Elastic Constant Matrix: (Units=GPa)
#
#
# Indices 1 2 3 4 5 6 
#
# 1 155.0567 -1.1492 -5.8288 0.0000 0.0000 0.0000
# 2 -1.1492 18.8522 -4.1505 0.0000 0.0000 0.0000
# 3 -5.8288 -4.1505 88.1238 0.0000 0.0000 0.0000
# 4 0.0000 0.0000 0.0000 3.6077 0.0000 0.0000
# 5 0.0000 0.0000 0.0000 0.0000 33.5438 0.0000
# 6 0.0000 0.0000 0.0000 0.0000 0.0000 -10.8670
#
#
#
# Elastic Compliance Matrix: (Units=1/GPa)
#
#
# Indices 1 2 3 4 5 6 
#
# 1 0.006470 0.000494 0.000451 0.000000 0.000000 0.000000
# 2 0.000494 0.053638 0.002559 0.000000 0.000000 0.000000
# 3 0.000451 0.002559 0.011498 0.000000 0.000000 0.000000
# 4 0.000000 0.000000 0.000000 0.277182 0.000000 0.000000
# 5 0.000000 0.000000 0.000000 0.000000 0.029812 0.000000
# 6 0.000000 0.000000 0.000000 0.000000 0.000000 -0.092022
#
#
# Mechanical properties :
#
#
# Convention : Reuss Voigt Hill
#
# Bulk Modulus (GPa) = 12.72051 26.64174 19.68112
# Shear Modulus (GPa) = 16.35195 23.46766 19.90981
#
# Velocity S-wave (km/s) = 2.82322 3.38216 3.11525
# Velocity P-wave (km/s) = 4.10218 5.31396 4.74690
#
# Compressibility (1/GPa) = 0.07861322
#
# Stress axis : x y z
#
# Youngs Moduli (GPa) = 154.56248 18.64363 86.97136
#
# Poissons Ratio (x) = -0.00921 -0.03924
# Poissons Ratio (y) = -0.07631 -0.22255
# Poissons Ratio (z) = -0.06974 -0.04771
#
# Static dielectric constant tensor:
#      x y z
#    x 1.839530 0.000000 0.000000 
#    y 0.000000 1.684530 0.000000 
#    z 0.000000 0.000000 1.718520 
# 
# From -- ./inp_files/2223.got.cif
#   From: 2010.05.17/outbox.cif.g08.bks.cpg/sg38_2_cif.got.tgz:2223.got - 2010.06.03 18:07:57.
