data_PCOD9356140
_publ_section_title
;
Structure prediction by ZEFSAII (Michael W. Deem and Ramdas Pophale) SiO2 
 PCOD9356140
Probable space group: A M M 2
;
_chemical_formula_sum "Si O2"
_cell_formula_units_Z 40
_cell_length_a 13.933504
_cell_length_b 13.762734
_cell_length_c 8.231808
_cell_angle_alpha 90.000000
_cell_angle_beta 90.000000
_cell_angle_gamma 90.000000
_cell_volume 1578.557097
_symmetry_space_group_name_H-M "A M M 2"
_symmetry_group_IT_number 38
_symmetry_cell_setting 'orthorhombic'
loop_
_space_group_symop_operation_xyz
x,y,z
-x,-y,z
-x,y,z
x,-y,z
x,1/2+y,1/2+z
-x,1/2-y,1/2+z
-x,1/2+y,1/2+z
x,1/2-y,1/2+z
loop_
_atom_site_type_symbol
_atom_site_label
_atom_site_fract_x
_atom_site_fract_y
_atom_site_fract_z
Si Si1 0.114656 0.303994 0.580230
Si Si2 0.278832 0.883211 0.894039
Si Si3 0.387155 0.382469 0.717976
Si Si4 0.388033 0.881782 0.574627
Si Si5 0.116210 0.392093 0.929713
O O1 0.170199 0.354389 0.432921
O O2 0.142746 0.354213 0.749717
O O3 0.138777 0.190303 0.560458
O O4 0.000000 0.313984 0.562916
O O5 0.336020 0.848543 0.054803
O O6 0.284032 0.000000 0.889641
O O7 0.329386 0.847810 0.730576
O O8 0.500000 0.359551 0.711331
O O9 0.379709 0.500000 0.715190
O O10 0.350630 0.352557 0.896404
O O11 0.500000 0.853871 0.588821
O O12 0.387410 0.000000 0.576816
O O13 0.155234 0.500000 0.961682
O O14 0.000000 0.398383 0.927656
#
# Coordination Sequence:
#
# PCOD9356140 Si02
#       5
#     8   8   8   8   8
#     4  10  21  39  63  93 129 172 223 273 330 405
#     4  10  18  29  51  87 131 176 221 274 336 401
#     4   8  14  26  46  77 121 171 221 276 339 400
#     4   8  14  26  46  78 123 171 221 278 337 399
#     4   9  19  40  67  92 126 173 223 280 341 395
#
# _framework density 25.339594999999999
#
# number of rings (size 3 to 8) (size 9 to 14) (size 15 to 20)
#    0.000    3.000    0.000    2.400    0.000    3.600 
#    3.600    2.000    0.000    9.600    0.000    5.600 
#    0.000    9.600    0.000    4.600    0.000    0.400 
#
# Total GULP energy -112039.441398 kJ/mol
# GULP energy per Si atom -5601.972070 kJ/mol
# Density = 2.528192 g / cm^3
# Si number density = 25.339595 Si / 1000 Ang^3
#
#
#
# Elastic Constant Matrix: (Units=GPa)
#
#
# Indices 1 2 3 4 5 6 
#
# 1 126.2252 11.6854 87.3738 0.0000 0.0000 0.0000
# 2 11.6854 120.1710 61.1633 0.0000 0.0000 0.0000
# 3 87.3738 61.1633 178.2340 0.0000 0.0000 0.0000
# 4 0.0000 0.0000 0.0000 41.7396 0.0000 0.0000
# 5 0.0000 0.0000 0.0000 0.0000 38.6374 0.0000
# 6 0.0000 0.0000 0.0000 0.0000 0.0000 -12.3118
#
#
#
# Elastic Compliance Matrix: (Units=1/GPa)
#
#
# Indices 1 2 3 4 5 6 
#
# 1 0.012497 0.002306 -0.006918 0.000000 0.000000 0.000000
# 2 0.002306 0.010508 -0.004736 0.000000 0.000000 0.000000
# 3 -0.006918 -0.004736 0.010627 0.000000 0.000000 0.000000
# 4 0.000000 0.000000 0.000000 0.023958 0.000000 0.000000
# 5 0.000000 0.000000 0.000000 0.000000 0.025882 0.000000
# 6 0.000000 0.000000 0.000000 0.000000 0.000000 -0.081223
#
#
# Mechanical properties :
#
#
# Convention : Reuss Voigt Hill
#
# Bulk Modulus (GPa) = 66.95295 82.78613 74.86954
# Shear Modulus (GPa) = 192.87163 31.24022 112.05593
#
# Velocity S-wave (km/s) = 8.73384 3.51502 6.65715
# Velocity P-wave (km/s) = 11.32194 7.01537 9.41811
#
# Compressibility (1/GPa) = 0.01493586
#
# Stress axis : x y z
#
# Youngs Moduli (GPa) = 80.01698 95.16697 94.09943
#
# Poissons Ratio (x) = -0.21942 0.65095
# Poissons Ratio (y) = -0.18449 0.44567
# Poissons Ratio (z) = 0.55353 0.45073
#
# Static dielectric constant tensor:
#      x y z
#    x 1.970280 0.000000 0.000000 
#    y 0.000000 2.017680 0.000000 
#    z 0.000000 0.000000 1.942740 
# 
# From -- ./inp_files/5236.got.cif
#   From: 2010.05.17/outbox.cif.g08.bks.cpg/sg38_3_cif.got.tgz:5236.got - 2010.06.03 18:07:57.
