data_PCOD9356309
_publ_section_title
;
Structure prediction by ZEFSAII (Michael W. Deem and Ramdas Pophale) SiO2 
 PCOD9356309
Probable space group: A M M 2
;
_chemical_formula_sum "Si O2"
_cell_formula_units_Z 64
_cell_length_a 7.626039
_cell_length_b 29.829778
_cell_length_c 13.029146
_cell_angle_alpha 90.000000
_cell_angle_beta 90.000000
_cell_angle_gamma 90.000000
_cell_volume 2963.909876
_symmetry_space_group_name_H-M "A M M 2"
_symmetry_group_IT_number 38
_symmetry_cell_setting 'orthorhombic'
loop_
_space_group_symop_operation_xyz
x,y,z
-x,-y,z
-x,y,z
x,-y,z
x,1/2+y,1/2+z
-x,1/2-y,1/2+z
-x,1/2+y,1/2+z
x,1/2-y,1/2+z
loop_
_atom_site_type_symbol
_atom_site_label
_atom_site_fract_x
_atom_site_fract_y
_atom_site_fract_z
Si Si1 0.697894 0.071086 0.446510
Si Si2 0.794619 0.397887 0.163815
Si Si3 0.714048 0.048010 0.229725
Si Si4 0.210002 0.448716 0.364604
Si Si5 0.790740 0.795962 0.154912
Si Si6 0.291331 0.885677 0.058035
Si Si7 0.212121 0.168024 0.372629
Si Si8 0.213062 0.800521 0.590395
O O1 0.500000 0.054664 0.460641
O O2 0.781300 0.073616 0.558557
O O3 0.779671 0.048057 0.346671
O O4 0.699846 0.121914 0.405172
O O5 0.720290 0.424930 0.260636
O O6 0.722650 0.347706 0.139357
O O7 0.000000 0.391208 0.185316
O O8 0.500000 0.051257 0.236076
O O9 0.779288 0.088121 0.158771
O O10 0.755722 0.000000 0.180654
O O11 0.276560 0.500000 0.379412
O O12 0.241604 0.414927 0.459181
O O13 0.000000 0.452503 0.353897
O O14 0.760646 0.833708 0.068161
O O15 0.724958 0.814877 0.263374
O O16 0.721040 0.746158 0.135494
O O17 0.000000 0.791578 0.165070
O O18 0.500000 0.886766 0.063653
O O19 0.248681 0.200001 0.468744
O O20 0.000000 0.160843 0.369405
O O21 0.000000 0.801652 0.600201
#
# Coordination Sequence:
#
# PCOD9356309 Si02
#       8
#     8   8   8   8   8   8   8   8
#     4  10  18  31  53  78 105 138 177 223 273 327
#     4   9  19  37  58  79 110 147 184 228 281 339
#     4   9  18  32  50  74 104 138 174 214 264 323
#     4  10  22  40  61  85 115 152 193 239 289 341
#     4  10  19  32  54  80 107 143 191 240 284 333
#     4  11  22  37  56  79 111 149 190 233 282 340
#     4   9  17  31  51  74 106 142 178 224 278 333
#     4   8  16  31  52  79 106 143 190 232 278 337
#
# _framework density 21.593098000000001
#
# number of rings (size 3 to 8) (size 9 to 14) (size 15 to 20)
#    0.000    2.500    1.250    1.875    0.000    2.750 
#    0.000    6.250    0.000    4.875    0.000    0.000 
#    0.000    0.000    0.000    0.000    0.000    0.000 
#
# Total GULP energy -178409.333214 kJ/mol
# GULP energy per Si atom -5575.291663 kJ/mol
# Density = 2.154395 g / cm^3
# Si number density = 21.593098 Si / 1000 Ang^3
#
#
#
# Elastic Constant Matrix: (Units=GPa)
#
#
# Indices 1 2 3 4 5 6 
#
# 1 41.5553 10.5306 2.3657 0.0000 0.0000 0.0000
# 2 10.5306 90.9064 49.3398 0.0000 0.0000 0.0000
# 3 2.3657 49.3398 121.0157 0.0000 0.0000 0.0000
# 4 0.0000 0.0000 0.0000 26.7352 0.0000 0.0000
# 5 0.0000 0.0000 0.0000 0.0000 8.7228 0.0000
# 6 0.0000 0.0000 0.0000 0.0000 0.0000 117.7373
#
#
#
# Elastic Compliance Matrix: (Units=1/GPa)
#
#
# Indices 1 2 3 4 5 6 
#
# 1 0.024865 -0.003360 0.000884 0.000000 0.000000 0.000000
# 2 -0.003360 0.014580 -0.005879 0.000000 0.000000 0.000000
# 3 0.000884 -0.005879 0.010643 0.000000 0.000000 0.000000
# 4 0.000000 0.000000 0.000000 0.037404 0.000000 0.000000
# 5 0.000000 0.000000 0.000000 0.000000 0.114642 0.000000
# 6 0.000000 0.000000 0.000000 0.000000 0.000000 0.008493
#
#
# Mechanical properties :
#
#
# Convention : Reuss Voigt Hill
#
# Bulk Modulus (GPa) = 29.95940 41.99439 35.97689
# Shear Modulus (GPa) = 20.96750 43.38849 32.17799
#
# Velocity S-wave (km/s) = 3.11951 4.48746 3.86450
# Velocity P-wave (km/s) = 5.18457 6.80735 6.05061
#
# Compressibility (1/GPa) = 0.03337851
#
# Stress axis : x y z
#
# Youngs Moduli (GPa) = 40.21639 68.58532 93.95813
#
# Poissons Ratio (x) = 0.23046 -0.08305
# Poissons Ratio (y) = 0.13513 0.55237
# Poissons Ratio (z) = -0.03555 0.40321
#
# Static dielectric constant tensor:
#      x y z
#    x 1.803290 0.000000 0.000000 
#    y 0.000000 1.821940 0.000000 
#    z 0.000000 0.000000 1.788120 
# 
# From -- ./inp_files/8526.got.cif
#   From: 2010.05.17/outbox.cif.g08.bks.cpg/sg38_5_cif.got.tgz:8526.got - 2010.06.03 18:07:57.
