data_PCOD9356093
_publ_section_title
;
Structure prediction by ZEFSAII (Michael W. Deem and Ramdas Pophale) SiO2 
 PCOD9356093
Probable space group: A M M 2
;
_chemical_formula_sum "Si O2"
_cell_formula_units_Z 56
_cell_length_a 7.432785
_cell_length_b 14.898603
_cell_length_c 23.443462
_cell_angle_alpha 90.000000
_cell_angle_beta 90.000000
_cell_angle_gamma 90.000000
_cell_volume 2596.084742
_symmetry_space_group_name_H-M "A M M 2"
_symmetry_group_IT_number 38
_symmetry_cell_setting 'orthorhombic'
loop_
_space_group_symop_operation_xyz
x,y,z
-x,-y,z
-x,y,z
x,-y,z
x,1/2+y,1/2+z
-x,1/2-y,1/2+z
-x,1/2+y,1/2+z
x,1/2-y,1/2+z
loop_
_atom_site_type_symbol
_atom_site_label
_atom_site_fract_x
_atom_site_fract_y
_atom_site_fract_z
Si Si1 0.281808 0.603204 0.711860
Si Si2 0.283036 0.397995 0.271172
Si Si3 0.720325 0.103889 0.991859
Si Si4 0.280128 0.712252 0.380524
Si Si5 0.709759 0.292334 0.603197
Si Si6 0.719545 0.100455 0.342280
Si Si7 0.209916 0.600629 0.139049
O O1 0.500000 0.610895 0.714400
O O2 0.239713 0.500000 0.696838
O O3 0.213994 0.668513 0.662468
O O4 0.222469 0.618899 0.776814
O O5 0.500000 0.396312 0.271934
O O6 0.224522 0.500000 0.283467
O O7 0.221450 0.332318 0.320901
O O8 0.230876 0.377372 0.206333
O O9 0.500000 0.104453 0.991251
O O10 0.778439 0.153763 0.934225
O O11 0.775228 0.000000 0.993834
O O12 0.783007 0.159180 0.047178
O O13 0.500000 0.710801 0.380483
O O14 0.224159 0.816114 0.380789
O O15 0.500000 0.317421 0.604201
O O16 0.718434 0.184863 0.603965
O O17 0.500000 0.099202 0.342076
O O18 0.778086 0.000000 0.358204
O O19 0.286929 0.500000 0.130314
O O20 0.000000 0.595804 0.126474
#
# Coordination Sequence:
#
# PCOD9356093 Si02
#       7
#     8   8   8   8   8   8   8
#     4   8  13  22  39  65  93 118 148 190 237 279
#     4   9  16  27  47  73  96 120 154 195 236 281
#     4   9  17  28  43  67  98 128 158 194 236 281
#     4   9  15  24  40  65  98 131 158 188 232 280
#     4  10  18  29  48  71  93 121 159 199 237 281
#     4   8  13  20  31  51  82 118 152 185 224 273
#     4  10  21  35  49  67  94 126 158 196 244 293
#
# _framework density 21.570944000000001
#
# number of rings (size 3 to 8) (size 9 to 14) (size 15 to 20)
#    0.000    3.000    0.000    3.000    0.000    6.571 
#    0.000    0.714    0.000    5.143    0.000    0.000 
#    0.000    0.000    0.000    0.000    0.000    0.000 
#
# Total GULP energy -156258.405675 kJ/mol
# GULP energy per Si atom -5580.657346 kJ/mol
# Density = 2.152185 g / cm^3
# Si number density = 21.570944 Si / 1000 Ang^3
#
#
#
# Elastic Constant Matrix: (Units=GPa)
#
#
# Indices 1 2 3 4 5 6 
#
# 1 61.8100 -4.0710 -2.8354 0.0000 0.0000 0.0000
# 2 -4.0710 182.3397 93.5006 0.0000 0.0000 0.0000
# 3 -2.8354 93.5006 63.2888 0.0000 0.0000 0.0000
# 4 0.0000 0.0000 0.0000 38.7576 0.0000 0.0000
# 5 0.0000 0.0000 0.0000 0.0000-2580.2405 0.0000
# 6 0.0000 0.0000 0.0000 0.0000 0.0000 -24.8035
#
#
#
# Elastic Compliance Matrix: (Units=1/GPa)
#
#
# Indices 1 2 3 4 5 6 
#
# 1 0.016212 -0.000043 0.000790 0.000000 0.000000 0.000000
# 2 -0.000043 0.022622 -0.033423 0.000000 0.000000 0.000000
# 3 0.000790 -0.033423 0.065213 0.000000 0.000000 0.000000
# 4 0.000000 0.000000 0.000000 0.025801 0.000000 0.000000
# 5 0.000000 0.000000 0.000000 0.000000 -0.000388 0.000000
# 6 0.000000 0.000000 0.000000 0.000000 0.000000 -0.040317
#
#
# Mechanical properties :
#
#
# Convention : Reuss Voigt Hill
#
# Bulk Modulus (GPa) = 25.84251 53.40300 39.62276
# Shear Modulus (GPa) = 29.86959 -498.53432 -234.33236
#
# Velocity S-wave (km/s) = 3.72521 -15.21892 -10.43404
# Velocity P-wave (km/s) = 5.52351 16.85260 11.25835
#
# Compressibility (1/GPa) = 0.03869593
#
# Stress axis : x y z
#
# Youngs Moduli (GPa) = 61.68262 44.20500 15.33426
#
# Poissons Ratio (x) = 0.00191 -0.01212
# Poissons Ratio (y) = 0.00267 0.51251
# Poissons Ratio (z) = -0.04874 1.47745
#
# Static dielectric constant tensor:
#      x y z
#    x 2.599540 0.000000 0.000000 
#    y 0.000000 1.783010 0.000000 
#    z 0.000000 0.000000 1.744480 
# 
# From -- ./inp_files/19742.got.cif
#   From: 2010.05.17/outbox.cif.g08.bks.cpg/sg38_10_cif.got.tgz:19742.got - 2010.06.03 18:07:57.
