data_PCOD9356016
_publ_section_title
;
Structure prediction by ZEFSAII (Michael W. Deem and Ramdas Pophale) SiO2 
 PCOD9356016
Probable space group: A M M 2
;
_chemical_formula_sum "Si O2"
_cell_formula_units_Z 56
_cell_length_a 7.940516
_cell_length_b 13.957572
_cell_length_c 33.005274
_cell_angle_alpha 90.000000
_cell_angle_beta 90.000000
_cell_angle_gamma 90.000000
_cell_volume 3657.985204
_symmetry_space_group_name_H-M "A M M 2"
_symmetry_group_IT_number 38
_symmetry_cell_setting 'orthorhombic'
loop_
_space_group_symop_operation_xyz
x,y,z
-x,-y,z
-x,y,z
x,-y,z
x,1/2+y,1/2+z
-x,1/2-y,1/2+z
-x,1/2+y,1/2+z
x,1/2-y,1/2+z
loop_
_atom_site_type_symbol
_atom_site_label
_atom_site_fract_x
_atom_site_fract_y
_atom_site_fract_z
Si Si1 0.198763 0.200594 0.401670
Si Si2 0.000000 0.116576 0.633902
Si Si3 0.205498 0.392757 0.817502
Si Si4 0.201690 0.298200 0.274223
Si Si5 0.310587 0.885892 0.484801
Si Si6 0.297681 0.608362 0.358780
Si Si7 0.000000 0.116315 0.541236
Si Si8 0.689067 0.885145 0.689991
O O1 0.257657 0.138954 0.362731
O O2 0.288427 0.169300 0.442593
O O3 0.225821 0.310448 0.388446
O O4 0.000000 0.182447 0.407153
O O5 0.833985 0.145637 0.658819
O O6 0.000000 0.150378 0.587554
O O7 0.000000 0.000000 0.632884
O O8 0.261876 0.500000 0.807985
O O9 0.257694 0.308888 0.786918
O O10 0.000000 0.391878 0.817674
O O11 0.243695 0.363311 0.313210
O O12 0.283793 0.336533 0.233454
O O13 0.000000 0.298669 0.268789
O O14 0.500000 0.872213 0.500610
O O15 0.166427 0.855614 0.516279
O O16 0.287870 0.000000 0.476884
O O17 0.500000 0.612714 0.360738
O O18 0.243217 0.500000 0.367966
O O19 0.000000 0.000000 0.542597
O O20 0.500000 0.866050 0.675035
O O21 0.705817 0.000000 0.695658
#
# Coordination Sequence:
#
# PCOD9356016 Si02
#       8
#     8   4   8   8   8   8   4   8
#     4  10  18  29  46  65  89 123 159 193 227 268
#     4   9  18  32  48  67  91 119 151 185 224 276
#     4   8  15  26  41  62  88 120 156 192 228 261
#     4  10  18  28  44  64  88 122 159 192 227 269
#     4  10  19  30  47  70  95 124 156 188 224 271
#     4  10  20  31  42  60  89 123 159 198 234 267
#     4   9  18  32  48  67  93 121 149 185 228 272
#     4  10  19  30  46  67  92 122 153 187 225 267
#
# _framework density 15.308973999999999
#
# number of rings (size 3 to 8) (size 9 to 14) (size 15 to 20)
#    0.000    2.429    1.429    3.000    0.000    4.000 
#    0.000    2.857    0.000    8.571    0.000    0.000 
#    0.000    2.286    0.000    2.714    0.000    0.286 
#
# Total GULP energy -156123.590727 kJ/mol
# GULP energy per Si atom -5575.842526 kJ/mol
# Density = 1.527413 g / cm^3
# Si number density = 15.308974 Si / 1000 Ang^3
#
#
#
# Elastic Constant Matrix: (Units=GPa)
#
#
# Indices 1 2 3 4 5 6 
#
# 1 84.7252 20.7865 50.3531 0.0000 0.0000 0.0000
# 2 20.7865 54.5660 25.5683 0.0000 0.0000 0.0000
# 3 50.3531 25.5683 105.8676 0.0000 0.0000 0.0000
# 4 0.0000 0.0000 0.0000 16.1026 0.0000 0.0000
# 5 0.0000 0.0000 0.0000 0.0000 5.4943 0.0000
# 6 0.0000 0.0000 0.0000 0.0000 0.0000 13.1991
#
#
#
# Elastic Compliance Matrix: (Units=1/GPa)
#
#
# Indices 1 2 3 4 5 6 
#
# 1 0.016881 -0.003009 -0.007302 0.000000 0.000000 0.000000
# 2 -0.003009 0.021201 -0.003689 0.000000 0.000000 0.000000
# 3 -0.007302 -0.003689 0.013810 0.000000 0.000000 0.000000
# 4 0.000000 0.000000 0.000000 0.062102 0.000000 0.000000
# 5 0.000000 0.000000 0.000000 0.000000 0.182008 0.000000
# 6 0.000000 0.000000 0.000000 0.000000 0.000000 0.075762
#
#
# Mechanical properties :
#
#
# Convention : Reuss Voigt Hill
#
# Bulk Modulus (GPa) = 41.85645 48.73051 45.29348
# Shear Modulus (GPa) = 12.26305 16.85593 14.55949
#
# Velocity S-wave (km/s) = 2.83333 3.32181 3.08724
# Velocity P-wave (km/s) = 6.17286 6.82737 6.50835
#
# Compressibility (1/GPa) = 0.02389118
#
# Stress axis : x y z
#
# Youngs Moduli (GPa) = 59.23867 47.16678 72.41199
#
# Poissons Ratio (x) = 0.14192 0.52877
# Poissons Ratio (y) = 0.17825 0.26715
# Poissons Ratio (z) = 0.43257 0.17401
#
# Static dielectric constant tensor:
#      x y z
#    x 1.548340 0.000000 0.000000 
#    y 0.000000 1.502280 0.000000 
#    z 0.000000 0.000000 1.478030 
# 
# From -- ./inp_files/24675.got.cif
#   From: 2010.05.17/outbox.cif.g08.bks.cpg/sg38_13_cif.got.tgz:24675.got - 2010.06.03 18:07:57.
