data_PCOD9356635
_publ_section_title
;
Structure prediction by ZEFSAII (Michael W. Deem and Ramdas Pophale) SiO2 
 PCOD9356635
Probable space group: A M M 2
;
_chemical_formula_sum "Si O2"
_cell_formula_units_Z 64
_cell_length_a 8.063753
_cell_length_b 24.127843
_cell_length_c 19.851605
_cell_angle_alpha 90.000000
_cell_angle_beta 90.000000
_cell_angle_gamma 90.000000
_cell_volume 3862.347453
_symmetry_space_group_name_H-M "A M M 2"
_symmetry_group_IT_number 38
_symmetry_cell_setting 'orthorhombic'
loop_
_space_group_symop_operation_xyz
x,y,z
-x,-y,z
-x,y,z
x,-y,z
x,1/2+y,1/2+z
-x,1/2-y,1/2+z
-x,1/2+y,1/2+z
x,1/2-y,1/2+z
loop_
_atom_site_type_symbol
_atom_site_label
_atom_site_fract_x
_atom_site_fract_y
_atom_site_fract_z
Si Si1 0.300683 0.437259 0.457990
Si Si2 0.200145 0.338333 0.368633
Si Si3 0.800670 0.773954 0.739914
Si Si4 0.199306 0.270784 0.948124
Si Si5 0.799856 0.062815 0.233078
Si Si6 0.299072 0.877970 0.094952
Si Si7 0.696708 0.251029 0.594759
Si Si8 0.202555 0.164280 0.319739
O O1 0.500000 0.439711 0.462617
O O2 0.237829 0.500000 0.451306
O O3 0.257477 0.396834 0.396694
O O4 0.240374 0.408572 0.527144
O O5 0.255732 0.319837 0.294029
O O6 0.257117 0.288968 0.419074
O O7 0.000000 0.337880 0.369110
O O8 0.747582 0.779336 0.663169
O O9 0.745846 0.714148 0.769538
O O10 0.000000 0.773645 0.741635
O O11 0.255990 0.317014 0.894360
O O12 0.000000 0.270042 0.945257
O O13 0.249595 0.276812 0.025113
O O14 0.754531 0.088849 0.161009
O O15 0.740105 0.105894 0.290096
O O16 0.000000 0.061107 0.237117
O O17 0.737287 0.000000 0.239502
O O18 0.500000 0.876865 0.093753
O O19 0.236714 0.814488 0.096746
O O20 0.500000 0.254956 0.593959
O O21 0.000000 0.163695 0.319614
#
# Coordination Sequence:
#
# PCOD9356635 Si02
#       8
#     8   8   8   8   8   8   8   8
#     4  10  20  33  47  63  91 131 163 189 228 271
#     4   9  18  31  48  69  89 116 156 197 235 271
#     4   9  17  31  49  66  90 122 151 186 235 281
#     4   9  17  30  48  65  87 121 152 184 233 282
#     4  10  19  30  47  69  91 120 158 194 223 257
#     4  10  20  32  43  61  94 131 159 183 218 265
#     4  11  20  29  45  71  95 120 153 190 228 267
#     4   8  15  29  46  65  89 117 151 188 225 269
#
# _framework density 16.570235
#
# number of rings (size 3 to 8) (size 9 to 14) (size 15 to 20)
#    0.000    2.500    2.500    2.250    0.000    2.500 
#    0.000    2.500    0.000    0.000    0.000    0.875 
#    0.000    5.000    0.000    0.000    0.000    0.000 
#
# Total GULP energy -178413.128952 kJ/mol
# GULP energy per Si atom -5575.410280 kJ/mol
# Density = 1.653252 g / cm^3
# Si number density = 16.570235 Si / 1000 Ang^3
#
#
#
# Elastic Constant Matrix: (Units=GPa)
#
#
# Indices 1 2 3 4 5 6 
#
# 1 8.2209 5.9480 7.4585 0.0000 0.0000 0.0000
# 2 5.9480 95.5325 71.5138 0.0000 0.0000 0.0000
# 3 7.4585 71.5138 158.2815 0.0000 0.0000 0.0000
# 4 0.0000 0.0000 0.0000 19.9831 0.0000 0.0000
# 5 0.0000 0.0000 0.0000 0.0000 61.1628 0.0000
# 6 0.0000 0.0000 0.0000 0.0000 0.0000 13.8764
#
#
#
# Elastic Compliance Matrix: (Units=1/GPa)
#
#
# Indices 1 2 3 4 5 6 
#
# 1 0.128795 -0.005252 -0.003696 0.000000 0.000000 0.000000
# 2 -0.005252 0.016032 -0.006996 0.000000 0.000000 0.000000
# 3 -0.003696 -0.006996 0.009653 0.000000 0.000000 0.000000
# 4 0.000000 0.000000 0.000000 0.050042 0.000000 0.000000
# 5 0.000000 0.000000 0.000000 0.000000 0.016350 0.000000
# 6 0.000000 0.000000 0.000000 0.000000 0.000000 0.072065
#
#
# Mechanical properties :
#
#
# Convention : Reuss Voigt Hill
#
# Bulk Modulus (GPa) = 8.15719 47.98616 28.07168
# Shear Modulus (GPa) = 13.67285 30.81210 22.24248
#
# Velocity S-wave (km/s) = 2.87565 4.31685 3.66774
# Velocity P-wave (km/s) = 3.99491 7.33956 5.90882
#
# Compressibility (1/GPa) = 0.12259128
#
# Stress axis : x y z
#
# Youngs Moduli (GPa) = 7.76428 62.37699 103.59683
#
# Poissons Ratio (x) = 0.32762 0.38289
# Poissons Ratio (y) = 0.04078 0.72474
# Poissons Ratio (z) = 0.02870 0.43638
#
# Static dielectric constant tensor:
#      x y z
#    x 1.589400 0.000000 0.000000 
#    y 0.000000 1.556320 0.000000 
#    z 0.000000 0.000000 1.563480 
# 
# From -- ./inp_files/17269.got.cif
#   From: 2010.05.17/outbox.cif.g08.bks.cpg/sg38_9_cif.got.tgz:17269.got - 2010.06.03 18:07:57.
