data_PCOD9356485
_publ_section_title
;
Structure prediction by ZEFSAII (Michael W. Deem and Ramdas Pophale) SiO2 
 PCOD9356485
Probable space group: A M M 2
;
_chemical_formula_sum "Si O2"
_cell_formula_units_Z 58
_cell_length_a 26.607419
_cell_length_b 7.471345
_cell_length_c 14.712533
_cell_angle_alpha 90.000000
_cell_angle_beta 90.000000
_cell_angle_gamma 90.000000
_cell_volume 2924.751617
_symmetry_space_group_name_H-M "A M M 2"
_symmetry_group_IT_number 38
_symmetry_cell_setting 'orthorhombic'
loop_
_space_group_symop_operation_xyz
x,y,z
-x,-y,z
-x,y,z
x,-y,z
x,1/2+y,1/2+z
-x,1/2-y,1/2+z
-x,1/2+y,1/2+z
x,1/2-y,1/2+z
loop_
_atom_site_type_symbol
_atom_site_label
_atom_site_fract_x
_atom_site_fract_y
_atom_site_fract_z
Si Si1 0.444193 0.283863 0.209610
Si Si2 0.636125 0.207488 0.358569
Si Si3 0.444285 0.781494 0.499015
Si Si4 0.000000 0.500000 0.319219
Si Si5 0.087944 0.795149 0.337787
Si Si6 0.169489 0.290281 0.189037
Si Si7 0.828718 0.782705 0.482098
Si Si8 0.748459 0.283052 0.833439
O O1 0.500000 0.224567 0.240334
O O2 0.443402 0.500000 0.213820
O O3 0.399128 0.215065 0.270426
O O4 0.438592 0.232664 0.104322
O O5 0.601160 0.286416 0.437757
O O6 0.691396 0.282878 0.341114
O O7 0.644513 0.000000 0.383335
O O8 0.500000 0.723290 0.468109
O O9 0.444360 0.000000 0.494697
O O10 0.043902 0.656778 0.320772
O O11 0.127260 0.794378 0.253697
O O12 0.120968 0.738496 0.425917
O O13 0.070686 0.000000 0.351357
O O14 0.156905 0.500000 0.183860
O O15 0.222053 0.271933 0.242475
O O16 0.171629 0.220008 0.086037
O O17 0.781970 0.723432 0.419678
O O18 0.826209 0.000000 0.484148
O O19 0.748578 0.500000 0.832660
#
# Coordination Sequence:
#
# PCOD9356485 Si02
#       8
#     8   8   8   2   8   8   8   8
#     4   9  18  32  49  69  95 129 170 217 274 335
#     4  10  19  31  50  73 103 132 174 223 272 326
#     4   8  15  29  48  68  91 130 177 216 265 338
#     4  12  22  40  64  94 124 158 202 232 274 342
#     4  10  21  40  62  87 124 160 189 238 287 321
#     4  10  18  35  61  86 109 145 195 233 270 341
#     4   8  17  35  60  80 110 149 188 232 282 330
#     4   9  19  34  49  78 109 142 176 224 285 333
#
# _framework density 19.830743999999999
#
# number of rings (size 3 to 8) (size 9 to 14) (size 15 to 20)
#    0.000    2.759    0.690    2.690    0.000    2.483 
#    2.483    4.138    0.000    0.828    0.000    0.000 
#    0.000    0.000    0.000    0.000    0.000    0.000 
#
# Total GULP energy -161535.441074 kJ/mol
# GULP energy per Si atom -5570.187623 kJ/mol
# Density = 1.978561 g / cm^3
# Si number density = 19.830744 Si / 1000 Ang^3
#
#
#
# Elastic Constant Matrix: (Units=GPa)
#
#
# Indices 1 2 3 4 5 6 
#
# 1 150.3668 20.1830 52.1350 0.0000 0.0000 0.0000
# 2 20.1830 76.8233 1.5953 0.0000 0.0000 0.0000
# 3 52.1350 1.5953 122.2241 0.0000 0.0000 0.0000
# 4 0.0000 0.0000 0.0000 15.4772 0.0000 0.0000
# 5 0.0000 0.0000 0.0000 0.0000 -5.3201 0.0000
# 6 0.0000 0.0000 0.0000 0.0000 0.0000 15.9522
#
#
#
# Elastic Compliance Matrix: (Units=1/GPa)
#
#
# Indices 1 2 3 4 5 6 
#
# 1 0.008118 -0.002062 -0.003436 0.000000 0.000000 0.000000
# 2 -0.002062 0.013544 0.000703 0.000000 0.000000 0.000000
# 3 -0.003436 0.000703 0.009638 0.000000 0.000000 0.000000
# 4 0.000000 0.000000 0.000000 0.064611 0.000000 0.000000
# 5 0.000000 0.000000 0.000000 0.000000 -0.187965 0.000000
# 6 0.000000 0.000000 0.000000 0.000000 0.000000 0.062687
#
#
# Mechanical properties :
#
#
# Convention : Reuss Voigt Hill
#
# Bulk Modulus (GPa) = 46.06060 55.24900 50.65480
# Shear Modulus (GPa) = -398.74090 23.58857 -187.57616
#
# Velocity S-wave (km/s) = -14.19537 3.45265 -9.73622
# Velocity P-wave (km/s) = 15.66527 6.61930 10.03956
#
# Compressibility (1/GPa) = 0.02171053
#
# Stress axis : x y z
#
# Youngs Moduli (GPa) = 123.17612 73.83396 103.75404
#
# Poissons Ratio (x) = 0.15221 0.35650
# Poissons Ratio (y) = 0.25393 -0.07289
# Poissons Ratio (z) = 0.42324 -0.05187
#
# Static dielectric constant tensor:
#      x y z
#    x 1.672920 0.000000 0.000000 
#    y 0.000000 1.762750 0.000000 
#    z 0.000000 0.000000 1.688250 
# 
# From -- ./inp_files/15901.got.cif
#   From: 2010.05.17/outbox.cif.g08.bks.cpg/sg38_8_cif.got.tgz:15901.got - 2010.06.03 18:07:57.
