data_PCOD9356974
_publ_section_title
;
Structure prediction by ZEFSAII (Michael W. Deem and Ramdas Pophale) SiO2 
 PCOD9356974
Probable space group: A M M 2
;
_chemical_formula_sum "Si O2"
_cell_formula_units_Z 64
_cell_length_a 17.712627
_cell_length_b 7.873021
_cell_length_c 22.633348
_cell_angle_alpha 90.000000
_cell_angle_beta 90.000000
_cell_angle_gamma 90.000000
_cell_volume 3156.263027
_symmetry_space_group_name_H-M "A M M 2"
_symmetry_group_IT_number 38
_symmetry_cell_setting 'orthorhombic'
loop_
_space_group_symop_operation_xyz
x,y,z
-x,-y,z
-x,y,z
x,-y,z
x,1/2+y,1/2+z
-x,1/2-y,1/2+z
-x,1/2+y,1/2+z
x,1/2-y,1/2+z
loop_
_atom_site_type_symbol
_atom_site_label
_atom_site_fract_x
_atom_site_fract_y
_atom_site_fract_z
Si Si1 0.230303 0.798780 0.286950
Si Si2 0.582056 0.702580 0.084060
Si Si3 0.085845 0.696957 0.967724
Si Si4 0.920646 0.206831 0.228401
Si Si5 0.877832 0.300269 0.599914
Si Si6 0.415341 0.196932 0.950877
Si Si7 0.723264 0.795571 0.659107
Si Si8 0.251190 0.807612 0.916557
O O1 0.147836 0.734459 0.267574
O O2 0.274609 0.770809 0.225981
O O3 0.253598 0.704796 0.345808
O O4 0.228027 0.000000 0.300258
O O5 0.500000 0.729602 0.110932
O O6 0.590445 0.500000 0.072014
O O7 0.646782 0.755061 0.127839
O O8 0.585346 0.794502 0.021669
O O9 0.080613 0.500000 0.952376
O O10 0.166672 0.751923 0.938196
O O11 0.000000 0.770010 0.954508
O O12 0.098907 0.717432 0.038425
O O13 0.916084 0.264614 0.160427
O O14 0.000000 0.254748 0.254982
O O15 0.915069 0.000000 0.225638
O O16 0.894632 0.500000 0.593547
O O17 0.790634 0.275480 0.618224
O O18 0.500000 0.267259 0.933503
O O19 0.332708 0.274873 0.934497
O O20 0.415241 0.000000 0.930629
O O21 0.730798 0.000000 0.660614
O O22 0.255919 0.000000 0.938900
#
# Coordination Sequence:
#
# PCOD9356974 Si02
#       8
#     8   8   8   8   8   8   8   8
#     4  10  21  36  54  76 104 139 181 226 270 321
#     4   9  18  32  52  80 110 138 170 212 265 324
#     4  11  24  39  55  79 113 151 188 227 273 326
#     4   8  15  29  50  74  98 128 167 211 260 311
#     4  10  19  32  53  80 109 140 176 221 272 325
#     4   9  19  36  58  84 111 140 178 225 277 332
#     4  10  19  33  54  78 107 142 179 220 269 326
#     4  11  23  39  59  80 106 144 188 233 280 329
#
# _framework density 20.277145000000001
#
# number of rings (size 3 to 8) (size 9 to 14) (size 15 to 20)
#    0.000    2.250    0.000    3.750    0.000    6.000 
#    0.000    1.875    0.000   10.875    0.000    0.000 
#    0.000    0.000    0.000    0.000    0.000    0.000 
#
# Total GULP energy -178149.678520 kJ/mol
# GULP energy per Si atom -5567.177454 kJ/mol
# Density = 2.023099 g / cm^3
# Si number density = 20.277145 Si / 1000 Ang^3
#
#
#
# Elastic Constant Matrix: (Units=GPa)
#
#
# Indices 1 2 3 4 5 6 
#
# 1 181.1620 10.0093 57.3417 0.0000 0.0000 0.0000
# 2 10.0093 25.9205 -9.1872 0.0000 0.0000 0.0000
# 3 57.3417 -9.1872 50.6666 0.0000 0.0000 0.0000
# 4 0.0000 0.0000 0.0000 19.3195 0.0000 0.0000
# 5 0.0000 0.0000 0.0000 0.0000 2916.8569 0.0000
# 6 0.0000 0.0000 0.0000 0.0000 0.0000 19.8301
#
#
#
# Elastic Compliance Matrix: (Units=1/GPa)
#
#
# Indices 1 2 3 4 5 6 
#
# 1 0.010091 -0.008490 -0.012960 0.000000 0.000000 0.000000
# 2 -0.008490 0.048373 0.018380 0.000000 0.000000 0.000000
# 3 -0.012960 0.018380 0.037737 0.000000 0.000000 0.000000
# 4 0.000000 0.000000 0.000000 0.051761 0.000000 0.000000
# 5 0.000000 0.000000 0.000000 0.000000 0.000343 0.000000
# 6 0.000000 0.000000 0.000000 0.000000 0.000000 0.050429
#
#
# Mechanical properties :
#
#
# Convention : Reuss Voigt Hill
#
# Bulk Modulus (GPa) = 11.10367 41.56408 26.33388
# Shear Modulus (GPa) = 21.28616 604.50698 312.89657
#
# Velocity S-wave (km/s) = 3.24352 17.28495 12.43563
# Velocity P-wave (km/s) = 4.41758 20.46709 14.80569
#
# Compressibility (1/GPa) = 0.09006029
#
# Stress axis : x y z
#
# Youngs Moduli (GPa) = 99.09632 20.67287 26.49897
#
# Poissons Ratio (x) = 0.17552 0.34343
# Poissons Ratio (y) = 0.84136 -0.48705
# Poissons Ratio (z) = 1.28431 -0.37997
#
# Static dielectric constant tensor:
#      x y z
#    x 1.007230 0.000000 0.000000 
#    y 0.000000 1.766670 0.000000 
#    z 0.000000 0.000000 1.669530 
# 
# From -- ./inp_files/21351.got.cif
#   From: 2010.05.17/outbox.cif.g08.bks.cpg/sg38_11_cif.got.tgz:21351.got - 2010.06.03 18:07:57.
