data_PCOD9356816
_publ_section_title
;
Structure prediction by ZEFSAII (Michael W. Deem and Ramdas Pophale) SiO2 
 PCOD9356816
Probable space group: A M M 2
;
_chemical_formula_sum "Si O2"
_cell_formula_units_Z 48
_cell_length_a 14.634426
_cell_length_b 7.568249
_cell_length_c 21.279149
_cell_angle_alpha 90.000000
_cell_angle_beta 90.000000
_cell_angle_gamma 90.000000
_cell_volume 2356.814279
_symmetry_space_group_name_H-M "A M M 2"
_symmetry_group_IT_number 38
_symmetry_cell_setting 'orthorhombic'
loop_
_space_group_symop_operation_xyz
x,y,z
-x,-y,z
-x,y,z
x,-y,z
x,1/2+y,1/2+z
-x,1/2-y,1/2+z
-x,1/2+y,1/2+z
x,1/2-y,1/2+z
loop_
_atom_site_type_symbol
_atom_site_label
_atom_site_fract_x
_atom_site_fract_y
_atom_site_fract_z
Si Si1 0.102026 0.791673 0.088700
Si Si2 0.205205 0.793115 0.715696
Si Si3 0.397700 0.715435 0.522133
Si Si4 0.602260 0.212900 0.167289
Si Si5 0.106093 0.716381 0.341222
Si Si6 0.210455 0.716575 0.466774
O O1 0.160188 0.776331 0.151902
O O2 0.000000 0.717865 0.096661
O O3 0.093314 0.000000 0.076615
O O4 0.154249 0.720974 0.027795
O O5 0.313914 0.767631 0.710742
O O6 0.157397 0.721244 0.778279
O O7 0.186370 0.000000 0.715576
O O8 0.500000 0.772385 0.504477
O O9 0.397733 0.500000 0.522526
O O10 0.380797 0.769666 0.594795
O O11 0.315112 0.772609 0.477811
O O12 0.500000 0.272717 0.185197
O O13 0.601446 0.000000 0.166550
O O14 0.106523 0.500000 0.341455
O O15 0.161109 0.773088 0.403124
O O16 0.000000 0.770558 0.342373
O O17 0.210692 0.500000 0.466493
#
# Coordination Sequence:
#
# PCOD9356816 Si02
#       6
#     8   8   8   8   8   8
#     4  10  19  31  51  76  97 123 171 227 261 289
#     4  11  21  32  48  73 107 139 165 201 252 311
#     4   8  13  23  44  73  98 118 149 201 257 295
#     4   9  17  32  54  77 101 130 166 209 253 298
#     4   9  18  31  45  65  99 141 173 200 248 304
#     4   9  15  27  48  72  96 124 167 216 255 291
#
# _framework density 20.366475000000001
#
# number of rings (size 3 to 8) (size 9 to 14) (size 15 to 20)
#    0.000    2.667    1.667    2.500    0.000    3.333 
#    0.000    0.833    0.000    5.000    0.000    0.000 
#    0.000    0.000    0.000    0.000    0.000    0.000 
#
# Total GULP energy -133919.849272 kJ/mol
# GULP energy per Si atom -5579.993720 kJ/mol
# Density = 2.032012 g / cm^3
# Si number density = 20.366475 Si / 1000 Ang^3
#
#
#
# Elastic Constant Matrix: (Units=GPa)
#
#
# Indices 1 2 3 4 5 6 
#
# 1 195.0555 -2.9124 103.0665 0.0000 0.0000 0.0000
# 2 -2.9124 42.1777 -0.5230 0.0000 0.0000 0.0000
# 3 103.0665 -0.5230 155.7728 0.0000 0.0000 0.0000
# 4 0.0000 0.0000 0.0000 7.6649 0.0000 0.0000
# 5 0.0000 0.0000 0.0000 0.0000 34.9446 0.0000
# 6 0.0000 0.0000 0.0000 0.0000 0.0000 8.2570
#
#
#
# Elastic Compliance Matrix: (Units=1/GPa)
#
#
# Indices 1 2 3 4 5 6 
#
# 1 0.007892 0.000480 -0.005220 0.000000 0.000000 0.000000
# 2 0.000480 0.023739 -0.000238 0.000000 0.000000 0.000000
# 3 -0.005220 -0.000238 0.009873 0.000000 0.000000 0.000000
# 4 0.000000 0.000000 0.000000 0.130464 0.000000 0.000000
# 5 0.000000 0.000000 0.000000 0.000000 0.028617 0.000000
# 6 0.000000 0.000000 0.000000 0.000000 0.000000 0.121110
#
#
# Mechanical properties :
#
#
# Convention : Reuss Voigt Hill
#
# Bulk Modulus (GPa) = 31.69744 65.80760 48.75252
# Shear Modulus (GPa) = 14.61272 29.73162 22.17217
#
# Velocity S-wave (km/s) = 2.68150 3.82492 3.30306
# Velocity P-wave (km/s) = 5.01843 7.20337 6.20778
#
# Compressibility (1/GPa) = 0.03154829
#
# Stress axis : x y z
#
# Youngs Moduli (GPa) = 126.70577 42.12405 101.28840
#
# Poissons Ratio (x) = -0.02023 0.52876
# Poissons Ratio (y) = -0.06085 0.02411
# Poissons Ratio (z) = 0.66144 0.01003
#
# Static dielectric constant tensor:
#      x y z
#    x 1.735290 0.000000 0.000000 
#    y 0.000000 1.806080 0.000000 
#    z 0.000000 0.000000 1.686890 
# 
# From -- ./inp_files/18152.got.cif
#   From: 2010.05.17/outbox.cif.g08.bks.cpg/sg38_10_cif.got.tgz:18152.got - 2010.06.03 18:07:57.
