data_PCOD9356872
_publ_section_title
;
Structure prediction by ZEFSAII (Michael W. Deem and Ramdas Pophale) SiO2 
 PCOD9356872
Probable space group: A M M 2
;
_chemical_formula_sum "Si O2"
_cell_formula_units_Z 64
_cell_length_a 18.868948
_cell_length_b 12.387868
_cell_length_c 15.388757
_cell_angle_alpha 90.000000
_cell_angle_beta 90.000000
_cell_angle_gamma 90.000000
_cell_volume 3597.060965
_symmetry_space_group_name_H-M "A M M 2"
_symmetry_group_IT_number 38
_symmetry_cell_setting 'orthorhombic'
loop_
_space_group_symop_operation_xyz
x,y,z
-x,-y,z
-x,y,z
x,-y,z
x,1/2+y,1/2+z
-x,1/2-y,1/2+z
-x,1/2+y,1/2+z
x,1/2-y,1/2+z
loop_
_atom_site_type_symbol
_atom_site_label
_atom_site_fract_x
_atom_site_fract_y
_atom_site_fract_z
Si Si1 0.418634 0.738547 0.160410
Si Si2 0.083798 0.626405 0.551411
Si Si3 0.286906 0.879310 0.594062
Si Si4 0.693483 0.374010 0.761351
Si Si5 0.825806 0.758197 0.691104
Si Si6 0.288079 0.239994 0.924598
Si Si7 0.853616 0.628077 0.363645
Si Si8 0.577948 0.625783 0.481607
O O1 0.500000 0.709876 0.182778
O O2 0.362523 0.643126 0.140386
O O3 0.376811 0.812975 0.228581
O O4 0.421642 0.808529 0.071627
O O5 0.105091 0.500000 0.565031
O O6 0.125409 0.704644 0.617395
O O7 0.099884 0.651116 0.449846
O O8 0.000000 0.634807 0.566710
O O9 0.220713 0.859462 0.657533
O O10 0.277504 0.788631 0.520094
O O11 0.286030 0.000000 0.558893
O O12 0.686771 0.500000 0.747131
O O13 0.763293 0.327192 0.713766
O O14 0.705435 0.340827 0.860569
O O15 0.866357 0.799219 0.777702
O O16 0.225182 0.162861 0.893849
O O17 0.360392 0.173308 0.923372
O O18 0.858693 0.500000 0.345165
O O19 0.500000 0.638002 0.441765
O O20 0.590149 0.500000 0.499914
#
# Coordination Sequence:
#
# PCOD9356872 Si02
#       8
#     8   8   8   8   8   8   8   8
#     4   9  19  33  48  70  99 134 181 232 281 331
#     4  10  21  38  61  88 116 148 186 228 279 335
#     4  10  19  33  54  78 106 144 186 225 278 338
#     4  10  20  32  50  75 103 136 183 229 277 332
#     4  10  20  36  57  84 113 150 184 232 277 331
#     4  10  19  32  50  77 107 141 179 229 278 327
#     4  10  20  35  58  87 115 148 191 234 277 328
#     4   9  17  30  48  69  96 132 174 222 273 324
#
# _framework density 17.792303
#
# number of rings (size 3 to 8) (size 9 to 14) (size 15 to 20)
#    0.000    2.250    1.250    1.875    0.000    2.000 
#    0.000    0.625    0.000    3.375    0.000    0.000 
#    0.000    0.000    0.000    0.000    0.000    0.000 
#
# Total GULP energy -178308.883276 kJ/mol
# GULP energy per Si atom -5572.152602 kJ/mol
# Density = 1.775181 g / cm^3
# Si number density = 17.792303 Si / 1000 Ang^3
#
#
#
# Elastic Constant Matrix: (Units=GPa)
#
#
# Indices 1 2 3 4 5 6 
#
# 1 70.9232 23.8760 34.3414 0.0000 0.0000 0.0000
# 2 23.8760 57.6191 17.7712 0.0000 0.0000 0.0000
# 3 34.3414 17.7712 67.8593 0.0000 0.0000 0.0000
# 4 0.0000 0.0000 0.0000 20.2491 0.0000 0.0000
# 5 0.0000 0.0000 0.0000 0.0000 17.5391 0.0000
# 6 0.0000 0.0000 0.0000 0.0000 0.0000 11.1087
#
#
#
# Elastic Compliance Matrix: (Units=1/GPa)
#
#
# Indices 1 2 3 4 5 6 
#
# 1 0.020258 -0.005692 -0.008761 0.000000 0.000000 0.000000
# 2 -0.005692 0.020480 -0.002483 0.000000 0.000000 0.000000
# 3 -0.008761 -0.002483 0.019820 0.000000 0.000000 0.000000
# 4 0.000000 0.000000 0.000000 0.049385 0.000000 0.000000
# 5 0.000000 0.000000 0.000000 0.000000 0.057015 0.000000
# 6 0.000000 0.000000 0.000000 0.000000 0.000000 0.090019
#
#
# Mechanical properties :
#
#
# Convention : Reuss Voigt Hill
#
# Bulk Modulus (GPa) = 37.47299 38.70878 38.09088
# Shear Modulus (GPa) = 16.68076 17.80691 17.24384
#
# Velocity S-wave (km/s) = 3.06523 3.16701 3.11653
# Velocity P-wave (km/s) = 5.79953 5.93097 5.86562
#
# Compressibility (1/GPa) = 0.02668589
#
# Stress axis : x y z
#
# Youngs Moduli (GPa) = 49.36225 48.82850 50.45314
#
# Poissons Ratio (x) = 0.27795 0.44204
# Poissons Ratio (y) = 0.28099 0.12525
# Poissons Ratio (z) = 0.43248 0.12122
#
# Static dielectric constant tensor:
#      x y z
#    x 1.601350 0.000000 0.000000 
#    y 0.000000 1.585090 0.000000 
#    z 0.000000 0.000000 1.634230 
# 
# From -- ./inp_files/15253.got.cif
#   From: 2010.05.17/outbox.cif.g08.bks.cpg/sg38_8_cif.got.tgz:15253.got - 2010.06.03 18:07:57.
