data_PCOD9356895
_publ_section_title
;
Structure prediction by ZEFSAII (Michael W. Deem and Ramdas Pophale) SiO2 
 PCOD9356895
Probable space group: A M M 2
;
_chemical_formula_sum "Si O2"
_cell_formula_units_Z 64
_cell_length_a 8.617358
_cell_length_b 22.595803
_cell_length_c 16.027883
_cell_angle_alpha 90.000000
_cell_angle_beta 90.000000
_cell_angle_gamma 90.000000
_cell_volume 3120.887250
_symmetry_space_group_name_H-M "A M M 2"
_symmetry_group_IT_number 38
_symmetry_cell_setting 'orthorhombic'
loop_
_space_group_symop_operation_xyz
x,y,z
-x,-y,z
-x,y,z
x,-y,z
x,1/2+y,1/2+z
-x,1/2-y,1/2+z
-x,1/2+y,1/2+z
x,1/2-y,1/2+z
loop_
_atom_site_type_symbol
_atom_site_label
_atom_site_fract_x
_atom_site_fract_y
_atom_site_fract_z
Si Si1 0.677985 0.928189 0.517370
Si Si2 0.812868 0.313971 0.258307
Si Si3 0.185223 0.065964 0.693569
Si Si4 0.319889 0.740691 0.606318
Si Si5 0.685000 0.929091 0.333866
Si Si6 0.812330 0.696425 0.440039
Si Si7 0.180700 0.879615 0.166267
Si Si8 0.185071 0.435355 0.493192
O O1 0.500000 0.908505 0.529419
O O2 0.775959 0.914538 0.599036
O O3 0.733997 0.907868 0.426414
O O4 0.675143 0.000000 0.512558
O O5 0.760253 0.382406 0.254191
O O6 0.755560 0.282854 0.174977
O O7 0.763016 0.286454 0.346527
O O8 0.000000 0.312917 0.257511
O O9 0.000000 0.062285 0.701848
O O10 0.250039 0.000000 0.707546
O O11 0.500000 0.753883 0.600171
O O12 0.248298 0.738028 0.513770
O O13 0.287887 0.675224 0.642239
O O14 0.500000 0.917563 0.325843
O O15 0.777378 0.901728 0.257582
O O16 0.705113 0.000000 0.330457
O O17 0.759976 0.627894 0.456770
O O18 0.000000 0.696274 0.444548
O O19 0.202913 0.928011 0.093350
O O20 0.000000 0.860838 0.161511
O O21 0.247856 0.500000 0.466638
O O22 0.000000 0.436493 0.475249
#
# Coordination Sequence:
#
# PCOD9356895 Si02
#       8
#     8   8   8   8   8   8   8   8
#     4   8  15  29  47  68 102 147 186 222 269 325
#     4  10  21  39  62  87 116 151 189 232 285 342
#     4   9  18  33  55  85 117 145 178 224 277 334
#     4  11  23  40  60  81 110 148 192 242 291 338
#     4   9  17  29  46  72 108 148 190 238 290 341
#     4   9  19  37  61  86 115 150 187 232 284 338
#     4  10  19  32  51  76 108 147 192 238 287 339
#     4   8  14  26  48  80 113 142 175 217 269 331
#
# _framework density 20.506989000000001
#
# number of rings (size 3 to 8) (size 9 to 14) (size 15 to 20)
#    0.000    2.750    0.000    3.375    0.000    2.750 
#    2.250    3.750    0.000    3.375    0.000    3.500 
#    0.000    0.000    0.000    0.000    0.000    0.000 
#
# Total GULP energy -178387.201261 kJ/mol
# GULP energy per Si atom -5574.600039 kJ/mol
# Density = 2.046031 g / cm^3
# Si number density = 20.506989 Si / 1000 Ang^3
#
#
#
# Elastic Constant Matrix: (Units=GPa)
#
#
# Indices 1 2 3 4 5 6 
#
# 1 15.6045 11.6944 28.5937 0.0000 0.0000 0.0000
# 2 11.6944 39.9810 36.5803 0.0000 0.0000 0.0000
# 3 28.5937 36.5803 135.9485 0.0000 0.0000 0.0000
# 4 0.0000 0.0000 0.0000 21.4473 0.0000 0.0000
# 5 0.0000 0.0000 0.0000 0.0000 -2.2980 0.0000
# 6 0.0000 0.0000 0.0000 0.0000 0.0000 10.3914
#
#
#
# Elastic Compliance Matrix: (Units=1/GPa)
#
#
# Indices 1 2 3 4 5 6 
#
# 1 0.110383 -0.014652 -0.019274 0.000000 0.000000 0.000000
# 2 -0.014652 0.035125 -0.006370 0.000000 0.000000 0.000000
# 3 -0.019274 -0.006370 0.013123 0.000000 0.000000 0.000000
# 4 0.000000 0.000000 0.000000 0.046626 0.000000 0.000000
# 5 0.000000 0.000000 0.000000 0.000000 -0.435157 0.000000
# 6 0.000000 0.000000 0.000000 0.000000 0.000000 0.096234
#
#
# Mechanical properties :
#
#
# Convention : Reuss Voigt Hill
#
# Bulk Modulus (GPa) = 12.81398 38.36341 25.58870
# Shear Modulus (GPa) = -184.77025 13.55251 -85.60887
#
# Velocity S-wave (km/s) = -9.50246 2.57353 -6.46814
# Velocity P-wave (km/s) = 10.68333 5.25156 6.57855
#
# Compressibility (1/GPa) = 0.07803977
#
# Stress axis : x y z
#
# Youngs Moduli (GPa) = 9.05940 28.46937 76.19962
#
# Poissons Ratio (x) = 0.41715 1.46866
# Poissons Ratio (y) = 0.13274 0.48536
# Poissons Ratio (z) = 0.17461 0.18134
#
# Static dielectric constant tensor:
#      x y z
#    x 1.698830 0.000000 0.000000 
#    y 0.000000 1.770620 0.000000 
#    z 0.000000 0.000000 1.742950 
# 
# From -- ./inp_files/12854.got.cif
#   From: 2010.05.17/outbox.cif.g08.bks.cpg/sg38_7_cif.got.tgz:12854.got - 2010.06.03 18:07:57.
