data_PCOD9356869
_publ_section_title
;
Structure prediction by ZEFSAII (Michael W. Deem and Ramdas Pophale) SiO2 
 PCOD9356869
Probable space group: A M M 2
;
_chemical_formula_sum "Si O2"
_cell_formula_units_Z 48
_cell_length_a 8.181863
_cell_length_b 7.635625
_cell_length_c 35.333305
_cell_angle_alpha 90.000000
_cell_angle_beta 90.000000
_cell_angle_gamma 90.000000
_cell_volume 2207.400094
_symmetry_space_group_name_H-M "A M M 2"
_symmetry_group_IT_number 38
_symmetry_cell_setting 'orthorhombic'
loop_
_space_group_symop_operation_xyz
x,y,z
-x,-y,z
-x,y,z
x,-y,z
x,1/2+y,1/2+z
-x,1/2-y,1/2+z
-x,1/2+y,1/2+z
x,1/2-y,1/2+z
loop_
_atom_site_type_symbol
_atom_site_label
_atom_site_fract_x
_atom_site_fract_y
_atom_site_fract_z
Si Si1 0.000000 0.788537 0.122200
Si Si2 0.685493 0.710138 0.325803
Si Si3 0.322352 0.214265 0.166503
Si Si4 0.818484 0.789766 0.243927
Si Si5 0.314951 0.796506 0.490619
Si Si6 0.301430 0.798236 0.906497
Si Si7 0.000000 0.709747 0.033815
O O1 0.165372 0.726512 0.142820
O O2 0.000000 0.740296 0.078394
O O3 0.000000 0.000000 0.125343
O O4 0.500000 0.777142 0.321392
O O5 0.677915 0.500000 0.330283
O O6 0.775444 0.744972 0.286806
O O7 0.757042 0.775084 0.365969
O O8 0.500000 0.271138 0.152236
O O9 0.299396 0.269580 0.210302
O O10 0.321046 0.000000 0.165713
O O11 0.000000 0.725431 0.234988
O O12 0.819655 0.000000 0.241960
O O13 0.500000 0.720120 0.494093
O O14 0.265016 0.789684 0.446348
O O15 0.167077 0.718864 0.515038
O O16 0.329100 0.000000 0.501366
O O17 0.500000 0.795874 0.903122
O O18 0.248317 0.000000 0.910125
O O19 0.000000 0.500000 0.026595
#
# Coordination Sequence:
#
# PCOD9356869 Si02
#       7
#     4   8   8   8   8   8   4
#     4  10  20  36  56  79 104 129 167 210 249 310
#     4   9  18  32  49  72 104 140 177 217 262 310
#     4   9  17  32  55  79 104 134 167 211 262 301
#     4  10  19  32  50  74 104 138 178 221 258 301
#     4   9  18  34  55  76 101 136 172 206 252 307
#     4   8  15  30  51  73 100 134 172 216 258 295
#     4  10  22  38  54  77 108 135 161 204 259 308
#
# _framework density 21.745038999999998
#
# number of rings (size 3 to 8) (size 9 to 14) (size 15 to 20)
#    0.000    2.833    0.833    1.500    0.000    3.333 
#    1.500    2.500    0.000    1.000    0.000    0.000 
#    0.000    0.000    0.000    0.000    0.000    0.000 
#
# Total GULP energy -133811.022637 kJ/mol
# GULP energy per Si atom -5575.459277 kJ/mol
# Density = 2.169555 g / cm^3
# Si number density = 21.745039 Si / 1000 Ang^3
#
#
#
# Elastic Constant Matrix: (Units=GPa)
#
#
# Indices 1 2 3 4 5 6 
#
# 1 145.4075 9.3688 88.3780 0.0000 0.0000 0.0000
# 2 9.3688 37.6169 -4.2591 0.0000 0.0000 0.0000
# 3 88.3780 -4.2591 151.6625 0.0000 0.0000 0.0000
# 4 0.0000 0.0000 0.0000 25.5815 0.0000 0.0000
# 5 0.0000 0.0000 0.0000 0.0000 206.4653 0.0000
# 6 0.0000 0.0000 0.0000 0.0000 0.0000 0.9363
#
#
#
# Elastic Compliance Matrix: (Units=1/GPa)
#
#
# Indices 1 2 3 4 5 6 
#
# 1 0.011091 -0.003505 -0.006562 0.000000 0.000000 0.000000
# 2 -0.003505 0.027776 0.002823 0.000000 0.000000 0.000000
# 3 -0.006562 0.002823 0.010496 0.000000 0.000000 0.000000
# 4 0.000000 0.000000 0.000000 0.039091 0.000000 0.000000
# 5 0.000000 0.000000 0.000000 0.000000 0.004843 0.000000
# 6 0.000000 0.000000 0.000000 0.000000 0.000000 1.068025
#
#
# Mechanical properties :
#
#
# Convention : Reuss Voigt Hill
#
# Bulk Modulus (GPa) = 28.67330 57.96249 43.31790
# Shear Modulus (GPa) = 4.21075 62.67658 33.44366
#
# Velocity S-wave (km/s) = 1.39306 5.37457 3.92598
# Velocity P-wave (km/s) = 3.97521 8.07638 6.36515
#
# Compressibility (1/GPa) = 0.03487565
#
# Stress axis : x y z
#
# Youngs Moduli (GPa) = 90.16188 36.00181 95.27015
#
# Poissons Ratio (x) = 0.12620 0.62512
# Poissons Ratio (y) = 0.31604 -0.26891
# Poissons Ratio (z) = 0.59160 -0.10162
#
# Static dielectric constant tensor:
#      x y z
#    x 1.680020 0.000000 0.000000 
#    y 0.000000 1.820100 0.000000 
#    z 0.000000 0.000000 1.775290 
# 
# From -- ./inp_files/24375.got.cif
#   From: 2010.05.17/outbox.cif.g08.bks.cpg/sg38_13_cif.got.tgz:24375.got - 2010.06.03 18:07:57.
