data_PCOD9356763
_publ_section_title
;
Structure prediction by ZEFSAII (Michael W. Deem and Ramdas Pophale) SiO2 
 PCOD9356763
Probable space group: A M M 2
;
_chemical_formula_sum "Si O2"
_cell_formula_units_Z 48
_cell_length_a 8.905721
_cell_length_b 18.311069
_cell_length_c 14.542048
_cell_angle_alpha 90.000000
_cell_angle_beta 90.000000
_cell_angle_gamma 90.000000
_cell_volume 2371.419345
_symmetry_space_group_name_H-M "A M M 2"
_symmetry_group_IT_number 38
_symmetry_cell_setting 'orthorhombic'
loop_
_space_group_symop_operation_xyz
x,y,z
-x,-y,z
-x,y,z
x,-y,z
x,1/2+y,1/2+z
-x,1/2-y,1/2+z
-x,1/2+y,1/2+z
x,1/2-y,1/2+z
loop_
_atom_site_type_symbol
_atom_site_label
_atom_site_fract_x
_atom_site_fract_y
_atom_site_fract_z
Si Si1 0.319155 0.620016 0.147930
Si Si2 0.821015 0.082554 0.452108
Si Si3 0.330995 0.721089 0.598651
Si Si4 0.819996 0.579921 0.539480
Si Si5 0.671324 0.773960 0.386660
Si Si6 0.178795 0.626666 0.333334
O O1 0.500000 0.614576 0.141355
O O2 0.245714 0.587624 0.055903
O O3 0.275114 0.706039 0.147518
O O4 0.259600 0.591614 0.245237
O O5 0.742813 0.145654 0.391816
O O6 0.000000 0.095872 0.456083
O O7 0.795196 0.000000 0.418196
O O8 0.500000 0.705671 0.629176
O O9 0.238187 0.647205 0.599364
O O10 0.336026 0.747695 0.492750
O O11 0.766616 0.500000 0.569223
O O12 0.777151 0.592359 0.432112
O O13 0.000000 0.581184 0.541675
O O14 0.500000 0.774195 0.351256
O O15 0.771620 0.711492 0.340919
O O16 0.000000 0.620284 0.323200
#
# Coordination Sequence:
#
# PCOD9356763 Si02
#       6
#     8   8   8   8   8   8
#     4  10  20  33  49  71  99 128 161 201 243 288
#     4  10  20  33  50  73 100 129 162 200 243 293
#     4   8  16  30  47  67  90 120 158 196 231 273
#     4   9  18  31  47  69  96 124 154 190 232 278
#     4   9  17  31  50  70  94 125 163 202 238 283
#     4  10  19  31  49  72  99 130 162 197 239 287
#
# _framework density 20.241042
#
# number of rings (size 3 to 8) (size 9 to 14) (size 15 to 20)
#    0.000    2.667    0.000    3.000    0.000    7.667 
#    0.000    1.667    0.000    1.000    0.000    4.667 
#    0.000    0.000    0.000    0.000    0.000    0.000 
#
# Total GULP energy -133833.437163 kJ/mol
# GULP energy per Si atom -5576.393215 kJ/mol
# Density = 2.019497 g / cm^3
# Si number density = 20.241042 Si / 1000 Ang^3
#
#
#
# Elastic Constant Matrix: (Units=GPa)
#
#
# Indices 1 2 3 4 5 6 
#
# 1 44.4751 31.0645 -6.0928 0.0000 0.0000 0.0000
# 2 31.0645 118.9428 -14.7753 0.0000 0.0000 0.0000
# 3 -6.0928 -14.7753 26.3549 0.0000 0.0000 0.0000
# 4 0.0000 0.0000 0.0000 4.7662 0.0000 0.0000
# 5 0.0000 0.0000 0.0000 0.0000 8.5793 0.0000
# 6 0.0000 0.0000 0.0000 0.0000 0.0000 -289.4320
#
#
#
# Elastic Compliance Matrix: (Units=1/GPa)
#
#
# Indices 1 2 3 4 5 6 
#
# 1 0.027656 -0.006910 0.002520 0.000000 0.000000 0.000000
# 2 -0.006910 0.010763 0.004437 0.000000 0.000000 0.000000
# 3 0.002520 0.004437 0.041013 0.000000 0.000000 0.000000
# 4 0.000000 0.000000 0.000000 0.209812 0.000000 0.000000
# 5 0.000000 0.000000 0.000000 0.000000 0.116560 0.000000
# 6 0.000000 0.000000 0.000000 0.000000 0.000000 -0.003455
#
#
# Mechanical properties :
#
#
# Convention : Reuss Voigt Hill
#
# Bulk Modulus (GPa) = 12.57458 23.35173 17.96316
# Shear Modulus (GPa) = 11.66139 -43.24554 -15.79207
#
# Velocity S-wave (km/s) = 2.40287 -4.62727 -2.79624
# Velocity P-wave (km/s) = 3.73152 4.12153 1.23749
#
# Compressibility (1/GPa) = 0.07952551
#
# Stress axis : x y z
#
# Youngs Moduli (GPa) = 36.15845 92.90895 24.38228
#
# Poissons Ratio (x) = 0.64200 -0.06144
# Poissons Ratio (y) = 0.24985 -0.10818
# Poissons Ratio (z) = -0.09111 -0.41221
#
# Static dielectric constant tensor:
#      x y z
#    x 1.687090 0.000000 0.000000 
#    y 0.000000 1.742060 0.000000 
#    z 0.000000 0.000000 1.740040 
# 
# From -- ./inp_files/12001.got.cif
#   From: 2010.05.17/outbox.cif.g08.bks.cpg/sg38_7_cif.got.tgz:12001.got - 2010.06.03 18:07:57.
