data_PCOD9356142
_publ_section_title
;
Structure prediction by ZEFSAII (Michael W. Deem and Ramdas Pophale) SiO2 
 PCOD9356142
Probable space group: A M M 2
;
_chemical_formula_sum "Si O2"
_cell_formula_units_Z 56
_cell_length_a 22.900489
_cell_length_b 7.578221
_cell_length_c 15.258449
_cell_angle_alpha 90.000000
_cell_angle_beta 90.000000
_cell_angle_gamma 90.000000
_cell_volume 2648.027023
_symmetry_space_group_name_H-M "A M M 2"
_symmetry_group_IT_number 38
_symmetry_cell_setting 'orthorhombic'
loop_
_space_group_symop_operation_xyz
x,y,z
-x,-y,z
-x,y,z
x,-y,z
x,1/2+y,1/2+z
-x,1/2-y,1/2+z
-x,1/2+y,1/2+z
x,1/2-y,1/2+z
loop_
_atom_site_type_symbol
_atom_site_label
_atom_site_fract_x
_atom_site_fract_y
_atom_site_fract_z
Si Si1 0.785848 0.210758 0.706280
Si Si2 0.000000 0.300984 0.838847
Si Si3 0.873493 0.711996 0.058950
Si Si4 0.434587 0.211372 0.858736
Si Si5 0.346856 0.283296 0.210437
Si Si6 0.125584 0.787003 0.358202
Si Si7 0.000000 0.795882 0.038184
Si Si8 0.565365 0.711449 0.061757
O O1 0.825393 0.280873 0.626340
O O2 0.719786 0.278622 0.709193
O O3 0.821232 0.242368 0.795436
O O4 0.781844 0.000000 0.694238
O O5 0.936665 0.219084 0.820319
O O6 0.000000 0.500000 0.802146
O O7 0.000000 0.308518 0.946027
O O8 0.869011 0.500000 0.056994
O O9 0.866471 0.775353 0.958442
O O10 0.939732 0.756228 0.086745
O O11 0.500000 0.279052 0.837600
O O12 0.384017 0.275475 0.794746
O O13 0.436877 0.000000 0.848254
O O14 0.422891 0.249560 0.960299
O O15 0.345502 0.500000 0.211181
O O16 0.384242 0.225540 0.126206
O O17 0.120315 0.000000 0.361519
O O18 0.000000 0.000000 0.013621
O O19 0.500000 0.779028 0.083020
O O20 0.563148 0.500000 0.071782
#
# Coordination Sequence:
#
# PCOD9356142 Si02
#       8
#     8   4   8   8   8   8   4   8
#     4  10  21  35  51  72  98 133 174 205 235 288
#     4   8  16  33  54  73  98 132 162 195 251 309
#     4   9  19  36  53  70  99 135 164 197 249 304
#     4   9  17  31  52  76 101 129 161 201 251 297
#     4   9  18  33  51  71  99 135 170 201 239 292
#     4   9  18  34  54  74  99 129 161 202 252 299
#     4  10  18  29  52  81 100 120 160 211 253 289
#     4   9  17  31  53  78 100 126 165 208 245 287
#
# _framework density 21.147821
#
# number of rings (size 3 to 8) (size 9 to 14) (size 15 to 20)
#    0.000    2.857    0.000    1.929    0.000    6.286 
#    0.000    5.000    0.000    3.429    0.000    0.000 
#    0.000    0.000    0.000    0.000    0.000    0.000 
#
# Total GULP energy -156251.788210 kJ/mol
# GULP energy per Si atom -5580.421007 kJ/mol
# Density = 2.109969 g / cm^3
# Si number density = 21.147821 Si / 1000 Ang^3
#
#
#
# Elastic Constant Matrix: (Units=GPa)
#
#
# Indices 1 2 3 4 5 6 
#
# 1 250.2780 5.8321 128.0512 0.0000 0.0000 0.0000
# 2 5.8321 51.7347 -0.3491 0.0000 0.0000 0.0000
# 3 128.0512 -0.3491 115.3330 0.0000 0.0000 0.0000
# 4 0.0000 0.0000 0.0000 16.4152 0.0000 0.0000
# 5 0.0000 0.0000 0.0000 0.0000 32.9053 0.0000
# 6 0.0000 0.0000 0.0000 0.0000 0.0000 7.4724
#
#
#
# Elastic Compliance Matrix: (Units=1/GPa)
#
#
# Indices 1 2 3 4 5 6 
#
# 1 0.009315 -0.001120 -0.010345 0.000000 0.000000 0.000000
# 2 -0.001120 0.019464 0.001302 0.000000 0.000000 0.000000
# 3 -0.010345 0.001302 0.020160 0.000000 0.000000 0.000000
# 4 0.000000 0.000000 0.000000 0.060919 0.000000 0.000000
# 5 0.000000 0.000000 0.000000 0.000000 0.030390 0.000000
# 6 0.000000 0.000000 0.000000 0.000000 0.000000 0.133826
#
#
# Mechanical properties :
#
#
# Convention : Reuss Voigt Hill
#
# Bulk Modulus (GPa) = 34.94799 76.04603 55.49701
# Shear Modulus (GPa) = 16.45071 30.27934 23.36502
#
# Velocity S-wave (km/s) = 2.79210 3.78801 3.32752
# Velocity P-wave (km/s) = 5.19190 7.42761 6.40801
#
# Compressibility (1/GPa) = 0.02861395
#
# Stress axis : x y z
#
# Youngs Moduli (GPa) = 107.35828 51.37581 49.60207
#
# Poissons Ratio (x) = 0.05753 0.51314
# Poissons Ratio (y) = 0.12022 -0.06459
# Poissons Ratio (z) = 1.11064 -0.06690
#
# Static dielectric constant tensor:
#      x y z
#    x 1.763060 0.000000 0.000000 
#    y 0.000000 1.807340 0.000000 
#    z 0.000000 0.000000 1.739980 
# 
# From -- ./inp_files/15541.got.cif
#   From: 2010.05.17/outbox.cif.g08.bks.cpg/sg38_8_cif.got.tgz:15541.got - 2010.06.03 18:07:57.
