data_PCOD9356968
_publ_section_title
;
Structure prediction by ZEFSAII (Michael W. Deem and Ramdas Pophale) SiO2 
 PCOD9356968
Probable space group: A M M 2
;
_chemical_formula_sum "Si O2"
_cell_formula_units_Z 64
_cell_length_a 20.488271
_cell_length_b 8.382204
_cell_length_c 20.804473
_cell_angle_alpha 90.000000
_cell_angle_beta 90.000000
_cell_angle_gamma 90.000000
_cell_volume 3572.895015
_symmetry_space_group_name_H-M "A M M 2"
_symmetry_group_IT_number 38
_symmetry_cell_setting 'orthorhombic'
loop_
_space_group_symop_operation_xyz
x,y,z
-x,-y,z
-x,y,z
x,-y,z
x,1/2+y,1/2+z
-x,1/2-y,1/2+z
-x,1/2+y,1/2+z
x,1/2-y,1/2+z
loop_
_atom_site_type_symbol
_atom_site_label
_atom_site_fract_x
_atom_site_fract_y
_atom_site_fract_z
Si Si1 0.192382 0.309525 0.098750
Si Si2 0.823913 0.190265 0.958999
Si Si3 0.696273 0.192996 0.772059
Si Si4 0.074034 0.307412 0.853786
Si Si5 0.659713 0.692447 0.133408
Si Si6 0.320581 0.305172 0.415228
Si Si7 0.159951 0.308977 0.735399
Si Si8 0.426031 0.307782 0.519101
O O1 0.192056 0.500000 0.094878
O O2 0.268267 0.257545 0.108114
O O3 0.155356 0.257556 0.163334
O O4 0.165692 0.239192 0.032729
O O5 0.878230 0.256230 0.910998
O O6 0.751370 0.247440 0.938149
O O7 0.823964 0.000000 0.953868
O O8 0.657012 0.241920 0.708195
O O9 0.669759 0.244036 0.841251
O O10 0.769981 0.254008 0.762915
O O11 0.699165 0.000000 0.771600
O O12 0.072902 0.500000 0.852717
O O13 0.105441 0.254151 0.786028
O O14 0.000000 0.249710 0.862010
O O15 0.657072 0.500000 0.130705
O O16 0.605005 0.761252 0.087237
O O17 0.320705 0.500000 0.416790
O O18 0.376534 0.249210 0.463768
O O19 0.159000 0.500000 0.732161
O O20 0.500000 0.248913 0.511838
O O21 0.427357 0.500000 0.515041
#
# Coordination Sequence:
#
# PCOD9356968 Si02
#       8
#     8   8   8   8   8   8   8   8
#     4  10  20  34  54  80 110 140 176 225 277 324
#     4  11  20  33  57  84 110 142 182 229 273 320
#     4   9  17  32  52  76 105 135 169 218 273 318
#     4  10  22  39  56  78 113 150 181 220 272 328
#     4   9  18  31  50  75 103 134 171 215 266 321
#     4   9  17  31  52  78 106 135 175 223 267 315
#     4  10  19  32  53  80 106 137 180 224 267 319
#     4  10  20  34  52  74 104 143 181 220 271 326
#
# _framework density 17.912645000000001
#
# number of rings (size 3 to 8) (size 9 to 14) (size 15 to 20)
#    0.000    2.250    2.500    1.875    0.000    3.000 
#    0.000    1.875    0.000    4.500    0.000    0.000 
#    0.000    0.000    0.000    0.000    0.000    0.000 
#
# Total GULP energy -178510.728471 kJ/mol
# GULP energy per Si atom -5578.460265 kJ/mol
# Density = 1.787188 g / cm^3
# Si number density = 17.912645 Si / 1000 Ang^3
#
#
#
# Elastic Constant Matrix: (Units=GPa)
#
#
# Indices 1 2 3 4 5 6 
#
# 1 134.4153 17.5534 93.8470 0.0000 0.0000 0.0000
# 2 17.5534 7.8241 13.0415 0.0000 0.0000 0.0000
# 3 93.8470 13.0415 157.5936 0.0000 0.0000 0.0000
# 4 0.0000 0.0000 0.0000 24.8399 0.0000 0.0000
# 5 0.0000 0.0000 0.0000 0.0000 24.7536 0.0000
# 6 0.0000 0.0000 0.0000 0.0000 0.0000 19.0520
#
#
#
# Elastic Compliance Matrix: (Units=1/GPa)
#
#
# Indices 1 2 3 4 5 6 
#
# 1 0.015545 -0.022557 -0.007391 0.000000 0.000000 0.000000
# 2 -0.022557 0.180992 -0.001545 0.000000 0.000000 0.000000
# 3 -0.007391 -0.001545 0.010874 0.000000 0.000000 0.000000
# 4 0.000000 0.000000 0.000000 0.040258 0.000000 0.000000
# 5 0.000000 0.000000 0.000000 0.000000 0.040398 0.000000
# 6 0.000000 0.000000 0.000000 0.000000 0.000000 0.052488
#
#
# Mechanical properties :
#
#
# Convention : Reuss Voigt Hill
#
# Bulk Modulus (GPa) = 6.92396 60.96854 33.94625
# Shear Modulus (GPa) = 11.06971 25.42186 18.24578
#
# Velocity S-wave (km/s) = 2.48862 3.77133 3.19501
# Velocity P-wave (km/s) = 3.48302 7.28522 5.70990
#
# Compressibility (1/GPa) = 0.14442613
#
# Stress axis : x y z
#
# Youngs Moduli (GPa) = 64.32765 5.52511 91.95926
#
# Poissons Ratio (x) = 0.12463 0.67963
# Poissons Ratio (y) = 1.45106 0.14207
# Poissons Ratio (z) = 0.47542 0.00854
#
# Static dielectric constant tensor:
#      x y z
#    x 1.595660 0.000000 0.000000 
#    y 0.000000 1.621950 0.000000 
#    z 0.000000 0.000000 1.619300 
# 
# From -- ./inp_files/21429.got.cif
#   From: 2010.05.17/outbox.cif.g08.bks.cpg/sg38_11_cif.got.tgz:21429.got - 2010.06.03 18:07:57.
