data_PCOD9356545
_publ_section_title
;
Structure prediction by ZEFSAII (Michael W. Deem and Ramdas Pophale) SiO2 
 PCOD9356545
Probable space group: A M M 2
;
_chemical_formula_sum "Si O2"
_cell_formula_units_Z 64
_cell_length_a 8.978232
_cell_length_b 14.048442
_cell_length_c 35.312414
_cell_angle_alpha 90.000000
_cell_angle_beta 90.000000
_cell_angle_gamma 90.000000
_cell_volume 4453.960834
_symmetry_space_group_name_H-M "A M M 2"
_symmetry_group_IT_number 38
_symmetry_cell_setting 'orthorhombic'
loop_
_space_group_symop_operation_xyz
x,y,z
-x,-y,z
-x,y,z
x,-y,z
x,1/2+y,1/2+z
-x,1/2-y,1/2+z
-x,1/2+y,1/2+z
x,1/2-y,1/2+z
loop_
_atom_site_type_symbol
_atom_site_label
_atom_site_fract_x
_atom_site_fract_y
_atom_site_fract_z
Si Si1 0.170828 0.884333 0.668430
Si Si2 0.180318 0.393746 0.942113
Si Si3 0.821510 0.612042 0.323807
Si Si4 0.678172 0.110494 0.976968
Si Si5 0.322286 0.387367 0.089673
Si Si6 0.327914 0.884109 0.745533
Si Si7 0.180558 0.797803 0.903384
Si Si8 0.178961 0.215770 0.518688
O O1 0.263800 0.858439 0.631197
O O2 0.241880 0.851483 0.707965
O O3 0.000000 0.853414 0.664925
O O4 0.171449 0.000000 0.669689
O O5 0.237849 0.500000 0.935240
O O6 0.224384 0.310892 0.912955
O O7 0.000000 0.397718 0.940866
O O8 0.219027 0.355473 0.983962
O O9 0.786027 0.500000 0.329270
O O10 0.745269 0.645789 0.285126
O O11 0.777443 0.668181 0.361580
O O12 0.000000 0.619219 0.319416
O O13 0.500000 0.124290 0.976410
O O14 0.745910 0.138227 0.936037
O O15 0.709368 0.000000 0.985185
O O16 0.752291 0.183023 0.006671
O O17 0.500000 0.377280 0.087702
O O18 0.286288 0.500000 0.084452
O O19 0.244029 0.326552 0.057135
O O20 0.500000 0.856343 0.743646
O O21 0.321605 0.000000 0.745411
O O22 0.000000 0.805634 0.906886
O O23 0.000000 0.222202 0.520340
#
# Coordination Sequence:
#
# PCOD9356545 Si02
#       8
#     8   8   8   8   8   8   8   8
#     4   9  16  26  40  57  79 109 142 171 201 242
#     4   8  14  25  41  60  81 105 135 172 210 244
#     4   9  16  25  37  54  78 107 138 171 204 242
#     4  10  20  32  45  61  83 110 139 175 219 261
#     4  10  19  29  42  62  89 117 143 174 210 247
#     4   9  16  25  37  54  77 105 136 168 204 246
#     4   9  17  28  43  62  82 108 142 176 209 249
#     4  10  19  30  45  63  83 110 145 180 211 249
#
# _framework density 14.369232999999999
#
# number of rings (size 3 to 8) (size 9 to 14) (size 15 to 20)
#    0.000    2.750    0.000    3.375    0.000    6.250 
#    0.000    1.250    0.000    3.375    0.000    0.000 
#    0.000    1.000    0.000    5.000    0.000    3.375 
#
# Total GULP energy -178275.711559 kJ/mol
# GULP energy per Si atom -5571.115986 kJ/mol
# Density = 1.433653 g / cm^3
# Si number density = 14.369233 Si / 1000 Ang^3
#
#
#
# Elastic Constant Matrix: (Units=GPa)
#
#
# Indices 1 2 3 4 5 6 
#
# 1 56.6603 37.0884 53.9751 0.0000 0.0000 0.0000
# 2 37.0884 75.3421 55.4185 0.0000 0.0000 0.0000
# 3 53.9751 55.4185 138.8299 0.0000 0.0000 0.0000
# 4 0.0000 0.0000 0.0000 19.4844 0.0000 0.0000
# 5 0.0000 0.0000 0.0000 0.0000 17.8492 0.0000
# 6 0.0000 0.0000 0.0000 0.0000 0.0000 14.0163
#
#
#
# Elastic Compliance Matrix: (Units=1/GPa)
#
#
# Indices 1 2 3 4 5 6 
#
# 1 0.032117 -0.009379 -0.008742 0.000000 0.000000 0.000000
# 2 -0.009379 0.021529 -0.004947 0.000000 0.000000 0.000000
# 3 -0.008742 -0.004947 0.012577 0.000000 0.000000 0.000000
# 4 0.000000 0.000000 0.000000 0.051323 0.000000 0.000000
# 5 0.000000 0.000000 0.000000 0.000000 0.056025 0.000000
# 6 0.000000 0.000000 0.000000 0.000000 0.000000 0.071345
#
#
# Mechanical properties :
#
#
# Convention : Reuss Voigt Hill
#
# Bulk Modulus (GPa) = 49.79052 62.64400 56.21726
# Shear Modulus (GPa) = 16.79265 18.56001 17.67633
#
# Velocity S-wave (km/s) = 3.42227 3.59785 3.51116
# Velocity P-wave (km/s) = 7.09520 7.80704 7.45962
#
# Compressibility (1/GPa) = 0.02008414
#
# Stress axis : x y z
#
# Youngs Moduli (GPa) = 31.13649 46.44873 79.51069
#
# Poissons Ratio (x) = 0.43566 0.69511
# Poissons Ratio (y) = 0.29204 0.39338
# Poissons Ratio (z) = 0.27221 0.22980
#
# Static dielectric constant tensor:
#      x y z
#    x 1.478660 0.000000 0.000000 
#    y 0.000000 1.460530 0.000000 
#    z 0.000000 0.000000 1.462590 
# 
# From -- ./inp_files/24816.got.cif
#   From: 2010.05.17/outbox.cif.g08.bks.cpg/sg38_13_cif.got.tgz:24816.got - 2010.06.03 18:07:57.
