data_PCOD9356561
_publ_section_title
;
Structure prediction by ZEFSAII (Michael W. Deem and Ramdas Pophale) SiO2 
 PCOD9356561
Probable space group: A M M 2
;
_chemical_formula_sum "Si O2"
_cell_formula_units_Z 58
_cell_length_a 15.669101
_cell_length_b 7.414835
_cell_length_c 25.854598
_cell_angle_alpha 90.000000
_cell_angle_beta 90.000000
_cell_angle_gamma 90.000000
_cell_volume 3003.885405
_symmetry_space_group_name_H-M "A M M 2"
_symmetry_group_IT_number 38
_symmetry_cell_setting 'orthorhombic'
loop_
_space_group_symop_operation_xyz
x,y,z
-x,-y,z
-x,y,z
x,-y,z
x,1/2+y,1/2+z
-x,1/2-y,1/2+z
-x,1/2+y,1/2+z
x,1/2-y,1/2+z
loop_
_atom_site_type_symbol
_atom_site_label
_atom_site_fract_x
_atom_site_fract_y
_atom_site_fract_z
Si Si1 0.000000 0.000000 0.831100
Si Si2 0.875949 0.205614 0.371769
Si Si3 0.402350 0.780133 0.735849
Si Si4 0.094816 0.280987 0.991448
Si Si5 0.722880 0.779457 0.527417
Si Si6 0.594632 0.217096 0.438350
Si Si7 0.309792 0.788802 0.836672
Si Si8 0.597826 0.719770 0.118310
O O1 0.926162 0.157987 0.835648
O O2 0.892094 0.266833 0.431067
O O3 0.776056 0.205901 0.359205
O O4 0.905739 0.000000 0.367720
O O5 0.500000 0.726657 0.746674
O O6 0.341205 0.716785 0.781524
O O7 0.382041 0.725002 0.677156
O O8 0.400835 0.000000 0.736413
O O9 0.094636 0.500000 0.993500
O O10 0.000000 0.220168 0.007815
O O11 0.178811 0.220385 0.022414
O O12 0.668578 0.721172 0.477238
O O13 0.668434 0.721594 0.577184
O O14 0.724091 0.000000 0.527514
O O15 0.500000 0.280530 0.453019
O O16 0.617531 0.266890 0.379920
O O17 0.594100 0.000000 0.441598
O O18 0.292601 0.000000 0.830479
O O19 0.500000 0.774998 0.105882
O O20 0.597098 0.500000 0.117276
#
# Coordination Sequence:
#
# PCOD9356561 Si02
#       8
#     2   8   8   8   8   8   8   8
#     4  12  22  36  56  82 102 144 186 220 268 326
#     4  11  21  35  53  77 111 141 174 222 270 322
#     4   8  15  27  43  65  96 135 180 228 267 305
#     4   9  16  27  44  66  96 136 169 210 265 317
#     4   9  15  24  41  66  95 129 167 216 270 325
#     4  10  19  29  43  67 102 138 172 215 269 329
#     4  11  20  31  47  71 101 140 179 218 266 323
#     4   8  13  23  40  64  93 129 172 220 271 316
#
# _framework density 19.308326000000001
#
# number of rings (size 3 to 8) (size 9 to 14) (size 15 to 20)
#    0.000    2.483    2.759    2.276    0.000    2.483 
#    0.000    0.000    0.000    0.000    1.793    1.931 
#    0.000    2.207    0.000    0.276    0.000    0.276 
#
# Total GULP energy -161579.268190 kJ/mol
# GULP energy per Si atom -5571.698903 kJ/mol
# Density = 1.926438 g / cm^3
# Si number density = 19.308326 Si / 1000 Ang^3
#
#
#
# Elastic Constant Matrix: (Units=GPa)
#
#
# Indices 1 2 3 4 5 6 
#
# 1 163.8483 7.1222 70.8208 0.0000 0.0000 0.0000
# 2 7.1222 74.8309 0.2443 0.0000 0.0000 0.0000
# 3 70.8208 0.2443 95.8818 0.0000 0.0000 0.0000
# 4 0.0000 0.0000 0.0000 3.2992 0.0000 0.0000
# 5 0.0000 0.0000 0.0000 0.0000 29.9681 0.0000
# 6 0.0000 0.0000 0.0000 0.0000 0.0000 9.2830
#
#
#
# Elastic Compliance Matrix: (Units=1/GPa)
#
#
# Indices 1 2 3 4 5 6 
#
# 1 0.009018 -0.000837 -0.006658 0.000000 0.000000 0.000000
# 2 -0.000837 0.013441 0.000584 0.000000 0.000000 0.000000
# 3 -0.006658 0.000584 0.015346 0.000000 0.000000 0.000000
# 4 0.000000 0.000000 0.000000 0.303104 0.000000 0.000000
# 5 0.000000 0.000000 0.000000 0.000000 0.033369 0.000000
# 6 0.000000 0.000000 0.000000 0.000000 0.000000 0.107724
#
#
# Mechanical properties :
#
#
# Convention : Reuss Voigt Hill
#
# Bulk Modulus (GPa) = 41.69770 54.54839 48.12304
# Shear Modulus (GPa) = 9.92421 25.60165 17.76293
#
# Velocity S-wave (km/s) = 2.26959 3.64529 3.03638
# Velocity P-wave (km/s) = 5.33953 6.78455 6.10495
#
# Compressibility (1/GPa) = 0.02398214
#
# Stress axis : x y z
#
# Youngs Moduli (GPa) = 110.89430 74.39826 65.16291
#
# Poissons Ratio (x) = 0.06224 0.43389
# Poissons Ratio (y) = 0.09277 -0.03803
# Poissons Ratio (z) = 0.73839 -0.04342
#
# Static dielectric constant tensor:
#      x y z
#    x 1.657270 0.000000 0.000000 
#    y 0.000000 1.768440 0.000000 
#    z 0.000000 0.000000 1.649410 
# 
# From -- ./inp_files/22847.got.cif
#   From: 2010.05.17/outbox.cif.g08.bks.cpg/sg38_12_cif.got.tgz:22847.got - 2010.06.03 18:07:57.
