data_PCOD9356190
_publ_section_title
;
Structure prediction by ZEFSAII (Michael W. Deem and Ramdas Pophale) SiO2 
 PCOD9356190
Probable space group: A M M 2
;
_chemical_formula_sum "Si O2"
_cell_formula_units_Z 48
_cell_length_a 16.927742
_cell_length_b 8.505228
_cell_length_c 18.897034
_cell_angle_alpha 90.000000
_cell_angle_beta 90.000000
_cell_angle_gamma 90.000000
_cell_volume 2720.687341
_symmetry_space_group_name_H-M "A M M 2"
_symmetry_group_IT_number 38
_symmetry_cell_setting 'orthorhombic'
loop_
_space_group_symop_operation_xyz
x,y,z
-x,-y,z
-x,y,z
x,-y,z
x,1/2+y,1/2+z
-x,1/2-y,1/2+z
-x,1/2+y,1/2+z
x,1/2-y,1/2+z
loop_
_atom_site_type_symbol
_atom_site_label
_atom_site_fract_x
_atom_site_fract_y
_atom_site_fract_z
Si Si1 0.682611 0.315151 0.344350
Si Si2 0.834438 0.815297 0.422661
Si Si3 0.588320 0.810716 0.464894
Si Si4 0.258482 0.309698 0.055577
Si Si5 0.911692 0.686859 0.290737
Si Si6 0.756755 0.314297 0.713459
O O1 0.698904 0.500000 0.353089
O O2 0.751820 0.214033 0.381680
O O3 0.606144 0.267381 0.388877
O O4 0.691097 0.270842 0.262421
O O5 0.812790 0.763470 0.502113
O O6 0.896393 0.725931 0.373487
O O7 0.853145 0.000000 0.422806
O O8 0.500000 0.771145 0.489358
O O9 0.658458 0.762794 0.518501
O O10 0.593383 0.000000 0.457153
O O11 0.257737 0.500000 0.059656
O O12 0.249409 0.238928 0.132718
O O13 0.905091 0.500000 0.281002
O O14 0.842170 0.766308 0.245621
O O15 0.000000 0.737883 0.270820
O O16 0.746948 0.500000 0.719886
#
# Coordination Sequence:
#
# PCOD9356190 Si02
#       6
#     8   8   8   8   8   8
#     4  10  18  30  50  73  99 130 165 204 244 293
#     4   9  17  31  52  74  97 128 165 202 242 294
#     4   9  18  34  55  77 102 132 167 209 255 302
#     4   9  18  33  52  75 103 135 168 204 251 303
#     4  10  20  34  53  76 102 131 165 210 259 303
#     4  11  21  33  52  75 101 136 174 211 251 298
#
# _framework density 17.642600000000002
#
# number of rings (size 3 to 8) (size 9 to 14) (size 15 to 20)
#    0.000    2.333    0.000    7.000    0.000    5.000 
#    0.000    1.667    0.000    4.000    0.000    0.000 
#    0.000    0.000    0.000    0.000    0.000    0.000 
#
# Total GULP energy -133730.588589 kJ/mol
# GULP energy per Si atom -5572.107858 kJ/mol
# Density = 1.760245 g / cm^3
# Si number density = 17.642600 Si / 1000 Ang^3
#
#
#
# Elastic Constant Matrix: (Units=GPa)
#
#
# Indices 1 2 3 4 5 6 
#
# 1 75.3560 16.5208 34.1463 0.0000 0.0000 0.0000
# 2 16.5208 26.7193 19.7150 0.0000 0.0000 0.0000
# 3 34.1463 19.7150 126.3128 0.0000 0.0000 0.0000
# 4 0.0000 0.0000 0.0000 30.6290 0.0000 0.0000
# 5 0.0000 0.0000 0.0000 0.0000 17.2997 0.0000
# 6 0.0000 0.0000 0.0000 0.0000 0.0000 16.9035
#
#
#
# Elastic Compliance Matrix: (Units=1/GPa)
#
#
# Indices 1 2 3 4 5 6 
#
# 1 0.016440 -0.007782 -0.003230 0.000000 0.000000 0.000000
# 2 -0.007782 0.045981 -0.005073 0.000000 0.000000 0.000000
# 3 -0.003230 -0.005073 0.009582 0.000000 0.000000 0.000000
# 4 0.000000 0.000000 0.000000 0.032649 0.000000 0.000000
# 5 0.000000 0.000000 0.000000 0.000000 0.057804 0.000000
# 6 0.000000 0.000000 0.000000 0.000000 0.000000 0.059159
#
#
# Mechanical properties :
#
#
# Convention : Reuss Voigt Hill
#
# Bulk Modulus (GPa) = 25.10456 41.01691 33.06074
# Shear Modulus (GPa) = 18.72225 23.50019 21.11122
#
# Velocity S-wave (km/s) = 3.26113 3.65364 3.46295
# Velocity P-wave (km/s) = 5.33295 6.41077 5.89654
#
# Compressibility (1/GPa) = 0.03983340
#
# Stress axis : x y z
#
# Youngs Moduli (GPa) = 60.82768 21.74812 104.36549
#
# Poissons Ratio (x) = 0.16924 0.33706
# Poissons Ratio (y) = 0.47336 0.52945
# Poissons Ratio (z) = 0.19645 0.11033
#
# Static dielectric constant tensor:
#      x y z
#    x 1.626890 0.000000 0.000000 
#    y 0.000000 1.592760 0.000000 
#    z 0.000000 0.000000 1.620750 
# 
# From -- ./inp_files/18167.got.cif
#   From: 2010.05.17/outbox.cif.g08.bks.cpg/sg38_10_cif.got.tgz:18167.got - 2010.06.03 18:07:57.
