data_PCOD9356953
_publ_section_title
;
Structure prediction by ZEFSAII (Michael W. Deem and Ramdas Pophale) SiO2 
 PCOD9356953
Probable space group: A M M 2
;
_chemical_formula_sum "Si O2"
_cell_formula_units_Z 64
_cell_length_a 18.562501
_cell_length_b 8.395244
_cell_length_c 21.424327
_cell_angle_alpha 90.000000
_cell_angle_beta 90.000000
_cell_angle_gamma 90.000000
_cell_volume 3338.696958
_symmetry_space_group_name_H-M "A M M 2"
_symmetry_group_IT_number 38
_symmetry_cell_setting 'orthorhombic'
loop_
_space_group_symop_operation_xyz
x,y,z
-x,-y,z
-x,y,z
x,-y,z
x,1/2+y,1/2+z
-x,1/2-y,1/2+z
-x,1/2+y,1/2+z
x,1/2-y,1/2+z
loop_
_atom_site_type_symbol
_atom_site_label
_atom_site_fract_x
_atom_site_fract_y
_atom_site_fract_z
Si Si1 0.817283 0.310093 0.320000
Si Si2 0.147246 0.810422 0.052333
Si Si3 0.319501 0.192411 0.176778
Si Si4 0.345485 0.188292 0.311441
Si Si5 0.419273 0.809136 0.932904
Si Si6 0.156983 0.313072 0.185244
Si Si7 0.314167 0.306993 0.540158
Si Si8 0.081288 0.310642 0.927792
O O1 0.805523 0.500000 0.315695
O O2 0.738968 0.228609 0.321728
O O3 0.859264 0.259831 0.256293
O O4 0.862380 0.270396 0.381214
O O5 0.126197 0.770716 0.123669
O O6 0.230528 0.755675 0.041303
O O7 0.145034 0.000000 0.044243
O O8 0.099766 0.730632 0.999172
O O9 0.362248 0.233324 0.239489
O O10 0.242716 0.279222 0.181540
O O11 0.348230 0.230361 0.107951
O O12 0.306286 0.000000 0.178624
O O13 0.392079 0.273443 0.363605
O O14 0.355812 0.000000 0.318088
O O15 0.500000 0.747009 0.943022
O O16 0.421415 0.000000 0.940797
O O17 0.361380 0.745511 0.982972
O O18 0.141864 0.500000 0.179927
O O19 0.311600 0.500000 0.535594
O O20 0.086018 0.500000 0.919209
O O21 0.000000 0.257697 0.913529
#
# Coordination Sequence:
#
# PCOD9356953 Si02
#       8
#     8   8   8   8   8   8   8   8
#     4  10  20  35  57  82 107 138 176 216 261 317
#     4  10  19  33  56  80 104 137 176 218 262 315
#     4   8  15  29  49  73  99 128 166 212 259 307
#     4  10  19  32  53  78 104 134 168 212 263 312
#     4  10  20  33  49  70 100 138 176 215 260 312
#     4   9  17  30  51  80 109 134 166 213 264 311
#     4   8  15  30  51  74  97 124 165 211 251 296
#     4  11  24  39  54  76 108 142 177 220 266 311
#
# _framework density 19.169155
#
# number of rings (size 3 to 8) (size 9 to 14) (size 15 to 20)
#    0.000    2.500    0.000    3.375    0.000    4.250 
#    0.000    3.750    0.000    3.000    0.000    0.000 
#    0.000    0.000    0.000    0.000    0.000    0.000 
#
# Total GULP energy -178371.298379 kJ/mol
# GULP energy per Si atom -5574.103074 kJ/mol
# Density = 1.912553 g / cm^3
# Si number density = 19.169155 Si / 1000 Ang^3
#
#
#
# Elastic Constant Matrix: (Units=GPa)
#
#
# Indices 1 2 3 4 5 6 
#
# 1 18.0824 -0.7964 -7.7949 0.0000 0.0000 0.0000
# 2 -0.7964 8.7734 -3.4661 0.0000 0.0000 0.0000
# 3 -7.7949 -3.4661 53.9233 0.0000 0.0000 0.0000
# 4 0.0000 0.0000 0.0000 25.6255 0.0000 0.0000
# 5 0.0000 0.0000 0.0000 0.0000 -2.4112 0.0000
# 6 0.0000 0.0000 0.0000 0.0000 0.0000 13.7112
#
#
#
# Elastic Compliance Matrix: (Units=1/GPa)
#
#
# Indices 1 2 3 4 5 6 
#
# 1 0.059670 0.009054 0.009208 0.000000 0.000000 0.000000
# 2 0.009054 0.118325 0.008914 0.000000 0.000000 0.000000
# 3 0.009208 0.008914 0.020449 0.000000 0.000000 0.000000
# 4 0.000000 0.000000 0.000000 0.039024 0.000000 0.000000
# 5 0.000000 0.000000 0.000000 0.000000 -0.414727 0.000000
# 6 0.000000 0.000000 0.000000 0.000000 0.000000 0.072933
#
#
# Mechanical properties :
#
#
# Convention : Reuss Voigt Hill
#
# Bulk Modulus (GPa) = 3.95574 6.29605 5.12590
# Shear Modulus (GPa) = -67.19261 13.57418 -26.80921
#
# Velocity S-wave (km/s) = -5.92693 2.66395 -3.74379
# Velocity P-wave (km/s) = 6.69104 3.57124 4.00101
#
# Compressibility (1/GPa) = 0.25279691
#
# Stress axis : x y z
#
# Youngs Moduli (GPa) = 16.75872 8.45129 48.90251
#
# Poissons Ratio (x) = -0.07652 -0.45028
# Poissons Ratio (y) = -0.15174 -0.43594
# Poissons Ratio (z) = -0.15431 -0.07534
#
# Static dielectric constant tensor:
#      x y z
#    x 1.644100 0.000000 0.000000 
#    y 0.000000 1.659560 0.000000 
#    z 0.000000 0.000000 1.706890 
# 
# From -- ./inp_files/21392.got.cif
#   From: 2010.05.17/outbox.cif.g08.bks.cpg/sg38_11_cif.got.tgz:21392.got - 2010.06.03 18:07:57.
