data_PCOD9356554
_publ_section_title
;
Structure prediction by ZEFSAII (Michael W. Deem and Ramdas Pophale) SiO2 
 PCOD9356554
Probable space group: A M M 2
;
_chemical_formula_sum "Si O2"
_cell_formula_units_Z 48
_cell_length_a 7.980165
_cell_length_b 14.446153
_cell_length_c 18.375938
_cell_angle_alpha 90.000000
_cell_angle_beta 90.000000
_cell_angle_gamma 90.000000
_cell_volume 2118.427464
_symmetry_space_group_name_H-M "A M M 2"
_symmetry_group_IT_number 38
_symmetry_cell_setting 'orthorhombic'
loop_
_space_group_symop_operation_xyz
x,y,z
-x,-y,z
-x,y,z
x,-y,z
x,1/2+y,1/2+z
-x,1/2-y,1/2+z
-x,1/2+y,1/2+z
x,1/2-y,1/2+z
loop_
_atom_site_type_symbol
_atom_site_label
_atom_site_fract_x
_atom_site_fract_y
_atom_site_fract_z
Si Si1 0.697566 0.801707 0.701770
Si Si2 0.807999 0.140434 0.008481
Si Si3 0.199968 0.695435 0.356757
Si Si4 0.205676 0.901250 0.392090
Si Si5 0.810175 0.357576 0.049315
Si Si6 0.303907 0.098325 0.164283
O O1 0.500000 0.792399 0.709320
O O2 0.765318 0.842027 0.776819
O O3 0.729747 0.859450 0.628536
O O4 0.770484 0.696650 0.690612
O O5 0.736929 0.137647 0.926548
O O6 0.000000 0.105823 0.010435
O O7 0.814479 0.249748 0.026349
O O8 0.709452 0.100259 0.076467
O O9 0.262537 0.802829 0.359549
O O10 0.000000 0.699326 0.367824
O O11 0.262768 0.901794 0.476518
O O12 0.000000 0.899043 0.391859
O O13 0.257581 0.000000 0.358749
O O14 0.000000 0.390814 0.057332
O O15 0.500000 0.098124 0.183976
O O16 0.227305 0.000000 0.188606
#
# Coordination Sequence:
#
# PCOD9356554 Si02
#       6
#     8   8   8   8   8   8
#     4  10  19  29  43  64  90 119 149 178 210 255
#     4   8  15  28  45  64  84 110 147 185 216 250
#     4   9  17  29  45  66  92 117 142 177 217 255
#     4   8  14  26  46  70  91 112 141 177 217 260
#     4   8  14  27  46  64  84 112 146 182 216 251
#     4   9  18  31  45  63  89 118 145 177 218 259
#
# _framework density 22.658315000000002
#
# number of rings (size 3 to 8) (size 9 to 14) (size 15 to 20)
#    0.000    3.333    0.000    2.500    0.000    2.333 
#    0.000    2.500    0.000    2.500    0.000    2.333 
#    0.000    0.000    0.000    0.000    0.000    0.000 
#
# Total GULP energy -133666.134758 kJ/mol
# GULP energy per Si atom -5569.422282 kJ/mol
# Density = 2.260674 g / cm^3
# Si number density = 22.658315 Si / 1000 Ang^3
#
#
#
# Elastic Constant Matrix: (Units=GPa)
#
#
# Indices 1 2 3 4 5 6 
#
# 1 17.8743 -3.8864 -2.3958 0.0000 0.0000 0.0000
# 2 -3.8864 38.3514 -9.9700 0.0000 0.0000 0.0000
# 3 -2.3958 -9.9700 151.0900 0.0000 0.0000 0.0000
# 4 0.0000 0.0000 0.0000 -2.3153 0.0000 0.0000
# 5 0.0000 0.0000 0.0000 0.0000 44.4423 0.0000
# 6 0.0000 0.0000 0.0000 0.0000 0.0000 -2.3348
#
#
#
# Elastic Compliance Matrix: (Units=1/GPa)
#
#
# Indices 1 2 3 4 5 6 
#
# 1 0.057463 0.006166 0.001318 0.000000 0.000000 0.000000
# 2 0.006166 0.027191 0.001892 0.000000 0.000000 0.000000
# 3 0.001318 0.001892 0.006764 0.000000 0.000000 0.000000
# 4 0.000000 0.000000 0.000000 -0.431908 0.000000 0.000000
# 5 0.000000 0.000000 0.000000 0.000000 0.022501 0.000000
# 6 0.000000 0.000000 0.000000 0.000000 0.000000 -0.428301
#
#
# Mechanical properties :
#
#
# Convention : Reuss Voigt Hill
#
# Bulk Modulus (GPa) = 9.07682 19.42349 14.25015
# Shear Modulus (GPa) = -6.86514 22.86296 7.99891
#
# Velocity S-wave (km/s) = -1.74254 3.17997 1.88093
# Velocity P-wave (km/s) = 0.18419 4.69829 3.31964
#
# Compressibility (1/GPa) = 0.11017074
#
# Stress axis : x y z
#
# Youngs Moduli (GPa) = 17.40239 36.77638 147.83450
#
# Poissons Ratio (x) = -0.22675 -0.19485
# Poissons Ratio (y) = -0.10730 -0.27971
# Poissons Ratio (z) = -0.02294 -0.06958
#
# Static dielectric constant tensor:
#      x y z
#    x 1.799460 0.000000 0.000000 
#    y 0.000000 1.910150 0.000000 
#    z 0.000000 0.000000 1.879990 
# 
# From -- ./inp_files/12041.got.cif
#   From: 2010.05.17/outbox.cif.g08.bks.cpg/sg38_7_cif.got.tgz:12041.got - 2010.06.03 18:07:57.
