data_PCOD9356233
_publ_section_title
;
Structure prediction by ZEFSAII (Michael W. Deem and Ramdas Pophale) SiO2 
 PCOD9356233
Probable space group: A M M 2
;
_chemical_formula_sum "Si O2"
_cell_formula_units_Z 56
_cell_length_a 15.841737
_cell_length_b 8.594641
_cell_length_c 20.584025
_cell_angle_alpha 90.000000
_cell_angle_beta 90.000000
_cell_angle_gamma 90.000000
_cell_volume 2802.598211
_symmetry_space_group_name_H-M "A M M 2"
_symmetry_group_IT_number 38
_symmetry_cell_setting 'orthorhombic'
loop_
_space_group_symop_operation_xyz
x,y,z
-x,-y,z
-x,y,z
x,-y,z
x,1/2+y,1/2+z
-x,1/2-y,1/2+z
-x,1/2+y,1/2+z
x,1/2-y,1/2+z
loop_
_atom_site_type_symbol
_atom_site_label
_atom_site_fract_x
_atom_site_fract_y
_atom_site_fract_z
Si Si1 0.589494 0.312873 0.033290
Si Si2 0.228307 0.684217 0.362924
Si Si3 0.093817 0.186772 0.262579
Si Si4 0.637778 0.183777 0.679601
Si Si5 0.223501 0.813398 0.499761
Si Si6 0.816256 0.314769 0.634842
Si Si7 0.406204 0.815244 0.317111
O O1 0.500000 0.251756 0.007508
O O2 0.589838 0.500000 0.022998
O O3 0.592693 0.287758 0.110875
O O4 0.678745 0.255625 0.006427
O O5 0.227711 0.500000 0.367952
O O6 0.167808 0.737739 0.304579
O O7 0.194553 0.759200 0.429475
O O8 0.324264 0.740026 0.349943
O O9 0.110024 0.216838 0.186240
O O10 0.000000 0.238751 0.281638
O O11 0.099302 0.000000 0.271471
O O12 0.733872 0.231669 0.664901
O O13 0.602803 0.277688 0.740481
O O14 0.632159 0.000000 0.694396
O O15 0.174305 0.746191 0.561704
O O16 0.223332 0.000000 0.504274
O O17 0.801310 0.500000 0.633209
O O18 0.500000 0.762322 0.338291
O O19 0.401306 0.000000 0.327927
#
# Coordination Sequence:
#
# PCOD9356233 Si02
#       7
#     8   8   8   8   8   8   8
#     4   8  15  28  48  76 109 148 197 248 297 351
#     4  12  25  41  62  89 125 166 210 259 310 370
#     4  10  22  42  69  97 125 159 199 249 312 376
#     4  10  18  30  52  82 117 156 198 250 307 360
#     4  10  21  37  59  84 118 163 208 252 305 364
#     4  10  19  35  61  90 121 155 197 248 305 368
#     4  11  23  37  55  82 119 165 213 259 309 365
#
# _framework density 19.981456999999999
#
# number of rings (size 3 to 8) (size 9 to 14) (size 15 to 20)
#    0.000    1.857    1.429    4.286    0.000    3.143 
#    0.000    2.143    0.000   10.714    0.000    0.000 
#    0.000    0.000    0.000    0.000    0.000    0.000 
#
# Total GULP energy -156331.446274 kJ/mol
# GULP energy per Si atom -5583.265938 kJ/mol
# Density = 1.993598 g / cm^3
# Si number density = 19.981457 Si / 1000 Ang^3
#
#
#
# Elastic Constant Matrix: (Units=GPa)
#
#
# Indices 1 2 3 4 5 6 
#
# 1 68.6105 21.6052 20.5629 0.0000 0.0000 0.0000
# 2 21.6052 35.2803 18.1438 0.0000 0.0000 0.0000
# 3 20.5629 18.1438 100.7100 0.0000 0.0000 0.0000
# 4 0.0000 0.0000 0.0000 29.3633 0.0000 0.0000
# 5 0.0000 0.0000 0.0000 0.0000 8.3172 0.0000
# 6 0.0000 0.0000 0.0000 0.0000 0.0000 9.5394
#
#
#
# Elastic Compliance Matrix: (Units=1/GPa)
#
#
# Indices 1 2 3 4 5 6 
#
# 1 0.018382 -0.010279 -0.001901 0.000000 0.000000 0.000000
# 2 -0.010279 0.036987 -0.004565 0.000000 0.000000 0.000000
# 3 -0.001901 -0.004565 0.011140 0.000000 0.000000 0.000000
# 4 0.000000 0.000000 0.000000 0.034056 0.000000 0.000000
# 5 0.000000 0.000000 0.000000 0.000000 0.120233 0.000000
# 6 0.000000 0.000000 0.000000 0.000000 0.000000 0.104828
#
#
# Mechanical properties :
#
#
# Convention : Reuss Voigt Hill
#
# Bulk Modulus (GPa) = 30.28608 36.13606 33.21107
# Shear Modulus (GPa) = 13.50907 19.06324 16.28615
#
# Velocity S-wave (km/s) = 2.60297 3.09211 2.85803
# Velocity P-wave (km/s) = 4.92179 5.55628 5.24863
#
# Compressibility (1/GPa) = 0.03301847
#
# Stress axis : x y z
#
# Youngs Moduli (GPa) = 54.40213 27.03687 89.76588
#
# Poissons Ratio (x) = 0.27791 0.17067
# Poissons Ratio (y) = 0.55919 0.40976
# Poissons Ratio (z) = 0.10344 0.12342
#
# Static dielectric constant tensor:
#      x y z
#    x 1.703260 0.000000 0.000000 
#    y 0.000000 1.669600 0.000000 
#    z 0.000000 0.000000 1.711750 
# 
# From -- ./inp_files/21078.got.cif
#   From: 2010.05.17/outbox.cif.g08.bks.cpg/sg38_11_cif.got.tgz:21078.got - 2010.06.03 18:07:57.
