data_PCOD9356014
_publ_section_title
;
Structure prediction by ZEFSAII (Michael W. Deem and Ramdas Pophale) SiO2 
 PCOD9356014
Probable space group: A M M 2
;
_chemical_formula_sum "Si O2"
_cell_formula_units_Z 56
_cell_length_a 7.914577
_cell_length_b 30.434729
_cell_length_c 14.276576
_cell_angle_alpha 90.000000
_cell_angle_beta 90.000000
_cell_angle_gamma 90.000000
_cell_volume 3438.913161
_symmetry_space_group_name_H-M "A M M 2"
_symmetry_group_IT_number 38
_symmetry_cell_setting 'orthorhombic'
loop_
_space_group_symop_operation_xyz
x,y,z
-x,-y,z
-x,y,z
x,-y,z
x,1/2+y,1/2+z
-x,1/2-y,1/2+z
-x,1/2+y,1/2+z
x,1/2-y,1/2+z
loop_
_atom_site_type_symbol
_atom_site_label
_atom_site_fract_x
_atom_site_fract_y
_atom_site_fract_z
Si Si1 0.807022 0.500000 0.336830
Si Si2 0.703256 0.405337 0.142969
Si Si3 0.203437 0.181345 0.960061
Si Si4 0.793480 0.228933 0.144901
Si Si5 0.796660 0.317026 0.040429
Si Si6 0.206573 0.230421 0.355676
Si Si7 0.693022 0.500000 0.128852
Si Si8 0.700837 0.406899 0.357529
O O1 0.693939 0.500000 0.242858
O O2 0.772416 0.454206 0.388359
O O3 0.000000 0.500000 0.304626
O O4 0.500000 0.409242 0.147537
O O5 0.744114 0.363875 0.079482
O O6 0.769915 0.452450 0.105671
O O7 0.763763 0.398733 0.250419
O O8 0.258506 0.221034 0.891227
O O9 0.256180 0.134271 0.922008
O O10 0.000000 0.182431 0.960781
O O11 0.260826 0.194741 0.064576
O O12 0.741623 0.277331 0.108878
O O13 0.735265 0.221031 0.250559
O O14 0.000000 0.228466 0.145868
O O15 0.000000 0.315928 0.039489
O O16 0.739074 0.303708 0.936055
O O17 0.000000 0.230237 0.354676
O O18 0.500000 0.500000 0.094038
O O19 0.500000 0.411060 0.354099
#
# Coordination Sequence:
#
# PCOD9356014 Si02
#       8
#     4   8   8   8   8   8   4   8
#     4  10  18  28  44  64  83 106 139 172 199 240
#     4   9  17  28  41  57  81 111 136 162 203 252
#     4   9  16  26  43  64  81 106 146 177 199 241
#     4   8  14  25  40  59  85 112 136 168 208 245
#     4   9  16  25  41  63  82 106 141 174 204 242
#     4   8  14  25  40  60  87 113 136 170 215 249
#     4   8  16  30  42  56  83 114 137 162 209 258
#     4  10  19  30  42  59  87 116 136 164 211 252
#
# _framework density 16.284215
#
# number of rings (size 3 to 8) (size 9 to 14) (size 15 to 20)
#    0.000    3.143    0.000    4.500    0.000    4.000 
#    0.000    2.857    0.000    2.571    0.000    1.000 
#    0.000    6.857    0.000    0.000    0.000    0.000 
#
# Total GULP energy -155907.391063 kJ/mol
# GULP energy per Si atom -5568.121109 kJ/mol
# Density = 1.624715 g / cm^3
# Si number density = 16.284215 Si / 1000 Ang^3
#
#
#
# Elastic Constant Matrix: (Units=GPa)
#
#
# Indices 1 2 3 4 5 6 
#
# 1 21.1798 9.7797 10.0422 0.0000 0.0000 0.0000
# 2 9.7797 168.8764 79.6343 0.0000 0.0000 0.0000
# 3 10.0422 79.6343 116.5309 0.0000 0.0000 0.0000
# 4 0.0000 0.0000 0.0000 23.9637 0.0000 0.0000
# 5 0.0000 0.0000 0.0000 0.0000 8.3390 0.0000
# 6 0.0000 0.0000 0.0000 0.0000 0.0000 25.4768
#
#
#
# Elastic Compliance Matrix: (Units=1/GPa)
#
#
# Indices 1 2 3 4 5 6 
#
# 1 0.049407 -0.001259 -0.003397 0.000000 0.000000 0.000000
# 2 -0.001259 0.008769 -0.005884 0.000000 0.000000 0.000000
# 3 -0.003397 -0.005884 0.012895 0.000000 0.000000 0.000000
# 4 0.000000 0.000000 0.000000 0.041730 0.000000 0.000000
# 5 0.000000 0.000000 0.000000 0.000000 0.119919 0.000000
# 6 0.000000 0.000000 0.000000 0.000000 0.000000 0.039251
#
#
# Mechanical properties :
#
#
# Convention : Reuss Voigt Hill
#
# Bulk Modulus (GPa) = 20.00383 56.16660 38.08522
# Shear Modulus (GPa) = 16.14384 25.36462 20.75423
#
# Velocity S-wave (km/s) = 3.15203 3.95095 3.57389
# Velocity P-wave (km/s) = 5.05549 7.44175 6.36151
#
# Compressibility (1/GPa) = 0.04999042
#
# Stress axis : x y z
#
# Youngs Moduli (GPa) = 20.24002 114.03747 77.54844
#
# Poissons Ratio (x) = 0.14360 0.26345
# Poissons Ratio (y) = 0.02549 0.45630
# Poissons Ratio (z) = 0.06876 0.67100
#
# Static dielectric constant tensor:
#      x y z
#    x 1.594000 0.000000 0.000000 
#    y 0.000000 1.563200 0.000000 
#    z 0.000000 0.000000 1.539540 
# 
# From -- ./inp_files/13003.got.cif
#   From: 2010.05.17/outbox.cif.g08.bks.cpg/sg38_7_cif.got.tgz:13003.got - 2010.06.03 18:07:57.
