data_PCOD9356881
_publ_section_title
;
Structure prediction by ZEFSAII (Michael W. Deem and Ramdas Pophale) SiO2 
 PCOD9356881
Probable space group: A M M 2
;
_chemical_formula_sum "Si O2"
_cell_formula_units_Z 40
_cell_length_a 8.055662
_cell_length_b 14.080052
_cell_length_c 19.068910
_cell_angle_alpha 90.000000
_cell_angle_beta 90.000000
_cell_angle_gamma 90.000000
_cell_volume 2162.874715
_symmetry_space_group_name_H-M "A M M 2"
_symmetry_group_IT_number 38
_symmetry_cell_setting 'orthorhombic'
loop_
_space_group_symop_operation_xyz
x,y,z
-x,-y,z
-x,y,z
x,-y,z
x,1/2+y,1/2+z
-x,1/2-y,1/2+z
-x,1/2+y,1/2+z
x,1/2-y,1/2+z
loop_
_atom_site_type_symbol
_atom_site_label
_atom_site_fract_x
_atom_site_fract_y
_atom_site_fract_z
Si Si1 0.805092 0.300063 0.462090
Si Si2 0.700600 0.890935 0.816295
Si Si3 0.697259 0.605488 0.604616
Si Si4 0.702997 0.202540 0.671685
Si Si5 0.700828 0.393348 0.026294
O O1 0.750639 0.336479 0.386466
O O2 0.720576 0.359764 0.524666
O O3 0.762517 0.189866 0.475676
O O4 0.000000 0.313756 0.470029
O O5 0.500000 0.892908 0.813513
O O6 0.759621 0.839049 0.745551
O O7 0.759117 0.000000 0.818504
O O8 0.500000 0.600450 0.617221
O O9 0.767723 0.500000 0.614909
O O10 0.762049 0.691012 0.653302
O O11 0.500000 0.203968 0.672640
O O12 0.750050 0.137022 0.605390
O O13 0.500000 0.392209 0.024162
O O14 0.757392 0.500000 0.010149
#
# Coordination Sequence:
#
# PCOD9356881 Si02
#       5
#     8   8   8   8   8
#     4  11  22  33  47  71 104 136 166 202 242 289
#     4  10  19  32  51  73  99 131 165 204 249 294
#     4   9  17  32  54  76  98 127 165 208 249 290
#     4   8  15  29  51  78 101 121 156 206 253 293
#     4   9  17  33  57  79  98 124 161 204 247 293
#
# _framework density 18.493907
#
# number of rings (size 3 to 8) (size 9 to 14) (size 15 to 20)
#    0.000    2.600    0.000    4.200    0.000    6.000 
#    0.000    5.000    0.000    8.400    0.000    0.000 
#    0.000    0.000    0.000    0.000    0.000    0.000 
#
# Total GULP energy -111557.500270 kJ/mol
# GULP energy per Si atom -5577.875013 kJ/mol
# Density = 1.845181 g / cm^3
# Si number density = 18.493907 Si / 1000 Ang^3
#
#
#
# Elastic Constant Matrix: (Units=GPa)
#
#
# Indices 1 2 3 4 5 6 
#
# 1 12.0386 3.9333 -2.5288 0.0000 0.0000 0.0000
# 2 3.9333 174.6453 88.0119 0.0000 0.0000 0.0000
# 3 -2.5288 88.0119 136.5248 0.0000 0.0000 0.0000
# 4 0.0000 0.0000 0.0000 11.9485 0.0000 0.0000
# 5 0.0000 0.0000 0.0000 0.0000 -23.7817 0.0000
# 6 0.0000 0.0000 0.0000 0.0000 0.0000 -0.4280
#
#
#
# Elastic Compliance Matrix: (Units=1/GPa)
#
#
# Indices 1 2 3 4 5 6 
#
# 1 0.085257 -0.004023 0.004173 0.000000 0.000000 0.000000
# 2 -0.004023 0.008671 -0.005664 0.000000 0.000000 0.000000
# 3 0.004173 -0.005664 0.011054 0.000000 0.000000 0.000000
# 4 0.000000 0.000000 0.000000 0.083692 0.000000 0.000000
# 5 0.000000 0.000000 0.000000 0.000000 -0.042049 0.000000
# 6 0.000000 0.000000 0.000000 0.000000 0.000000 -2.336441
#
#
# Mechanical properties :
#
#
# Convention : Reuss Voigt Hill
#
# Bulk Modulus (GPa) = 10.64372 55.78239 33.21305
# Shear Modulus (GPa) = -2.32832 13.13392 5.40280
#
# Velocity S-wave (km/s) = -1.12325 2.66780 1.71106
# Velocity P-wave (km/s) = 2.02126 6.30219 4.67991
#
# Compressibility (1/GPa) = 0.09395213
#
# Stress axis : x y z
#
# Youngs Moduli (GPa) = 11.72925 115.32650 90.46867
#
# Poissons Ratio (x) = 0.46395 -0.37749
# Poissons Ratio (y) = 0.04719 0.51245
# Poissons Ratio (z) = -0.04894 0.65325
#
# Static dielectric constant tensor:
#      x y z
#    x 1.645590 0.000000 0.000000 
#    y 0.000000 1.655610 0.000000 
#    z 0.000000 0.000000 1.602470 
# 
# From -- ./inp_files/11662.got.cif
#   From: 2010.05.17/outbox.cif.g08.bks.cpg/sg38_6_cif.got.tgz:11662.got - 2010.06.03 18:07:57.
