data_PCOD9356043
_publ_section_title
;
Structure prediction by ZEFSAII (Michael W. Deem and Ramdas Pophale) SiO2 
 PCOD9356043
Probable space group: A M M 2
;
_chemical_formula_sum "Si O2"
_cell_formula_units_Z 36
_cell_length_a 7.425377
_cell_length_b 24.295169
_cell_length_c 7.544049
_cell_angle_alpha 90.000000
_cell_angle_beta 90.000000
_cell_angle_gamma 90.000000
_cell_volume 1360.952393
_symmetry_space_group_name_H-M "A M M 2"
_symmetry_group_IT_number 38
_symmetry_cell_setting 'orthorhombic'
loop_
_space_group_symop_operation_xyz
x,y,z
-x,-y,z
-x,y,z
x,-y,z
x,1/2+y,1/2+z
-x,1/2-y,1/2+z
-x,1/2+y,1/2+z
x,1/2-y,1/2+z
loop_
_atom_site_type_symbol
_atom_site_label
_atom_site_fract_x
_atom_site_fract_y
_atom_site_fract_z
Si Si1 0.791165 0.060547 0.310160
Si Si2 0.703306 0.936004 0.908105
Si Si3 0.705975 0.665400 0.017197
Si Si4 0.000000 0.346955 0.406452
Si Si5 0.286354 0.724037 0.635186
O O1 0.696768 0.072329 0.123270
O O2 0.771842 0.105968 0.459295
O O3 0.000000 0.059975 0.256961
O O4 0.737045 0.000000 0.373051
O O5 0.500000 0.929988 0.841517
O O6 0.842261 0.891289 0.838561
O O7 0.759531 0.000000 0.881964
O O8 0.500000 0.659493 0.070489
O O9 0.717822 0.697945 0.829187
O O10 0.787211 0.712693 0.142331
O O11 0.842555 0.311455 0.512928
O O12 0.500000 0.723766 0.580002
#
# Coordination Sequence:
#
# PCOD9356043 Si02
#       5
#     8   8   8   4   8
#     4  10  18  29  49  76 107 138 177 227 275 316
#     4  10  18  28  46  74 106 138 174 221 274 319
#     4  10  20  36  52  76 110 141 181 221 267 321
#     4  12  19  30  50  70 107 142 180 212 266 324
#     4  10  22  35  52  76 107 146 182 222 263 319
#
# _framework density 26.452064
#
# number of rings (size 3 to 8) (size 9 to 14) (size 15 to 20)
#    0.000    1.778    3.333    1.667    1.556    1.333 
#    0.000    0.000    0.000    0.000    0.000    4.667 
#    0.000   19.556    0.000    0.000    0.000    0.000 
#
# Total GULP energy -100270.701644 kJ/mol
# GULP energy per Si atom -5570.594536 kJ/mol
# Density = 2.639186 g / cm^3
# Si number density = 26.452064 Si / 1000 Ang^3
#
#
#
# Elastic Constant Matrix: (Units=GPa)
#
#
# Indices 1 2 3 4 5 6 
#
# 1 91.0203 -3.8620 -23.0085 0.0000 0.0000 0.0000
# 2 -3.8620 171.9046 29.3894 0.0000 0.0000 0.0000
# 3 -23.0085 29.3894 77.2138 0.0000 0.0000 0.0000
# 4 0.0000 0.0000 0.0000 12.6598 0.0000 0.0000
# 5 0.0000 0.0000 0.0000 0.0000 -78.1374 0.0000
# 6 0.0000 0.0000 0.0000 0.0000 0.0000 -31.3508
#
#
#
# Elastic Compliance Matrix: (Units=1/GPa)
#
#
# Indices 1 2 3 4 5 6 
#
# 1 0.011903 -0.000363 0.003685 0.000000 0.000000 0.000000
# 2 -0.000363 0.006233 -0.002481 0.000000 0.000000 0.000000
# 3 0.003685 -0.002481 0.014993 0.000000 0.000000 0.000000
# 4 0.000000 0.000000 0.000000 0.078990 0.000000 0.000000
# 5 0.000000 0.000000 0.000000 0.000000 -0.012798 0.000000
# 6 0.000000 0.000000 0.000000 0.000000 0.000000 -0.031897
#
#
# Mechanical properties :
#
#
# Convention : Reuss Voigt Hill
#
# Bulk Modulus (GPa) = 28.72542 38.35297 33.53920
# Shear Modulus (GPa) = 64.64552 3.14230 33.89391
#
# Velocity S-wave (km/s) = 4.94892 1.09110 3.58345
# Velocity P-wave (km/s) = 6.59839 4.01471 5.46153
#
# Compressibility (1/GPa) = 0.03481238
#
# Stress axis : x y z
#
# Youngs Moduli (GPa) = 84.01505 160.43354 66.69690
#
# Poissons Ratio (x) = 0.05817 -0.24576
# Poissons Ratio (y) = 0.03046 0.16544
# Poissons Ratio (z) = -0.30958 0.39796
#
# Static dielectric constant tensor:
#      x y z
#    x 2.000480 0.000000 0.000000 
#    y 0.000000 2.150850 0.000000 
#    z 0.000000 0.000000 2.169990 
# 
# From -- ./inp_files/8027.got.cif
#   From: 2010.05.17/outbox.cif.g08.bks.cpg/sg38_5_cif.got.tgz:8027.got - 2010.06.03 18:07:57.
