data_PCOD9356563
_publ_section_title
;
Structure prediction by ZEFSAII (Michael W. Deem and Ramdas Pophale) SiO2 
 PCOD9356563
Probable space group: A M M 2
;
_chemical_formula_sum "Si O2"
_cell_formula_units_Z 64
_cell_length_a 21.171131
_cell_length_b 9.681431
_cell_length_c 14.226315
_cell_angle_alpha 90.000000
_cell_angle_beta 90.000000
_cell_angle_gamma 90.000000
_cell_volume 2915.922887
_symmetry_space_group_name_H-M "A M M 2"
_symmetry_group_IT_number 38
_symmetry_cell_setting 'orthorhombic'
loop_
_space_group_symop_operation_xyz
x,y,z
-x,-y,z
-x,y,z
x,-y,z
x,1/2+y,1/2+z
-x,1/2-y,1/2+z
-x,1/2+y,1/2+z
x,1/2-y,1/2+z
loop_
_atom_site_type_symbol
_atom_site_label
_atom_site_fract_x
_atom_site_fract_y
_atom_site_fract_z
Si Si1 0.567806 0.341274 0.376740
Si Si2 0.692010 0.844860 0.618834
Si Si3 0.928157 0.841129 0.589379
Si Si4 0.191563 0.158531 0.099097
Si Si5 0.072060 0.152336 0.818210
Si Si6 0.182624 0.155325 0.328937
Si Si7 0.428732 0.656274 0.602379
Si Si8 0.295741 0.155196 0.838788
O O1 0.500000 0.279604 0.348001
O O2 0.569573 0.500000 0.339701
O O3 0.567562 0.349451 0.489267
O O4 0.635154 0.277591 0.352251
O O5 0.745147 0.744646 0.576074
O O6 0.624574 0.768435 0.622197
O O7 0.711788 0.860375 0.727215
O O8 0.688765 0.000000 0.577817
O O9 0.871217 0.738312 0.565134
O O10 0.928330 0.844316 0.704108
O O11 0.000000 0.801588 0.561403
O O12 0.916440 0.000000 0.559277
O O13 0.187686 0.153606 0.214221
O O14 0.194165 0.000000 0.066849
O O15 0.116370 0.273988 0.851538
O O16 0.000000 0.165637 0.849225
O O17 0.096514 0.000000 0.845302
O O18 0.238456 0.249544 0.368192
O O19 0.187354 0.000000 0.362934
O O20 0.500000 0.689494 0.635341
O O21 0.412080 0.500000 0.634966
O O22 0.295481 0.000000 0.880885
#
# Coordination Sequence:
#
# PCOD9356563 Si02
#       8
#     8   8   8   8   8   8   8   8
#     4   8  15  30  51  70  86 110 147 185 218 256
#     4  10  19  29  44  67  93 119 147 182 223 265
#     4   8  13  21  33  50  75 108 144 181 221 263
#     4   9  16  25  37  54  80 114 149 183 218 259
#     4   8  13  21  33  49  72 106 146 182 215 255
#     4   9  16  24  35  54  82 113 143 178 220 263
#     4   9  18  33  51  68  88 115 145 179 220 265
#     4   9  17  29  46  66  88 116 149 184 219 258
#
# _framework density 21.948454999999999
#
# number of rings (size 3 to 8) (size 9 to 14) (size 15 to 20)
#    0.000    3.250    0.000    2.625    0.000    4.750 
#    0.000    4.375    0.000    1.125    0.000    0.000 
#    0.000    1.000    0.000    5.750    0.000    7.500 
#
# Total GULP energy -178498.572413 kJ/mol
# GULP energy per Si atom -5578.080388 kJ/mol
# Density = 2.189850 g / cm^3
# Si number density = 21.948455 Si / 1000 Ang^3
#
#
#
# Elastic Constant Matrix: (Units=GPa)
#
#
# Indices 1 2 3 4 5 6 
#
# 1 152.2346 115.3300 -15.6708 0.0000 0.0000 0.0000
# 2 115.3300 169.2915 1.2246 0.0000 0.0000 0.0000
# 3 -15.6708 1.2246 49.5269 0.0000 0.0000 0.0000
# 4 0.0000 0.0000 0.0000 0.0665 0.0000 0.0000
# 5 0.0000 0.0000 0.0000 0.0000 49.2656 0.0000
# 6 0.0000 0.0000 0.0000 0.0000 0.0000 8.9694
#
#
#
# Elastic Compliance Matrix: (Units=1/GPa)
#
#
# Indices 1 2 3 4 5 6 
#
# 1 0.014670 -0.010030 0.004890 0.000000 0.000000 0.000000
# 2 -0.010030 0.012765 -0.003489 0.000000 0.000000 0.000000
# 3 0.004890 -0.003489 0.021825 0.000000 0.000000 0.000000
# 4 0.000000 0.000000 0.000000 15.035092 0.000000 0.000000
# 5 0.000000 0.000000 0.000000 0.000000 0.020298 0.000000
# 6 0.000000 0.000000 0.000000 0.000000 0.000000 0.111490
#
#
# Mechanical properties :
#
#
# Convention : Reuss Voigt Hill
#
# Bulk Modulus (GPa) = 31.24793 63.64674 47.44734
# Shear Modulus (GPa) = 0.32800 29.67158 14.99979
#
# Velocity S-wave (km/s) = 0.38699 3.68077 2.61705
# Velocity P-wave (km/s) = 3.80362 6.86479 5.54946
#
# Compressibility (1/GPa) = 0.03200212
#
# Stress axis : x y z
#
# Youngs Moduli (GPa) = 68.16443 78.33985 45.82005
#
# Poissons Ratio (x) = 0.78572 -0.22405
# Poissons Ratio (y) = 0.68366 0.15987
# Poissons Ratio (z) = -0.33331 0.27334
#
# Static dielectric constant tensor:
#      x y z
#    x 1.796370 0.000000 0.000000 
#    y 0.000000 1.792100 0.000000 
#    z 0.000000 0.000000 1.852080 
# 
# From -- ./inp_files/21527.got.cif
#   From: 2010.05.17/outbox.cif.g08.bks.cpg/sg38_11_cif.got.tgz:21527.got - 2010.06.03 18:07:57.
