data_PCOD9356213
_publ_section_title
;
Structure prediction by ZEFSAII (Michael W. Deem and Ramdas Pophale) SiO2 
 PCOD9356213
Probable space group: A M M 2
;
_chemical_formula_sum "Si O2"
_cell_formula_units_Z 56
_cell_length_a 14.942562
_cell_length_b 22.416096
_cell_length_c 8.475631
_cell_angle_alpha 90.000000
_cell_angle_beta 90.000000
_cell_angle_gamma 90.000000
_cell_volume 2838.945695
_symmetry_space_group_name_H-M "A M M 2"
_symmetry_group_IT_number 38
_symmetry_cell_setting 'orthorhombic'
loop_
_space_group_symop_operation_xyz
x,y,z
-x,-y,z
-x,y,z
x,-y,z
x,1/2+y,1/2+z
-x,1/2-y,1/2+z
-x,1/2+y,1/2+z
x,1/2-y,1/2+z
loop_
_atom_site_type_symbol
_atom_site_label
_atom_site_fract_x
_atom_site_fract_y
_atom_site_fract_z
Si Si1 0.893115 0.568951 0.701920
Si Si2 0.597253 0.070736 0.943513
Si Si3 0.244049 0.841814 0.355690
Si Si4 0.193107 0.738334 0.583911
Si Si5 0.102254 0.173785 0.798011
Si Si6 0.206377 0.430903 0.358823
Si Si7 0.601665 0.068807 0.324545
O O1 0.882823 0.500000 0.758412
O O2 0.842485 0.617037 0.812398
O O3 0.843174 0.570124 0.530810
O O4 0.000000 0.580851 0.687012
O O5 0.500000 0.096033 0.894391
O O6 0.691578 0.092175 0.875384
O O7 0.595308 0.000000 0.907643
O O8 0.603179 0.074577 0.133623
O O9 0.236104 0.794085 0.494578
O O10 0.254705 0.799986 0.200099
O O11 0.325443 0.885958 0.386440
O O12 0.115284 0.770066 0.684270
O O13 0.150944 0.694930 0.456266
O O14 0.152114 0.113521 0.746952
O O15 0.000000 0.160552 0.825028
O O16 0.206533 0.500000 0.308515
O O17 0.500000 0.080500 0.376993
O O18 0.623478 0.000000 0.361775
#
# Coordination Sequence:
#
# PCOD9356213 Si02
#       7
#     8   8   8   8   8   8   8
#     4  10  19  30  50  79 106 137 177 223 276 328
#     4   8  13  23  44  77 109 134 167 211 259 312
#     4  11  20  38  55  78 112 145 180 231 271 320
#     4  10  24  36  54  76 105 147 190 220 265 320
#     4  11  21  37  55  77 105 141 181 227 269 320
#     4  10  18  30  51  79 109 139 173 219 278 332
#     4   9  16  29  56  88 110 135 176 226 277 324
#
# _framework density 19.725632999999998
#
# number of rings (size 3 to 8) (size 9 to 14) (size 15 to 20)
#    0.000    2.143    2.857    2.143    0.000    3.714 
#    0.000    2.143    0.000    4.286    0.000    2.000 
#    0.000    6.857    0.000    0.000    0.000    0.000 
#
# Total GULP energy -156108.774589 kJ/mol
# GULP energy per Si atom -5575.313378 kJ/mol
# Density = 1.968074 g / cm^3
# Si number density = 19.725633 Si / 1000 Ang^3
#
#
#
# Elastic Constant Matrix: (Units=GPa)
#
#
# Indices 1 2 3 4 5 6 
#
# 1 109.9462 62.1261 -7.2427 0.0000 0.0000 0.0000
# 2 62.1261 111.6750 18.7982 0.0000 0.0000 0.0000
# 3 -7.2427 18.7982 10.6182 0.0000 0.0000 0.0000
# 4 0.0000 0.0000 0.0000 21.8342 0.0000 0.0000
# 5 0.0000 0.0000 0.0000 0.0000 -4.0610 0.0000
# 6 0.0000 0.0000 0.0000 0.0000 0.0000 21.0852
#
#
#
# Elastic Compliance Matrix: (Units=1/GPa)
#
#
# Indices 1 2 3 4 5 6 
#
# 1 0.029982 -0.028664 0.071197 0.000000 0.000000 0.000000
# 2 -0.028664 0.040160 -0.090650 0.000000 0.000000 0.000000
# 3 0.071197 -0.090650 0.303225 0.000000 0.000000 0.000000
# 4 0.000000 0.000000 0.000000 0.045800 0.000000 0.000000
# 5 0.000000 0.000000 0.000000 0.000000 -0.246242 0.000000
# 6 0.000000 0.000000 0.000000 0.000000 0.000000 0.047427
#
#
# Mechanical properties :
#
#
# Convention : Reuss Voigt Hill
#
# Bulk Modulus (GPa) = 3.60836 42.17807 22.89321
# Shear Modulus (GPa) = 12.22605 18.34219 15.28412
#
# Velocity S-wave (km/s) = 2.49229 3.05268 2.78661
# Velocity P-wave (km/s) = 3.18045 5.81841 4.68877
#
# Compressibility (1/GPa) = 0.27713436
#
# Stress axis : x y z
#
# Youngs Moduli (GPa) = 33.35289 24.90055 3.29788
#
# Poissons Ratio (x) = 0.71375 -0.23480
# Poissons Ratio (y) = 0.95603 0.29895
# Poissons Ratio (z) = -2.37463 2.25722
#
# Static dielectric constant tensor:
#      x y z
#    x 1.702530 0.000000 0.000000 
#    y 0.000000 1.721510 0.000000 
#    z 0.000000 0.000000 1.736220 
# 
# From -- ./inp_files/5710.got.cif
#   From: 2010.05.17/outbox.cif.g08.bks.cpg/sg38_3_cif.got.tgz:5710.got - 2010.06.03 18:07:57.
