data_PCOD9356064
_publ_section_title
;
Structure prediction by ZEFSAII (Michael W. Deem and Ramdas Pophale) SiO2 
 PCOD9356064
Probable space group: A M M 2
;
_chemical_formula_sum "Si O2"
_cell_formula_units_Z 56
_cell_length_a 7.354688
_cell_length_b 19.816415
_cell_length_c 18.693587
_cell_angle_alpha 90.000000
_cell_angle_beta 90.000000
_cell_angle_gamma 90.000000
_cell_volume 2724.469724
_symmetry_space_group_name_H-M "A M M 2"
_symmetry_group_IT_number 38
_symmetry_cell_setting 'orthorhombic'
loop_
_space_group_symop_operation_xyz
x,y,z
-x,-y,z
-x,y,z
x,-y,z
x,1/2+y,1/2+z
-x,1/2-y,1/2+z
-x,1/2+y,1/2+z
x,1/2-y,1/2+z
loop_
_atom_site_type_symbol
_atom_site_label
_atom_site_fract_x
_atom_site_fract_y
_atom_site_fract_z
Si Si1 0.222691 0.922900 0.199140
Si Si2 0.218784 0.073287 0.592659
Si Si3 0.794226 0.348302 0.837532
Si Si4 0.719435 0.718639 0.246775
Si Si5 0.213305 0.203062 0.104863
Si Si6 0.223016 0.304777 0.991939
Si Si7 0.707773 0.072920 0.758909
O O1 0.283957 0.900422 0.279016
O O2 0.284965 0.865599 0.142212
O O3 0.000000 0.919760 0.200197
O O4 0.273940 0.000000 0.182967
O O5 0.277093 0.134411 0.543964
O O6 0.295242 0.074892 0.672469
O O7 0.000000 0.077128 0.600269
O O8 0.263244 0.000000 0.560780
O O9 0.796583 0.278882 0.793453
O O10 0.000000 0.372229 0.852668
O O11 0.712711 0.326720 0.913439
O O12 0.500000 0.718914 0.250871
O O13 0.768624 0.738511 0.165440
O O14 0.787554 0.646299 0.274765
O O15 0.284158 0.235572 0.030970
O O16 0.000000 0.190675 0.093691
O O17 0.000000 0.301504 0.989432
O O18 0.500000 0.072605 0.785142
O O19 0.789769 0.000000 0.779004
#
# Coordination Sequence:
#
# PCOD9356064 Si02
#       7
#     8   8   8   8   8   8   8
#     4   8  14  25  43  66  86 110 148 185 216 257
#     4   9  16  25  40  64  91 115 140 172 208 253
#     4   9  18  30  45  63  88 121 149 181 224 269
#     4  10  18  29  45  65  87 112 148 189 220 259
#     4   9  16  28  47  66  87 114 146 185 225 266
#     4   9  16  27  43  65  90 117 147 178 219 267
#     4   9  17  28  42  61  85 113 143 176 217 260
#
# _framework density 20.554459000000001
#
# number of rings (size 3 to 8) (size 9 to 14) (size 15 to 20)
#    0.000    3.000    1.429    1.286    0.000    1.143 
#    0.000    4.286    0.000    7.714    0.000    2.000 
#    0.000    0.000    0.000    0.000    0.000    0.000 
#
# Total GULP energy -155895.000171 kJ/mol
# GULP energy per Si atom -5567.678578 kJ/mol
# Density = 2.050768 g / cm^3
# Si number density = 20.554459 Si / 1000 Ang^3
#
#
#
# Elastic Constant Matrix: (Units=GPa)
#
#
# Indices 1 2 3 4 5 6 
#
# 1 74.6060 3.8559 5.3427 0.0000 0.0000 0.0000
# 2 3.8559 132.8048 11.1202 0.0000 0.0000 0.0000
# 3 5.3427 11.1202 51.3484 0.0000 0.0000 0.0000
# 4 0.0000 0.0000 0.0000 13.7525 0.0000 0.0000
# 5 0.0000 0.0000 0.0000 0.0000 2.1804 0.0000
# 6 0.0000 0.0000 0.0000 0.0000 0.0000 -3.4599
#
#
#
# Elastic Compliance Matrix: (Units=1/GPa)
#
#
# Indices 1 2 3 4 5 6 
#
# 1 0.013515 -0.000280 -0.001346 0.000000 0.000000 0.000000
# 2 -0.000280 0.007675 -0.001633 0.000000 0.000000 0.000000
# 3 -0.001346 -0.001633 0.019968 0.000000 0.000000 0.000000
# 4 0.000000 0.000000 0.000000 0.072714 0.000000 0.000000
# 5 0.000000 0.000000 0.000000 0.000000 0.458636 0.000000
# 6 0.000000 0.000000 0.000000 0.000000 0.000000 -0.289030
#
#
# Mechanical properties :
#
#
# Convention : Reuss Voigt Hill
#
# Bulk Modulus (GPa) = 28.86735 33.26629 31.06682
# Shear Modulus (GPa) = 16.58144 18.39064 17.48604
#
# Velocity S-wave (km/s) = 2.84334 2.99444 2.91987
# Velocity P-wave (km/s) = 4.98540 5.30803 5.14925
#
# Compressibility (1/GPa) = 0.03464122
#
# Stress axis : x y z
#
# Youngs Moduli (GPa) = 73.99427 130.29820 50.07901
#
# Poissons Ratio (x) = 0.03645 0.06739
# Poissons Ratio (y) = 0.02070 0.08178
# Poissons Ratio (z) = 0.09957 0.21277
#
# Static dielectric constant tensor:
#      x y z
#    x 1.766170 0.000000 0.000000 
#    y 0.000000 1.768620 0.000000 
#    z 0.000000 0.000000 1.719170 
# 
# From -- ./inp_files/17056.got.cif
#   From: 2010.05.17/outbox.cif.g08.bks.cpg/sg38_9_cif.got.tgz:17056.got - 2010.06.03 18:07:57.
