data_PCOD9356317
_publ_section_title
;
Structure prediction by ZEFSAII (Michael W. Deem and Ramdas Pophale) SiO2 
 PCOD9356317
Probable space group: A M M 2
;
_chemical_formula_sum "Si O2"
_cell_formula_units_Z 64
_cell_length_a 15.177017
_cell_length_b 8.303599
_cell_length_c 25.494254
_cell_angle_alpha 90.000000
_cell_angle_beta 90.000000
_cell_angle_gamma 90.000000
_cell_volume 3212.884378
_symmetry_space_group_name_H-M "A M M 2"
_symmetry_group_IT_number 38
_symmetry_cell_setting 'orthorhombic'
loop_
_space_group_symop_operation_xyz
x,y,z
-x,-y,z
-x,y,z
x,-y,z
x,1/2+y,1/2+z
-x,1/2-y,1/2+z
-x,1/2+y,1/2+z
x,1/2-y,1/2+z
loop_
_atom_site_type_symbol
_atom_site_label
_atom_site_fract_x
_atom_site_fract_y
_atom_site_fract_z
Si Si1 0.136046 0.687971 0.031520
Si Si2 0.719782 0.693862 0.184982
Si Si3 0.680067 0.187406 0.997746
Si Si4 0.096724 0.808986 0.147265
Si Si5 0.595808 0.192212 0.593229
Si Si6 0.095556 0.696289 0.914075
Si Si7 0.602184 0.805408 0.783067
Si Si8 0.709332 0.193432 0.384279
O O1 0.113869 0.500000 0.037106
O O2 0.108921 0.772198 0.085224
O O3 0.239926 0.710213 0.022425
O O4 0.098832 0.746601 0.975495
O O5 0.714535 0.500000 0.184708
O O6 0.821576 0.739897 0.179848
O O7 0.670510 0.752438 0.132547
O O8 0.663371 0.751593 0.234709
O O9 0.667577 0.245541 0.938688
O O10 0.704078 0.000000 0.997794
O O11 0.601871 0.221313 0.037632
O O12 0.000000 0.746326 0.162845
O O13 0.097899 0.000000 0.153972
O O14 0.500000 0.216905 0.618115
O O15 0.606027 0.000000 0.585281
O O16 0.097595 0.500000 0.914268
O O17 0.187078 0.747665 0.886689
O O18 0.000000 0.746227 0.892034
O O19 0.500000 0.749173 0.781133
O O20 0.652972 0.756035 0.835796
O O21 0.599281 0.000000 0.780668
O O22 0.709287 0.000000 0.383870
#
# Coordination Sequence:
#
# PCOD9356317 Si02
#       8
#     8   8   8   8   8   8   8   8
#     4  10  18  31  53  81 114 155 200 241 285 342
#     4  10  21  39  63  86 113 150 194 244 297 354
#     4  11  21  34  54  82 120 159 192 237 295 350
#     4  11  23  36  53  83 122 160 197 240 290 342
#     4  10  20  35  57  85 115 149 190 237 293 360
#     4   8  15  29  51  80 112 147 189 232 275 330
#     4  10  22  42  66  89 112 144 191 247 304 358
#     4  10  21  37  59  86 116 152 196 243 290 346
#
# _framework density 19.919794
#
# number of rings (size 3 to 8) (size 9 to 14) (size 15 to 20)
#    0.000    2.000    1.250    3.750    0.000    4.500 
#    0.000    0.625    0.000   12.000    0.000    0.000 
#    0.000    0.000    0.000    0.000    0.000    0.000 
#
# Total GULP energy -178523.236551 kJ/mol
# GULP energy per Si atom -5578.851142 kJ/mol
# Density = 1.987446 g / cm^3
# Si number density = 19.919794 Si / 1000 Ang^3
#
#
#
# Elastic Constant Matrix: (Units=GPa)
#
#
# Indices 1 2 3 4 5 6 
#
# 1 159.7972 16.4228 79.6079 0.0000 0.0000 0.0000
# 2 16.4228 20.1181 12.5834 0.0000 0.0000 0.0000
# 3 79.6079 12.5834 118.8839 0.0000 0.0000 0.0000
# 4 0.0000 0.0000 0.0000 23.1379 0.0000 0.0000
# 5 0.0000 0.0000 0.0000 0.0000 13.6821 0.0000
# 6 0.0000 0.0000 0.0000 0.0000 0.0000 17.3299
#
#
#
# Elastic Compliance Matrix: (Units=1/GPa)
#
#
# Indices 1 2 3 4 5 6 
#
# 1 0.009701 -0.004129 -0.006059 0.000000 0.000000 0.000000
# 2 -0.004129 0.054988 -0.003055 0.000000 0.000000 0.000000
# 3 -0.006059 -0.003055 0.012792 0.000000 0.000000 0.000000
# 4 0.000000 0.000000 0.000000 0.043219 0.000000 0.000000
# 5 0.000000 0.000000 0.000000 0.000000 0.073088 0.000000
# 6 0.000000 0.000000 0.000000 0.000000 0.000000 0.057704
#
#
# Mechanical properties :
#
#
# Convention : Reuss Voigt Hill
#
# Bulk Modulus (GPa) = 19.60993 57.33636 38.47315
# Shear Modulus (GPa) = 16.95048 23.50898 20.22973
#
# Velocity S-wave (km/s) = 2.92025 3.43910 3.19024
# Velocity P-wave (km/s) = 4.60828 6.67952 5.73813
#
# Compressibility (1/GPa) = 0.05099457
#
# Stress axis : x y z
#
# Youngs Moduli (GPa) = 103.08570 18.18568 78.17348
#
# Poissons Ratio (x) = 0.07509 0.47363
# Poissons Ratio (y) = 0.42567 0.23884
# Poissons Ratio (z) = 0.62457 0.05556
#
# Static dielectric constant tensor:
#      x y z
#    x 1.775560 0.000000 0.000000 
#    y 0.000000 1.692280 0.000000 
#    z 0.000000 0.000000 1.683940 
# 
# From -- ./inp_files/22951.got.cif
#   From: 2010.05.17/outbox.cif.g08.bks.cpg/sg38_12_cif.got.tgz:22951.got - 2010.06.03 18:07:57.
