data_PCOD9356638
_publ_section_title
;
Structure prediction by ZEFSAII (Michael W. Deem and Ramdas Pophale) SiO2 
 PCOD9356638
Probable space group: A M M 2
;
_chemical_formula_sum "Si O2"
_cell_formula_units_Z 64
_cell_length_a 21.363049
_cell_length_b 7.694252
_cell_length_c 19.418271
_cell_angle_alpha 90.000000
_cell_angle_beta 90.000000
_cell_angle_gamma 90.000000
_cell_volume 3191.833294
_symmetry_space_group_name_H-M "A M M 2"
_symmetry_group_IT_number 38
_symmetry_cell_setting 'orthorhombic'
loop_
_space_group_symop_operation_xyz
x,y,z
-x,-y,z
-x,y,z
x,-y,z
x,1/2+y,1/2+z
-x,1/2-y,1/2+z
-x,1/2+y,1/2+z
x,1/2-y,1/2+z
loop_
_atom_site_type_symbol
_atom_site_label
_atom_site_fract_x
_atom_site_fract_y
_atom_site_fract_z
Si Si1 0.567275 0.709217 0.528870
Si Si2 0.821853 0.297053 0.778451
Si Si3 0.295352 0.704650 0.189184
Si Si4 0.071437 0.289702 0.520256
Si Si5 0.189591 0.795320 0.431060
Si Si6 0.071389 0.712362 0.677429
Si Si7 0.295939 0.706222 0.031590
Si Si8 0.567479 0.790606 0.190390
O O1 0.500000 0.768660 0.499423
O O2 0.567415 0.500000 0.526872
O O3 0.634220 0.768774 0.501636
O O4 0.567404 0.761956 0.609614
O O5 0.838232 0.500000 0.788281
O O6 0.757643 0.286927 0.736143
O O7 0.813639 0.219430 0.854371
O O8 0.877578 0.222677 0.731460
O O9 0.282543 0.500000 0.186938
O O10 0.365805 0.729154 0.217723
O O11 0.293266 0.775742 0.110312
O O12 0.073229 0.500000 0.518613
O O13 0.123037 0.221737 0.468259
O O14 0.085959 0.234403 0.598861
O O15 0.000000 0.236560 0.504555
O O16 0.242783 0.720369 0.481626
O O17 0.204961 0.000000 0.423699
O O18 0.072647 0.500000 0.676982
O O19 0.000000 0.763781 0.693503
O O20 0.285922 0.500000 0.038231
O O21 0.500000 0.732235 0.219722
O O22 0.568041 0.000000 0.192619
#
# Coordination Sequence:
#
# PCOD9356638 Si02
#       8
#     8   8   8   8   8   8   8   8
#     4   8  14  25  43  69  96 120 153 197 240 283
#     4  10  20  33  50  70  94 127 164 200 235 276
#     4  10  19  30  47  70  97 128 159 196 240 285
#     4   9  18  33  53  75  97 122 154 193 237 286
#     4  10  21  34  48  70  99 129 162 199 237 280
#     4   8  15  30  52  75  95 118 155 199 237 277
#     4   9  18  31  46  68  98 128 158 194 239 289
#     4   8  14  26  45  69  96 123 153 194 241 286
#
# _framework density 20.051171
#
# number of rings (size 3 to 8) (size 9 to 14) (size 15 to 20)
#    0.000    3.000    0.000    2.625    0.000    2.750 
#    0.000    3.750    0.000    1.875    0.000    1.750 
#    0.000    0.000    0.000    0.000    0.000    0.000 
#
# Total GULP energy -178324.005317 kJ/mol
# GULP energy per Si atom -5572.625166 kJ/mol
# Density = 2.000553 g / cm^3
# Si number density = 20.051171 Si / 1000 Ang^3
#
#
#
# Elastic Constant Matrix: (Units=GPa)
#
#
# Indices 1 2 3 4 5 6 
#
# 1 137.4328 -13.8160 85.5966 0.0000 0.0000 0.0000
# 2 -13.8160 27.0046 -0.7134 0.0000 0.0000 0.0000
# 3 85.5966 -0.7134 96.4922 0.0000 0.0000 0.0000
# 4 0.0000 0.0000 0.0000 -1.1820 0.0000 0.0000
# 5 0.0000 0.0000 0.0000 0.0000 -6.1811 0.0000
# 6 0.0000 0.0000 0.0000 0.0000 0.0000 14.8829
#
#
#
# Elastic Compliance Matrix: (Units=1/GPa)
#
#
# Indices 1 2 3 4 5 6 
#
# 1 0.018161 0.008867 -0.016044 0.000000 0.000000 0.000000
# 2 0.008867 0.041368 -0.007560 0.000000 0.000000 0.000000
# 3 -0.016044 -0.007560 0.024540 0.000000 0.000000 0.000000
# 4 0.000000 0.000000 0.000000 -0.846014 0.000000 0.000000
# 5 0.000000 0.000000 0.000000 0.000000 -0.161784 0.000000
# 6 0.000000 0.000000 0.000000 0.000000 0.000000 0.067191
#
#
# Mechanical properties :
#
#
# Convention : Reuss Voigt Hill
#
# Bulk Modulus (GPa) = 18.31698 44.78488 31.55093
# Shear Modulus (GPa) = -6.18150 14.16144 3.98997
#
# Velocity S-wave (km/s) = -1.75771 2.66045 1.41217
# Velocity P-wave (km/s) = 2.24400 5.64102 4.29282
#
# Compressibility (1/GPa) = 0.05459414
#
# Stress axis : x y z
#
# Youngs Moduli (GPa) = 55.06453 24.17343 40.74932
#
# Poissons Ratio (x) = -0.21435 0.65380
# Poissons Ratio (y) = -0.48828 0.30807
# Poissons Ratio (z) = 0.88347 0.18276
#
# Static dielectric constant tensor:
#      x y z
#    x 1.726730 0.000000 0.000000 
#    y 0.000000 1.737770 0.000000 
#    z 0.000000 0.000000 1.699840 
# 
# From -- ./inp_files/18943.got.cif
#   From: 2010.05.17/outbox.cif.g08.bks.cpg/sg38_10_cif.got.tgz:18943.got - 2010.06.03 18:07:57.
