data_PCOD9356001
_publ_section_title
;
Structure prediction by ZEFSAII (Michael W. Deem and Ramdas Pophale) SiO2 
 PCOD9356001
Probable space group: A M M 2
;
_chemical_formula_sum "Si O2"
_cell_formula_units_Z 64
_cell_length_a 9.134694
_cell_length_b 27.052629
_cell_length_c 18.734583
_cell_angle_alpha 90.000000
_cell_angle_beta 90.000000
_cell_angle_gamma 90.000000
_cell_volume 4629.643086
_symmetry_space_group_name_H-M "A M M 2"
_symmetry_group_IT_number 38
_symmetry_cell_setting 'orthorhombic'
loop_
_space_group_symop_operation_xyz
x,y,z
-x,-y,z
-x,y,z
x,-y,z
x,1/2+y,1/2+z
-x,1/2-y,1/2+z
-x,1/2+y,1/2+z
x,1/2-y,1/2+z
loop_
_atom_site_type_symbol
_atom_site_label
_atom_site_fract_x
_atom_site_fract_y
_atom_site_fract_z
Si Si1 0.675667 0.942531 0.347020
Si Si2 0.827851 0.741685 0.859018
Si Si3 0.324445 0.942785 0.513274
Si Si4 0.673152 0.200085 0.141920
Si Si5 0.172964 0.646642 0.088068
Si Si6 0.828134 0.790351 0.717830
Si Si7 0.325136 0.760868 0.509172
Si Si8 0.174020 0.144389 0.261882
O O1 0.500000 0.937199 0.340230
O O2 0.712933 0.932447 0.430171
O O3 0.755777 0.904012 0.296423
O O4 0.711733 0.000000 0.332444
O O5 0.804261 0.786090 0.802223
O O6 0.796128 0.691075 0.815003
O O7 0.000000 0.740567 0.878320
O O8 0.731661 0.745490 0.929242
O O9 0.500000 0.937701 0.519744
O O10 0.244825 0.904154 0.563728
O O11 0.287163 0.000000 0.527828
O O12 0.500000 0.192262 0.148403
O O13 0.722512 0.250047 0.182509
O O14 0.708811 0.213646 0.059924
O O15 0.758105 0.157840 0.184903
O O16 0.192816 0.660340 0.171779
O O17 0.246694 0.691216 0.043360
O O18 0.000000 0.646176 0.073246
O O19 0.000000 0.775118 0.706765
O O20 0.500000 0.768388 0.511167
O O21 0.000000 0.139821 0.256240
#
# Coordination Sequence:
#
# PCOD9356001 Si02
#       8
#     8   8   8   8   8   8   8   8
#     4   9  18  31  44  58  79 108 139 170 203 236
#     4   9  17  28  41  58  81 108 136 166 201 239
#     4   9  18  31  44  59  81 108 138 171 203 235
#     4   9  17  28  41  57  78 105 135 166 199 237
#     4  10  18  28  43  60  80 108 139 169 202 239
#     4   8  16  29  41  56  79 105 134 167 200 237
#     4  10  19  28  40  60  83 107 137 169 200 238
#     4  10  19  29  42  60  81 107 138 169 202 239
#
# _framework density 13.823959
#
# number of rings (size 3 to 8) (size 9 to 14) (size 15 to 20)
#    0.000    2.750    0.000    3.750    0.000    7.500 
#    0.000    1.250    0.000    0.000    0.000    0.000 
#    0.000    1.000    0.000    6.500    0.000    4.875 
#
# Total GULP energy -178182.735996 kJ/mol
# GULP energy per Si atom -5568.210500 kJ/mol
# Density = 1.379250 g / cm^3
# Si number density = 13.823959 Si / 1000 Ang^3
#
#
#
# Elastic Constant Matrix: (Units=GPa)
#
#
# Indices 1 2 3 4 5 6 
#
# 1 44.8288 38.6892 42.6364 0.0000 0.0000 0.0000
# 2 38.6892 76.5550 46.4408 0.0000 0.0000 0.0000
# 3 42.6364 46.4408 80.4009 0.0000 0.0000 0.0000
# 4 0.0000 0.0000 0.0000 26.6996 0.0000 0.0000
# 5 0.0000 0.0000 0.0000 0.0000 21.4261 0.0000
# 6 0.0000 0.0000 0.0000 0.0000 0.0000 19.0897
#
#
#
# Elastic Compliance Matrix: (Units=1/GPa)
#
#
# Indices 1 2 3 4 5 6 
#
# 1 0.054817 -0.015500 -0.020116 0.000000 0.000000 0.000000
# 2 -0.015500 0.024491 -0.005927 0.000000 0.000000 0.000000
# 3 -0.020116 -0.005927 0.026529 0.000000 0.000000 0.000000
# 4 0.000000 0.000000 0.000000 0.037454 0.000000 0.000000
# 5 0.000000 0.000000 0.000000 0.000000 0.046672 0.000000
# 6 0.000000 0.000000 0.000000 0.000000 0.000000 0.052384
#
#
# Mechanical properties :
#
#
# Convention : Reuss Voigt Hill
#
# Bulk Modulus (GPa) = 43.95502 50.81305 47.38404
# Shear Modulus (GPa) = 15.01430 18.37765 16.69597
#
# Velocity S-wave (km/s) = 3.29919 3.65006 3.47905
# Velocity P-wave (km/s) = 6.81015 7.38924 7.10560
#
# Compressibility (1/GPa) = 0.02275053
#
# Stress axis : x y z
#
# Youngs Moduli (GPa) = 18.24268 40.83079 37.69509
#
# Poissons Ratio (x) = 0.63288 0.75828
# Poissons Ratio (y) = 0.28276 0.22342
# Poissons Ratio (z) = 0.36697 0.24200
#
# Static dielectric constant tensor:
#      x y z
#    x 1.459040 0.000000 0.000000 
#    y 0.000000 1.440710 0.000000 
#    z 0.000000 0.000000 1.464260 
# 
# From -- ./inp_files/17292.got.cif
#   From: 2010.05.17/outbox.cif.g08.bks.cpg/sg38_9_cif.got.tgz:17292.got - 2010.06.03 18:07:57.
