data_PCOD9356977
_publ_section_title
;
Structure prediction by ZEFSAII (Michael W. Deem and Ramdas Pophale) SiO2 
 PCOD9356977
Probable space group: A M M 2
;
_chemical_formula_sum "Si O2"
_cell_formula_units_Z 64
_cell_length_a 8.834179
_cell_length_b 34.535619
_cell_length_c 11.831583
_cell_angle_alpha 90.000000
_cell_angle_beta 90.000000
_cell_angle_gamma 90.000000
_cell_volume 3609.743092
_symmetry_space_group_name_H-M "A M M 2"
_symmetry_group_IT_number 38
_symmetry_cell_setting 'orthorhombic'
loop_
_space_group_symop_operation_xyz
x,y,z
-x,-y,z
-x,y,z
x,-y,z
x,1/2+y,1/2+z
-x,1/2-y,1/2+z
-x,1/2+y,1/2+z
x,1/2-y,1/2+z
loop_
_atom_site_type_symbol
_atom_site_label
_atom_site_fract_x
_atom_site_fract_y
_atom_site_fract_z
Si Si1 0.677809 0.670208 0.231160
Si Si2 0.325397 0.116848 0.509019
Si Si3 0.177422 0.820771 0.363643
Si Si4 0.182175 0.372756 0.447181
Si Si5 0.180522 0.765830 0.576985
Si Si6 0.177769 0.455221 0.106808
Si Si7 0.679040 0.815701 0.121373
Si Si8 0.183741 0.456869 0.371776
O O1 0.500000 0.676548 0.254243
O O2 0.691308 0.639464 0.128356
O O3 0.758014 0.651886 0.339888
O O4 0.752532 0.709181 0.181204
O O5 0.500000 0.120226 0.474046
O O6 0.218996 0.138324 0.420103
O O7 0.275797 0.073320 0.532256
O O8 0.211017 0.789519 0.461794
O O9 0.274888 0.815035 0.252353
O O10 0.000000 0.818269 0.335695
O O11 0.245417 0.351841 0.557796
O O12 0.232850 0.417683 0.434343
O O13 0.000000 0.371904 0.446769
O O14 0.255149 0.723994 0.570482
O O15 0.000000 0.762551 0.590826
O O16 0.192266 0.500000 0.074477
O O17 0.222178 0.452206 0.239031
O O18 0.000000 0.444309 0.099650
O O19 0.500000 0.817136 0.107157
O O20 0.236314 0.500000 0.408615
O O21 0.000000 0.457687 0.377201
#
# Coordination Sequence:
#
# PCOD9356977 Si02
#       8
#     8   8   8   8   8   8   8   8
#     4  10  20  34  53  81 115 148 183 224 278 336
#     4  10  19  32  53  80 113 147 180 224 282 338
#     4  10  22  41  62  81 105 142 192 235 275 331
#     4  11  21  35  58  84 115 152 194 237 281 338
#     4  10  22  40  62  84 108 142 187 233 279 332
#     4   9  16  28  49  79 113 148 187 228 274 331
#     4  12  26  41  58  81 115 149 186 234 287 342
#     4   8  15  29  52  82 114 148 188 236 284 330
#
# _framework density 17.729793999999998
#
# number of rings (size 3 to 8) (size 9 to 14) (size 15 to 20)
#    0.000    2.000    1.250    3.750    1.750    2.750 
#    0.000    0.000    0.000    2.250    0.000    1.750 
#    0.000    0.000    0.000    0.000    0.000    0.000 
#
# Total GULP energy -178628.358064 kJ/mol
# GULP energy per Si atom -5582.136190 kJ/mol
# Density = 1.768944 g / cm^3
# Si number density = 17.729794 Si / 1000 Ang^3
#
#
#
# Elastic Constant Matrix: (Units=GPa)
#
#
# Indices 1 2 3 4 5 6 
#
# 1 61.4494 34.3338 34.9420 0.0000 0.0000 0.0000
# 2 34.3338 112.0551 33.2153 0.0000 0.0000 0.0000
# 3 34.9420 33.2153 47.7082 0.0000 0.0000 0.0000
# 4 0.0000 0.0000 0.0000 19.9320 0.0000 0.0000
# 5 0.0000 0.0000 0.0000 0.0000 25.5623 0.0000
# 6 0.0000 0.0000 0.0000 0.0000 0.0000 13.6828
#
#
#
# Elastic Compliance Matrix: (Units=1/GPa)
#
#
# Indices 1 2 3 4 5 6 
#
# 1 0.028792 -0.003240 -0.018832 0.000000 0.000000 0.000000
# 2 -0.003240 0.011609 -0.005710 0.000000 0.000000 0.000000
# 3 -0.018832 -0.005710 0.038729 0.000000 0.000000 0.000000
# 4 0.000000 0.000000 0.000000 0.050171 0.000000 0.000000
# 5 0.000000 0.000000 0.000000 0.000000 0.039120 0.000000
# 6 0.000000 0.000000 0.000000 0.000000 0.000000 0.073084
#
#
# Mechanical properties :
#
#
# Convention : Reuss Voigt Hill
#
# Bulk Modulus (GPa) = 42.43215 47.35500 44.89358
# Shear Modulus (GPa) = 16.39749 19.75019 18.07384
#
# Velocity S-wave (km/s) = 3.04444 3.34122 3.19628
# Velocity P-wave (km/s) = 6.02850 6.45385 6.24480
#
# Compressibility (1/GPa) = 0.02356703
#
# Stress axis : x y z
#
# Youngs Moduli (GPa) = 34.73151 86.13757 25.82052
#
# Poissons Ratio (x) = 0.27907 0.48626
# Poissons Ratio (y) = 0.11252 0.14743
# Poissons Ratio (z) = 0.65407 0.49183
#
# Static dielectric constant tensor:
#      x y z
#    x 1.590400 0.000000 0.000000 
#    y 0.000000 1.611910 0.000000 
#    z 0.000000 0.000000 1.585520 
# 
# From -- ./inp_files/8633.got.cif
#   From: 2010.05.17/outbox.cif.g08.bks.cpg/sg38_5_cif.got.tgz:8633.got - 2010.06.03 18:07:57.
