data_PCOD9356781
_publ_section_title
;
Structure prediction by ZEFSAII (Michael W. Deem and Ramdas Pophale) SiO2 
 PCOD9356781
Probable space group: A M M 2
;
_chemical_formula_sum "Si O2"
_cell_formula_units_Z 48
_cell_length_a 8.725831
_cell_length_b 14.037826
_cell_length_c 24.357558
_cell_angle_alpha 90.000000
_cell_angle_beta 90.000000
_cell_angle_gamma 90.000000
_cell_volume 2983.598621
_symmetry_space_group_name_H-M "A M M 2"
_symmetry_group_IT_number 38
_symmetry_cell_setting 'orthorhombic'
loop_
_space_group_symop_operation_xyz
x,y,z
-x,-y,z
-x,y,z
x,-y,z
x,1/2+y,1/2+z
-x,1/2-y,1/2+z
-x,1/2+y,1/2+z
x,1/2-y,1/2+z
loop_
_atom_site_type_symbol
_atom_site_label
_atom_site_fract_x
_atom_site_fract_y
_atom_site_fract_z
Si Si1 0.182609 0.712007 0.614600
Si Si2 0.316188 0.110113 0.556390
Si Si3 0.316129 0.109989 0.008322
Si Si4 0.815749 0.712201 0.950144
Si Si5 0.816092 0.111337 0.337846
Si Si6 0.317253 0.611969 0.719697
O O1 0.245168 0.816957 0.600199
O O2 0.252803 0.644114 0.567277
O O3 0.236552 0.674047 0.673245
O O4 0.000000 0.710953 0.610221
O O5 0.500000 0.120318 0.556379
O O6 0.252490 0.144146 0.497427
O O7 0.277289 0.000000 0.566267
O O8 0.500000 0.119567 0.008739
O O9 0.245739 0.182951 0.964419
O O10 0.276676 0.000000 0.998432
O O11 0.771507 0.674049 0.890252
O O12 0.000000 0.710722 0.954414
O O13 0.735800 0.138316 0.280975
O O14 0.000000 0.118448 0.330801
O O15 0.780394 0.000000 0.349148
O O16 0.500000 0.620886 0.714640
O O17 0.276855 0.500000 0.711828
#
# Coordination Sequence:
#
# PCOD9356781 Si02
#       6
#     8   8   8   8   8   8
#     4  11  21  32  50  73  98 128 160 198 242 287
#     4  10  20  33  50  72  99 130 162 197 237 283
#     4  10  20  33  49  70  98 130 163 200 240 284
#     4  10  19  31  50  74 100 129 160 198 241 284
#     4   9  18  32  49  71  99 128 158 194 238 287
#     4  10  20  33  50  72  98 128 161 198 240 286
#
# _framework density 16.087955999999998
#
# number of rings (size 3 to 8) (size 9 to 14) (size 15 to 20)
#    0.000    2.000    0.000    6.500    0.000    7.667 
#    0.000    1.667    0.000    1.000    0.000    4.667 
#    0.000    0.000    0.000    0.000    0.000    0.000 
#
# Total GULP energy -133977.443427 kJ/mol
# GULP energy per Si atom -5582.393476 kJ/mol
# Density = 1.605134 g / cm^3
# Si number density = 16.087956 Si / 1000 Ang^3
#
#
#
# Elastic Constant Matrix: (Units=GPa)
#
#
# Indices 1 2 3 4 5 6 
#
# 1 66.6270 49.0357 47.5641 0.0000 0.0000 0.0000
# 2 49.0357 119.7763 77.8075 0.0000 0.0000 0.0000
# 3 47.5641 77.8075 124.7055 0.0000 0.0000 0.0000
# 4 0.0000 0.0000 0.0000 21.1534 0.0000 0.0000
# 5 0.0000 0.0000 0.0000 0.0000 50.4978 0.0000
# 6 0.0000 0.0000 0.0000 0.0000 0.0000 18.3158
#
#
#
# Elastic Compliance Matrix: (Units=1/GPa)
#
#
# Indices 1 2 3 4 5 6 
#
# 1 0.023135 -0.006288 -0.004901 0.000000 0.000000 0.000000
# 2 -0.006288 0.015748 -0.007427 0.000000 0.000000 0.000000
# 3 -0.004901 -0.007427 0.014522 0.000000 0.000000 0.000000
# 4 0.000000 0.000000 0.000000 0.047274 0.000000 0.000000
# 5 0.000000 0.000000 0.000000 0.000000 0.019803 0.000000
# 6 0.000000 0.000000 0.000000 0.000000 0.000000 0.054598
#
#
# Mechanical properties :
#
#
# Convention : Reuss Voigt Hill
#
# Bulk Modulus (GPa) = 61.83002 73.32484 67.57743
# Shear Modulus (GPa) = 22.96707 27.10684 25.03696
#
# Velocity S-wave (km/s) = 3.78245 4.10923 3.94922
# Velocity P-wave (km/s) = 7.58893 8.25777 7.93040
#
# Compressibility (1/GPa) = 0.01617337
#
# Stress axis : x y z
#
# Youngs Moduli (GPa) = 43.22403 63.50034 68.85941
#
# Poissons Ratio (x) = 0.39928 0.33748
# Poissons Ratio (y) = 0.27178 0.51145
# Poissons Ratio (z) = 0.21184 0.47164
#
# Static dielectric constant tensor:
#      x y z
#    x 1.537720 0.000000 0.000000 
#    y 0.000000 1.531970 0.000000 
#    z 0.000000 0.000000 1.513560 
# 
# From -- ./inp_files/21921.got.cif
#   From: 2010.05.17/outbox.cif.g08.bks.cpg/sg38_11_cif.got.tgz:21921.got - 2010.06.03 18:07:57.
