data_PCOD9356668
_publ_section_title
;
Structure prediction by ZEFSAII (Michael W. Deem and Ramdas Pophale) SiO2 
 PCOD9356668
Probable space group: A M M 2
;
_chemical_formula_sum "Si O2"
_cell_formula_units_Z 48
_cell_length_a 7.458360
_cell_length_b 15.420228
_cell_length_c 19.496074
_cell_angle_alpha 90.000000
_cell_angle_beta 90.000000
_cell_angle_gamma 90.000000
_cell_volume 2242.235901
_symmetry_space_group_name_H-M "A M M 2"
_symmetry_group_IT_number 38
_symmetry_cell_setting 'orthorhombic'
loop_
_space_group_symop_operation_xyz
x,y,z
-x,-y,z
-x,y,z
x,-y,z
x,1/2+y,1/2+z
-x,1/2-y,1/2+z
-x,1/2+y,1/2+z
x,1/2-y,1/2+z
loop_
_atom_site_type_symbol
_atom_site_label
_atom_site_fract_x
_atom_site_fract_y
_atom_site_fract_z
Si Si1 0.215880 0.598634 0.900470
Si Si2 0.218509 0.597492 0.442902
Si Si3 0.208466 0.273063 0.170293
Si Si4 0.288831 0.598457 0.742815
Si Si5 0.779883 0.268349 0.017407
Si Si6 0.781429 0.900654 0.786738
O O1 0.280771 0.500000 0.910400
O O2 0.260515 0.624410 0.822470
O O3 0.000000 0.597456 0.904158
O O4 0.278493 0.663247 0.959625
O O5 0.276675 0.500000 0.460186
O O6 0.276195 0.672736 0.493562
O O7 0.274939 0.617996 0.364801
O O8 0.000000 0.596975 0.442928
O O9 0.215297 0.173152 0.193984
O O10 0.283634 0.286291 0.094352
O O11 0.285614 0.332909 0.230632
O O12 0.000000 0.297976 0.165351
O O13 0.500000 0.594905 0.730502
O O14 0.216503 0.500000 0.734342
O O15 0.000000 0.269370 0.017838
O O16 0.000000 0.896957 0.788009
O O17 0.732402 0.000000 0.770365
#
# Coordination Sequence:
#
# PCOD9356668 Si02
#       6
#     8   8   8   8   8   8
#     4   9  17  31  52  75  98 126 162 204 247 293
#     4   8  13  22  36  55  83 118 150 180 217 263
#     4  10  19  30  48  74 101 129 160 197 245 301
#     4  10  21  36  52  70  95 130 172 215 255 294
#     4   9  17  27  42  70 102 124 147 188 241 291
#     4   8  14  25  43  67  93 121 153 189 229 276
#
# _framework density 21.407202000000002
#
# number of rings (size 3 to 8) (size 9 to 14) (size 15 to 20)
#    0.000    3.000    0.000    2.500    0.000    5.000 
#    0.000    5.833    0.000    0.500    0.000    0.000 
#    0.000    0.000    0.000    0.000    0.000    0.000 
#
# Total GULP energy -133959.131835 kJ/mol
# GULP energy per Si atom -5581.630493 kJ/mol
# Density = 2.135848 g / cm^3
# Si number density = 21.407202 Si / 1000 Ang^3
#
#
#
# Elastic Constant Matrix: (Units=GPa)
#
#
# Indices 1 2 3 4 5 6 
#
# 1 62.0122 -5.7200 -5.9956 0.0000 0.0000 0.0000
# 2 -5.7200 27.9462 -0.7981 0.0000 0.0000 0.0000
# 3 -5.9956 -0.7981 18.9531 0.0000 0.0000 0.0000
# 4 0.0000 0.0000 0.0000 2.4509 0.0000 0.0000
# 5 0.0000 0.0000 0.0000 0.0000 39.1626 0.0000
# 6 0.0000 0.0000 0.0000 0.0000 0.0000 -21.2846
#
#
#
# Elastic Compliance Matrix: (Units=1/GPa)
#
#
# Indices 1 2 3 4 5 6 
#
# 1 0.016996 0.003637 0.005530 0.000000 0.000000 0.000000
# 2 0.003637 0.036604 0.002692 0.000000 0.000000 0.000000
# 3 0.005530 0.002692 0.054625 0.000000 0.000000 0.000000
# 4 0.000000 0.000000 0.000000 0.408007 0.000000 0.000000
# 5 0.000000 0.000000 0.000000 0.000000 0.025535 0.000000
# 6 0.000000 0.000000 0.000000 0.000000 0.000000 -0.046982
#
#
# Mechanical properties :
#
#
# Convention : Reuss Voigt Hill
#
# Bulk Modulus (GPa) = 7.57916 9.32045 8.44980
# Shear Modulus (GPa) = 9.70783 12.16080 10.93432
#
# Velocity S-wave (km/s) = 2.13183 2.38601 2.26249
# Velocity P-wave (km/s) = 3.09964 3.45746 3.28343
#
# Compressibility (1/GPa) = 0.13194081
#
# Stress axis : x y z
#
# Youngs Moduli (GPa) = 58.83767 27.31923 18.30680
#
# Poissons Ratio (x) = -0.09935 -0.10123
# Poissons Ratio (y) = -0.21397 -0.04928
# Poissons Ratio (z) = -0.32535 -0.07354
#
# Static dielectric constant tensor:
#      x y z
#    x 1.738780 0.000000 0.000000 
#    y 0.000000 1.761640 0.000000 
#    z 0.000000 0.000000 1.741610 
# 
# From -- ./inp_files/12044.got.cif
#   From: 2010.05.17/outbox.cif.g08.bks.cpg/sg38_7_cif.got.tgz:12044.got - 2010.06.03 18:07:57.
