data_PCOD9356058
_publ_section_title
;
Structure prediction by ZEFSAII (Michael W. Deem and Ramdas Pophale) SiO2 
 PCOD9356058
Probable space group: A M M 2
;
_chemical_formula_sum "Si O2"
_cell_formula_units_Z 64
_cell_length_a 7.597656
_cell_length_b 24.396332
_cell_length_c 19.756571
_cell_angle_alpha 90.000000
_cell_angle_beta 90.000000
_cell_angle_gamma 90.000000
_cell_volume 3661.977997
_symmetry_space_group_name_H-M "A M M 2"
_symmetry_group_IT_number 38
_symmetry_cell_setting 'orthorhombic'
loop_
_space_group_symop_operation_xyz
x,y,z
-x,-y,z
-x,y,z
x,-y,z
x,1/2+y,1/2+z
-x,1/2-y,1/2+z
-x,1/2+y,1/2+z
x,1/2-y,1/2+z
loop_
_atom_site_type_symbol
_atom_site_label
_atom_site_fract_x
_atom_site_fract_y
_atom_site_fract_z
Si Si1 0.291713 0.235302 0.244930
Si Si2 0.212158 0.617376 0.093176
Si Si3 0.787777 0.256528 0.094523
Si Si4 0.787188 0.229162 0.948644
Si Si5 0.289445 0.438221 0.949833
Si Si6 0.784031 0.062629 0.733418
Si Si7 0.204431 0.341708 0.326709
Si Si8 0.709806 0.162231 0.364668
O O1 0.500000 0.240354 0.256767
O O2 0.261022 0.229453 0.165541
O O3 0.211209 0.292191 0.272155
O O4 0.224207 0.186331 0.293126
O O5 0.275639 0.680274 0.093631
O O6 0.272243 0.585686 0.160297
O O7 0.000000 0.619351 0.095736
O O8 0.260312 0.586310 0.024547
O O9 0.000000 0.258228 0.091850
O O10 0.725902 0.227123 0.025960
O O11 0.718684 0.183912 0.895601
O O12 0.741973 0.288668 0.917931
O O13 0.000000 0.225664 0.948215
O O14 0.500000 0.441082 0.940373
O O15 0.219079 0.500000 0.944429
O O16 0.218279 0.394011 0.895766
O O17 0.720622 0.104447 0.791239
O O18 0.000000 0.063874 0.733550
O O19 0.729953 0.000000 0.742920
O O20 0.000000 0.353724 0.340735
O O21 0.500000 0.155180 0.357956
#
# Coordination Sequence:
#
# PCOD9356058 Si02
#       8
#     8   8   8   8   8   8   8   8
#     4  10  19  29  44  64  86 113 143 178 220 260
#     4  10  18  29  43  62  88 118 150 178 204 246
#     4  10  18  29  44  65  88 114 144 174 213 259
#     4   9  17  28  45  64  84 110 142 177 215 256
#     4  10  20  32  45  62  87 119 150 181 217 255
#     4   9  16  26  41  60  83 112 143 172 202 239
#     4   9  16  29  45  62  84 111 143 179 212 250
#     4   9  18  31  44  62  87 113 144 180 217 257
#
# _framework density 17.476894000000001
#
# number of rings (size 3 to 8) (size 9 to 14) (size 15 to 20)
#    0.000    2.500    2.500    0.750    0.000    2.250 
#    0.000    0.000    0.000    0.375    0.000    0.875 
#    0.000    1.000    0.000    0.000    0.000    0.000 
#
# Total GULP energy -178446.220381 kJ/mol
# GULP energy per Si atom -5576.444387 kJ/mol
# Density = 1.743712 g / cm^3
# Si number density = 17.476894 Si / 1000 Ang^3
#
#
#
# Elastic Constant Matrix: (Units=GPa)
#
#
# Indices 1 2 3 4 5 6 
#
# 1 37.2470 6.4805 -2.3788 0.0000 0.0000 0.0000
# 2 6.4805 124.2352 88.3008 0.0000 0.0000 0.0000
# 3 -2.3788 88.3008 153.1590 0.0000 0.0000 0.0000
# 4 0.0000 0.0000 0.0000 22.4471 0.0000 0.0000
# 5 0.0000 0.0000 0.0000 0.0000 15.0934 0.0000
# 6 0.0000 0.0000 0.0000 0.0000 0.0000 2.3091
#
#
#
# Elastic Compliance Matrix: (Units=1/GPa)
#
#
# Indices 1 2 3 4 5 6 
#
# 1 0.027496 -0.002944 0.002125 0.000000 0.000000 0.000000
# 2 -0.002944 0.013953 -0.008090 0.000000 0.000000 0.000000
# 3 0.002125 -0.008090 0.011226 0.000000 0.000000 0.000000
# 4 0.000000 0.000000 0.000000 0.044549 0.000000 0.000000
# 5 0.000000 0.000000 0.000000 0.000000 0.066254 0.000000
# 6 0.000000 0.000000 0.000000 0.000000 0.000000 0.433074
#
#
# Mechanical properties :
#
#
# Convention : Reuss Voigt Hill
#
# Bulk Modulus (GPa) = 28.68993 55.49401 42.09197
# Shear Modulus (GPa) = 7.98736 22.78584 15.38660
#
# Velocity S-wave (km/s) = 2.14013 3.61469 2.97037
# Velocity P-wave (km/s) = 4.74957 7.01734 5.99172
#
# Compressibility (1/GPa) = 0.03485543
#
# Stress axis : x y z
#
# Youngs Moduli (GPa) = 36.36921 71.67022 89.07693
#
# Poissons Ratio (x) = 0.21102 -0.18925
# Poissons Ratio (y) = 0.10708 0.72063
# Poissons Ratio (z) = -0.07727 0.57981
#
# Static dielectric constant tensor:
#      x y z
#    x 1.657720 0.000000 0.000000 
#    y 0.000000 1.588040 0.000000 
#    z 0.000000 0.000000 1.606870 
# 
# From -- ./inp_files/17312.got.cif
#   From: 2010.05.17/outbox.cif.g08.bks.cpg/sg38_9_cif.got.tgz:17312.got - 2010.06.03 18:07:57.
