data_PCOD9356266
_publ_section_title
;
Structure prediction by ZEFSAII (Michael W. Deem and Ramdas Pophale) SiO2 
 PCOD9356266
Probable space group: A M M 2
;
_chemical_formula_sum "Si O2"
_cell_formula_units_Z 64
_cell_length_a 7.512661
_cell_length_b 21.238136
_cell_length_c 20.604132
_cell_angle_alpha 90.000000
_cell_angle_beta 90.000000
_cell_angle_gamma 90.000000
_cell_volume 3287.490551
_symmetry_space_group_name_H-M "A M M 2"
_symmetry_group_IT_number 38
_symmetry_cell_setting 'orthorhombic'
loop_
_space_group_symop_operation_xyz
x,y,z
-x,-y,z
-x,y,z
x,-y,z
x,1/2+y,1/2+z
-x,1/2-y,1/2+z
-x,1/2+y,1/2+z
x,1/2-y,1/2+z
loop_
_atom_site_type_symbol
_atom_site_label
_atom_site_fract_x
_atom_site_fract_y
_atom_site_fract_z
Si Si1 0.212990 0.430142 0.072050
Si Si2 0.216728 0.261700 0.290585
Si Si3 0.211683 0.809379 0.070233
Si Si4 0.205613 0.276310 0.432689
Si Si5 0.293019 0.385655 0.793491
Si Si6 0.714991 0.430673 0.655952
Si Si7 0.286971 0.130345 0.434986
Si Si8 0.782164 0.310682 0.153186
O O1 0.283290 0.500000 0.085391
O O2 0.279823 0.374188 0.118247
O O3 0.000000 0.431873 0.080569
O O4 0.246667 0.410942 0.997560
O O5 0.281658 0.285966 0.360606
O O6 0.279429 0.189645 0.283209
O O7 0.271070 0.301196 0.227824
O O8 0.000000 0.259180 0.292120
O O9 0.236669 0.873965 0.108478
O O10 0.278866 0.750321 0.112396
O O11 0.000000 0.798838 0.064138
O O12 0.285447 0.807496 0.997020
O O13 0.211730 0.200755 0.443907
O O14 0.000000 0.296544 0.428422
O O15 0.500000 0.404639 0.796017
O O16 0.216515 0.417193 0.729017
O O17 0.219685 0.396603 0.865944
O O18 0.500000 0.430483 0.659085
O O19 0.773265 0.500000 0.634432
O O20 0.500000 0.137448 0.429639
O O21 0.000000 0.310658 0.152277
#
# Coordination Sequence:
#
# PCOD9356266 Si02
#       8
#     8   8   8   8   8   8   8   8
#     4  10  20  34  50  68  96 133 165 196 238 286
#     4   9  16  28  49  72  95 124 157 195 237 281
#     4  10  18  31  51  73  97 125 159 202 243 280
#     4   9  17  30  49  72  99 128 157 194 241 287
#     4   9  18  31  46  67  96 128 160 192 233 281
#     4  10  21  35  49  68  97 131 164 198 238 286
#     4  10  19  30  47  71  99 129 160 196 234 279
#     4   9  16  29  49  73  96 122 159 200 238 276
#
# _framework density 19.467735999999999
#
# number of rings (size 3 to 8) (size 9 to 14) (size 15 to 20)
#    0.000    2.500    2.500    0.375    0.000    2.000 
#    0.000    1.875    0.000    0.750    0.000    3.500 
#    0.000    0.000    0.000    0.000    0.000    0.000 
#
# Total GULP energy -178500.894205 kJ/mol
# GULP energy per Si atom -5578.152944 kJ/mol
# Density = 1.942343 g / cm^3
# Si number density = 19.467736 Si / 1000 Ang^3
#
#
#
# Elastic Constant Matrix: (Units=GPa)
#
#
# Indices 1 2 3 4 5 6 
#
# 1 52.2134 -7.7628 1.1515 0.0000 0.0000 0.0000
# 2 -7.7628 115.1449 90.3803 0.0000 0.0000 0.0000
# 3 1.1515 90.3803 168.9727 0.0000 0.0000 0.0000
# 4 0.0000 0.0000 0.0000 23.3238 0.0000 0.0000
# 5 0.0000 0.0000 0.0000 0.0000 -85.2222 0.0000
# 6 0.0000 0.0000 0.0000 0.0000 0.0000 18.8665
#
#
#
# Elastic Compliance Matrix: (Units=1/GPa)
#
#
# Indices 1 2 3 4 5 6 
#
# 1 0.019549 0.002452 -0.001445 0.000000 0.000000 0.000000
# 2 0.002452 0.015277 -0.008188 0.000000 0.000000 0.000000
# 3 -0.001445 -0.008188 0.010308 0.000000 0.000000 0.000000
# 4 0.000000 0.000000 0.000000 0.042875 0.000000 0.000000
# 5 0.000000 0.000000 0.000000 0.000000 -0.011734 0.000000
# 6 0.000000 0.000000 0.000000 0.000000 0.000000 0.053004
#
#
# Mechanical properties :
#
#
# Convention : Reuss Voigt Hill
#
# Bulk Modulus (GPa) = 32.49767 55.98545 44.24156
# Shear Modulus (GPa) = 32.48930 8.23109 20.36020
#
# Velocity S-wave (km/s) = 4.08962 2.05846 3.23746
# Velocity P-wave (km/s) = 6.24735 5.87113 6.06216
#
# Compressibility (1/GPa) = 0.03077144
#
# Stress axis : x y z
#
# Youngs Moduli (GPa) = 51.15465 65.45743 97.01533
#
# Poissons Ratio (x) = -0.16050 0.14016
# Poissons Ratio (y) = -0.12543 0.79438
# Poissons Ratio (z) = 0.07390 0.53598
#
# Static dielectric constant tensor:
#      x y z
#    x 2.658410 0.000000 0.000000 
#    y 0.000000 1.642020 0.000000 
#    z 0.000000 0.000000 1.712450 
# 
# From -- ./inp_files/17302.got.cif
#   From: 2010.05.17/outbox.cif.g08.bks.cpg/sg38_9_cif.got.tgz:17302.got - 2010.06.03 18:07:57.
