data_PCOD9356262
_publ_section_title
;
Structure prediction by ZEFSAII (Michael W. Deem and Ramdas Pophale) SiO2 
 PCOD9356262
Probable space group: A M M 2
;
_chemical_formula_sum "Si O2"
_cell_formula_units_Z 64
_cell_length_a 8.143082
_cell_length_b 21.324140
_cell_length_c 20.251096
_cell_angle_alpha 90.000000
_cell_angle_beta 90.000000
_cell_angle_gamma 90.000000
_cell_volume 3516.485781
_symmetry_space_group_name_H-M "A M M 2"
_symmetry_group_IT_number 38
_symmetry_cell_setting 'orthorhombic'
loop_
_space_group_symop_operation_xyz
x,y,z
-x,-y,z
-x,y,z
x,-y,z
x,1/2+y,1/2+z
-x,1/2-y,1/2+z
-x,1/2+y,1/2+z
x,1/2-y,1/2+z
loop_
_atom_site_type_symbol
_atom_site_label
_atom_site_fract_x
_atom_site_fract_y
_atom_site_fract_z
Si Si1 0.299175 0.930400 0.203720
Si Si2 0.698734 0.810532 0.703385
Si Si3 0.809346 0.629862 0.987150
Si Si4 0.299215 0.811380 0.119002
Si Si5 0.309091 0.615165 0.845103
Si Si6 0.301476 0.930299 0.620406
Si Si7 0.691949 0.730125 0.477916
Si Si8 0.810705 0.745711 0.336345
O O1 0.500000 0.928027 0.204731
O O2 0.244510 0.873885 0.156672
O O3 0.245602 0.917968 0.279129
O O4 0.250320 0.000000 0.182261
O O5 0.500000 0.810589 0.704905
O O6 0.751051 0.750415 0.659763
O O7 0.754876 0.874379 0.668361
O O8 0.762144 0.799666 0.777072
O O9 0.778914 0.602317 0.914284
O O10 0.710485 0.695257 0.991396
O O11 0.000000 0.645821 0.993755
O O12 0.755797 0.585556 0.046486
O O13 0.500000 0.811089 0.118219
O O14 0.245500 0.804834 0.043188
O O15 0.500000 0.598983 0.853549
O O16 0.293313 0.690028 0.832303
O O17 0.500000 0.929192 0.620644
O O18 0.246940 0.000000 0.639757
O O19 0.500000 0.715999 0.469029
O O20 0.781194 0.717772 0.408954
O O21 0.000000 0.764310 0.330190
#
# Coordination Sequence:
#
# PCOD9356262 Si02
#       8
#     8   8   8   8   8   8   8   8
#     4   9  17  29  48  76 104 129 163 208 253 296
#     4  10  18  34  56  78 101 130 171 216 259 306
#     4  11  21  32  48  74 108 140 171 211 257 308
#     4   9  16  29  52  78 100 127 167 212 255 294
#     4  10  18  31  51  73 102 142 180 212 248 298
#     4  10  21  37  56  76 100 134 176 218 260 313
#     4  10  18  32  54  77 102 136 174 215 258 304
#     4  11  21  32  49  78 108 135 169 213 261 308
#
# _framework density 18.199987
#
# number of rings (size 3 to 8) (size 9 to 14) (size 15 to 20)
#    0.000    2.000    2.500    4.500    0.000    1.250 
#    0.000    1.250    0.000    1.875    0.000    3.500 
#    0.000    0.000    0.000    0.000    0.000    0.000 
#
# Total GULP energy -178612.585724 kJ/mol
# GULP energy per Si atom -5581.643304 kJ/mol
# Density = 1.815856 g / cm^3
# Si number density = 18.199987 Si / 1000 Ang^3
#
#
#
# Elastic Constant Matrix: (Units=GPa)
#
#
# Indices 1 2 3 4 5 6 
#
# 1 17.8208 2.7452 2.3533 0.0000 0.0000 0.0000
# 2 2.7452 111.5494 71.3492 0.0000 0.0000 0.0000
# 3 2.3533 71.3492 123.3764 0.0000 0.0000 0.0000
# 4 0.0000 0.0000 0.0000 23.7569 0.0000 0.0000
# 5 0.0000 0.0000 0.0000 0.0000 -70.1792 0.0000
# 6 0.0000 0.0000 0.0000 0.0000 0.0000 -5.6210
#
#
#
# Elastic Compliance Matrix: (Units=1/GPa)
#
#
# Indices 1 2 3 4 5 6 
#
# 1 0.056342 -0.001110 -0.000433 0.000000 0.000000 0.000000
# 2 -0.001110 0.014249 -0.008219 0.000000 0.000000 0.000000
# 3 -0.000433 -0.008219 0.012867 0.000000 0.000000 0.000000
# 4 0.000000 0.000000 0.000000 0.042093 0.000000 0.000000
# 5 0.000000 0.000000 0.000000 0.000000 -0.014249 0.000000
# 6 0.000000 0.000000 0.000000 0.000000 0.000000 -0.177904
#
#
# Mechanical properties :
#
#
# Convention : Reuss Voigt Hill
#
# Bulk Modulus (GPa) = 15.64102 45.07134 30.35618
# Shear Modulus (GPa) = -194.04589 1.34460 -96.35064
#
# Velocity S-wave (km/s) = -10.33683 0.86046 -7.28388
# Velocity P-wave (km/s) = 11.56954 5.07991 7.35013
#
# Compressibility (1/GPa) = 0.06393445
#
# Stress axis : x y z
#
# Youngs Moduli (GPa) = 17.74870 70.18001 77.71989
#
# Poissons Ratio (x) = 0.07787 0.03365
# Poissons Ratio (y) = 0.01969 0.63879
# Poissons Ratio (z) = 0.00769 0.57682
#
# Static dielectric constant tensor:
#      x y z
#    x 1.621040 0.000000 0.000000 
#    y 0.000000 1.617460 0.000000 
#    z 0.000000 0.000000 1.626950 
# 
# From -- ./inp_files/20201.got.cif
#   From: 2010.05.17/outbox.cif.g08.bks.cpg/sg38_11_cif.got.tgz:20201.got - 2010.06.03 18:07:57.
