data_PCOD9356753
_publ_section_title
;
Structure prediction by ZEFSAII (Michael W. Deem and Ramdas Pophale) SiO2 
 PCOD9356753
Probable space group: A M M 2
;
_chemical_formula_sum "Si O2"
_cell_formula_units_Z 64
_cell_length_a 7.946281
_cell_length_b 15.025723
_cell_length_c 29.076237
_cell_angle_alpha 90.000000
_cell_angle_beta 90.000000
_cell_angle_gamma 90.000000
_cell_volume 3471.662491
_symmetry_space_group_name_H-M "A M M 2"
_symmetry_group_IT_number 38
_symmetry_cell_setting 'orthorhombic'
loop_
_space_group_symop_operation_xyz
x,y,z
-x,-y,z
-x,y,z
x,-y,z
x,1/2+y,1/2+z
-x,1/2-y,1/2+z
-x,1/2+y,1/2+z
x,1/2-y,1/2+z
loop_
_atom_site_type_symbol
_atom_site_label
_atom_site_fract_x
_atom_site_fract_y
_atom_site_fract_z
Si Si1 0.698638 0.275142 0.924870
Si Si2 0.297742 0.100112 0.968782
Si Si3 0.700589 0.398982 0.111199
Si Si4 0.796867 0.601561 0.739702
Si Si5 0.199330 0.602366 0.008044
Si Si6 0.203332 0.898057 0.072948
Si Si7 0.297035 0.600792 0.844251
Si Si8 0.796913 0.776094 0.156701
O O1 0.500000 0.263448 0.915979
O O2 0.770290 0.177765 0.936125
O O3 0.769707 0.330002 0.881840
O O4 0.717418 0.334425 0.970681
O O5 0.500000 0.097040 0.963906
O O6 0.231899 0.000000 0.960984
O O7 0.260980 0.124911 0.021686
O O8 0.500000 0.401513 0.107499
O O9 0.761370 0.500000 0.120520
O O10 0.769505 0.371381 0.060984
O O11 0.748281 0.325902 0.148806
O O12 0.738643 0.500000 0.729634
O O13 0.746621 0.623473 0.791802
O O14 0.736534 0.672943 0.702310
O O15 0.000000 0.599918 0.737508
O O16 0.259609 0.500000 0.003134
O O17 0.000000 0.604273 0.999822
O O18 0.264022 0.831804 0.112304
O O19 0.000000 0.896382 0.073154
O O20 0.256147 0.000000 0.082532
O O21 0.500000 0.598398 0.848059
O O22 0.234989 0.500000 0.853383
O O23 0.000000 0.780191 0.156900
#
# Coordination Sequence:
#
# PCOD9356753 Si02
#       8
#     8   8   8   8   8   8   8   8
#     4  10  19  31  49  70  94 127 163 199 240 284
#     4   9  18  31  45  64  92 124 158 194 230 270
#     4  10  21  35  49  67  95 130 164 198 236 278
#     4   9  18  33  52  74 100 127 154 188 235 289
#     4  10  20  32  47  70  99 128 159 196 237 283
#     4   9  17  29  45  67  96 126 154 186 227 276
#     4   9  18  32  49  70  95 122 155 196 241 288
#     4  10  19  31  50  73  95 123 159 196 234 279
#
# _framework density 18.434971000000001
#
# number of rings (size 3 to 8) (size 9 to 14) (size 15 to 20)
#    0.000    2.500    0.000    2.250    0.000    7.500 
#    0.000    1.250    0.000    4.500    0.000    1.750 
#    0.000    0.000    0.000    0.000    0.000    0.000 
#
# Total GULP energy -178542.668531 kJ/mol
# GULP energy per Si atom -5579.458392 kJ/mol
# Density = 1.839301 g / cm^3
# Si number density = 18.434971 Si / 1000 Ang^3
#
#
#
# Elastic Constant Matrix: (Units=GPa)
#
#
# Indices 1 2 3 4 5 6 
#
# 1 14.2543 2.8954 0.8187 0.0000 0.0000 0.0000
# 2 2.8954 123.2944 99.8128 0.0000 0.0000 0.0000
# 3 0.8187 99.8128 113.0369 0.0000 0.0000 0.0000
# 4 0.0000 0.0000 0.0000 33.2916 0.0000 0.0000
# 5 0.0000 0.0000 0.0000 0.0000 23.1365 0.0000
# 6 0.0000 0.0000 0.0000 0.0000 0.0000 16.4878
#
#
#
# Elastic Compliance Matrix: (Units=1/GPa)
#
#
# Indices 1 2 3 4 5 6 
#
# 1 0.070851 -0.004378 0.003353 0.000000 0.000000 0.000000
# 2 -0.004378 0.028713 -0.025322 0.000000 0.000000 0.000000
# 3 0.003353 -0.025322 0.031182 0.000000 0.000000 0.000000
# 4 0.000000 0.000000 0.000000 0.030038 0.000000 0.000000
# 5 0.000000 0.000000 0.000000 0.000000 0.043222 0.000000
# 6 0.000000 0.000000 0.000000 0.000000 0.000000 0.060651
#
#
# Mechanical properties :
#
#
# Convention : Reuss Voigt Hill
#
# Bulk Modulus (GPa) = 12.81216 50.84886 31.83051
# Shear Modulus (GPa) = 14.56162 24.38709 19.47436
#
# Velocity S-wave (km/s) = 2.81355 3.64108 3.25373
# Velocity P-wave (km/s) = 4.18566 6.73196 5.60531
#
# Compressibility (1/GPa) = 0.07805085
#
# Stress axis : x y z
#
# Youngs Moduli (GPa) = 14.11417 34.82737 32.06959
#
# Poissons Ratio (x) = 0.15247 -0.10751
# Poissons Ratio (y) = 0.06179 0.81207
# Poissons Ratio (z) = -0.04732 0.88191
#
# Static dielectric constant tensor:
#      x y z
#    x 1.659560 0.000000 0.000000 
#    y 0.000000 1.671050 0.000000 
#    z 0.000000 0.000000 1.608120 
# 
# From -- ./inp_files/22115.got.cif
#   From: 2010.05.17/outbox.cif.g08.bks.cpg/sg38_12_cif.got.tgz:22115.got - 2010.06.03 18:07:57.
