data_PCOD9356669
_publ_section_title
;
Structure prediction by ZEFSAII (Michael W. Deem and Ramdas Pophale) SiO2 
 PCOD9356669
Probable space group: A M M 2
;
_chemical_formula_sum "Si O2"
_cell_formula_units_Z 56
_cell_length_a 8.317897
_cell_length_b 19.515603
_cell_length_c 18.593932
_cell_angle_alpha 90.000000
_cell_angle_beta 90.000000
_cell_angle_gamma 90.000000
_cell_volume 3018.330216
_symmetry_space_group_name_H-M "A M M 2"
_symmetry_group_IT_number 38
_symmetry_cell_setting 'orthorhombic'
loop_
_space_group_symop_operation_xyz
x,y,z
-x,-y,z
-x,y,z
x,-y,z
x,1/2+y,1/2+z
-x,1/2-y,1/2+z
-x,1/2+y,1/2+z
x,1/2-y,1/2+z
loop_
_atom_site_type_symbol
_atom_site_label
_atom_site_fract_x
_atom_site_fract_y
_atom_site_fract_z
Si Si1 0.816268 0.337878 0.184280
Si Si2 0.804042 0.078044 0.549259
Si Si3 0.309302 0.575669 0.438140
Si Si4 0.808668 0.712140 0.960685
Si Si5 0.690258 0.201409 0.839296
Si Si6 0.187927 0.924557 0.097932
Si Si7 0.683064 0.280690 0.596829
O O1 0.750894 0.395257 0.128535
O O2 0.729953 0.317594 0.257623
O O3 0.805041 0.269432 0.136469
O O4 0.000000 0.355522 0.201291
O O5 0.759609 0.136671 0.490600
O O6 0.000000 0.077935 0.550751
O O7 0.751184 0.000000 0.534883
O O8 0.500000 0.584542 0.456219
O O9 0.293086 0.500000 0.404871
O O10 0.257893 0.635072 0.385143
O O11 0.210947 0.575824 0.511737
O O12 0.769098 0.733141 0.878895
O O13 0.000000 0.718802 0.971447
O O14 0.717822 0.766450 0.012617
O O15 0.500000 0.209916 0.846045
O O16 0.286067 0.858134 0.120923
O O17 0.000000 0.916550 0.115192
O O18 0.242380 0.000000 0.123164
O O19 0.500000 0.260731 0.612419
#
# Coordination Sequence:
#
# PCOD9356669 Si02
#       7
#     8   8   8   8   8   8   8
#     4  10  21  35  53  76 104 139 177 220 267 324
#     4   8  16  33  56  81 106 135 175 223 274 324
#     4   9  18  31  46  68 101 139 172 204 247 296
#     4  10  19  32  54  79 104 137 178 222 265 316
#     4  11  21  33  50  75 108 144 178 219 266 318
#     4  10  19  30  48  74 101 130 167 208 249 299
#     4  11  20  33  52  74 102 135 172 217 263 314
#
# _framework density 18.553303
#
# number of rings (size 3 to 8) (size 9 to 14) (size 15 to 20)
#    0.000    2.143    1.429    3.857    0.000    2.000 
#    0.000    0.000    0.000   15.857    0.000    2.000 
#    0.000    0.000    0.000    0.000    0.000    0.000 
#
# Total GULP energy -155990.215927 kJ/mol
# GULP energy per Si atom -5571.079140 kJ/mol
# Density = 1.851108 g / cm^3
# Si number density = 18.553303 Si / 1000 Ang^3
#
#
#
# Elastic Constant Matrix: (Units=GPa)
#
#
# Indices 1 2 3 4 5 6 
#
# 1 34.1071 11.7765 2.2844 0.0000 0.0000 0.0000
# 2 11.7765 113.3122 19.0413 0.0000 0.0000 0.0000
# 3 2.2844 19.0413 48.7303 0.0000 0.0000 0.0000
# 4 0.0000 0.0000 0.0000 13.6117 0.0000 0.0000
# 5 0.0000 0.0000 0.0000 0.0000 26.8189 0.0000
# 6 0.0000 0.0000 0.0000 0.0000 0.0000 15.5936
#
#
#
# Elastic Compliance Matrix: (Units=1/GPa)
#
#
# Indices 1 2 3 4 5 6 
#
# 1 0.030413 -0.003126 -0.000204 0.000000 0.000000 0.000000
# 2 -0.003126 0.009767 -0.003670 0.000000 0.000000 0.000000
# 3 -0.000204 -0.003670 0.021965 0.000000 0.000000 0.000000
# 4 0.000000 0.000000 0.000000 0.073466 0.000000 0.000000
# 5 0.000000 0.000000 0.000000 0.000000 0.037287 0.000000
# 6 0.000000 0.000000 0.000000 0.000000 0.000000 0.064129
#
#
# Mechanical properties :
#
#
# Convention : Reuss Voigt Hill
#
# Bulk Modulus (GPa) = 20.77131 29.15047 24.96089
# Shear Modulus (GPa) = 18.72135 22.07466 20.39801
#
# Velocity S-wave (km/s) = 3.18001 3.45309 3.31936
# Velocity P-wave (km/s) = 4.97022 5.62532 5.30789
#
# Compressibility (1/GPa) = 0.04814334
#
# Stress axis : x y z
#
# Youngs Moduli (GPa) = 32.88115 102.38773 45.52769
#
# Poissons Ratio (x) = 0.32011 0.00929
# Poissons Ratio (y) = 0.10280 0.16708
# Poissons Ratio (z) = 0.00671 0.37574
#
# Static dielectric constant tensor:
#      x y z
#    x 1.629140 0.000000 0.000000 
#    y 0.000000 1.681010 0.000000 
#    z 0.000000 0.000000 1.655860 
# 
# From -- ./inp_files/17096.got.cif
#   From: 2010.05.17/outbox.cif.g08.bks.cpg/sg38_9_cif.got.tgz:17096.got - 2010.06.03 18:07:57.
