data_PCOD9356472
_publ_section_title
;
Structure prediction by ZEFSAII (Michael W. Deem and Ramdas Pophale) SiO2 
 PCOD9356472
Probable space group: A M M 2
;
_chemical_formula_sum "Si O2"
_cell_formula_units_Z 48
_cell_length_a 7.509073
_cell_length_b 16.848933
_cell_length_c 20.420421
_cell_angle_alpha 90.000000
_cell_angle_beta 90.000000
_cell_angle_gamma 90.000000
_cell_volume 2583.588967
_symmetry_space_group_name_H-M "A M M 2"
_symmetry_group_IT_number 38
_symmetry_cell_setting 'orthorhombic'
loop_
_space_group_symop_operation_xyz
x,y,z
-x,-y,z
-x,y,z
x,-y,z
x,1/2+y,1/2+z
-x,1/2-y,1/2+z
-x,1/2+y,1/2+z
x,1/2-y,1/2+z
loop_
_atom_site_type_symbol
_atom_site_label
_atom_site_fract_x
_atom_site_fract_y
_atom_site_fract_z
Si Si1 0.713298 0.169039 0.881460
Si Si2 0.000000 0.589864 0.176046
Si Si3 0.284878 0.206020 0.734738
Si Si4 0.715232 0.720188 0.002409
Si Si5 0.715808 0.328064 0.626789
Si Si6 0.000000 0.909959 0.518972
Si Si7 0.798352 0.000000 0.939085
Si Si8 0.704116 0.500000 0.587512
O O1 0.500000 0.169333 0.881629
O O2 0.768361 0.201839 0.810826
O O3 0.766852 0.078864 0.896929
O O4 0.768352 0.224712 0.941312
O O5 0.174557 0.636391 0.200144
O O6 0.000000 0.588088 0.097807
O O7 0.000000 0.500000 0.201476
O O8 0.500000 0.195128 0.729605
O O9 0.238289 0.286523 0.695463
O O10 0.500000 0.708959 0.002557
O O11 0.766769 0.768330 0.068174
O O12 0.825307 0.639430 0.998941
O O13 0.500000 0.331746 0.623559
O O14 0.783610 0.416723 0.612415
O O15 0.000000 0.000000 0.494411
O O16 0.696387 0.000000 0.008233
O O17 0.000000 0.000000 0.961591
O O18 0.500000 0.500000 0.611392
#
# Coordination Sequence:
#
# PCOD9356472 Si02
#       8
#     8   4   8   8   8   4   4   4
#     4  10  22  38  58  83 118 157 191 234 293 357
#     4  11  24  37  54  82 116 146 193 237 278 330
#     4  10  22  39  58  83 116 157 194 230 285 349
#     4  10  20  37  61  85 113 149 192 242 292 348
#     4   9  17  33  57  84 112 149 192 234 284 342
#     4  11  24  39  60  86 108 150 197 245 292 336
#     4  12  24  32  50  90 128 151 188 239 292 353
#     4  10  18  34  60  84 116 151 188 239 290 343
#
# _framework density 18.578807000000001
#
# number of rings (size 3 to 8) (size 9 to 14) (size 15 to 20)
#    0.000    1.833    3.333    0.750    3.500    0.667 
#    1.500    1.667    1.833    0.000    0.000    0.000 
#    0.000    0.000    0.000    0.000    0.000    0.000 
#
# Total GULP energy -133924.257872 kJ/mol
# GULP energy per Si atom -5580.177411 kJ/mol
# Density = 1.853652 g / cm^3
# Si number density = 18.578807 Si / 1000 Ang^3
#
#
#
# Elastic Constant Matrix: (Units=GPa)
#
#
# Indices 1 2 3 4 5 6 
#
# 1 60.5364 35.8068 20.8126 0.0000 0.0000 0.0000
# 2 35.8068 177.3629 74.4883 0.0000 0.0000 0.0000
# 3 20.8126 74.4883 116.0332 0.0000 0.0000 0.0000
# 4 0.0000 0.0000 0.0000 19.6628 0.0000 0.0000
# 5 0.0000 0.0000 0.0000 0.0000 5.6899 0.0000
# 6 0.0000 0.0000 0.0000 0.0000 0.0000 34.0010
#
#
#
# Elastic Compliance Matrix: (Units=1/GPa)
#
#
# Indices 1 2 3 4 5 6 
#
# 1 0.018899 -0.003275 -0.001288 0.000000 0.000000 0.000000
# 2 -0.003275 0.008287 -0.004732 0.000000 0.000000 0.000000
# 3 -0.001288 -0.004732 0.011887 0.000000 0.000000 0.000000
# 4 0.000000 0.000000 0.000000 0.050858 0.000000 0.000000
# 5 0.000000 0.000000 0.000000 0.000000 0.175749 0.000000
# 6 0.000000 0.000000 0.000000 0.000000 0.000000 0.029411
#
#
# Mechanical properties :
#
#
# Convention : Reuss Voigt Hill
#
# Bulk Modulus (GPa) = 48.82031 68.46087 58.64059
# Shear Modulus (GPa) = 15.60031 26.72573 21.16302
#
# Velocity S-wave (km/s) = 2.90087 3.79688 3.37871
# Velocity P-wave (km/s) = 6.12818 7.49337 6.84489
#
# Compressibility (1/GPa) = 0.02048328
#
# Stress axis : x y z
#
# Youngs Moduli (GPa) = 52.91407 120.67509 84.12428
#
# Poissons Ratio (x) = 0.39515 0.10833
# Poissons Ratio (y) = 0.17327 0.39811
# Poissons Ratio (z) = 0.06814 0.57108
#
# Static dielectric constant tensor:
#      x y z
#    x 1.665550 0.000000 0.000000 
#    y 0.000000 1.649050 0.000000 
#    z 0.000000 0.000000 1.641300 
# 
# From -- ./inp_files/16761.got.cif
#   From: 2010.05.17/outbox.cif.g08.bks.cpg/sg38_9_cif.got.tgz:16761.got - 2010.06.03 18:07:57.
