data_PCOD9356367
_publ_section_title
;
Structure prediction by ZEFSAII (Michael W. Deem and Ramdas Pophale) SiO2 
 PCOD9356367
Probable space group: A M M 2
;
_chemical_formula_sum "Si O2"
_cell_formula_units_Z 64
_cell_length_a 7.805324
_cell_length_b 21.591742
_cell_length_c 20.089937
_cell_angle_alpha 90.000000
_cell_angle_beta 90.000000
_cell_angle_gamma 90.000000
_cell_volume 3385.767972
_symmetry_space_group_name_H-M "A M M 2"
_symmetry_group_IT_number 38
_symmetry_cell_setting 'orthorhombic'
loop_
_space_group_symop_operation_xyz
x,y,z
-x,-y,z
-x,y,z
x,-y,z
x,1/2+y,1/2+z
-x,1/2-y,1/2+z
-x,1/2+y,1/2+z
x,1/2-y,1/2+z
loop_
_atom_site_type_symbol
_atom_site_label
_atom_site_fract_x
_atom_site_fract_y
_atom_site_fract_z
Si Si1 0.792518 0.380657 0.948490
Si Si2 0.290440 0.809710 0.234530
Si Si3 0.197704 0.889469 0.595239
Si Si4 0.295382 0.188154 0.813061
Si Si5 0.795167 0.237808 0.951825
Si Si6 0.298783 0.567801 0.237981
Si Si7 0.701726 0.747811 0.597976
Si Si8 0.704540 0.567699 0.807207
O O1 0.735111 0.308990 0.939807
O O2 0.734785 0.418956 0.885087
O O3 0.000000 0.380623 0.950379
O O4 0.733118 0.403605 0.021208
O O5 0.500000 0.811018 0.237761
O O6 0.230236 0.750703 0.277565
O O7 0.242441 0.795749 0.158451
O O8 0.227056 0.873856 0.265674
O O9 0.286123 0.918022 0.659405
O O10 0.207802 0.814645 0.600748
O O11 0.000000 0.908979 0.597793
O O12 0.500000 0.188109 0.802205
O O13 0.262132 0.195175 0.891177
O O14 0.224945 0.126222 0.778432
O O15 0.000000 0.238974 0.953414
O O16 0.730941 0.220147 0.025000
O O17 0.500000 0.565032 0.254930
O O18 0.223162 0.500000 0.251887
O O19 0.500000 0.760754 0.607037
O O20 0.500000 0.566298 0.796644
O O21 0.774502 0.500000 0.789541
#
# Coordination Sequence:
#
# PCOD9356367 Si02
#       8
#     8   8   8   8   8   8   8   8
#     4   9  19  33  47  68 101 137 169 201 241 293
#     4   9  17  31  52  77 100 126 168 211 250 296
#     4  10  20  33  49  73 106 139 173 211 254 307
#     4  10  18  33  55  77 100 133 172 213 257 303
#     4  10  20  33  50  79 108 132 167 213 259 306
#     4  10  21  36  53  75 103 135 175 218 259 311
#     4  10  18  32  54  77 102 135 171 213 260 304
#     4  10  20  33  50  73 100 130 165 207 250 293
#
# _framework density 18.902653000000001
#
# number of rings (size 3 to 8) (size 9 to 14) (size 15 to 20)
#    0.000    2.250    2.500    1.875    0.000    4.000 
#    0.000    3.750    0.000    0.750    0.000    3.500 
#    0.000    0.000    0.000    0.000    0.000    0.000 
#
# Total GULP energy -178561.168172 kJ/mol
# GULP energy per Si atom -5580.036505 kJ/mol
# Density = 1.885963 g / cm^3
# Si number density = 18.902653 Si / 1000 Ang^3
#
#
#
# Elastic Constant Matrix: (Units=GPa)
#
#
# Indices 1 2 3 4 5 6 
#
# 1 23.6514 7.1397 -7.4402 0.0000 0.0000 0.0000
# 2 7.1397 126.4522 75.0188 0.0000 0.0000 0.0000
# 3 -7.4402 75.0188 116.6386 0.0000 0.0000 0.0000
# 4 0.0000 0.0000 0.0000 17.3716 0.0000 0.0000
# 5 0.0000 0.0000 0.0000 0.0000 61.1835 0.0000
# 6 0.0000 0.0000 0.0000 0.0000 0.0000 2.0027
#
#
#
# Elastic Compliance Matrix: (Units=1/GPa)
#
#
# Indices 1 2 3 4 5 6 
#
# 1 0.046820 -0.007140 0.007579 0.000000 0.000000 0.000000
# 2 -0.007140 0.013876 -0.009380 0.000000 0.000000 0.000000
# 3 0.007579 -0.009380 0.015090 0.000000 0.000000 0.000000
# 4 0.000000 0.000000 0.000000 0.057565 0.000000 0.000000
# 5 0.000000 0.000000 0.000000 0.000000 0.016344 0.000000
# 6 0.000000 0.000000 0.000000 0.000000 0.000000 0.499323
#
#
# Mechanical properties :
#
#
# Convention : Reuss Voigt Hill
#
# Bulk Modulus (GPa) = 17.26999 46.24211 31.75605
# Shear Modulus (GPa) = 7.28648 28.91315 18.09981
#
# Velocity S-wave (km/s) = 1.96548 3.91523 3.09775
# Velocity P-wave (km/s) = 3.78245 6.70486 5.44344
#
# Compressibility (1/GPa) = 0.05790391
#
# Stress axis : x y z
#
# Youngs Moduli (GPa) = 21.35830 72.06633 66.26910
#
# Poissons Ratio (x) = 0.51453 -0.50223
# Poissons Ratio (y) = 0.15249 0.62162
# Poissons Ratio (z) = -0.16187 0.67599
#
# Static dielectric constant tensor:
#      x y z
#    x 1.679860 0.000000 0.000000 
#    y 0.000000 1.669180 0.000000 
#    z 0.000000 0.000000 1.651920 
# 
# From -- ./inp_files/17181.got.cif
#   From: 2010.05.17/outbox.cif.g08.bks.cpg/sg38_9_cif.got.tgz:17181.got - 2010.06.03 18:07:57.
