data_PCOD9356146
_publ_section_title
;
Structure prediction by ZEFSAII (Michael W. Deem and Ramdas Pophale) SiO2 
 PCOD9356146
Probable space group: A M M 2
;
_chemical_formula_sum "Si O2"
_cell_formula_units_Z 52
_cell_length_a 24.423779
_cell_length_b 18.679605
_cell_length_c 5.486374
_cell_angle_alpha 90.000000
_cell_angle_beta 90.000000
_cell_angle_gamma 90.000000
_cell_volume 2503.029451
_symmetry_space_group_name_H-M "A M M 2"
_symmetry_group_IT_number 38
_symmetry_cell_setting 'orthorhombic'
loop_
_space_group_symop_operation_xyz
x,y,z
-x,-y,z
-x,y,z
x,-y,z
x,1/2+y,1/2+z
-x,1/2-y,1/2+z
-x,1/2+y,1/2+z
x,1/2-y,1/2+z
loop_
_atom_site_type_symbol
_atom_site_label
_atom_site_fract_x
_atom_site_fract_y
_atom_site_fract_z
Si Si1 0.000000 0.296874 0.542820
Si Si2 0.562890 0.204320 0.012001
Si Si3 0.162694 0.673095 0.978903
Si Si4 0.247618 0.500000 0.168230
Si Si5 0.747156 0.500000 0.666180
Si Si6 0.671206 0.359406 0.636428
Si Si7 0.285864 0.341490 0.136841
Si Si8 0.120297 0.836787 0.978158
O O1 0.943885 0.341112 0.532044
O O2 0.000000 0.247910 0.296449
O O3 0.500000 0.178801 0.022262
O O4 0.569859 0.257421 0.247246
O O5 0.608476 0.142978 0.050361
O O6 0.225903 0.681550 0.048943
O O7 0.135195 0.751588 0.956406
O O8 0.136134 0.634243 0.212380
O O9 0.154299 0.638351 0.713995
O O10 0.217459 0.500000 0.422933
O O11 0.283097 0.428023 0.164848
O O12 0.218136 0.500000 0.911433
O O13 0.706111 0.432192 0.661264
O O14 0.700996 0.317968 0.412331
O O15 0.674249 0.328035 0.909896
#
# Coordination Sequence:
#
# PCOD9356146 Si02
#       8
#     4   8   8   4   4   8   8   8
#     4  12  16  30  48  60  82 128 164 184 222 282
#     4  10  21  38  54  70  98 131 165 204 235 280
#     4  10  18  30  40  63  95 125 142 189 229 263
#     4   8  16  30  48  68  89 127 158 188 226 284
#     4   8  16  30  53  70  98 114 154 211 244 270
#     4  10  19  35  51  76  92 128 165 198 241 297
#     4  10  19  32  50  70  99 125 157 191 238 287
#     4  10  19  30  43  63  94 122 154 188 229 266
#
# _framework density 20.774826999999998
#
# number of rings (size 3 to 8) (size 9 to 14) (size 15 to 20)
#    0.000    2.154    3.077    1.846    0.000    0.000 
#   16.615    0.385    0.000    0.000    0.000    9.692 
#    0.000    6.769    0.000    0.000    0.000    0.000 
#
# Total GULP energy -144780.356372 kJ/mol
# GULP energy per Si atom -5568.475245 kJ/mol
# Density = 2.072754 g / cm^3
# Si number density = 20.774827 Si / 1000 Ang^3
#
#
#
# Elastic Constant Matrix: (Units=GPa)
#
#
# Indices 1 2 3 4 5 6 
#
# 1 82.7578 -9.6431 -2.0609 0.0000 0.0000 0.0000
# 2 -9.6431 55.3951 -8.4084 0.0000 0.0000 0.0000
# 3 -2.0609 -8.4084 206.3778 0.0000 0.0000 0.0000
# 4 0.0000 0.0000 0.0000 -18.4610 0.0000 0.0000
# 5 0.0000 0.0000 0.0000 0.0000 35.0707 0.0000
# 6 0.0000 0.0000 0.0000 0.0000 0.0000 8.8486
#
#
#
# Elastic Compliance Matrix: (Units=1/GPa)
#
#
# Indices 1 2 3 4 5 6 
#
# 1 0.012343 0.002181 0.000212 0.000000 0.000000 0.000000
# 2 0.002181 0.018550 0.000778 0.000000 0.000000 0.000000
# 3 0.000212 0.000778 0.004879 0.000000 0.000000 0.000000
# 4 0.000000 0.000000 0.000000 -0.054168 0.000000 0.000000
# 5 0.000000 0.000000 0.000000 0.000000 0.028514 0.000000
# 6 0.000000 0.000000 0.000000 0.000000 0.000000 0.113012
#
#
# Mechanical properties :
#
#
# Convention : Reuss Voigt Hill
#
# Bulk Modulus (GPa) = 23.74571 33.81176 28.77873
# Shear Modulus (GPa) = 38.21872 29.40121 33.80997
#
# Velocity S-wave (km/s) = 4.29378 3.76604 4.03854
# Velocity P-wave (km/s) = 6.00308 5.93476 5.96902
#
# Compressibility (1/GPa) = 0.04211288
#
# Stress axis : x y z
#
# Youngs Moduli (GPa) = 81.01860 53.90894 204.94829
#
# Poissons Ratio (x) = -0.11757 -0.04347
# Poissons Ratio (y) = -0.17669 -0.15936
# Poissons Ratio (z) = -0.01718 -0.04192
#
# Static dielectric constant tensor:
#      x y z
#    x 1.727380 0.000000 0.000000 
#    y 0.000000 1.855760 0.000000 
#    z 0.000000 0.000000 1.876310 
# 
# From -- ./inp_files/1918.got.cif
#   From: 2010.05.17/outbox.cif.g08.bks.cpg/sg38_1_cif.got.tgz:1918.got - 2010.06.03 18:07:57.
