data_PCOD9356471
_publ_section_title
;
Structure prediction by ZEFSAII (Michael W. Deem and Ramdas Pophale) SiO2 
 PCOD9356471
Probable space group: A M M 2
;
_chemical_formula_sum "Si O2"
_cell_formula_units_Z 48
_cell_length_a 8.525328
_cell_length_b 17.081446
_cell_length_c 19.024640
_cell_angle_alpha 90.000000
_cell_angle_beta 90.000000
_cell_angle_gamma 90.000000
_cell_volume 2770.461866
_symmetry_space_group_name_H-M "A M M 2"
_symmetry_group_IT_number 38
_symmetry_cell_setting 'orthorhombic'
loop_
_space_group_symop_operation_xyz
x,y,z
-x,-y,z
-x,y,z
x,-y,z
x,1/2+y,1/2+z
-x,1/2-y,1/2+z
-x,1/2+y,1/2+z
x,1/2-y,1/2+z
loop_
_atom_site_type_symbol
_atom_site_label
_atom_site_fract_x
_atom_site_fract_y
_atom_site_fract_z
Si Si1 0.185711 0.317923 0.661010
Si Si2 0.689945 0.263776 0.441647
Si Si3 0.311323 0.842939 0.316886
Si Si4 0.310176 0.410939 0.527315
Si Si5 0.688908 0.171373 0.582976
Si Si6 0.310176 0.500000 0.048882
Si Si7 0.812892 0.500000 0.889881
O O1 0.249213 0.335297 0.738256
O O2 0.258606 0.375207 0.602021
O O3 0.233312 0.230355 0.637501
O O4 0.000000 0.326823 0.659534
O O5 0.500000 0.266705 0.438635
O O6 0.743868 0.227775 0.368085
O O7 0.744195 0.349110 0.467765
O O8 0.729213 0.204006 0.505082
O O9 0.500000 0.842688 0.315711
O O10 0.254044 0.923158 0.352013
O O11 0.500000 0.411153 0.526193
O O12 0.255511 0.500000 0.518025
O O13 0.500000 0.177651 0.590303
O O14 0.734535 0.080687 0.586883
O O15 0.500000 0.500000 0.041980
O O16 0.240909 0.500000 0.970762
O O17 0.000000 0.500000 0.885719
#
# Coordination Sequence:
#
# PCOD9356471 Si02
#       7
#     8   8   8   8   8   4   4
#     4  11  23  36  51  77 113 146 177 219 273 325
#     4   8  15  30  55  80 100 130 175 222 261 306
#     4  11  21  37  57  76 106 147 185 219 263 320
#     4   9  18  35  58  81 103 133 176 225 271 320
#     4   9  17  34  57  81 105 138 183 222 262 315
#     4  10  18  34  60  84 108 139 182 227 262 316
#     4  12  24  34  50  84 120 141 170 217 276 332
#
# _framework density 17.325631999999999
#
# number of rings (size 3 to 8) (size 9 to 14) (size 15 to 20)
#    0.000    2.167    1.667    3.750    1.167    1.000 
#    0.000    0.833    1.833    0.000    0.000    0.000 
#    0.000    0.000    0.000    0.000    0.000    0.000 
#
# Total GULP energy -133887.464214 kJ/mol
# GULP energy per Si atom -5578.644342 kJ/mol
# Density = 1.728620 g / cm^3
# Si number density = 17.325632 Si / 1000 Ang^3
#
#
#
# Elastic Constant Matrix: (Units=GPa)
#
#
# Indices 1 2 3 4 5 6 
#
# 1 26.8817 21.1056 7.4069 0.0000 0.0000 0.0000
# 2 21.1056 156.3160 48.3104 0.0000 0.0000 0.0000
# 3 7.4069 48.3104 74.4272 0.0000 0.0000 0.0000
# 4 0.0000 0.0000 0.0000 20.4651 0.0000 0.0000
# 5 0.0000 0.0000 0.0000 0.0000 -11.1395 0.0000
# 6 0.0000 0.0000 0.0000 0.0000 0.0000 -4.9079
#
#
#
# Elastic Compliance Matrix: (Units=1/GPa)
#
#
# Indices 1 2 3 4 5 6 
#
# 1 0.041634 -0.005430 -0.000619 0.000000 0.000000 0.000000
# 2 -0.005430 0.008711 -0.005114 0.000000 0.000000 0.000000
# 3 -0.000619 -0.005114 0.016817 0.000000 0.000000 0.000000
# 4 0.000000 0.000000 0.000000 0.048864 0.000000 0.000000
# 5 0.000000 0.000000 0.000000 0.000000 -0.089771 0.000000
# 6 0.000000 0.000000 0.000000 0.000000 0.000000 -0.203753
#
#
# Mechanical properties :
#
#
# Convention : Reuss Voigt Hill
#
# Bulk Modulus (GPa) = 22.30334 45.69675 34.00005
# Shear Modulus (GPa) = -35.65635 12.93701 -11.35967
#
# Velocity S-wave (km/s) = -4.54145 2.73554 -2.56336
# Velocity P-wave (km/s) = 3.82083 6.03408 3.30237
#
# Compressibility (1/GPa) = 0.04483633
#
# Stress axis : x y z
#
# Youngs Moduli (GPa) = 24.01894 114.79836 59.46406
#
# Poissons Ratio (x) = 0.62337 0.03679
# Poissons Ratio (y) = 0.13043 0.30409
# Poissons Ratio (z) = 0.01486 0.58706
#
# Static dielectric constant tensor:
#      x y z
#    x 1.588060 0.000000 0.000000 
#    y 0.000000 1.590500 0.000000 
#    z 0.000000 0.000000 1.556620 
# 
# From -- ./inp_files/12109.got.cif
#   From: 2010.05.17/outbox.cif.g08.bks.cpg/sg38_7_cif.got.tgz:12109.got - 2010.06.03 18:07:57.
