data_PCOD9356923
_publ_section_title
;
Structure prediction by ZEFSAII (Michael W. Deem and Ramdas Pophale) SiO2 
 PCOD9356923
Probable space group: A M M 2
;
_chemical_formula_sum "Si O2"
_cell_formula_units_Z 64
_cell_length_a 18.847258
_cell_length_b 8.700984
_cell_length_c 21.524659
_cell_angle_alpha 90.000000
_cell_angle_beta 90.000000
_cell_angle_gamma 90.000000
_cell_volume 3529.822163
_symmetry_space_group_name_H-M "A M M 2"
_symmetry_group_IT_number 38
_symmetry_cell_setting 'orthorhombic'
loop_
_space_group_symop_operation_xyz
x,y,z
-x,-y,z
-x,y,z
x,-y,z
x,1/2+y,1/2+z
-x,1/2-y,1/2+z
-x,1/2+y,1/2+z
x,1/2-y,1/2+z
loop_
_atom_site_type_symbol
_atom_site_label
_atom_site_fract_x
_atom_site_fract_y
_atom_site_fract_z
Si Si1 0.082039 0.185289 0.344800
Si Si2 0.663443 0.682894 0.468955
Si Si3 0.163167 0.676842 0.095239
Si Si4 0.324202 0.184354 0.232406
Si Si5 0.582420 0.185180 0.351515
Si Si6 0.834122 0.814732 0.729578
Si Si7 0.178366 0.312894 0.961587
Si Si8 0.664222 0.323214 0.100872
O O1 0.114688 0.260361 0.283654
O O2 0.129584 0.230041 0.403921
O O3 0.000000 0.226845 0.353421
O O4 0.086529 0.000000 0.339063
O O5 0.666518 0.500000 0.470199
O O6 0.613446 0.740652 0.413765
O O7 0.742200 0.749291 0.455732
O O8 0.640527 0.743211 0.537139
O O9 0.138373 0.500000 0.094358
O O10 0.140846 0.743961 0.161430
O O11 0.249348 0.677071 0.098003
O O12 0.146628 0.743508 0.027661
O O13 0.372453 0.231022 0.290805
O O14 0.245154 0.251561 0.240745
O O15 0.353531 0.242595 0.165996
O O16 0.319830 0.000000 0.230819
O O17 0.500000 0.224114 0.343365
O O18 0.588460 0.000000 0.357333
O O19 0.830261 0.000000 0.727140
O O20 0.183101 0.500000 0.964318
O O21 0.641097 0.500000 0.101640
#
# Coordination Sequence:
#
# PCOD9356923 Si02
#       8
#     8   8   8   8   8   8   8   8
#     4  10  21  35  50  71 101 137 176 218 262 307
#     4  11  21  33  54  83 109 135 174 222 266 310
#     4   7  13  27  48  73  96 121 160 206 248 295
#     4  10  19  33  56  83 107 134 173 221 268 314
#     4  10  22  39  55  73 104 145 181 214 260 316
#     4  10  19  32  52  77 104 135 169 208 259 318
#     4   9  17  33  55  75  99 133 171 212 260 313
#     4   9  17  32  54  79 108 139 172 213 261 315
#
# _framework density 18.131226000000002
#
# number of rings (size 3 to 8) (size 9 to 14) (size 15 to 20)
#    0.000    2.500    0.000    4.500    0.000    5.000 
#    0.000    1.875    0.000    4.500    0.000    0.000 
#    0.000    0.000    0.000    0.000    0.000    0.000 
#
# Total GULP energy -178423.489838 kJ/mol
# GULP energy per Si atom -5575.734057 kJ/mol
# Density = 1.808996 g / cm^3
# Si number density = 18.131226 Si / 1000 Ang^3
#
#
#
# Elastic Constant Matrix: (Units=GPa)
#
#
# Indices 1 2 3 4 5 6 
#
# 1 22.8115 8.6384 -0.3798 0.0000 0.0000 0.0000
# 2 8.6384 33.5260 14.7857 0.0000 0.0000 0.0000
# 3 -0.3798 14.7857 77.3839 0.0000 0.0000 0.0000
# 4 0.0000 0.0000 0.0000 31.4940 0.0000 0.0000
# 5 0.0000 0.0000 0.0000 0.0000 -4.5671 0.0000
# 6 0.0000 0.0000 0.0000 0.0000 0.0000 12.3687
#
#
#
# Elastic Compliance Matrix: (Units=1/GPa)
#
#
# Indices 1 2 3 4 5 6 
#
# 1 0.049169 -0.013951 0.002907 0.000000 0.000000 0.000000
# 2 -0.013951 0.036531 -0.007048 0.000000 0.000000 0.000000
# 3 0.002907 -0.007048 0.014284 0.000000 0.000000 0.000000
# 4 0.000000 0.000000 0.000000 0.031752 0.000000 0.000000
# 5 0.000000 0.000000 0.000000 0.000000 -0.218958 0.000000
# 6 0.000000 0.000000 0.000000 0.000000 0.000000 0.080849
#
#
# Mechanical properties :
#
#
# Convention : Reuss Voigt Hill
#
# Bulk Modulus (GPa) = 15.67439 19.97889 17.82664
# Shear Modulus (GPa) = 97.88997 15.23761 56.56379
#
# Velocity S-wave (km/s) = 7.35574 2.90212 5.59148
# Velocity P-wave (km/s) = 8.98923 4.71940 7.17910
#
# Compressibility (1/GPa) = 0.06379832
#
# Stress axis : x y z
#
# Youngs Moduli (GPa) = 20.33805 27.37424 70.01051
#
# Poissons Ratio (x) = 0.38190 -0.20352
# Poissons Ratio (y) = 0.28374 0.49346
# Poissons Ratio (z) = -0.05912 0.19294
#
# Static dielectric constant tensor:
#      x y z
#    x 1.586230 0.000000 0.000000 
#    y 0.000000 1.622730 0.000000 
#    z 0.000000 0.000000 1.649640 
# 
# From -- ./inp_files/21456.got.cif
#   From: 2010.05.17/outbox.cif.g08.bks.cpg/sg38_11_cif.got.tgz:21456.got - 2010.06.03 18:07:57.
