data_PCOD9356708
_publ_section_title
;
Structure prediction by ZEFSAII (Michael W. Deem and Ramdas Pophale) SiO2 
 PCOD9356708
Probable space group: A M M 2
;
_chemical_formula_sum "Si O2"
_cell_formula_units_Z 64
_cell_length_a 8.608715
_cell_length_b 23.872729
_cell_length_c 19.724196
_cell_angle_alpha 90.000000
_cell_angle_beta 90.000000
_cell_angle_gamma 90.000000
_cell_volume 4053.588954
_symmetry_space_group_name_H-M "A M M 2"
_symmetry_group_IT_number 38
_symmetry_cell_setting 'orthorhombic'
loop_
_space_group_symop_operation_xyz
x,y,z
-x,-y,z
-x,y,z
x,-y,z
x,1/2+y,1/2+z
-x,1/2-y,1/2+z
-x,1/2+y,1/2+z
x,1/2-y,1/2+z
loop_
_atom_site_type_symbol
_atom_site_label
_atom_site_fract_x
_atom_site_fract_y
_atom_site_fract_z
Si Si1 0.813842 0.161320 0.502250
Si Si2 0.312216 0.124601 0.732445
Si Si3 0.813787 0.750681 0.235858
Si Si4 0.687547 0.435430 0.091748
Si Si5 0.687437 0.935931 0.872573
Si Si6 0.811544 0.228918 0.086306
Si Si7 0.315269 0.273246 0.878827
Si Si8 0.813586 0.835269 0.955881
O O1 0.754523 0.103319 0.532538
O O2 0.764276 0.211219 0.554108
O O3 0.746982 0.179231 0.429613
O O4 0.000000 0.161822 0.498946
O O5 0.500000 0.131433 0.732695
O O6 0.235429 0.185472 0.735370
O O7 0.267813 0.092088 0.663903
O O8 0.269256 0.089048 0.798958
O O9 0.759532 0.775700 0.163684
O O10 0.741277 0.778962 0.301947
O O11 0.000000 0.754239 0.239976
O O12 0.500000 0.434217 0.088454
O O13 0.737678 0.500000 0.088099
O O14 0.500000 0.935169 0.875843
O O15 0.752557 0.894033 0.928883
O O16 0.739799 0.000000 0.879661
O O17 0.000000 0.229042 0.087506
O O18 0.763584 0.182003 0.032007
O O19 0.500000 0.271018 0.881478
O O20 0.248845 0.214373 0.907548
O O21 0.000000 0.834126 0.952998
#
# Coordination Sequence:
#
# PCOD9356708 Si02
#       8
#     8   8   8   8   8   8   8   8
#     4  10  19  34  51  71  96 129 169 209 249 292
#     4  10  19  31  46  68 100 137 174 206 237 283
#     4  11  19  31  50  73  99 131 163 202 249 298
#     4  10  20  33  49  71 101 138 175 209 247 291
#     4  10  20  33  48  68  98 136 172 205 241 283
#     4   8  17  31  48  69  96 124 156 200 250 291
#     4  11  21  33  49  72  99 128 161 203 254 304
#     4  10  19  33  50  71  96 127 165 206 245 289
#
# _framework density 15.788478
#
# number of rings (size 3 to 8) (size 9 to 14) (size 15 to 20)
#    0.000    2.000    2.500    3.375    0.000    2.000 
#    0.000    1.875    0.000    2.250    0.000    0.875 
#    0.000    5.000    0.000    0.000    0.000    0.000 
#
# Total GULP energy -178556.141495 kJ/mol
# GULP energy per Si atom -5579.879422 kJ/mol
# Density = 1.575254 g / cm^3
# Si number density = 15.788478 Si / 1000 Ang^3
#
#
#
# Elastic Constant Matrix: (Units=GPa)
#
#
# Indices 1 2 3 4 5 6 
#
# 1 34.1444 26.6941 32.4361 0.0000 0.0000 0.0000
# 2 26.6941 88.6151 68.0942 0.0000 0.0000 0.0000
# 3 32.4361 68.0942 151.8919 0.0000 0.0000 0.0000
# 4 0.0000 0.0000 0.0000 21.0017 0.0000 0.0000
# 5 0.0000 0.0000 0.0000 0.0000 19.8626 0.0000
# 6 0.0000 0.0000 0.0000 0.0000 0.0000 -4.8889
#
#
#
# Elastic Compliance Matrix: (Units=1/GPa)
#
#
# Indices 1 2 3 4 5 6 
#
# 1 0.040526 -0.008479 -0.004853 0.000000 0.000000 0.000000
# 2 -0.008479 0.018989 -0.006702 0.000000 0.000000 0.000000
# 3 -0.004853 -0.006702 0.010625 0.000000 0.000000 0.000000
# 4 0.000000 0.000000 0.000000 0.047615 0.000000 0.000000
# 5 0.000000 0.000000 0.000000 0.000000 0.050346 0.000000
# 6 0.000000 0.000000 0.000000 0.000000 0.000000 -0.204544
#
#
# Mechanical properties :
#
#
# Convention : Reuss Voigt Hill
#
# Bulk Modulus (GPa) = 33.25387 58.78894 46.02140
# Shear Modulus (GPa) = 366.31089 17.02353 191.66721
#
# Velocity S-wave (km/s) = 15.24845 3.28720 11.02998
# Velocity P-wave (km/s) = 18.19693 7.19192 13.83568
#
# Compressibility (1/GPa) = 0.03007169
#
# Stress axis : x y z
#
# Youngs Moduli (GPa) = 24.67527 52.66177 94.11988
#
# Poissons Ratio (x) = 0.44650 0.45679
# Poissons Ratio (y) = 0.20921 0.63083
# Poissons Ratio (z) = 0.11976 0.35296
#
# Static dielectric constant tensor:
#      x y z
#    x 1.533900 0.000000 0.000000 
#    y 0.000000 1.500640 0.000000 
#    z 0.000000 0.000000 1.538580 
# 
# From -- ./inp_files/17310.got.cif
#   From: 2010.05.17/outbox.cif.g08.bks.cpg/sg38_9_cif.got.tgz:17310.got - 2010.06.03 18:07:57.
