data_PCOD9356672
_publ_section_title
;
Structure prediction by ZEFSAII (Michael W. Deem and Ramdas Pophale) SiO2 
 PCOD9356672
Probable space group: A M M 2
;
_chemical_formula_sum "Si O2"
_cell_formula_units_Z 64
_cell_length_a 14.211065
_cell_length_b 8.879645
_cell_length_c 29.078838
_cell_angle_alpha 90.000000
_cell_angle_beta 90.000000
_cell_angle_gamma 90.000000
_cell_volume 3669.435661
_symmetry_space_group_name_H-M "A M M 2"
_symmetry_group_IT_number 38
_symmetry_cell_setting 'orthorhombic'
loop_
_space_group_symop_operation_xyz
x,y,z
-x,-y,z
-x,y,z
x,-y,z
x,1/2+y,1/2+z
-x,1/2-y,1/2+z
-x,1/2+y,1/2+z
x,1/2-y,1/2+z
loop_
_atom_site_type_symbol
_atom_site_label
_atom_site_fract_x
_atom_site_fract_y
_atom_site_fract_z
Si Si1 0.606846 0.182571 0.238430
Si Si2 0.611453 0.833476 0.074476
Si Si3 0.110347 0.819356 0.591471
Si Si4 0.739480 0.324646 0.420717
Si Si5 0.393301 0.817663 0.840036
Si Si6 0.387772 0.833759 0.487263
Si Si7 0.109824 0.818559 0.487418
Si Si8 0.744911 0.174126 0.160332
O O1 0.500000 0.222938 0.222152
O O2 0.616739 0.248422 0.289474
O O3 0.692639 0.234782 0.205833
O O4 0.610226 0.000000 0.239450
O O5 0.500000 0.824824 0.080960
O O6 0.639684 0.703618 0.039384
O O7 0.662577 0.823459 0.122455
O O8 0.632758 0.000000 0.054631
O O9 0.138186 0.766933 0.539446
O O10 0.170502 0.755278 0.633672
O O11 0.000000 0.781996 0.596754
O O12 0.119066 0.000000 0.591544
O O13 0.761436 0.500000 0.415639
O O14 0.692243 0.268125 0.373173
O O15 0.654442 0.294945 0.455962
O O16 0.826117 0.244524 0.446411
O O17 0.500000 0.776452 0.856780
O O18 0.390661 0.000000 0.837912
O O19 0.500000 0.831992 0.484770
O O20 0.353700 0.000000 0.473497
O O21 0.000000 0.777855 0.481301
O O22 0.115664 0.000000 0.487309
O O23 0.772125 0.000000 0.168693
#
# Coordination Sequence:
#
# PCOD9356672 Si02
#       8
#     8   8   8   8   8   8   8   8
#     4   9  18  33  52  74 101 131 163 201 245 293
#     4   9  17  29  44  64  95 131 160 189 233 289
#     4   9  19  35  52  71  98 132 167 203 245 291
#     4  11  21  32  50  74  99 128 163 205 251 298
#     4   9  19  35  52  72 100 132 166 204 246 293
#     4  10  20  31  43  64  96 131 166 201 236 283
#     4   9  19  36  55  75 102 134 167 206 250 295
#     4  10  19  30  48  74  99 125 160 201 244 290
#
# _framework density 17.441375000000001
#
# number of rings (size 3 to 8) (size 9 to 14) (size 15 to 20)
#    0.000    2.500    0.000    3.000    0.000    7.750 
#    0.000    2.500    0.000    4.500    0.000    0.000 
#    0.000    0.000    0.000    0.000    0.000    0.000 
#
# Total GULP energy -178222.403492 kJ/mol
# GULP energy per Si atom -5569.450109 kJ/mol
# Density = 1.740168 g / cm^3
# Si number density = 17.441375 Si / 1000 Ang^3
#
#
#
# Elastic Constant Matrix: (Units=GPa)
#
#
# Indices 1 2 3 4 5 6 
#
# 1 102.5468 26.7995 64.6600 0.0000 0.0000 0.0000
# 2 26.7995 14.1206 17.9268 0.0000 0.0000 0.0000
# 3 64.6600 17.9268 83.6169 0.0000 0.0000 0.0000
# 4 0.0000 0.0000 0.0000 26.0039 0.0000 0.0000
# 5 0.0000 0.0000 0.0000 0.0000 36.2532 0.0000
# 6 0.0000 0.0000 0.0000 0.0000 0.0000 25.6725
#
#
#
# Elastic Compliance Matrix: (Units=1/GPa)
#
#
# Indices 1 2 3 4 5 6 
#
# 1 0.027578 -0.034714 -0.013883 0.000000 0.000000 0.000000
# 2 -0.034714 0.141001 -0.003385 0.000000 0.000000 0.000000
# 3 -0.013883 -0.003385 0.023421 0.000000 0.000000 0.000000
# 4 0.000000 0.000000 0.000000 0.038456 0.000000 0.000000
# 5 0.000000 0.000000 0.000000 0.000000 0.027584 0.000000
# 6 0.000000 0.000000 0.000000 0.000000 0.000000 0.038952
#
#
# Mechanical properties :
#
#
# Convention : Reuss Voigt Hill
#
# Bulk Modulus (GPa) = 11.35927 46.56188 28.96057
# Shear Modulus (GPa) = 11.61978 23.64578 17.63278
#
# Velocity S-wave (km/s) = 2.58392 3.68602 3.18303
# Velocity P-wave (km/s) = 3.92800 6.69849 5.49086
#
# Compressibility (1/GPa) = 0.08803386
#
# Stress axis : x y z
#
# Youngs Moduli (GPa) = 36.26124 7.09215 42.69747
#
# Poissons Ratio (x) = 0.24620 0.59277
# Poissons Ratio (y) = 1.25879 0.14454
# Poissons Ratio (z) = 0.50341 0.02401
#
# Static dielectric constant tensor:
#      x y z
#    x 1.614650 0.000000 0.000000 
#    y 0.000000 1.614530 0.000000 
#    z 0.000000 0.000000 1.590840 
# 
# From -- ./inp_files/25106.got.cif
#   From: 2010.05.17/outbox.cif.g08.bks.cpg/sg38_13_cif.got.tgz:25106.got - 2010.06.03 18:07:57.
