data_PCOD9356034
_publ_section_title
;
Structure prediction by ZEFSAII (Michael W. Deem and Ramdas Pophale) SiO2 
 PCOD9356034
Probable space group: A M M 2
;
_chemical_formula_sum "Si O2"
_cell_formula_units_Z 64
_cell_length_a 7.550857
_cell_length_b 15.268705
_cell_length_c 28.716375
_cell_angle_alpha 90.000000
_cell_angle_beta 90.000000
_cell_angle_gamma 90.000000
_cell_volume 3310.762794
_symmetry_space_group_name_H-M "A M M 2"
_symmetry_group_IT_number 38
_symmetry_cell_setting 'orthorhombic'
loop_
_space_group_symop_operation_xyz
x,y,z
-x,-y,z
-x,y,z
x,-y,z
x,1/2+y,1/2+z
-x,1/2-y,1/2+z
-x,1/2+y,1/2+z
x,1/2-y,1/2+z
loop_
_atom_site_type_symbol
_atom_site_label
_atom_site_fract_x
_atom_site_fract_y
_atom_site_fract_z
Si Si1 0.786994 0.598411 0.595320
Si Si2 0.288682 0.222723 0.180639
Si Si3 0.785926 0.399506 0.319452
Si Si4 0.789014 0.282998 0.404902
Si Si5 0.284080 0.400093 0.763178
Si Si6 0.712762 0.598310 0.868897
Si Si7 0.708360 0.097177 0.712304
Si Si8 0.216154 0.100113 0.989588
O O1 0.724465 0.500000 0.608191
O O2 0.738786 0.669956 0.633332
O O3 0.725948 0.617766 0.542621
O O4 0.000000 0.595089 0.593889
O O5 0.500000 0.228941 0.187503
O O6 0.218674 0.166102 0.224128
O O7 0.217184 0.321414 0.183414
O O8 0.734293 0.500000 0.330800
O O9 0.720701 0.332101 0.358473
O O10 0.723663 0.380187 0.267169
O O11 0.000000 0.396917 0.318462
O O12 0.759177 0.179541 0.401366
O O13 0.720915 0.331335 0.451067
O O14 0.000000 0.296712 0.404695
O O15 0.500000 0.397569 0.763318
O O16 0.233471 0.500000 0.751822
O O17 0.225409 0.381416 0.816017
O O18 0.500000 0.594378 0.867205
O O19 0.775265 0.500000 0.881402
O O20 0.500000 0.090398 0.701558
O O21 0.786530 0.000000 0.705766
O O22 0.000000 0.102115 0.989941
O O23 0.265905 0.000000 0.977486
#
# Coordination Sequence:
#
# PCOD9356034 Si02
#       8
#     8   8   8   8   8   8   8   8
#     4   9  18  32  49  69  92 116 143 179 224 272
#     4  10  18  28  46  68  89 117 152 188 224 262
#     4   9  17  28  43  67  97 123 148 182 224 266
#     4  10  18  28  47  71  91 116 152 189 221 259
#     4   8  14  25  41  61  85 115 149 178 209 259
#     4   9  18  32  47  63  89 125 158 186 219 261
#     4   9  18  31  45  63  90 124 158 187 217 259
#     4   8  15  30  50  69  91 119 146 173 216 276
#
# _framework density 19.330891000000001
#
# number of rings (size 3 to 8) (size 9 to 14) (size 15 to 20)
#    0.000    3.000    0.000    3.000    0.000    4.500 
#    0.000    1.250    0.000    3.375    0.000    3.500 
#    0.000    0.000    0.000    0.000    0.000    0.000 
#
# Total GULP energy -178485.065617 kJ/mol
# GULP energy per Si atom -5577.658301 kJ/mol
# Density = 1.928689 g / cm^3
# Si number density = 19.330891 Si / 1000 Ang^3
#
#
#
# Elastic Constant Matrix: (Units=GPa)
#
#
# Indices 1 2 3 4 5 6 
#
# 1 44.0206 3.1218 -1.4606 0.0000 0.0000 0.0000
# 2 3.1218 171.5936 111.0202 0.0000 0.0000 0.0000
# 3 -1.4606 111.0202 97.4055 0.0000 0.0000 0.0000
# 4 0.0000 0.0000 0.0000 32.1518 0.0000 0.0000
# 5 0.0000 0.0000 0.0000 0.0000 17.7675 0.0000
# 6 0.0000 0.0000 0.0000 0.0000 0.0000 8.2860
#
#
#
# Elastic Compliance Matrix: (Units=1/GPa)
#
#
# Indices 1 2 3 4 5 6 
#
# 1 0.022994 -0.002443 0.003129 0.000000 0.000000 0.000000
# 2 -0.002443 0.022454 -0.025629 0.000000 0.000000 0.000000
# 3 0.003129 -0.025629 0.039525 0.000000 0.000000 0.000000
# 4 0.000000 0.000000 0.000000 0.031102 0.000000 0.000000
# 5 0.000000 0.000000 0.000000 0.000000 0.056282 0.000000
# 6 0.000000 0.000000 0.000000 0.000000 0.000000 0.120685
#
#
# Mechanical properties :
#
#
# Convention : Reuss Voigt Hill
#
# Bulk Modulus (GPa) = 28.50093 59.82029 44.16061
# Shear Modulus (GPa) = 14.09943 24.99696 19.54819
#
# Velocity S-wave (km/s) = 2.70362 3.59988 3.18345
# Velocity P-wave (km/s) = 4.95195 6.94921 6.03379
#
# Compressibility (1/GPa) = 0.03508657
#
# Stress axis : x y z
#
# Youngs Moduli (GPa) = 43.49019 44.53504 25.30049
#
# Poissons Ratio (x) = 0.10879 -0.07916
# Poissons Ratio (y) = 0.10624 0.64844
# Poissons Ratio (z) = -0.13608 1.14140
#
# Static dielectric constant tensor:
#      x y z
#    x 1.737270 0.000000 0.000000 
#    y 0.000000 1.704020 0.000000 
#    z 0.000000 0.000000 1.650600 
# 
# From -- ./inp_files/24766.got.cif
#   From: 2010.05.17/outbox.cif.g08.bks.cpg/sg38_13_cif.got.tgz:24766.got - 2010.06.03 18:07:57.
