data_PCOD9356710
_publ_section_title
;
Structure prediction by ZEFSAII (Michael W. Deem and Ramdas Pophale) SiO2 
 PCOD9356710
Probable space group: A M M 2
;
_chemical_formula_sum "Si O2"
_cell_formula_units_Z 36
_cell_length_a 18.440870
_cell_length_b 23.934894
_cell_length_c 5.015290
_cell_angle_alpha 90.000000
_cell_angle_beta 90.000000
_cell_angle_gamma 90.000000
_cell_volume 2213.650048
_symmetry_space_group_name_H-M "A M M 2"
_symmetry_group_IT_number 38
_symmetry_cell_setting 'orthorhombic'
loop_
_space_group_symop_operation_xyz
x,y,z
-x,-y,z
-x,y,z
x,-y,z
x,1/2+y,1/2+z
-x,1/2-y,1/2+z
-x,1/2+y,1/2+z
x,1/2-y,1/2+z
loop_
_atom_site_type_symbol
_atom_site_label
_atom_site_fract_x
_atom_site_fract_y
_atom_site_fract_z
Si Si1 0.084924 0.565486 0.087830
Si Si2 0.000000 0.214485 0.284301
Si Si3 0.128725 0.133684 0.108171
Si Si4 0.578667 0.711376 0.585258
Si Si5 0.735465 0.209917 0.978391
O O1 0.098027 0.500000 0.133931
O O2 0.098729 0.600861 0.352893
O O3 0.000000 0.571728 0.008684
O O4 0.133479 0.590207 0.851161
O O5 0.070772 0.179574 0.207039
O O6 0.000000 0.231179 0.593586
O O7 0.201888 0.165730 0.033006
O O8 0.500000 0.683346 0.541804
O O9 0.579921 0.764659 0.384536
O O10 0.655393 0.683337 0.521098
O O11 0.741581 0.260816 0.191013
#
# Coordination Sequence:
#
# PCOD9356710 Si02
#       5
#     8   4   8   8   8
#     4  11  22  38  54  68  85 114 160 210 250 274
#     4  12  22  32  45  66  95 126 154 176 210 274
#     4  12  21  35  50  70  93 123 157 191 236 279
#     4   8  14  25  42  63  90 125 158 183 213 255
#     4  10  19  31  46  69 101 131 154 184 222 272
#
# _framework density 16.262732
#
# number of rings (size 3 to 8) (size 9 to 14) (size 15 to 20)
#    0.000    1.556    2.222    4.667    0.000    1.778 
#    0.000    0.000    0.000    0.000    0.000    0.000 
#    0.000    5.333    0.000    0.000    0.000    0.000 
#
# Total GULP energy -100412.728634 kJ/mol
# GULP energy per Si atom -5578.484924 kJ/mol
# Density = 1.622572 g / cm^3
# Si number density = 16.262732 Si / 1000 Ang^3
#
#
#
# Elastic Constant Matrix: (Units=GPa)
#
#
# Indices 1 2 3 4 5 6 
#
# 1 89.1030 23.3882 -28.5645 0.0000 0.0000 0.0000
# 2 23.3882 45.6439 -2.7986 0.0000 0.0000 0.0000
# 3 -28.5645 -2.7986 48.7682 0.0000 0.0000 0.0000
# 4 0.0000 0.0000 0.0000 18.8297 0.0000 0.0000
# 5 0.0000 0.0000 0.0000 0.0000 14.8608 0.0000
# 6 0.0000 0.0000 0.0000 0.0000 0.0000 7.0624
#
#
#
# Elastic Compliance Matrix: (Units=1/GPa)
#
#
# Indices 1 2 3 4 5 6 
#
# 1 0.016136 -0.007716 0.009009 0.000000 0.000000 0.000000
# 2 -0.007716 0.025676 -0.003046 0.000000 0.000000 0.000000
# 3 0.009009 -0.003046 0.025607 0.000000 0.000000 0.000000
# 4 0.000000 0.000000 0.000000 0.053108 0.000000 0.000000
# 5 0.000000 0.000000 0.000000 0.000000 0.067291 0.000000
# 6 0.000000 0.000000 0.000000 0.000000 0.000000 0.141594
#
#
# Mechanical properties :
#
#
# Convention : Reuss Voigt Hill
#
# Bulk Modulus (GPa) = 15.64652 18.61836 17.13244
# Shear Modulus (GPa) = 14.11542 20.91658 17.51600
#
# Velocity S-wave (km/s) = 2.94931 3.59021 3.28543
# Velocity P-wave (km/s) = 4.60868 5.35345 4.99497
#
# Compressibility (1/GPa) = 0.06391196
#
# Stress axis : x y z
#
# Youngs Moduli (GPa) = 61.97229 38.94735 39.05209
#
# Poissons Ratio (x) = 0.30052 -0.35180
# Poissons Ratio (y) = 0.47818 0.11895
# Poissons Ratio (z) = -0.55828 0.11863
#
# Static dielectric constant tensor:
#      x y z
#    x 1.589000 0.000000 0.000000 
#    y 0.000000 1.519170 0.000000 
#    z 0.000000 0.000000 1.561760 
# 
# From -- ./inp_files/1541.got.cif
#   From: 2010.05.17/outbox.cif.g08.bks.cpg/sg38_1_cif.got.tgz:1541.got - 2010.06.03 18:07:57.
