data_PCOD9356057
_publ_section_title
;
Structure prediction by ZEFSAII (Michael W. Deem and Ramdas Pophale) SiO2 
 PCOD9356057
Probable space group: A M M 2
;
_chemical_formula_sum "Si O2"
_cell_formula_units_Z 40
_cell_length_a 8.861469
_cell_length_b 26.637746
_cell_length_c 9.211330
_cell_angle_alpha 90.000000
_cell_angle_beta 90.000000
_cell_angle_gamma 90.000000
_cell_volume 2174.330397
_symmetry_space_group_name_H-M "A M M 2"
_symmetry_group_IT_number 38
_symmetry_cell_setting 'orthorhombic'
loop_
_space_group_symop_operation_xyz
x,y,z
-x,-y,z
-x,y,z
x,-y,z
x,1/2+y,1/2+z
-x,1/2-y,1/2+z
-x,1/2+y,1/2+z
x,1/2-y,1/2+z
loop_
_atom_site_type_symbol
_atom_site_label
_atom_site_fract_x
_atom_site_fract_y
_atom_site_fract_z
Si Si1 0.822261 0.000000 0.778160
Si Si2 0.320511 0.610718 0.620757
Si Si3 0.820196 0.796886 0.285990
Si Si4 0.679079 0.000000 0.095517
Si Si5 0.319809 0.603647 0.277384
Si Si6 0.681787 0.204845 0.606179
O O1 0.754830 0.947647 0.721543
O O2 0.000000 0.000000 0.762265
O O3 0.774084 0.000000 0.947893
O O4 0.500000 0.621267 0.635931
O O5 0.227078 0.651639 0.706872
O O6 0.293196 0.553217 0.671507
O O7 0.283839 0.611951 0.448321
O O8 0.745874 0.795578 0.444375
O O9 0.752508 0.751097 0.193262
O O10 0.000000 0.792544 0.295982
O O11 0.500000 0.000000 0.054463
O O12 0.500000 0.597083 0.270146
O O13 0.278527 0.652798 0.186806
O O14 0.500000 0.209554 0.604281
#
# Coordination Sequence:
#
# PCOD9356057 Si02
#       6
#     4   8   8   4   8   8
#     4  10  18  28  51  84 117 148 178 220 278 334
#     4   9  17  34  59  85 112 147 191 233 272 325
#     4  12  25  39  57  85 118 147 179 232 292 338
#     4   8  16  32  55  80 109 146 190 232 266 314
#     4   9  19  36  59  83 109 145 191 234 269 317
#     4  11  23  41  63  83 107 148 195 233 273 334
#
# _framework density 18.396469
#
# number of rings (size 3 to 8) (size 9 to 14) (size 15 to 20)
#    0.000    2.000    0.000    5.700    0.000    6.400 
#    0.000    1.000    0.000    2.400    0.000    0.000 
#    0.000    0.000    0.000    0.000    0.000    0.000 
#
# Total GULP energy -111659.640640 kJ/mol
# GULP energy per Si atom -5582.982032 kJ/mol
# Density = 1.835460 g / cm^3
# Si number density = 18.396469 Si / 1000 Ang^3
#
#
#
# Elastic Constant Matrix: (Units=GPa)
#
#
# Indices 1 2 3 4 5 6 
#
# 1 70.8138 70.0711 39.8435 0.0000 0.0000 0.0000
# 2 70.0711 180.3683 73.3315 0.0000 0.0000 0.0000
# 3 39.8435 73.3315 84.0633 0.0000 0.0000 0.0000
# 4 0.0000 0.0000 0.0000 26.5750 0.0000 0.0000
# 5 0.0000 0.0000 0.0000 0.0000 14.7766 0.0000
# 6 0.0000 0.0000 0.0000 0.0000 0.0000 3.9042
#
#
#
# Elastic Compliance Matrix: (Units=1/GPa)
#
#
# Indices 1 2 3 4 5 6 
#
# 1 0.024263 -0.007361 -0.005078 0.000000 0.000000 0.000000
# 2 -0.007361 0.010824 -0.005954 0.000000 0.000000 0.000000
# 3 -0.005078 -0.005954 0.019496 0.000000 0.000000 0.000000
# 4 0.000000 0.000000 0.000000 0.037629 0.000000 0.000000
# 5 0.000000 0.000000 0.000000 0.000000 0.067674 0.000000
# 6 0.000000 0.000000 0.000000 0.000000 0.000000 0.256137
#
#
# Mechanical properties :
#
#
# Convention : Reuss Voigt Hill
#
# Bulk Modulus (GPa) = 56.18838 77.97083 67.07961
# Shear Modulus (GPa) = 10.89935 19.18445 15.04190
#
# Velocity S-wave (km/s) = 2.43671 3.23280 2.86256
# Velocity P-wave (km/s) = 6.20694 7.51067 6.88971
#
# Compressibility (1/GPa) = 0.01779727
#
# Stress axis : x y z
#
# Youngs Moduli (GPa) = 41.21522 92.38334 51.29152
#
# Poissons Ratio (x) = 0.68005 0.26048
# Poissons Ratio (y) = 0.30339 0.30537
# Poissons Ratio (z) = 0.20931 0.55002
#
# Static dielectric constant tensor:
#      x y z
#    x 1.610240 0.000000 0.000000 
#    y 0.000000 1.649880 0.000000 
#    z 0.000000 0.000000 1.612100 
# 
# From -- ./inp_files/3482.got.cif
#   From: 2010.05.17/outbox.cif.g08.bks.cpg/sg38_2_cif.got.tgz:3482.got - 2010.06.03 18:07:57.
