data_PCOD9356032
_publ_section_title
;
Structure prediction by ZEFSAII (Michael W. Deem and Ramdas Pophale) SiO2 
 PCOD9356032
Probable space group: A M M 2
;
_chemical_formula_sum "Si O2"
_cell_formula_units_Z 64
_cell_length_a 20.699575
_cell_length_b 7.418931
_cell_length_c 20.844482
_cell_angle_alpha 90.000000
_cell_angle_beta 90.000000
_cell_angle_gamma 90.000000
_cell_volume 3201.060392
_symmetry_space_group_name_H-M "A M M 2"
_symmetry_group_IT_number 38
_symmetry_cell_setting 'orthorhombic'
loop_
_space_group_symop_operation_xyz
x,y,z
-x,-y,z
-x,y,z
x,-y,z
x,1/2+y,1/2+z
-x,1/2-y,1/2+z
-x,1/2+y,1/2+z
x,1/2-y,1/2+z
loop_
_atom_site_type_symbol
_atom_site_label
_atom_site_fract_x
_atom_site_fract_y
_atom_site_fract_z
Si Si1 0.321892 0.282860 0.142420
Si Si2 0.336123 0.220045 0.923709
Si Si3 0.156855 0.280853 0.320131
Si Si4 0.819620 0.210992 0.602591
Si Si5 0.926742 0.279261 0.202067
Si Si6 0.572344 0.286000 0.535170
Si Si7 0.190797 0.716997 0.458437
Si Si8 0.302809 0.780749 0.784620
O O1 0.319298 0.500000 0.143439
O O2 0.252409 0.215338 0.116141
O O3 0.380275 0.237257 0.095449
O O4 0.328879 0.220472 0.215944
O O5 0.265603 0.274752 0.950279
O O6 0.339158 0.276856 0.849423
O O7 0.336527 0.000000 0.924025
O O8 0.391058 0.284925 0.971906
O O9 0.156339 0.500000 0.320650
O O10 0.101837 0.223516 0.271044
O O11 0.154037 0.221763 0.394160
O O12 0.227501 0.228956 0.292923
O O13 0.875997 0.283274 0.648095
O O14 0.834562 0.226527 0.527463
O O15 0.815337 0.000000 0.618967
O O16 0.927488 0.500000 0.201076
O O17 0.000000 0.219771 0.191789
O O18 0.500000 0.214105 0.544387
O O19 0.566883 0.500000 0.525673
O O20 0.190770 0.500000 0.457766
O O21 0.303744 0.000000 0.784525
#
# Coordination Sequence:
#
# PCOD9356032 Si02
#       8
#     8   8   8   8   8   8   8   8
#     4  10  18  29  48  72  96 120 151 195 238 275
#     4   8  14  26  45  68  89 113 149 189 228 268
#     4   8  13  24  43  67  89 114 153 196 232 266
#     4  10  18  28  45  71  98 123 154 193 233 276
#     4   9  16  27  44  67  96 127 158 193 236 283
#     4  10  20  33  48  67  94 126 157 188 228 284
#     4   9  16  27  47  70  92 118 151 192 234 274
#     4   8  13  24  44  68  91 111 143 195 236 259
#
# _framework density 19.993373999999999
#
# number of rings (size 3 to 8) (size 9 to 14) (size 15 to 20)
#    0.000    3.000    2.500    1.500    0.000    0.250 
#    0.000    1.250    0.000    7.875    0.000    0.000 
#    0.000    0.000    0.000    0.000    0.000    0.000 
#
# Total GULP energy -178462.415536 kJ/mol
# GULP energy per Si atom -5576.950486 kJ/mol
# Density = 1.994787 g / cm^3
# Si number density = 19.993374 Si / 1000 Ang^3
#
#
#
# Elastic Constant Matrix: (Units=GPa)
#
#
# Indices 1 2 3 4 5 6 
#
# 1 144.6589 5.9809 101.9557 0.0000 0.0000 0.0000
# 2 5.9809 62.1785 -3.8393 0.0000 0.0000 0.0000
# 3 101.9557 -3.8393 176.8399 0.0000 0.0000 0.0000
# 4 0.0000 0.0000 0.0000 8.5030 0.0000 0.0000
# 5 0.0000 0.0000 0.0000 0.0000 25.3425 0.0000
# 6 0.0000 0.0000 0.0000 0.0000 0.0000 0.6171
#
#
#
# Elastic Compliance Matrix: (Units=1/GPa)
#
#
# Indices 1 2 3 4 5 6 
#
# 1 0.011793 -0.001556 -0.006833 0.000000 0.000000 0.000000
# 2 -0.001556 0.016310 0.001251 0.000000 0.000000 0.000000
# 3 -0.006833 0.001251 0.009622 0.000000 0.000000 0.000000
# 4 0.000000 0.000000 0.000000 0.117605 0.000000 0.000000
# 5 0.000000 0.000000 0.000000 0.000000 0.039459 0.000000
# 6 0.000000 0.000000 0.000000 0.000000 0.000000 1.620392
#
#
# Mechanical properties :
#
#
# Convention : Reuss Voigt Hill
#
# Bulk Modulus (GPa) = 42.64679 65.76356 54.20517
# Shear Modulus (GPa) = 2.72142 25.53119 14.12631
#
# Velocity S-wave (km/s) = 1.16795 3.57737 2.66098
# Velocity P-wave (km/s) = 4.81618 7.07301 6.05075
#
# Compressibility (1/GPa) = 0.02344842
#
# Stress axis : x y z
#
# Youngs Moduli (GPa) = 84.79563 61.31327 103.93379
#
# Poissons Ratio (x) = 0.09542 0.71018
# Poissons Ratio (y) = 0.13197 -0.13006
# Poissons Ratio (z) = 0.57941 -0.07673
#
# Static dielectric constant tensor:
#      x y z
#    x 1.674930 0.000000 0.000000 
#    y 0.000000 1.805280 0.000000 
#    z 0.000000 0.000000 1.710450 
# 
# From -- ./inp_files/18767.got.cif
#   From: 2010.05.17/outbox.cif.g08.bks.cpg/sg38_10_cif.got.tgz:18767.got - 2010.06.03 18:07:57.
