data_PCOD9356370
_publ_section_title
;
Structure prediction by ZEFSAII (Michael W. Deem and Ramdas Pophale) SiO2 
 PCOD9356370
Probable space group: A M M 2
;
_chemical_formula_sum "Si O2"
_cell_formula_units_Z 56
_cell_length_a 17.269923
_cell_length_b 7.833788
_cell_length_c 21.196124
_cell_angle_alpha 90.000000
_cell_angle_beta 90.000000
_cell_angle_gamma 90.000000
_cell_volume 2867.600630
_symmetry_space_group_name_H-M "A M M 2"
_symmetry_group_IT_number 38
_symmetry_cell_setting 'orthorhombic'
loop_
_space_group_symop_operation_xyz
x,y,z
-x,-y,z
-x,y,z
x,-y,z
x,1/2+y,1/2+z
-x,1/2-y,1/2+z
-x,1/2+y,1/2+z
x,1/2-y,1/2+z
loop_
_atom_site_type_symbol
_atom_site_label
_atom_site_fract_x
_atom_site_fract_y
_atom_site_fract_z
Si Si1 0.412754 0.205181 0.966880
Si Si2 0.000000 0.208046 0.338291
Si Si3 0.751061 0.702437 0.013481
Si Si4 0.833971 0.709410 0.886799
Si Si5 0.586790 0.705678 0.322891
Si Si6 0.833713 0.205305 0.143216
Si Si7 0.741456 0.203407 0.263974
Si Si8 0.000000 0.291093 0.690674
O O1 0.500000 0.264774 0.984388
O O2 0.396404 0.265663 0.894809
O O3 0.416101 0.000000 0.964816
O O4 0.339709 0.250867 0.009755
O O5 0.077745 0.261755 0.374091
O O6 0.000000 0.260954 0.264574
O O7 0.000000 0.000000 0.336989
O O8 0.754705 0.500000 0.009502
O O9 0.795455 0.754111 0.076558
O O10 0.795001 0.771644 0.951267
O O11 0.832700 0.500000 0.887565
O O12 0.784830 0.768583 0.826408
O O13 0.500000 0.762092 0.306957
O O14 0.587410 0.500000 0.324464
O O15 0.651450 0.763199 0.274410
O O16 0.779725 0.270998 0.200273
O O17 0.921404 0.266008 0.156138
O O18 0.836667 0.000000 0.147578
O O19 0.753285 0.000000 0.263473
O O20 0.000000 0.500000 0.690951
#
# Coordination Sequence:
#
# PCOD9356370 Si02
#       8
#     8   4   8   8   8   8   8   4
#     4   9  18  34  56  80 106 139 179 222 269 322
#     4   9  14  27  52  79 105 134 177 226 268 309
#     4  11  22  35  52  80 115 146 177 219 274 327
#     4   9  17  29  49  78 106 132 171 222 266 307
#     4   9  18  32  52  80 111 141 173 214 269 325
#     4  10  21  36  56  79 107 145 186 225 266 317
#     4  10  18  32  54  80 105 134 178 226 264 307
#     4   9  16  31  55  79 101 136 183 226 266 315
#
# _framework density 19.52852
#
# number of rings (size 3 to 8) (size 9 to 14) (size 15 to 20)
#    0.000    2.429    2.857    1.286    0.000    1.714 
#    0.000    3.214    0.000    0.857    0.000    1.500 
#    0.000    0.000    0.000    0.000    0.000    0.000 
#
# Total GULP energy -156196.773388 kJ/mol
# GULP energy per Si atom -5578.456192 kJ/mol
# Density = 1.948407 g / cm^3
# Si number density = 19.528520 Si / 1000 Ang^3
#
#
#
# Elastic Constant Matrix: (Units=GPa)
#
#
# Indices 1 2 3 4 5 6 
#
# 1 186.9087 6.8993 100.5363 0.0000 0.0000 0.0000
# 2 6.8993 22.0015 10.2725 0.0000 0.0000 0.0000
# 3 100.5363 10.2725 145.5702 0.0000 0.0000 0.0000
# 4 0.0000 0.0000 0.0000 16.7366 0.0000 0.0000
# 5 0.0000 0.0000 0.0000 0.0000 25.1633 0.0000
# 6 0.0000 0.0000 0.0000 0.0000 0.0000 -4.5607
#
#
#
# Elastic Compliance Matrix: (Units=1/GPa)
#
#
# Indices 1 2 3 4 5 6 
#
# 1 0.008513 0.000078 -0.005885 0.000000 0.000000 0.000000
# 2 0.000078 0.047001 -0.003371 0.000000 0.000000 0.000000
# 3 -0.005885 -0.003371 0.011172 0.000000 0.000000 0.000000
# 4 0.000000 0.000000 0.000000 0.059749 0.000000 0.000000
# 5 0.000000 0.000000 0.000000 0.000000 0.039740 0.000000
# 6 0.000000 0.000000 0.000000 0.000000 0.000000 -0.219265
#
#
# Mechanical properties :
#
#
# Convention : Reuss Voigt Hill
#
# Bulk Modulus (GPa) = 20.69088 65.54407 43.11748
# Shear Modulus (GPa) = -268.43497 23.25268 -122.59115
#
# Velocity S-wave (km/s) = -11.73696 3.45440 -7.93169
# Velocity P-wave (km/s) = 13.15511 7.03894 7.85844
#
# Compressibility (1/GPa) = 0.04833047
#
# Stress axis : x y z
#
# Youngs Moduli (GPa) = 117.47280 21.27629 89.51306
#
# Poissons Ratio (x) = -0.00166 0.52675
# Poissons Ratio (y) = -0.00918 0.30172
# Poissons Ratio (z) = 0.69129 0.07172
#
# Static dielectric constant tensor:
#      x y z
#    x 1.702410 0.000000 0.000000 
#    y 0.000000 1.724520 0.000000 
#    z 0.000000 0.000000 1.668200 
# 
# From -- ./inp_files/21157.got.cif
#   From: 2010.05.17/outbox.cif.g08.bks.cpg/sg38_11_cif.got.tgz:21157.got - 2010.06.03 18:07:57.
