data_PCOD9356876
_publ_section_title
;
Structure prediction by ZEFSAII (Michael W. Deem and Ramdas Pophale) SiO2 
 PCOD9356876
Probable space group: A M M 2
;
_chemical_formula_sum "Si O2"
_cell_formula_units_Z 64
_cell_length_a 8.897879
_cell_length_b 31.110762
_cell_length_c 14.813544
_cell_angle_alpha 90.000000
_cell_angle_beta 90.000000
_cell_angle_gamma 90.000000
_cell_volume 4100.682226
_symmetry_space_group_name_H-M "A M M 2"
_symmetry_group_IT_number 38
_symmetry_cell_setting 'orthorhombic'
loop_
_space_group_symop_operation_xyz
x,y,z
-x,-y,z
-x,y,z
x,-y,z
x,1/2+y,1/2+z
-x,1/2-y,1/2+z
-x,1/2+y,1/2+z
x,1/2-y,1/2+z
loop_
_atom_site_type_symbol
_atom_site_label
_atom_site_fract_x
_atom_site_fract_y
_atom_site_fract_z
Si Si1 0.319961 0.267812 0.420460
Si Si2 0.319822 0.203137 0.720981
Si Si3 0.681934 0.291577 0.621167
Si Si4 0.825705 0.824892 0.411046
Si Si5 0.824731 0.129098 0.604568
Si Si6 0.821100 0.450491 0.818622
Si Si7 0.678892 0.450265 0.016909
Si Si8 0.321473 0.630183 0.743950
O O1 0.500000 0.258226 0.421783
O O2 0.289861 0.292886 0.327732
O O3 0.281999 0.290247 0.515241
O O4 0.228070 0.223866 0.416916
O O5 0.500000 0.200679 0.708044
O O6 0.267834 0.247521 0.671357
O O7 0.246269 0.161361 0.676989
O O8 0.500000 0.291452 0.629426
O O9 0.733825 0.334948 0.670611
O O10 0.811731 0.846345 0.508700
O O11 0.720195 0.848294 0.339422
O O12 0.000000 0.828240 0.382448
O O13 0.742945 0.083843 0.587897
O O14 0.000000 0.122074 0.623621
O O15 0.787127 0.500000 0.794844
O O16 0.755512 0.416215 0.748631
O O17 0.000000 0.445267 0.825396
O O18 0.752272 0.442665 0.918320
O O19 0.500000 0.445043 0.008526
O O20 0.711034 0.500000 0.041042
O O21 0.500000 0.625068 0.735151
#
# Coordination Sequence:
#
# PCOD9356876 Si02
#       8
#     8   8   8   8   8   8   8   8
#     4  10  19  34  51  68  96 131 168 209 249 288
#     4  10  19  32  51  71  94 130 170 205 245 289
#     4   9  18  31  49  73  96 124 165 207 247 287
#     4  11  21  30  44  69 100 132 166 202 244 288
#     4  11  22  33  47  71 102 135 166 200 246 291
#     4  10  20  33  48  70 101 132 161 198 246 295
#     4  10  20  33  51  74  98 128 165 202 241 291
#     4  11  20  32  50  72  97 131 170 203 241 290
#
# _framework density 15.607158999999999
#
# number of rings (size 3 to 8) (size 9 to 14) (size 15 to 20)
#    0.000    1.750    3.750    1.875    0.000    3.000 
#    0.000    1.250    0.000    0.000    0.000    0.875 
#    0.000    3.000    0.000    0.000    0.000    0.000 
#
# Total GULP energy -178514.251527 kJ/mol
# GULP energy per Si atom -5578.570360 kJ/mol
# Density = 1.557164 g / cm^3
# Si number density = 15.607159 Si / 1000 Ang^3
#
#
#
# Elastic Constant Matrix: (Units=GPa)
#
#
# Indices 1 2 3 4 5 6 
#
# 1 36.9500 43.6975 26.4530 0.0000 0.0000 0.0000
# 2 43.6975 130.5970 50.9273 0.0000 0.0000 0.0000
# 3 26.4530 50.9273 78.4112 0.0000 0.0000 0.0000
# 4 0.0000 0.0000 0.0000 22.8038 0.0000 0.0000
# 5 0.0000 0.0000 0.0000 0.0000 4.7987 0.0000
# 6 0.0000 0.0000 0.0000 0.0000 0.0000 20.5496
#
#
#
# Elastic Compliance Matrix: (Units=1/GPa)
#
#
# Indices 1 2 3 4 5 6 
#
# 1 0.048041 -0.013063 -0.007723 0.000000 0.000000 0.000000
# 2 -0.013063 0.013806 -0.004560 0.000000 0.000000 0.000000
# 3 -0.007723 -0.004560 0.018320 0.000000 0.000000 0.000000
# 4 0.000000 0.000000 0.000000 0.043852 0.000000 0.000000
# 5 0.000000 0.000000 0.000000 0.000000 0.208391 0.000000
# 6 0.000000 0.000000 0.000000 0.000000 0.000000 0.048663
#
#
# Mechanical properties :
#
#
# Convention : Reuss Voigt Hill
#
# Bulk Modulus (GPa) = 33.92630 54.23485 44.08057
# Shear Modulus (GPa) = 11.32273 17.95577 14.63925
#
# Velocity S-wave (km/s) = 2.69640 3.39556 3.06597
# Velocity P-wave (km/s) = 5.61061 7.08509 6.39052
#
# Compressibility (1/GPa) = 0.02947566
#
# Stress axis : x y z
#
# Youngs Moduli (GPa) = 20.81574 72.43171 54.58370
#
# Poissons Ratio (x) = 0.94615 0.42155
# Poissons Ratio (y) = 0.27191 0.24891
# Poissons Ratio (z) = 0.16076 0.33030
#
# Static dielectric constant tensor:
#      x y z
#    x 1.524960 0.000000 0.000000 
#    y 0.000000 1.533110 0.000000 
#    z 0.000000 0.000000 1.506120 
# 
# From -- ./inp_files/13056.got.cif
#   From: 2010.05.17/outbox.cif.g08.bks.cpg/sg38_7_cif.got.tgz:13056.got - 2010.06.03 18:07:57.
