data_PCOD9356488
_publ_section_title
;
Structure prediction by ZEFSAII (Michael W. Deem and Ramdas Pophale) SiO2 
 PCOD9356488
Probable space group: A M M 2
;
_chemical_formula_sum "Si O2"
_cell_formula_units_Z 64
_cell_length_a 8.575417
_cell_length_b 24.437451
_cell_length_c 15.907035
_cell_angle_alpha 90.000000
_cell_angle_beta 90.000000
_cell_angle_gamma 90.000000
_cell_volume 3333.499455
_symmetry_space_group_name_H-M "A M M 2"
_symmetry_group_IT_number 38
_symmetry_cell_setting 'orthorhombic'
loop_
_space_group_symop_operation_xyz
x,y,z
-x,-y,z
-x,y,z
x,-y,z
x,1/2+y,1/2+z
-x,1/2-y,1/2+z
-x,1/2+y,1/2+z
x,1/2-y,1/2+z
loop_
_atom_site_type_symbol
_atom_site_label
_atom_site_fract_x
_atom_site_fract_y
_atom_site_fract_z
Si Si1 0.811317 0.370717 0.435320
Si Si2 0.313341 0.936719 0.588078
Si Si3 0.313778 0.865291 0.253439
Si Si4 0.188458 0.871043 0.746873
Si Si5 0.688471 0.436933 0.593789
Si Si6 0.810550 0.248341 0.995712
Si Si7 0.186862 0.133520 0.433232
Si Si8 0.811957 0.750904 0.192163
O O1 0.764298 0.387261 0.341168
O O2 0.748558 0.408988 0.508843
O O3 0.759468 0.308205 0.453487
O O4 0.000000 0.371203 0.438456
O O5 0.500000 0.934619 0.583031
O O6 0.259065 0.907717 0.673657
O O7 0.243924 0.904274 0.509029
O O8 0.263376 0.000000 0.587042
O O9 0.500000 0.867776 0.255949
O O10 0.258564 0.901851 0.174579
O O11 0.247839 0.884475 0.342593
O O12 0.260269 0.803141 0.237205
O O13 0.231348 0.807529 0.731160
O O14 0.000000 0.874081 0.740871
O O15 0.500000 0.435691 0.592842
O O16 0.738497 0.500000 0.599720
O O17 0.757571 0.304183 0.951869
O O18 0.000000 0.248826 0.992851
O O19 0.766379 0.248677 0.093876
O O20 0.000000 0.133964 0.432605
O O21 0.000000 0.755721 0.197170
#
# Coordination Sequence:
#
# PCOD9356488 Si02
#       8
#     8   8   8   8   8   8   8   8
#     4  10  20  36  60  89 118 148 189 242 291 341
#     4  11  25  43  61  84 118 158 199 247 300 354
#     4  11  23  38  58  89 122 156 196 241 296 356
#     4  10  21  38  61  89 120 155 196 241 295 355
#     4  10  23  42  59  77 111 157 198 238 288 345
#     4   9  17  33  60  89 117 149 186 233 292 346
#     4  11  22  40  65  91 118 154 197 243 295 356
#     4  10  18  35  62  88 118 156 193 236 291 352
#
# _framework density 19.199041999999999
#
# number of rings (size 3 to 8) (size 9 to 14) (size 15 to 20)
#    0.000    1.750    2.500    1.875    0.000    5.750 
#    0.000    6.250    0.000    0.000    0.000    0.000 
#    0.000    0.000    0.000    0.000    0.000    0.000 
#
# Total GULP energy -178798.347661 kJ/mol
# GULP energy per Si atom -5587.448364 kJ/mol
# Density = 1.915534 g / cm^3
# Si number density = 19.199042 Si / 1000 Ang^3
#
#
#
# Elastic Constant Matrix: (Units=GPa)
#
#
# Indices 1 2 3 4 5 6 
#
# 1 21.8704 28.1798 32.4595 0.0000 0.0000 0.0000
# 2 28.1798 132.0949 72.7462 0.0000 0.0000 0.0000
# 3 32.4595 72.7462 180.7630 0.0000 0.0000 0.0000
# 4 0.0000 0.0000 0.0000 -2.8752 0.0000 0.0000
# 5 0.0000 0.0000 0.0000 0.0000 29.2244 0.0000
# 6 0.0000 0.0000 0.0000 0.0000 0.0000 27.7563
#
#
#
# Elastic Compliance Matrix: (Units=1/GPa)
#
#
# Indices 1 2 3 4 5 6 
#
# 1 0.072363 -0.010639 -0.008713 0.000000 0.000000 0.000000
# 2 -0.010639 0.011290 -0.002633 0.000000 0.000000 0.000000
# 3 -0.008713 -0.002633 0.008156 0.000000 0.000000 0.000000
# 4 0.000000 0.000000 0.000000 -0.347801 0.000000 0.000000
# 5 0.000000 0.000000 0.000000 0.000000 0.034218 0.000000
# 6 0.000000 0.000000 0.000000 0.000000 0.000000 0.036028
#
#
# Mechanical properties :
#
#
# Convention : Reuss Voigt Hill
#
# Bulk Modulus (GPa) = 20.90306 66.83325 43.86816
# Shear Modulus (GPa) = -39.73639 24.24395 -7.74622
#
# Velocity S-wave (km/s) = -4.55434 3.55740 -2.01083
# Velocity P-wave (km/s) = 4.09204 7.19443 4.18419
#
# Compressibility (1/GPa) = 0.04783988
#
# Stress axis : x y z
#
# Youngs Moduli (GPa) = 13.81917 88.57359 122.60485
#
# Poissons Ratio (x) = 0.94235 1.06821
# Poissons Ratio (y) = 0.14702 0.32283
# Poissons Ratio (z) = 0.12040 0.23322
#
# Static dielectric constant tensor:
#      x y z
#    x 1.659640 0.000000 0.000000 
#    y 0.000000 1.651720 0.000000 
#    z 0.000000 0.000000 1.654120 
# 
# From -- ./inp_files/12785.got.cif
#   From: 2010.05.17/outbox.cif.g08.bks.cpg/sg38_7_cif.got.tgz:12785.got - 2010.06.03 18:07:57.
