data_PCOD9356060
_publ_section_title
;
Structure prediction by ZEFSAII (Michael W. Deem and Ramdas Pophale) SiO2 
 PCOD9356060
Probable space group: A M M 2
;
_chemical_formula_sum "Si O2"
_cell_formula_units_Z 64
_cell_length_a 14.791126
_cell_length_b 7.579702
_cell_length_c 32.610741
_cell_angle_alpha 90.000000
_cell_angle_beta 90.000000
_cell_angle_gamma 90.000000
_cell_volume 3656.066069
_symmetry_space_group_name_H-M "A M M 2"
_symmetry_group_IT_number 38
_symmetry_cell_setting 'orthorhombic'
loop_
_space_group_symop_operation_xyz
x,y,z
-x,-y,z
-x,y,z
x,-y,z
x,1/2+y,1/2+z
-x,1/2-y,1/2+z
-x,1/2+y,1/2+z
x,1/2-y,1/2+z
loop_
_atom_site_type_symbol
_atom_site_label
_atom_site_fract_x
_atom_site_fract_y
_atom_site_fract_z
Si Si1 0.396433 0.289674 0.731440
Si Si2 0.100426 0.792662 0.022880
Si Si3 0.395714 0.788163 0.821050
Si Si4 0.605569 0.784667 0.910702
Si Si5 0.711379 0.788940 0.152923
Si Si6 0.604295 0.284415 0.572488
Si Si7 0.288472 0.783473 0.991011
Si Si8 0.100866 0.789899 0.617318
O O1 0.500000 0.219155 0.729679
O O2 0.403176 0.500000 0.726353
O O3 0.356493 0.260524 0.776911
O O4 0.335115 0.220533 0.694373
O O5 0.120769 0.779632 0.071504
O O6 0.000000 0.715828 0.016272
O O7 0.095223 0.000000 0.013110
O O8 0.185940 0.721063 0.998219
O O9 0.500000 0.725317 0.819673
O O10 0.360338 0.728628 0.865461
O O11 0.396946 0.000000 0.822279
O O12 0.500000 0.733119 0.915202
O O13 0.665240 0.725171 0.948892
O O14 0.606092 0.000000 0.911356
O O15 0.659400 0.722946 0.112340
O O16 0.817495 0.755168 0.147342
O O17 0.700205 0.000000 0.152917
O O18 0.500000 0.229468 0.574117
O O19 0.605264 0.500000 0.572812
O O20 0.652453 0.229883 0.530424
O O21 0.287625 0.000000 0.990931
O O22 0.000000 0.726788 0.629002
O O23 0.097716 0.000000 0.613906
#
# Coordination Sequence:
#
# PCOD9356060 Si02
#       8
#     8   8   8   8   8   8   8   8
#     4   9  17  28  43  64  89 114 141 175 211 249
#     4   9  16  27  43  62  83 107 139 179 217 252
#     4   8  14  25  40  58  81 109 141 177 213 247
#     4   8  13  21  35  58  85 108 136 176 213 246
#     4  10  18  29  44  64  86 110 141 176 211 247
#     4   9  15  22  35  58  86 112 138 168 202 242
#     4   9  14  21  36  60  84 109 139 172 211 248
#     4  10  20  32  45  61  82 110 143 178 214 252
#
# _framework density 17.505154999999998
#
# number of rings (size 3 to 8) (size 9 to 14) (size 15 to 20)
#    0.000    3.000    1.250    1.875    0.000    4.250 
#    0.000    0.000    0.000    1.875    0.000    0.875 
#    0.000    3.000    0.000    0.000    0.000    0.250 
#
# Total GULP energy -178296.295090 kJ/mol
# GULP energy per Si atom -5571.759222 kJ/mol
# Density = 1.746531 g / cm^3
# Si number density = 17.505155 Si / 1000 Ang^3
#
#
#
# Elastic Constant Matrix: (Units=GPa)
#
#
# Indices 1 2 3 4 5 6 
#
# 1 120.2485 2.2460 88.1732 0.0000 0.0000 0.0000
# 2 2.2460 37.7499 5.2700 0.0000 0.0000 0.0000
# 3 88.1732 5.2700 167.6391 0.0000 0.0000 0.0000
# 4 0.0000 0.0000 0.0000 6.1089 0.0000 0.0000
# 5 0.0000 0.0000 0.0000 0.0000 12.0371 0.0000
# 6 0.0000 0.0000 0.0000 0.0000 0.0000 -2.3533
#
#
#
# Elastic Compliance Matrix: (Units=1/GPa)
#
#
# Indices 1 2 3 4 5 6 
#
# 1 0.013538 0.000189 -0.007127 0.000000 0.000000 0.000000
# 2 0.000189 0.026610 -0.000936 0.000000 0.000000 0.000000
# 3 -0.007127 -0.000936 0.009743 0.000000 0.000000 0.000000
# 4 0.000000 0.000000 0.000000 0.163697 0.000000 0.000000
# 5 0.000000 0.000000 0.000000 0.000000 0.083076 0.000000
# 6 0.000000 0.000000 0.000000 0.000000 0.000000 -0.424935
#
#
# Mechanical properties :
#
#
# Convention : Reuss Voigt Hill
#
# Bulk Modulus (GPa) = 29.28765 57.44623 43.36694
# Shear Modulus (GPa) = -49.43500 18.48842 -15.47329
#
# Velocity S-wave (km/s) = -5.31992 3.25340 -2.97632
# Velocity P-wave (km/s) = 4.57911 6.85571 3.60781
#
# Compressibility (1/GPa) = 0.03414409
#
# Stress axis : x y z
#
# Youngs Moduli (GPa) = 73.86463 37.58044 102.63721
#
# Poissons Ratio (x) = -0.00712 0.73146
# Poissons Ratio (y) = -0.01399 0.09608
# Poissons Ratio (z) = 0.52641 0.03518
#
# Static dielectric constant tensor:
#      x y z
#    x 1.615240 0.000000 0.000000 
#    y 0.000000 1.677750 0.000000 
#    z 0.000000 0.000000 1.603100 
# 
# From -- ./inp_files/25055.got.cif
#   From: 2010.05.17/outbox.cif.g08.bks.cpg/sg38_13_cif.got.tgz:25055.got - 2010.06.03 18:07:57.
