data_PCOD9356643
_publ_section_title
;
Structure prediction by ZEFSAII (Michael W. Deem and Ramdas Pophale) SiO2 
 PCOD9356643
Probable space group: A M M 2
;
_chemical_formula_sum "Si O2"
_cell_formula_units_Z 64
_cell_length_a 21.597222
_cell_length_b 7.790816
_cell_length_c 19.288550
_cell_angle_alpha 90.000000
_cell_angle_beta 90.000000
_cell_angle_gamma 90.000000
_cell_volume 3245.491090
_symmetry_space_group_name_H-M "A M M 2"
_symmetry_group_IT_number 38
_symmetry_cell_setting 'orthorhombic'
loop_
_space_group_symop_operation_xyz
x,y,z
-x,-y,z
-x,y,z
x,-y,z
x,1/2+y,1/2+z
-x,1/2-y,1/2+z
-x,1/2+y,1/2+z
x,1/2-y,1/2+z
loop_
_atom_site_type_symbol
_atom_site_label
_atom_site_fract_x
_atom_site_fract_y
_atom_site_fract_z
Si Si1 0.702091 0.297182 0.017880
Si Si2 0.181011 0.202928 0.927387
Si Si3 0.185710 0.788705 0.770463
Si Si4 0.298947 0.295554 0.176486
Si Si5 0.566461 0.293489 0.678530
Si Si6 0.069524 0.293886 0.181274
Si Si7 0.929835 0.207276 0.022341
Si Si8 0.566853 0.206776 0.016016
O O1 0.711976 0.500000 0.021424
O O2 0.704364 0.226711 0.097233
O O3 0.632965 0.266685 0.988299
O O4 0.756410 0.223734 0.971066
O O5 0.187738 0.271363 0.849652
O O6 0.169302 0.000000 0.920001
O O7 0.122672 0.274017 0.970526
O O8 0.244465 0.729950 0.725387
O O9 0.122722 0.732704 0.732668
O O10 0.186895 0.000000 0.770202
O O11 0.291279 0.500000 0.171037
O O12 0.367574 0.264679 0.206755
O O13 0.500000 0.234266 0.708146
O O14 0.566343 0.500000 0.680093
O O15 0.566901 0.240500 0.597297
O O16 0.067302 0.500000 0.187783
O O17 0.085549 0.253681 0.101604
O O18 0.000000 0.227045 0.194751
O O19 0.000000 0.268425 0.007794
O O20 0.930767 0.000000 0.018385
O O21 0.500000 0.264575 0.986607
O O22 0.567206 0.000000 0.013973
#
# Coordination Sequence:
#
# PCOD9356643 Si02
#       8
#     8   8   8   8   8   8   8   8
#     4  10  19  30  47  71  98 125 155 196 241 284
#     4  10  20  33  49  67  92 128 163 196 234 278
#     4   9  18  32  48  68  94 123 159 198 230 267
#     4   9  17  29  46  67  92 122 153 190 233 274
#     4   8  14  25  42  66  94 119 146 186 232 276
#     4   9  17  31  53  76  96 122 155 191 233 281
#     4   9  18  32  50  73  98 122 152 193 239 284
#     4   8  14  26  45  69  96 124 155 192 234 282
#
# _framework density 19.719666
#
# number of rings (size 3 to 8) (size 9 to 14) (size 15 to 20)
#    0.000    3.000    0.000    1.875    0.000    3.000 
#    0.000    6.875    0.000    0.750    0.000    5.250 
#    0.000    0.000    0.000    0.000    0.000    0.000 
#
# Total GULP energy -178308.908830 kJ/mol
# GULP energy per Si atom -5572.153401 kJ/mol
# Density = 1.967478 g / cm^3
# Si number density = 19.719666 Si / 1000 Ang^3
#
#
#
# Elastic Constant Matrix: (Units=GPa)
#
#
# Indices 1 2 3 4 5 6 
#
# 1 175.0691 -2.0485 103.3500 0.0000 0.0000 0.0000
# 2 -2.0485 19.7874 1.3737 0.0000 0.0000 0.0000
# 3 103.3500 1.3737 97.7772 0.0000 0.0000 0.0000
# 4 0.0000 0.0000 0.0000 7.2706 0.0000 0.0000
# 5 0.0000 0.0000 0.0000 0.0000 -4.8820 0.0000
# 6 0.0000 0.0000 0.0000 0.0000 0.0000 15.0967
#
#
#
# Elastic Compliance Matrix: (Units=1/GPa)
#
#
# Indices 1 2 3 4 5 6 
#
# 1 0.015335 0.002716 -0.016248 0.000000 0.000000 0.000000
# 2 0.002716 0.051067 -0.003588 0.000000 0.000000 0.000000
# 3 -0.016248 -0.003588 0.027451 0.000000 0.000000 0.000000
# 4 0.000000 0.000000 0.000000 0.137541 0.000000 0.000000
# 5 0.000000 0.000000 0.000000 0.000000 -0.204835 0.000000
# 6 0.000000 0.000000 0.000000 0.000000 0.000000 0.066240
#
#
# Mechanical properties :
#
#
# Convention : Reuss Voigt Hill
#
# Bulk Modulus (GPa) = 16.77446 55.33157 36.05302
# Shear Modulus (GPa) = 34.03435 16.16096 25.09765
#
# Velocity S-wave (km/s) = 4.15891 2.86586 3.57139
# Velocity P-wave (km/s) = 5.62023 6.25067 5.94381
#
# Compressibility (1/GPa) = 0.05961442
#
# Stress axis : x y z
#
# Youngs Moduli (GPa) = 65.20878 19.58200 36.42811
#
# Poissons Ratio (x) = -0.05318 0.59187
# Poissons Ratio (y) = -0.17708 0.13070
# Poissons Ratio (z) = 1.05948 0.07026
#
# Static dielectric constant tensor:
#      x y z
#    x 1.724840 0.000000 0.000000 
#    y 0.000000 1.723340 0.000000 
#    z 0.000000 0.000000 1.664310 
# 
# From -- ./inp_files/18973.got.cif
#   From: 2010.05.17/outbox.cif.g08.bks.cpg/sg38_10_cif.got.tgz:18973.got - 2010.06.03 18:07:57.
