data_PCOD9356302
_publ_section_title
;
Structure prediction by ZEFSAII (Michael W. Deem and Ramdas Pophale) SiO2 
 PCOD9356302
Probable space group: A M M 2
;
_chemical_formula_sum "Si O2"
_cell_formula_units_Z 64
_cell_length_a 7.525409
_cell_length_b 21.310911
_cell_length_c 20.295685
_cell_angle_alpha 90.000000
_cell_angle_beta 90.000000
_cell_angle_gamma 90.000000
_cell_volume 3254.886414
_symmetry_space_group_name_H-M "A M M 2"
_symmetry_group_IT_number 38
_symmetry_cell_setting 'orthorhombic'
loop_
_space_group_symop_operation_xyz
x,y,z
-x,-y,z
-x,y,z
x,-y,z
x,1/2+y,1/2+z
-x,1/2-y,1/2+z
-x,1/2+y,1/2+z
x,1/2-y,1/2+z
loop_
_atom_site_type_symbol
_atom_site_label
_atom_site_fract_x
_atom_site_fract_y
_atom_site_fract_z
Si Si1 0.714914 0.694942 0.896540
Si Si2 0.708713 0.246541 0.032068
Si Si3 0.215242 0.884052 0.185285
Si Si4 0.785438 0.760850 0.677400
Si Si5 0.217563 0.569404 0.399251
Si Si6 0.202951 0.102379 0.042392
Si Si7 0.789746 0.817104 0.809630
Si Si8 0.710365 0.931460 0.329061
O O1 0.500000 0.692281 0.896498
O O2 0.767238 0.752579 0.849725
O O3 0.782836 0.629115 0.867664
O O4 0.773241 0.712843 0.970367
O O5 0.500000 0.234118 0.022100
O O6 0.732967 0.277848 0.103264
O O7 0.798395 0.178206 0.035329
O O8 0.273752 0.811184 0.189832
O O9 0.280806 0.910239 0.114832
O O10 0.268678 0.919477 0.251054
O O11 0.000000 0.884032 0.182529
O O12 0.718663 0.804630 0.736309
O O13 0.000000 0.760047 0.679867
O O14 0.262712 0.500000 0.375065
O O15 0.282303 0.577497 0.474501
O O16 0.282521 0.625471 0.352742
O O17 0.000000 0.573887 0.402022
O O18 0.000000 0.079252 0.044450
O O19 0.000000 0.828874 0.802807
O O20 0.500000 0.933171 0.342791
O O21 0.784917 0.000000 0.345953
#
# Coordination Sequence:
#
# PCOD9356302 Si02
#       8
#     8   8   8   8   8   8   8   8
#     4  10  20  33  50  73  98 125 162 204 245 288
#     4  10  19  30  48  73  98 125 159 201 247 287
#     4   9  17  29  46  70  97 126 162 199 236 281
#     4   9  18  31  48  73  99 125 160 199 243 289
#     4   9  17  29  48  74 100 129 164 198 237 286
#     4   9  17  30  48  69  98 132 163 196 233 280
#     4  10  18  31  53  75  97 128 164 201 241 285
#     4  10  21  35  49  67  95 131 165 199 243 292
#
# _framework density 19.662745000000001
#
# number of rings (size 3 to 8) (size 9 to 14) (size 15 to 20)
#    0.000    2.500    2.500    1.125    0.000    3.750 
#    0.000    1.250    0.000    2.250    0.000    0.000 
#    0.000    0.000    0.000    0.000    0.000    0.000 
#
# Total GULP energy -178541.407610 kJ/mol
# GULP energy per Si atom -5579.418988 kJ/mol
# Density = 1.961799 g / cm^3
# Si number density = 19.662745 Si / 1000 Ang^3
#
#
#
# Elastic Constant Matrix: (Units=GPa)
#
#
# Indices 1 2 3 4 5 6 
#
# 1 50.7855 -5.6443 -8.3501 0.0000 0.0000 0.0000
# 2 -5.6443 112.4086 59.6091 0.0000 0.0000 0.0000
# 3 -8.3501 59.6091 124.1368 0.0000 0.0000 0.0000
# 4 0.0000 0.0000 0.0000 19.0037 0.0000 0.0000
# 5 0.0000 0.0000 0.0000 0.0000 14.3748 0.0000
# 6 0.0000 0.0000 0.0000 0.0000 0.0000 3.1806
#
#
#
# Elastic Compliance Matrix: (Units=1/GPa)
#
#
# Indices 1 2 3 4 5 6 
#
# 1 0.019924 0.000389 0.001153 0.000000 0.000000 0.000000
# 2 0.000389 0.011943 -0.005709 0.000000 0.000000 0.000000
# 3 0.001153 -0.005709 0.010874 0.000000 0.000000 0.000000
# 4 0.000000 0.000000 0.000000 0.052621 0.000000 0.000000
# 5 0.000000 0.000000 0.000000 0.000000 0.069566 0.000000
# 6 0.000000 0.000000 0.000000 0.000000 0.000000 0.314405
#
#
# Mechanical properties :
#
#
# Convention : Reuss Voigt Hill
#
# Bulk Modulus (GPa) = 29.06306 42.06225 35.56266
# Shear Modulus (GPa) = 10.01731 23.42625 16.72178
#
# Velocity S-wave (km/s) = 2.25956 3.45541 2.91938
# Velocity P-wave (km/s) = 4.64977 6.11213 5.43040
#
# Compressibility (1/GPa) = 0.03440794
#
# Stress axis : x y z
#
# Youngs Moduli (GPa) = 50.19192 83.73180 91.95848
#
# Poissons Ratio (x) = -0.03255 -0.10607
# Poissons Ratio (y) = -0.01951 0.52496
# Poissons Ratio (z) = -0.05790 0.47800
#
# Static dielectric constant tensor:
#      x y z
#    x 1.763860 0.000000 0.000000 
#    y 0.000000 1.682830 0.000000 
#    z 0.000000 0.000000 1.704330 
# 
# From -- ./inp_files/20045.got.cif
#   From: 2010.05.17/outbox.cif.g08.bks.cpg/sg38_11_cif.got.tgz:20045.got - 2010.06.03 18:07:57.
