data_PCOD9356515
_publ_section_title
;
Structure prediction by ZEFSAII (Michael W. Deem and Ramdas Pophale) SiO2 
 PCOD9356515
Probable space group: A M M 2
;
_chemical_formula_sum "Si O2"
_cell_formula_units_Z 64
_cell_length_a 7.754340
_cell_length_b 19.427923
_cell_length_c 22.420520
_cell_angle_alpha 90.000000
_cell_angle_beta 90.000000
_cell_angle_gamma 90.000000
_cell_volume 3377.667491
_symmetry_space_group_name_H-M "A M M 2"
_symmetry_group_IT_number 38
_symmetry_cell_setting 'orthorhombic'
loop_
_space_group_symop_operation_xyz
x,y,z
-x,-y,z
-x,y,z
x,-y,z
x,1/2+y,1/2+z
-x,1/2-y,1/2+z
-x,1/2+y,1/2+z
x,1/2-y,1/2+z
loop_
_atom_site_type_symbol
_atom_site_label
_atom_site_fract_x
_atom_site_fract_y
_atom_site_fract_z
Si Si1 0.692472 0.817463 0.076500
Si Si2 0.796482 0.077397 0.980370
Si Si3 0.208460 0.924034 0.431516
Si Si4 0.794144 0.923493 0.177116
Si Si5 0.293690 0.220979 0.480390
Si Si6 0.296882 0.074923 0.841976
Si Si7 0.708328 0.275811 0.351450
Si Si8 0.206935 0.629284 0.803705
O O1 0.500000 0.797856 0.094943
O O2 0.766208 0.861769 0.130608
O O3 0.694854 0.871376 0.021882
O O4 0.776892 0.752580 0.042189
O O5 0.724973 0.076492 0.913624
O O6 0.000000 0.095248 0.979442
O O7 0.783279 0.000000 0.004515
O O8 0.262038 0.859661 0.471584
O O9 0.270345 0.907451 0.364102
O O10 0.000000 0.924176 0.430166
O O11 0.266942 0.000000 0.449921
O O12 0.725535 0.902270 0.242313
O O13 0.000000 0.929420 0.181965
O O14 0.728737 0.000000 0.159553
O O15 0.500000 0.232146 0.481522
O O16 0.228780 0.258344 0.419265
O O17 0.500000 0.073844 0.827133
O O18 0.227111 0.150854 0.826087
O O19 0.223693 0.000000 0.822423
O O20 0.500000 0.280046 0.354871
O O21 0.754457 0.210023 0.311795
O O22 0.000000 0.621085 0.803276
#
# Coordination Sequence:
#
# PCOD9356515 Si02
#       8
#     8   8   8   8   8   8   8   8
#     4  11  21  33  47  65  93 128 164 199 235 280
#     4  10  19  28  40  61  89 122 159 195 230 271
#     4   9  17  30  50  75  98 122 154 192 237 289
#     4  10  21  36  51  69  96 129 166 205 241 281
#     4   9  18  31  45  66  95 125 156 193 239 285
#     4   9  16  27  43  63  91 126 158 190 233 281
#     4   9  16  29  46  67  94 123 158 200 241 283
#     4   9  18  32  50  70  94 127 161 197 241 286
#
# _framework density 18.947987000000001
#
# number of rings (size 3 to 8) (size 9 to 14) (size 15 to 20)
#    0.000    2.500    1.250    1.500    0.000    6.250 
#    0.000    0.000    0.000    2.250    0.000    0.875 
#    0.000    3.000    0.000    0.000    0.000    0.125 
#
# Total GULP energy -178234.841809 kJ/mol
# GULP energy per Si atom -5569.838807 kJ/mol
# Density = 1.890486 g / cm^3
# Si number density = 18.947987 Si / 1000 Ang^3
#
#
#
# Elastic Constant Matrix: (Units=GPa)
#
#
# Indices 1 2 3 4 5 6 
#
# 1 28.4030 8.1447 4.6303 0.0000 0.0000 0.0000
# 2 8.1447 150.0233 44.8950 0.0000 0.0000 0.0000
# 3 4.6303 44.8950 69.3891 0.0000 0.0000 0.0000
# 4 0.0000 0.0000 0.0000 19.6101 0.0000 0.0000
# 5 0.0000 0.0000 0.0000 0.0000 23.1965 0.0000
# 6 0.0000 0.0000 0.0000 0.0000 0.0000 20.9998
#
#
#
# Elastic Compliance Matrix: (Units=1/GPa)
#
#
# Indices 1 2 3 4 5 6 
#
# 1 0.035875 -0.001527 -0.001406 0.000000 0.000000 0.000000
# 2 -0.001527 0.008331 -0.005288 0.000000 0.000000 0.000000
# 3 -0.001406 -0.005288 0.017927 0.000000 0.000000 0.000000
# 4 0.000000 0.000000 0.000000 0.050994 0.000000 0.000000
# 5 0.000000 0.000000 0.000000 0.000000 0.043110 0.000000
# 6 0.000000 0.000000 0.000000 0.000000 0.000000 0.047620
#
#
# Mechanical properties :
#
#
# Convention : Reuss Voigt Hill
#
# Bulk Modulus (GPa) = 21.88657 40.35058 31.11858
# Shear Modulus (GPa) = 21.22883 25.43763 23.33323
#
# Velocity S-wave (km/s) = 3.35083 3.66799 3.51299
# Velocity P-wave (km/s) = 5.15235 6.26742 5.73704
#
# Compressibility (1/GPa) = 0.04569012
#
# Stress axis : x y z
#
# Youngs Moduli (GPa) = 27.87491 120.03245 55.78214
#
# Poissons Ratio (x) = 0.18327 0.07843
# Poissons Ratio (y) = 0.04256 0.29500
# Poissons Ratio (z) = 0.03919 0.63477
#
# Static dielectric constant tensor:
#      x y z
#    x 1.695700 0.000000 0.000000 
#    y 0.000000 1.729120 0.000000 
#    z 0.000000 0.000000 1.643550 
# 
# From -- ./inp_files/22264.got.cif
#   From: 2010.05.17/outbox.cif.g08.bks.cpg/sg38_12_cif.got.tgz:22264.got - 2010.06.03 18:07:57.
