data_PCOD9356559
_publ_section_title
;
Structure prediction by ZEFSAII (Michael W. Deem and Ramdas Pophale) SiO2 
 PCOD9356559
Probable space group: A M M 2
;
_chemical_formula_sum "Si O2"
_cell_formula_units_Z 56
_cell_length_a 7.215135
_cell_length_b 21.514320
_cell_length_c 14.586092
_cell_angle_alpha 90.000000
_cell_angle_beta 90.000000
_cell_angle_gamma 90.000000
_cell_volume 2264.180438
_symmetry_space_group_name_H-M "A M M 2"
_symmetry_group_IT_number 38
_symmetry_cell_setting 'orthorhombic'
loop_
_space_group_symop_operation_xyz
x,y,z
-x,-y,z
-x,y,z
x,-y,z
x,1/2+y,1/2+z
-x,1/2-y,1/2+z
-x,1/2+y,1/2+z
x,1/2-y,1/2+z
loop_
_atom_site_type_symbol
_atom_site_label
_atom_site_fract_x
_atom_site_fract_y
_atom_site_fract_z
Si Si1 0.273376 0.253470 0.436950
Si Si2 0.273738 0.568036 0.235933
Si Si3 0.223516 0.428961 0.936951
Si Si4 0.292260 0.835472 0.595383
Si Si5 0.292259 0.164527 0.278517
Si Si6 0.724606 0.897228 0.936949
Si Si7 0.726262 0.068036 0.137965
O O1 0.500000 0.248054 0.436950
O O2 0.211263 0.218352 0.530145
O O3 0.211263 0.218351 0.343757
O O4 0.222904 0.324930 0.436949
O O5 0.500000 0.569771 0.231198
O O6 0.217390 0.500000 0.198265
O O7 0.208716 0.630221 0.183479
O O8 0.218135 0.572252 0.341865
O O9 0.276894 0.500000 0.936952
O O10 0.297279 0.393023 0.849129
O O11 0.000000 0.424221 0.936951
O O12 0.297281 0.393021 0.024770
O O13 0.500000 0.814809 0.620616
O O14 0.500000 0.185190 0.253286
O O15 0.208716 0.130221 0.190420
O O16 0.500000 0.899611 0.936949
O O17 0.781865 0.927747 0.032033
O O18 0.500000 0.069771 0.142701
O O19 0.782610 0.000000 0.175633
#
# Coordination Sequence:
#
# PCOD9356559 Si02
#       7
#     8   8   8   8   8   8   8
#     4   8  15  26  39  60  87 116 148 181 222 263
#     4   9  16  25  39  61  89 121 151 180 221 267
#     4  10  19  29  43  66  93 119 148 183 224 267
#     4   9  17  29  45  65  90 118 148 181 219 267
#     4   9  17  29  45  65  90 118 148 181 219 267
#     4   9  16  25  38  60  92 120 146 187 226 258
#     4   9  16  25  39  61  89 121 151 180 221 267
#
# _framework density 24.733011999999999
#
# number of rings (size 3 to 8) (size 9 to 14) (size 15 to 20)
#    0.000    3.000    0.000    2.571    0.000    5.143 
#    0.000    5.714    0.000    0.000    0.000   17.000 
#    0.000    4.571    0.000    0.000    0.000    0.000 
#
# Total GULP energy -156320.697702 kJ/mol
# GULP energy per Si atom -5582.882061 kJ/mol
# Density = 2.467672 g / cm^3
# Si number density = 24.733012 Si / 1000 Ang^3
#
#
#
# Elastic Constant Matrix: (Units=GPa)
#
#
# Indices 1 2 3 4 5 6 
#
# 1 127.1174 -0.4435 -3.8724 0.0000 0.0000 0.0000
# 2 -0.4435 128.7063 21.2930 0.0000 0.0000 0.0000
# 3 -3.8724 21.2930 110.2858 0.0000 0.0000 0.0000
# 4 0.0000 0.0000 0.0000 32.8223 0.0000 0.0000
# 5 0.0000 0.0000 0.0000 0.0000 -951.5446 0.0000
# 6 0.0000 0.0000 0.0000 0.0000 0.0000 -54.5116
#
#
#
# Elastic Compliance Matrix: (Units=1/GPa)
#
#
# Indices 1 2 3 4 5 6 
#
# 1 0.007875 -0.000019 0.000280 0.000000 0.000000 0.000000
# 2 -0.000019 0.008026 -0.001550 0.000000 0.000000 0.000000
# 3 0.000280 -0.001550 0.009377 0.000000 0.000000 0.000000
# 4 0.000000 0.000000 0.000000 0.030467 0.000000 0.000000
# 5 0.000000 0.000000 0.000000 0.000000 -0.001051 0.000000
# 6 0.000000 0.000000 0.000000 0.000000 0.000000 -0.018345
#
#
# Mechanical properties :
#
#
# Convention : Reuss Voigt Hill
#
# Bulk Modulus (GPa) = 44.05436 44.45151 44.25293
# Shear Modulus (GPa) = 107.54044 -171.37129 -31.91542
#
# Velocity S-wave (km/s) = 6.60113 -8.33300 -3.59611
# Velocity P-wave (km/s) = 8.71496 8.63560 0.82972
#
# Compressibility (1/GPa) = 0.02269923
#
# Stress axis : x y z
#
# Youngs Moduli (GPa) = 126.98064 124.59454 106.64954
#
# Poissons Ratio (x) = 0.00240 -0.02989
# Poissons Ratio (y) = 0.00244 0.16534
# Poissons Ratio (z) = -0.03558 0.19316
#
# Static dielectric constant tensor:
#      x y z
#    x 1.966090 0.000000 0.000000 
#    y 0.000000 1.886170 0.000000 
#    z 0.000000 0.000000 1.997490 
# 
# From -- ./inp_files/12388.got.cif
#   From: 2010.05.17/outbox.cif.g08.bks.cpg/sg38_7_cif.got.tgz:12388.got - 2010.06.03 18:07:57.
