data_PCOD9356799
_publ_section_title
;
Structure prediction by ZEFSAII (Michael W. Deem and Ramdas Pophale) SiO2 
 PCOD9356799
Probable space group: A M M 2
;
_chemical_formula_sum "Si O2"
_cell_formula_units_Z 48
_cell_length_a 16.171732
_cell_length_b 8.727001
_cell_length_c 19.455697
_cell_angle_alpha 90.000000
_cell_angle_beta 90.000000
_cell_angle_gamma 90.000000
_cell_volume 2745.796552
_symmetry_space_group_name_H-M "A M M 2"
_symmetry_group_IT_number 38
_symmetry_cell_setting 'orthorhombic'
loop_
_space_group_symop_operation_xyz
x,y,z
-x,-y,z
-x,y,z
x,-y,z
x,1/2+y,1/2+z
-x,1/2-y,1/2+z
-x,1/2+y,1/2+z
x,1/2-y,1/2+z
loop_
_atom_site_type_symbol
_atom_site_label
_atom_site_fract_x
_atom_site_fract_y
_atom_site_fract_z
Si Si1 0.595064 0.317113 0.784980
Si Si2 0.739531 0.817776 0.877069
Si Si3 0.909691 0.683699 0.531968
Si Si4 0.405886 0.316099 0.133693
Si Si5 0.740126 0.816325 0.530867
Si Si6 0.090403 0.316263 0.876784
O O1 0.500000 0.275973 0.803088
O O2 0.603521 0.500000 0.790939
O O3 0.661823 0.236522 0.832914
O O4 0.607878 0.265894 0.706292
O O5 0.825749 0.752457 0.846143
O O6 0.744572 0.000000 0.879940
O O7 0.731514 0.752580 0.954516
O O8 0.901949 0.500000 0.529711
O O9 0.826636 0.755909 0.562341
O O10 0.911669 0.748491 0.454108
O O11 0.000000 0.721383 0.563007
O O12 0.500000 0.282188 0.110842
O O13 0.400213 0.500000 0.144253
O O14 0.337363 0.272591 0.078025
O O15 0.743653 0.000000 0.525206
O O16 0.097615 0.500000 0.880378
O O17 0.000000 0.279384 0.845433
#
# Coordination Sequence:
#
# PCOD9356799 Si02
#       6
#     8   8   8   8   8   8
#     4  10  21  37  56  75  97 129 168 208 251 302
#     4  11  21  32  50  76 106 136 167 207 250 293
#     4   9  16  26  42  66  97 131 165 202 245 291
#     4   9  19  36  55  74  98 129 164 202 248 302
#     4  10  19  31  50  76 104 133 166 205 248 292
#     4   9  16  27  45  69  98 131 166 204 246 293
#
# _framework density 17.481266000000002
#
# number of rings (size 3 to 8) (size 9 to 14) (size 15 to 20)
#    0.000    2.333    0.000    5.500    0.000    5.000 
#    0.000    1.667    0.000    1.000    0.000    4.667 
#    0.000    0.000    0.000    0.000    0.000    0.000 
#
# Total GULP energy -133766.952964 kJ/mol
# GULP energy per Si atom -5573.623040 kJ/mol
# Density = 1.744148 g / cm^3
# Si number density = 17.481266 Si / 1000 Ang^3
#
#
#
# Elastic Constant Matrix: (Units=GPa)
#
#
# Indices 1 2 3 4 5 6 
#
# 1 192.3667 72.7730 68.6477 0.0000 0.0000 0.0000
# 2 72.7730 82.5454 30.0603 0.0000 0.0000 0.0000
# 3 68.6477 30.0603 38.7618 0.0000 0.0000 0.0000
# 4 0.0000 0.0000 0.0000 20.9797 0.0000 0.0000
# 5 0.0000 0.0000 0.0000 0.0000 -4.4871 0.0000
# 6 0.0000 0.0000 0.0000 0.0000 0.0000 28.2705
#
#
#
# Elastic Compliance Matrix: (Units=1/GPa)
#
#
# Indices 1 2 3 4 5 6 
#
# 1 0.015541 -0.005125 -0.023548 0.000000 0.000000 0.000000
# 2 -0.005125 0.018573 -0.005326 0.000000 0.000000 0.000000
# 3 -0.023548 -0.005326 0.071633 0.000000 0.000000 0.000000
# 4 0.000000 0.000000 0.000000 0.047665 0.000000 0.000000
# 5 0.000000 0.000000 0.000000 0.000000 -0.222863 0.000000
# 6 0.000000 0.000000 0.000000 0.000000 0.000000 0.035373
#
#
# Mechanical properties :
#
#
# Convention : Reuss Voigt Hill
#
# Bulk Modulus (GPa) = 26.49207 72.95954 49.72581
# Shear Modulus (GPa) = 107.52230 18.43215 62.97723
#
# Velocity S-wave (km/s) = 7.85116 3.25067 6.00864
# Velocity P-wave (km/s) = 9.86788 7.47767 8.75473
#
# Compressibility (1/GPa) = 0.03774714
#
# Stress axis : x y z
#
# Youngs Moduli (GPa) = 64.34755 53.84202 13.96011
#
# Poissons Ratio (x) = 0.27596 0.32873
# Poissons Ratio (y) = 0.32981 0.07436
# Poissons Ratio (z) = 1.51524 0.28678
#
# Static dielectric constant tensor:
#      x y z
#    x 1.652200 0.000000 0.000000 
#    y 0.000000 1.582980 0.000000 
#    z 0.000000 0.000000 1.555340 
# 
# From -- ./inp_files/20876.got.cif
#   From: 2010.05.17/outbox.cif.g08.bks.cpg/sg38_11_cif.got.tgz:20876.got - 2010.06.03 18:07:57.
