data_PCOD9356291
_publ_section_title
;
Structure prediction by ZEFSAII (Michael W. Deem and Ramdas Pophale) SiO2 
 PCOD9356291
Probable space group: A M M 2
;
_chemical_formula_sum "Si O2"
_cell_formula_units_Z 36
_cell_length_a 13.097255
_cell_length_b 7.768688
_cell_length_c 22.315583
_cell_angle_alpha 90.000000
_cell_angle_beta 90.000000
_cell_angle_gamma 90.000000
_cell_volume 2270.576824
_symmetry_space_group_name_H-M "A M M 2"
_symmetry_group_IT_number 38
_symmetry_cell_setting 'orthorhombic'
loop_
_space_group_symop_operation_xyz
x,y,z
-x,-y,z
-x,y,z
x,-y,z
x,1/2+y,1/2+z
-x,1/2-y,1/2+z
-x,1/2+y,1/2+z
x,1/2-y,1/2+z
loop_
_atom_site_type_symbol
_atom_site_label
_atom_site_fract_x
_atom_site_fract_y
_atom_site_fract_z
Si Si1 0.883362 0.699983 0.747960
Si Si2 0.748629 0.301922 0.135776
Si Si3 0.118006 0.694719 0.020127
Si Si4 0.760842 0.500000 0.461170
Si Si5 0.621329 0.500000 0.573659
Si Si6 0.118184 0.000000 0.844974
O O1 0.873036 0.500000 0.765648
O O2 0.798984 0.744533 0.698138
O O3 0.874668 0.832012 0.802830
O O4 0.000000 0.722209 0.723777
O O5 0.711098 0.500000 0.139418
O O6 0.840370 0.299386 0.087554
O O7 0.668015 0.166295 0.108400
O O8 0.131595 0.500000 0.997784
O O9 0.000000 0.739412 0.018498
O O10 0.181238 0.829861 0.982901
O O11 0.660037 0.500000 0.503836
O O12 0.786274 0.500000 0.390611
O O13 0.500000 0.500000 0.575846
O O14 0.000000 0.000000 0.870942
#
# Coordination Sequence:
#
# PCOD9356291 Si02
#       6
#     8   8   8   4   4   4
#     4  10  19  30  48  78 113 148 174 198 242 306
#     4  10  18  31  52  77 105 134 168 209 267 319
#     4   9  17  27  44  72 103 132 164 206 253 309
#     4  10  20  34  50  70  98 142 178 214 256 306
#     4  10  22  38  56  78 100 127 173 236 283 312
#     4  10  20  32  48  74 112 149 179 204 233 300
#
# _framework density 15.855001
#
# number of rings (size 3 to 8) (size 9 to 14) (size 15 to 20)
#    0.000    2.222    2.222    1.667    0.000    2.222 
#    0.000    2.222    0.000    1.333    0.000    0.000 
#    0.000    0.000    0.000    0.000    0.000    0.000 
#
# Total GULP energy -100204.610724 kJ/mol
# GULP energy per Si atom -5566.922818 kJ/mol
# Density = 1.581891 g / cm^3
# Si number density = 15.855001 Si / 1000 Ang^3
#
#
#
# Elastic Constant Matrix: (Units=GPa)
#
#
# Indices 1 2 3 4 5 6 
#
# 1 80.0670 39.4798 33.2066 0.0000 0.0000 0.0000
# 2 39.4798 89.1006 36.1490 0.0000 0.0000 0.0000
# 3 33.2066 36.1490 67.0263 0.0000 0.0000 0.0000
# 4 0.0000 0.0000 0.0000 12.7778 0.0000 0.0000
# 5 0.0000 0.0000 0.0000 0.0000 12.6311 0.0000
# 6 0.0000 0.0000 0.0000 0.0000 0.0000 12.8577
#
#
#
# Elastic Compliance Matrix: (Units=1/GPa)
#
#
# Indices 1 2 3 4 5 6 
#
# 1 0.017565 -0.005444 -0.005766 0.000000 0.000000 0.000000
# 2 -0.005444 0.016054 -0.005961 0.000000 0.000000 0.000000
# 3 -0.005766 -0.005961 0.020991 0.000000 0.000000 0.000000
# 4 0.000000 0.000000 0.000000 0.078261 0.000000 0.000000
# 5 0.000000 0.000000 0.000000 0.000000 0.079169 0.000000
# 6 0.000000 0.000000 0.000000 0.000000 0.000000 0.077775
#
#
# Mechanical properties :
#
#
# Convention : Reuss Voigt Hill
#
# Bulk Modulus (GPa) = 49.33920 50.42941 49.88431
# Shear Modulus (GPa) = 15.10966 16.14388 15.62677
#
# Velocity S-wave (km/s) = 3.09040 3.19442 3.14284
# Velocity P-wave (km/s) = 6.62727 6.74399 6.68588
#
# Compressibility (1/GPa) = 0.02026786
#
# Stress axis : x y z
#
# Youngs Moduli (GPa) = 56.93081 62.29034 47.63839
#
# Poissons Ratio (x) = 0.33908 0.27470
# Poissons Ratio (y) = 0.30990 0.28399
# Poissons Ratio (z) = 0.32829 0.37134
#
# Static dielectric constant tensor:
#      x y z
#    x 1.506520 0.000000 0.000000 
#    y 0.000000 1.556640 0.000000 
#    z 0.000000 0.000000 1.556110 
# 
# From -- ./inp_files/20388.got.cif
#   From: 2010.05.17/outbox.cif.g08.bks.cpg/sg38_11_cif.got.tgz:20388.got - 2010.06.03 18:07:57.
