data_PCOD9356376
_publ_section_title
;
Structure prediction by ZEFSAII (Michael W. Deem and Ramdas Pophale) SiO2 
 PCOD9356376
Probable space group: A M M 2
;
_chemical_formula_sum "Si O2"
_cell_formula_units_Z 64
_cell_length_a 7.890847
_cell_length_b 21.228668
_cell_length_c 20.548417
_cell_angle_alpha 90.000000
_cell_angle_beta 90.000000
_cell_angle_gamma 90.000000
_cell_volume 3442.109946
_symmetry_space_group_name_H-M "A M M 2"
_symmetry_group_IT_number 38
_symmetry_cell_setting 'orthorhombic'
loop_
_space_group_symop_operation_xyz
x,y,z
-x,-y,z
-x,y,z
x,-y,z
x,1/2+y,1/2+z
-x,1/2-y,1/2+z
-x,1/2+y,1/2+z
x,1/2-y,1/2+z
loop_
_atom_site_type_symbol
_atom_site_label
_atom_site_fract_x
_atom_site_fract_y
_atom_site_fract_z
Si Si1 0.298075 0.191682 0.274440
Si Si2 0.801080 0.633255 0.132980
Si Si3 0.302276 0.276754 0.634851
Si Si4 0.297408 0.123776 0.490086
Si Si5 0.292326 0.814036 0.854348
Si Si6 0.292708 0.270355 0.492508
Si Si7 0.704671 0.070248 0.766364
Si Si8 0.800609 0.069421 0.354163
O O1 0.500000 0.201652 0.268904
O O2 0.227515 0.194510 0.200920
O O3 0.234476 0.251125 0.316429
O O4 0.271813 0.126792 0.312199
O O5 0.708215 0.700665 0.140369
O O6 0.754390 0.589835 0.193482
O O7 0.000000 0.646561 0.133877
O O8 0.754307 0.604604 0.062860
O O9 0.500000 0.295001 0.632472
O O10 0.229813 0.291977 0.563431
O O11 0.500000 0.121758 0.485215
O O12 0.243508 0.197110 0.483082
O O13 0.225688 0.084479 0.430371
O O14 0.500000 0.813737 0.854090
O O15 0.238890 0.809023 0.929391
O O16 0.235123 0.875666 0.815676
O O17 0.500000 0.270629 0.494373
O O18 0.500000 0.070133 0.769345
O O19 0.765525 0.000000 0.781660
O O20 0.000000 0.068385 0.341209
O O21 0.729131 0.000000 0.339385
#
# Coordination Sequence:
#
# PCOD9356376 Si02
#       8
#     8   8   8   8   8   8   8   8
#     4  10  18  32  55  78 101 135 179 223 260 305
#     4  11  21  32  49  75 108 142 173 214 262 311
#     4   9  17  31  52  77 105 137 175 218 261 311
#     4  10  19  34  55  76 100 137 179 214 253 309
#     4   9  15  28  51  78 102 128 172 221 259 300
#     4   8  14  26  49  77 101 127 161 209 262 301
#     4  10  20  34  52  73 101 140 180 218 262 314
#     4  11  24  38  51  74 109 141 171 215 268 321
#
# _framework density 18.593247999999999
#
# number of rings (size 3 to 8) (size 9 to 14) (size 15 to 20)
#    0.000    2.250    2.500    2.625    0.000    2.250 
#    0.000    0.000    0.000    0.750    0.000    3.500 
#    0.000    0.000    0.000    0.000    0.000    0.000 
#
# Total GULP energy -178510.448332 kJ/mol
# GULP energy per Si atom -5578.451510 kJ/mol
# Density = 1.855093 g / cm^3
# Si number density = 18.593248 Si / 1000 Ang^3
#
#
#
# Elastic Constant Matrix: (Units=GPa)
#
#
# Indices 1 2 3 4 5 6 
#
# 1 16.5579 -6.3764 -0.3699 0.0000 0.0000 0.0000
# 2 -6.3764 103.2732 82.0637 0.0000 0.0000 0.0000
# 3 -0.3699 82.0637 160.6822 0.0000 0.0000 0.0000
# 4 0.0000 0.0000 0.0000 15.7383 0.0000 0.0000
# 5 0.0000 0.0000 0.0000 0.0000 -18.2117 0.0000
# 6 0.0000 0.0000 0.0000 0.0000 0.0000 -21.1669
#
#
#
# Elastic Compliance Matrix: (Units=1/GPa)
#
#
# Indices 1 2 3 4 5 6 
#
# 1 0.062762 0.006329 -0.003088 0.000000 0.000000 0.000000
# 2 0.006329 0.016935 -0.008634 0.000000 0.000000 0.000000
# 3 -0.003088 -0.008634 0.010626 0.000000 0.000000 0.000000
# 4 0.000000 0.000000 0.000000 0.063539 0.000000 0.000000
# 5 0.000000 0.000000 0.000000 0.000000 -0.054910 0.000000
# 6 0.000000 0.000000 0.000000 0.000000 0.000000 -0.047244
#
#
# Mechanical properties :
#
#
# Convention : Reuss Voigt Hill
#
# Bulk Modulus (GPa) = 12.57281 47.90532 30.23907
# Shear Modulus (GPa) = 56.17441 8.95168 32.56304
#
# Velocity S-wave (km/s) = 5.50253 2.19657 4.18944
# Velocity P-wave (km/s) = 6.86638 5.67927 6.30084
#
# Compressibility (1/GPa) = 0.07953669
#
# Stress axis : x y z
#
# Youngs Moduli (GPa) = 15.93310 59.04921 94.10725
#
# Poissons Ratio (x) = -0.37371 0.29058
# Poissons Ratio (y) = -0.10084 0.81257
# Poissons Ratio (z) = 0.04920 0.50986
#
# Static dielectric constant tensor:
#      x y z
#    x 1.663780 0.000000 0.000000 
#    y 0.000000 1.625700 0.000000 
#    z 0.000000 0.000000 1.664290 
# 
# From -- ./inp_files/20047.got.cif
#   From: 2010.05.17/outbox.cif.g08.bks.cpg/sg38_11_cif.got.tgz:20047.got - 2010.06.03 18:07:57.
