data_PCOD9356700
_publ_section_title
;
Structure prediction by ZEFSAII (Michael W. Deem and Ramdas Pophale) SiO2 
 PCOD9356700
Probable space group: A M M 2
;
_chemical_formula_sum "Si O2"
_cell_formula_units_Z 64
_cell_length_a 20.431866
_cell_length_b 8.723232
_cell_length_c 20.617573
_cell_angle_alpha 90.000000
_cell_angle_beta 90.000000
_cell_angle_gamma 90.000000
_cell_volume 3674.709360
_symmetry_space_group_name_H-M "A M M 2"
_symmetry_group_IT_number 38
_symmetry_cell_setting 'orthorhombic'
loop_
_space_group_symop_operation_xyz
x,y,z
-x,-y,z
-x,y,z
x,-y,z
x,1/2+y,1/2+z
-x,1/2-y,1/2+z
-x,1/2+y,1/2+z
x,1/2-y,1/2+z
loop_
_atom_site_type_symbol
_atom_site_label
_atom_site_fract_x
_atom_site_fract_y
_atom_site_fract_z
Si Si1 0.179159 0.314867 0.019450
Si Si2 0.797470 0.316776 0.656249
Si Si3 0.925637 0.186819 0.411865
Si Si4 0.324986 0.816476 0.472796
Si Si5 0.424827 0.683530 0.578023
Si Si6 0.169025 0.315503 0.799074
Si Si7 0.309981 0.816864 0.835121
Si Si8 0.344245 0.183732 0.691691
O O1 0.178378 0.500000 0.022408
O O2 0.171238 0.248360 0.091154
O O3 0.122746 0.264826 0.969739
O O4 0.251070 0.269034 0.993171
O O5 0.791181 0.500000 0.651705
O O6 0.835725 0.279381 0.722834
O O7 0.725270 0.244886 0.664859
O O8 0.891470 0.230590 0.344044
O O9 0.000000 0.241339 0.418148
O O10 0.927072 0.000000 0.413235
O O11 0.376520 0.749878 0.523626
O O12 0.337325 0.758346 0.400087
O O13 0.327377 0.000000 0.474689
O O14 0.500000 0.728103 0.566151
O O15 0.420208 0.500000 0.577547
O O16 0.400149 0.745339 0.647238
O O17 0.177089 0.500000 0.804986
O O18 0.235381 0.239605 0.825447
O O19 0.346309 0.775156 0.767880
O O20 0.310990 0.000000 0.841408
O O21 0.344828 0.000000 0.686000
#
# Coordination Sequence:
#
# PCOD9356700 Si02
#       8
#     8   8   8   8   8   8   8   8
#     4  10  19  32  52  79 108 138 181 229 269 321
#     4  10  19  30  51  79 108 139 174 223 276 319
#     4   9  17  32  54  76 102 141 186 227 270 323
#     4  11  21  35  57  83 112 145 183 228 273 323
#     4  11  24  40  58  82 112 145 182 225 274 330
#     4   9  17  32  51  76 105 136 180 226 269 322
#     4  10  20  33  54  83 112 141 178 225 275 319
#     4  10  20  35  55  81 110 142 180 222 269 324
#
# _framework density 17.416343999999999
#
# number of rings (size 3 to 8) (size 9 to 14) (size 15 to 20)
#    0.000    2.000    2.500    1.875    0.000    3.500 
#    0.000    1.250    0.000    3.000    0.000    0.000 
#    0.000    0.000    0.000    0.000    0.000    0.000 
#
# Total GULP energy -178582.911868 kJ/mol
# GULP energy per Si atom -5580.715996 kJ/mol
# Density = 1.737670 g / cm^3
# Si number density = 17.416344 Si / 1000 Ang^3
#
#
#
# Elastic Constant Matrix: (Units=GPa)
#
#
# Indices 1 2 3 4 5 6 
#
# 1 121.4450 35.8734 81.2333 0.0000 0.0000 0.0000
# 2 35.8734 29.2443 41.1312 0.0000 0.0000 0.0000
# 3 81.2333 41.1312 153.4790 0.0000 0.0000 0.0000
# 4 0.0000 0.0000 0.0000 32.1034 0.0000 0.0000
# 5 0.0000 0.0000 0.0000 0.0000 24.9097 0.0000
# 6 0.0000 0.0000 0.0000 0.0000 0.0000 16.6585
#
#
#
# Elastic Compliance Matrix: (Units=1/GPa)
#
#
# Indices 1 2 3 4 5 6 
#
# 1 0.014807 -0.011461 -0.004766 0.000000 0.000000 0.000000
# 2 -0.011461 0.063751 -0.011019 0.000000 0.000000 0.000000
# 3 -0.004766 -0.011019 0.011991 0.000000 0.000000 0.000000
# 4 0.000000 0.000000 0.000000 0.031149 0.000000 0.000000
# 5 0.000000 0.000000 0.000000 0.000000 0.040145 0.000000
# 6 0.000000 0.000000 0.000000 0.000000 0.000000 0.060029
#
#
# Mechanical properties :
#
#
# Convention : Reuss Voigt Hill
#
# Bulk Modulus (GPa) = 27.73281 68.96046 48.34663
# Shear Modulus (GPa) = 17.33801 24.46303 20.90052
#
# Velocity S-wave (km/s) = 3.15858 3.75187 3.46793
# Velocity P-wave (km/s) = 5.40927 7.64525 6.62231
#
# Compressibility (1/GPa) = 0.03605837
#
# Stress axis : x y z
#
# Youngs Moduli (GPa) = 67.53367 15.68600 83.39646
#
# Poissons Ratio (x) = 0.17978 0.39745
# Poissons Ratio (y) = 0.77401 0.91892
# Poissons Ratio (z) = 0.32185 0.17284
#
# Static dielectric constant tensor:
#      x y z
#    x 1.568980 0.000000 0.000000 
#    y 0.000000 1.584180 0.000000 
#    z 0.000000 0.000000 1.601600 
# 
# From -- ./inp_files/21412.got.cif
#   From: 2010.05.17/outbox.cif.g08.bks.cpg/sg38_11_cif.got.tgz:21412.got - 2010.06.03 18:07:57.
