data_PCOD9356356
_publ_section_title
;
Structure prediction by ZEFSAII (Michael W. Deem and Ramdas Pophale) SiO2 
 PCOD9356356
Probable space group: A M M 2
;
_chemical_formula_sum "Si O2"
_cell_formula_units_Z 64
_cell_length_a 9.417733
_cell_length_b 34.226471
_cell_length_c 12.015122
_cell_angle_alpha 90.000000
_cell_angle_beta 90.000000
_cell_angle_gamma 90.000000
_cell_volume 3872.903546
_symmetry_space_group_name_H-M "A M M 2"
_symmetry_group_IT_number 38
_symmetry_cell_setting 'orthorhombic'
loop_
_space_group_symop_operation_xyz
x,y,z
-x,-y,z
-x,y,z
x,-y,z
x,1/2+y,1/2+z
-x,1/2-y,1/2+z
-x,1/2+y,1/2+z
x,1/2-y,1/2+z
loop_
_atom_site_type_symbol
_atom_site_label
_atom_site_fract_x
_atom_site_fract_y
_atom_site_fract_z
Si Si1 0.169166 0.682347 0.718520
Si Si2 0.331033 0.455508 0.977891
Si Si3 0.832053 0.671914 0.458037
Si Si4 0.665882 0.169241 0.613908
Si Si5 0.670269 0.627078 0.882550
Si Si6 0.830145 0.270179 0.257962
Si Si7 0.163697 0.045640 0.709697
Si Si8 0.665493 0.110209 0.822433
O O1 0.193405 0.681591 0.586188
O O2 0.250839 0.648291 0.782323
O O3 0.214646 0.725154 0.761322
O O4 0.000000 0.678210 0.737621
O O5 0.500000 0.452296 0.003802
O O6 0.306411 0.500000 0.935916
O O7 0.295770 0.418881 0.899150
O O8 0.242513 0.450697 0.091080
O O9 0.799176 0.707479 0.373534
O O10 0.738277 0.635733 0.417837
O O11 0.000000 0.663150 0.443989
O O12 0.500000 0.180326 0.606237
O O13 0.709088 0.150055 0.496877
O O14 0.756447 0.205550 0.658929
O O15 0.677416 0.136139 0.709476
O O16 0.500000 0.630157 0.869612
O O17 0.000000 0.271028 0.240317
O O18 0.248247 0.071189 0.798042
O O19 0.000000 0.058563 0.700506
O O20 0.165791 0.000000 0.738926
O O21 0.500000 0.103143 0.843507
#
# Coordination Sequence:
#
# PCOD9356356 Si02
#       8
#     8   8   8   8   8   8   8   8
#     4  10  22  36  53  76 102 137 178 219 262 311
#     4   9  17  32  53  75 105 142 175 214 264 315
#     4   9  19  36  52  72 101 131 171 218 261 306
#     4   9  18  32  49  74 104 132 167 210 256 307
#     4  10  20  34  51  77 109 137 171 217 265 315
#     4   9  19  34  54  75  98 132 171 214 260 309
#     4  10  19  29  46  77 111 138 166 205 256 311
#     4  10  18  32  53  74 100 135 172 209 252 306
#
# _framework density 16.525068999999998
#
# number of rings (size 3 to 8) (size 9 to 14) (size 15 to 20)
#    0.000    2.500    1.250    0.750    1.750    3.250 
#    0.000    0.000    0.000    0.750    0.000    3.500 
#    0.000    0.000    0.000    0.000    0.000    0.000 
#
# Total GULP energy -178412.004213 kJ/mol
# GULP energy per Si atom -5575.375132 kJ/mol
# Density = 1.648746 g / cm^3
# Si number density = 16.525069 Si / 1000 Ang^3
#
#
#
# Elastic Constant Matrix: (Units=GPa)
#
#
# Indices 1 2 3 4 5 6 
#
# 1 53.8384 59.2663 37.9778 0.0000 0.0000 0.0000
# 2 59.2663 125.9113 47.5046 0.0000 0.0000 0.0000
# 3 37.9778 47.5046 64.6238 0.0000 0.0000 0.0000
# 4 0.0000 0.0000 0.0000 21.3400 0.0000 0.0000
# 5 0.0000 0.0000 0.0000 0.0000 25.8095 0.0000
# 6 0.0000 0.0000 0.0000 0.0000 0.0000 25.9355
#
#
#
# Elastic Compliance Matrix: (Units=1/GPa)
#
#
# Indices 1 2 3 4 5 6 
#
# 1 0.048265 -0.016629 -0.016140 0.000000 0.000000 0.000000
# 2 -0.016629 0.016719 -0.002518 0.000000 0.000000 0.000000
# 3 -0.016140 -0.002518 0.026810 0.000000 0.000000 0.000000
# 4 0.000000 0.000000 0.000000 0.046860 0.000000 0.000000
# 5 0.000000 0.000000 0.000000 0.000000 0.038745 0.000000
# 6 0.000000 0.000000 0.000000 0.000000 0.000000 0.038557
#
#
# Mechanical properties :
#
#
# Convention : Reuss Voigt Hill
#
# Bulk Modulus (GPa) = 47.12444 59.31898 53.22171
# Shear Modulus (GPa) = 17.02971 21.25865 19.14418
#
# Velocity S-wave (km/s) = 3.21368 3.59060 3.40736
# Velocity P-wave (km/s) = 6.50763 7.29138 6.91062
#
# Compressibility (1/GPa) = 0.02122041
#
# Stress axis : x y z
#
# Youngs Moduli (GPa) = 20.71909 59.81167 37.29898
#
# Poissons Ratio (x) = 0.99458 0.60202
# Poissons Ratio (y) = 0.34453 0.09392
# Poissons Ratio (z) = 0.33441 0.15060
#
# Static dielectric constant tensor:
#      x y z
#    x 1.553490 0.000000 0.000000 
#    y 0.000000 1.563600 0.000000 
#    z 0.000000 0.000000 1.528590 
# 
# From -- ./inp_files/8517.got.cif
#   From: 2010.05.17/outbox.cif.g08.bks.cpg/sg38_5_cif.got.tgz:8517.got - 2010.06.03 18:07:57.
