data_PCOD9356788
_publ_section_title
;
Structure prediction by ZEFSAII (Michael W. Deem and Ramdas Pophale) SiO2 
 PCOD9356788
Probable space group: A M M 2
;
_chemical_formula_sum "Si O2"
_cell_formula_units_Z 64
_cell_length_a 9.162600
_cell_length_b 28.297071
_cell_length_c 14.696688
_cell_angle_alpha 90.000000
_cell_angle_beta 90.000000
_cell_angle_gamma 90.000000
_cell_volume 3810.480000
_symmetry_space_group_name_H-M "A M M 2"
_symmetry_group_IT_number 38
_symmetry_cell_setting 'orthorhombic'
loop_
_space_group_symop_operation_xyz
x,y,z
-x,-y,z
-x,y,z
x,-y,z
x,1/2+y,1/2+z
-x,1/2-y,1/2+z
-x,1/2+y,1/2+z
x,1/2-y,1/2+z
loop_
_atom_site_type_symbol
_atom_site_label
_atom_site_fract_x
_atom_site_fract_y
_atom_site_fract_z
Si Si1 0.325750 0.633806 0.055550
Si Si2 0.325207 0.368499 0.596256
Si Si3 0.173865 0.823159 0.931289
Si Si4 0.326788 0.944358 0.411460
Si Si5 0.671327 0.775315 0.431643
Si Si6 0.827159 0.056165 0.221399
Si Si7 0.671381 0.776944 0.217635
Si Si8 0.826599 0.821847 0.718741
O O1 0.500000 0.632439 0.070843
O O2 0.244171 0.641046 0.150073
O O3 0.284372 0.588170 0.996312
O O4 0.294333 0.679822 0.993469
O O5 0.500000 0.372709 0.591558
O O6 0.255763 0.358711 0.498165
O O7 0.255141 0.413153 0.646296
O O8 0.290086 0.322156 0.657550
O O9 0.232320 0.770412 0.952432
O O10 0.207708 0.831511 0.824746
O O11 0.000000 0.825536 0.943970
O O12 0.500000 0.936395 0.394152
O O13 0.238812 0.931830 0.320495
O O14 0.305813 0.000000 0.429880
O O15 0.500000 0.763059 0.445227
O O16 0.690286 0.787631 0.324976
O O17 0.000000 0.065523 0.219419
O O18 0.804231 0.000000 0.207905
O O19 0.500000 0.766332 0.202321
O O20 0.761845 0.729971 0.196550
O O21 0.000000 0.820974 0.708506
#
# Coordination Sequence:
#
# PCOD9356788 Si02
#       8
#     8   8   8   8   8   8   8   8
#     4  10  19  31  50  74  99 130 168 207 248 295
#     4  11  21  33  53  77  99 130 171 209 248 295
#     4  10  21  35  48  67  98 132 168 210 252 294
#     4   9  18  34  55  78 104 132 163 202 247 295
#     4   9  17  30  47  69  99 132 164 198 242 298
#     4  10  21  36  54  78 107 135 161 195 244 298
#     4   9  18  32  49  71 101 133 165 203 247 296
#     4  10  21  34  48  69  99 135 172 209 250 296
#
# _framework density 16.795784000000001
#
# number of rings (size 3 to 8) (size 9 to 14) (size 15 to 20)
#    0.000    2.250    0.000    3.000    0.000    9.250 
#    0.000    2.500    0.000    0.750    0.000    3.500 
#    0.000    0.000    0.000    0.000    0.000    0.000 
#
# Total GULP energy -178667.184515 kJ/mol
# GULP energy per Si atom -5583.349516 kJ/mol
# Density = 1.675756 g / cm^3
# Si number density = 16.795784 Si / 1000 Ang^3
#
#
#
# Elastic Constant Matrix: (Units=GPa)
#
#
# Indices 1 2 3 4 5 6 
#
# 1 59.9791 51.4155 60.1695 0.0000 0.0000 0.0000
# 2 51.4155 65.0377 60.3605 0.0000 0.0000 0.0000
# 3 60.1695 60.3605 91.4374 0.0000 0.0000 0.0000
# 4 0.0000 0.0000 0.0000 33.4457 0.0000 0.0000
# 5 0.0000 0.0000 0.0000 0.0000 28.8320 0.0000
# 6 0.0000 0.0000 0.0000 0.0000 0.0000 16.5015
#
#
#
# Elastic Compliance Matrix: (Units=1/GPa)
#
#
# Indices 1 2 3 4 5 6 
#
# 1 0.066867 -0.031044 -0.023508 0.000000 0.000000 0.000000
# 2 -0.031044 0.054108 -0.015290 0.000000 0.000000 0.000000
# 3 -0.023508 -0.015290 0.036499 0.000000 0.000000 0.000000
# 4 0.000000 0.000000 0.000000 0.029899 0.000000 0.000000
# 5 0.000000 0.000000 0.000000 0.000000 0.034684 0.000000
# 6 0.000000 0.000000 0.000000 0.000000 0.000000 0.060600
#
#
# Mechanical properties :
#
#
# Convention : Reuss Voigt Hill
#
# Bulk Modulus (GPa) = 56.21229 62.26060 59.23645
# Shear Modulus (GPa) = 11.67481 18.72308 15.19894
#
# Velocity S-wave (km/s) = 2.63934 3.34241 3.01146
# Velocity P-wave (km/s) = 6.54438 7.21424 6.88746
#
# Compressibility (1/GPa) = 0.01778970
#
# Stress axis : x y z
#
# Youngs Moduli (GPa) = 14.95501 18.48147 27.39799
#
# Poissons Ratio (x) = 0.57375 0.64407
# Poissons Ratio (y) = 0.46427 0.41891
# Poissons Ratio (z) = 0.35156 0.28258
#
# Static dielectric constant tensor:
#      x y z
#    x 1.558250 0.000000 0.000000 
#    y 0.000000 1.546390 0.000000 
#    z 0.000000 0.000000 1.572180 
# 
# From -- ./inp_files/12705.got.cif
#   From: 2010.05.17/outbox.cif.g08.bks.cpg/sg38_7_cif.got.tgz:12705.got - 2010.06.03 18:07:57.
