data_PCOD9356361
_publ_section_title
;
Structure prediction by ZEFSAII (Michael W. Deem and Ramdas Pophale) SiO2 
 PCOD9356361
Probable space group: A M M 2
;
_chemical_formula_sum "Si O2"
_cell_formula_units_Z 48
_cell_length_a 7.997657
_cell_length_b 19.093885
_cell_length_c 15.542413
_cell_angle_alpha 90.000000
_cell_angle_beta 90.000000
_cell_angle_gamma 90.000000
_cell_volume 2373.425051
_symmetry_space_group_name_H-M "A M M 2"
_symmetry_group_IT_number 38
_symmetry_cell_setting 'orthorhombic'
loop_
_space_group_symop_operation_xyz
x,y,z
-x,-y,z
-x,y,z
x,-y,z
x,1/2+y,1/2+z
-x,1/2-y,1/2+z
-x,1/2+y,1/2+z
x,1/2-y,1/2+z
loop_
_atom_site_type_symbol
_atom_site_label
_atom_site_fract_x
_atom_site_fract_y
_atom_site_fract_z
Si Si1 0.200744 0.611012 0.960690
Si Si2 0.202041 0.228565 0.210151
Si Si3 0.294607 0.000000 0.793670
Si Si4 0.795589 0.075405 0.272067
Si Si5 0.698963 0.346732 0.351301
Si Si6 0.698483 0.500000 0.098180
Si Si7 0.202057 0.738642 0.512746
O O1 0.257425 0.577298 0.871850
O O2 0.263072 0.689688 0.969246
O O3 0.000000 0.613065 0.955907
O O4 0.246341 0.566807 0.043709
O O5 0.260129 0.150057 0.234995
O O6 0.247332 0.289161 0.278996
O O7 0.000000 0.227329 0.210082
O O8 0.259688 0.239625 0.111751
O O9 0.238418 0.925792 0.833294
O O10 0.237306 0.000000 0.694677
O O11 0.500000 0.000000 0.796159
O O12 0.000000 0.076041 0.268401
O O13 0.742186 0.000000 0.234166
O O14 0.500000 0.348857 0.346043
O O15 0.748033 0.322039 0.446985
O O16 0.500000 0.500000 0.102672
O O17 0.000000 0.739445 0.515310
#
# Coordination Sequence:
#
# PCOD9356361 Si02
#       7
#     8   8   4   8   8   4   8
#     4  10  18  32  53  77 111 147 178 219 287 350
#     4  10  20  37  60  85 114 147 189 239 288 339
#     4   9  22  41  55  76 113 156 188 230 292 342
#     4   9  16  30  53  76 106 144 175 212 272 340
#     4  11  22  39  62  82 113 156 197 237 286 345
#     4  11  21  33  53  82 113 140 188 244 280 334
#     4  10  21  37  58  85 114 147 190 239 287 339
#
# _framework density 20.223938
#
# number of rings (size 3 to 8) (size 9 to 14) (size 15 to 20)
#    0.000    2.000    2.500    1.750    0.000    1.333 
#    1.500    4.167    0.000    0.000    0.000    0.000 
#    0.000    0.000    0.000    0.000    0.000    0.000 
#
# Total GULP energy -133843.744614 kJ/mol
# GULP energy per Si atom -5576.822692 kJ/mol
# Density = 2.017791 g / cm^3
# Si number density = 20.223938 Si / 1000 Ang^3
#
#
#
# Elastic Constant Matrix: (Units=GPa)
#
#
# Indices 1 2 3 4 5 6 
#
# 1 10.4406 6.4938 6.1309 0.0000 0.0000 0.0000
# 2 6.4938 155.7025 41.7394 0.0000 0.0000 0.0000
# 3 6.1309 41.7394 84.0736 0.0000 0.0000 0.0000
# 4 0.0000 0.0000 0.0000 20.3280 0.0000 0.0000
# 5 0.0000 0.0000 0.0000 0.0000 14.2574 0.0000
# 6 0.0000 0.0000 0.0000 0.0000 0.0000 14.7549
#
#
#
# Elastic Compliance Matrix: (Units=1/GPa)
#
#
# Indices 1 2 3 4 5 6 
#
# 1 0.100956 -0.002580 -0.006081 0.000000 0.000000 0.000000
# 2 -0.002580 0.007474 -0.003523 0.000000 0.000000 0.000000
# 3 -0.006081 -0.003523 0.014087 0.000000 0.000000 0.000000
# 4 0.000000 0.000000 0.000000 0.049193 0.000000 0.000000
# 5 0.000000 0.000000 0.000000 0.000000 0.070139 0.000000
# 6 0.000000 0.000000 0.000000 0.000000 0.000000 0.067774
#
#
# Mechanical properties :
#
#
# Convention : Reuss Voigt Hill
#
# Bulk Modulus (GPa) = 10.18859 39.88276 25.03567
# Shear Modulus (GPa) = 13.63486 22.92491 18.27989
#
# Velocity S-wave (km/s) = 2.59934 3.37048 3.00971
# Velocity P-wave (km/s) = 3.74935 5.90849 4.94812
#
# Compressibility (1/GPa) = 0.09814905
#
# Stress axis : x y z
#
# Youngs Moduli (GPa) = 9.90532 133.78929 70.98928
#
# Poissons Ratio (x) = 0.34523 0.43168
# Poissons Ratio (y) = 0.02556 0.25007
# Poissons Ratio (z) = 0.06023 0.47129
#
# Static dielectric constant tensor:
#      x y z
#    x 1.730520 0.000000 0.000000 
#    y 0.000000 1.762360 0.000000 
#    z 0.000000 0.000000 1.704010 
# 
# From -- ./inp_files/12145.got.cif
#   From: 2010.05.17/outbox.cif.g08.bks.cpg/sg38_7_cif.got.tgz:12145.got - 2010.06.03 18:07:57.
