data_PCOD9356800
_publ_section_title
;
Structure prediction by ZEFSAII (Michael W. Deem and Ramdas Pophale) SiO2 
 PCOD9356800
Probable space group: A M M 2
;
_chemical_formula_sum "Si O2"
_cell_formula_units_Z 64
_cell_length_a 20.457875
_cell_length_b 7.827596
_cell_length_c 20.820965
_cell_angle_alpha 90.000000
_cell_angle_beta 90.000000
_cell_angle_gamma 90.000000
_cell_volume 3334.185646
_symmetry_space_group_name_H-M "A M M 2"
_symmetry_group_IT_number 38
_symmetry_cell_setting 'orthorhombic'
loop_
_space_group_symop_operation_xyz
x,y,z
-x,-y,z
-x,y,z
x,-y,z
x,1/2+y,1/2+z
-x,1/2-y,1/2+z
-x,1/2+y,1/2+z
x,1/2-y,1/2+z
loop_
_atom_site_type_symbol
_atom_site_label
_atom_site_fract_x
_atom_site_fract_y
_atom_site_fract_z
Si Si1 0.844918 0.705562 0.089150
Si Si2 0.672112 0.799208 0.267951
Si Si3 0.073867 0.209287 0.708885
Si Si4 0.574359 0.706510 0.876610
Si Si5 0.184317 0.198605 0.807576
Si Si6 0.301777 0.294121 0.628269
Si Si7 0.813790 0.199836 0.449575
Si Si8 0.668977 0.204024 0.988570
O O1 0.848610 0.500000 0.085167
O O2 0.899867 0.763774 0.138895
O O3 0.774457 0.749036 0.119471
O O4 0.845069 0.769882 0.015713
O O5 0.621048 0.726863 0.319385
O O6 0.746015 0.784739 0.294068
O O7 0.671834 0.725720 0.195844
O O8 0.656720 0.000000 0.262443
O O9 0.126448 0.265399 0.762144
O O10 0.000000 0.266045 0.721003
O O11 0.073652 0.000000 0.709708
O O12 0.500000 0.767674 0.871852
O O13 0.573541 0.500000 0.873180
O O14 0.608577 0.753081 0.943521
O O15 0.167786 0.214901 0.882628
O O16 0.193904 0.000000 0.791462
O O17 0.305977 0.500000 0.630543
O O18 0.336419 0.236882 0.562475
O O19 0.735628 0.218024 0.459837
O O20 0.829537 0.000000 0.443872
O O21 0.678467 0.000000 0.988721
#
# Coordination Sequence:
#
# PCOD9356800 Si02
#       8
#     8   8   8   8   8   8   8   8
#     4   9  17  31  51  74  98 131 173 211 251 302
#     4  10  19  33  53  76 104 137 171 214 261 308
#     4   9  18  33  52  75 104 138 176 215 259 312
#     4  10  21  36  53  74 103 142 181 214 259 316
#     4  11  20  31  52  79 104 135 175 218 259 307
#     4   9  18  31  50  77 105 130 162 210 263 303
#     4  10  19  31  50  76 105 133 167 215 264 306
#     4  10  19  32  51  77 105 133 169 213 260 309
#
# _framework density 19.195091999999999
#
# number of rings (size 3 to 8) (size 9 to 14) (size 15 to 20)
#    0.000    2.250    2.500    1.125    0.000    1.250 
#    0.000    1.250    0.000    6.375    0.000    0.000 
#    0.000    0.000    0.000    0.000    0.000    0.000 
#
# Total GULP energy -178511.527601 kJ/mol
# GULP energy per Si atom -5578.485238 kJ/mol
# Density = 1.915140 g / cm^3
# Si number density = 19.195092 Si / 1000 Ang^3
#
#
#
# Elastic Constant Matrix: (Units=GPa)
#
#
# Indices 1 2 3 4 5 6 
#
# 1 105.1426 -5.7677 71.1275 0.0000 0.0000 0.0000
# 2 -5.7677 23.8942 -2.2479 0.0000 0.0000 0.0000
# 3 71.1275 -2.2479 157.1410 0.0000 0.0000 0.0000
# 4 0.0000 0.0000 0.0000 13.6347 0.0000 0.0000
# 5 0.0000 0.0000 0.0000 0.0000 26.1168 0.0000
# 6 0.0000 0.0000 0.0000 0.0000 0.0000 12.5586
#
#
#
# Elastic Compliance Matrix: (Units=1/GPa)
#
#
# Indices 1 2 3 4 5 6 
#
# 1 0.013888 0.002765 -0.006247 0.000000 0.000000 0.000000
# 2 0.002765 0.042458 -0.000644 0.000000 0.000000 0.000000
# 3 -0.006247 -0.000644 0.009182 0.000000 0.000000 0.000000
# 4 0.000000 0.000000 0.000000 0.073342 0.000000 0.000000
# 5 0.000000 0.000000 0.000000 0.000000 0.038290 0.000000
# 6 0.000000 0.000000 0.000000 0.000000 0.000000 0.079627
#
#
# Mechanical properties :
#
#
# Convention : Reuss Voigt Hill
#
# Bulk Modulus (GPa) = 17.45924 45.82239 31.64082
# Shear Modulus (GPa) = 17.59750 25.33308 21.46529
#
# Velocity S-wave (km/s) = 3.03111 3.63680 3.34768
# Velocity P-wave (km/s) = 4.62229 6.44662 5.60912
#
# Compressibility (1/GPa) = 0.05727625
#
# Stress axis : x y z
#
# Youngs Moduli (GPa) = 72.00225 23.55268 108.90834
#
# Poissons Ratio (x) = -0.06512 0.68033
# Poissons Ratio (y) = -0.19907 0.07015
# Poissons Ratio (z) = 0.44979 0.01517
#
# Static dielectric constant tensor:
#      x y z
#    x 1.629330 0.000000 0.000000 
#    y 0.000000 1.706770 0.000000 
#    z 0.000000 0.000000 1.706560 
# 
# From -- ./inp_files/21409.got.cif
#   From: 2010.05.17/outbox.cif.g08.bks.cpg/sg38_11_cif.got.tgz:21409.got - 2010.06.03 18:07:57.
