data_PCOD9356511
_publ_section_title
;
Structure prediction by ZEFSAII (Michael W. Deem and Ramdas Pophale) SiO2 
 PCOD9356511
Probable space group: A M M 2
;
_chemical_formula_sum "Si O2"
_cell_formula_units_Z 56
_cell_length_a 7.612164
_cell_length_b 14.284823
_cell_length_c 30.427014
_cell_angle_alpha 90.000000
_cell_angle_beta 90.000000
_cell_angle_gamma 90.000000
_cell_volume 3308.585287
_symmetry_space_group_name_H-M "A M M 2"
_symmetry_group_IT_number 38
_symmetry_cell_setting 'orthorhombic'
loop_
_space_group_symop_operation_xyz
x,y,z
-x,-y,z
-x,y,z
x,-y,z
x,1/2+y,1/2+z
-x,1/2-y,1/2+z
-x,1/2+y,1/2+z
x,1/2-y,1/2+z
loop_
_atom_site_type_symbol
_atom_site_label
_atom_site_fract_x
_atom_site_fract_y
_atom_site_fract_z
Si Si1 0.708440 0.293761 0.431570
Si Si2 0.215361 0.108730 0.650289
Si Si3 0.211974 0.892804 0.841604
Si Si4 0.290526 0.603817 0.973000
Si Si5 0.212559 0.707205 0.062034
Si Si6 0.793439 0.396525 0.518909
Si Si7 0.204183 0.886184 0.746173
O O1 0.500000 0.292252 0.438354
O O2 0.743828 0.328384 0.382658
O O3 0.778083 0.190168 0.443600
O O4 0.779999 0.365555 0.468017
O O5 0.273228 0.170745 0.609247
O O6 0.278429 0.140902 0.698608
O O7 0.000000 0.109857 0.651363
O O8 0.265591 0.000000 0.643708
O O9 0.279411 0.859402 0.793738
O O10 0.000000 0.896673 0.838373
O O11 0.272904 0.000000 0.849360
O O12 0.500000 0.599358 0.965918
O O13 0.218171 0.500000 0.964884
O O14 0.260596 0.635261 0.023287
O O15 0.279357 0.809399 0.046987
O O16 0.000000 0.710805 0.063112
O O17 0.717143 0.500000 0.525547
O O18 0.000000 0.401684 0.529461
O O19 0.000000 0.856396 0.745965
O O20 0.205843 0.000000 0.746265
#
# Coordination Sequence:
#
# PCOD9356511 Si02
#       7
#     8   8   8   8   8   8   8
#     4  10  19  28  40  58  76  97 128 161 191 223
#     4   8  12  19  34  57  80  97 119 155 190 218
#     4   9  16  26  40  57  78 104 130 154 184 225
#     4   9  18  31  42  53  75 104 128 152 187 231
#     4   9  16  25  40  61  79  98 129 162 187 214
#     4   9  17  28  39  53  78 108 132 155 185 222
#     4   7  11  20  34  53  76 100 124 149 181 224
#
# _framework density 16.925663
#
# number of rings (size 3 to 8) (size 9 to 14) (size 15 to 20)
#    0.000    3.286    0.000    3.000    0.000    3.714 
#    0.000    0.000    0.000    0.857    0.000    3.000 
#    0.000    3.429    0.000    0.286    0.000    0.286 
#
# Total GULP energy -155896.505055 kJ/mol
# GULP energy per Si atom -5567.732323 kJ/mol
# Density = 1.688714 g / cm^3
# Si number density = 16.925663 Si / 1000 Ang^3
#
#
#
# Elastic Constant Matrix: (Units=GPa)
#
#
# Indices 1 2 3 4 5 6 
#
# 1 34.3950 2.4615 -6.6793 0.0000 0.0000 0.0000
# 2 2.4615 102.7411 63.6136 0.0000 0.0000 0.0000
# 3 -6.6793 63.6136 149.5868 0.0000 0.0000 0.0000
# 4 0.0000 0.0000 0.0000 23.0687 0.0000 0.0000
# 5 0.0000 0.0000 0.0000 0.0000 -42.5759 0.0000
# 6 0.0000 0.0000 0.0000 0.0000 0.0000 6.9854
#
#
#
# Elastic Compliance Matrix: (Units=1/GPa)
#
#
# Indices 1 2 3 4 5 6 
#
# 1 0.029651 -0.002077 0.002207 0.000000 0.000000 0.000000
# 2 -0.002077 0.013358 -0.005773 0.000000 0.000000 0.000000
# 3 0.002207 -0.005773 0.009239 0.000000 0.000000 0.000000
# 4 0.000000 0.000000 0.000000 0.043349 0.000000 0.000000
# 5 0.000000 0.000000 0.000000 0.000000 -0.023487 0.000000
# 6 0.000000 0.000000 0.000000 0.000000 0.000000 0.143156
#
#
# Mechanical properties :
#
#
# Convention : Reuss Voigt Hill
#
# Bulk Modulus (GPa) = 24.41310 45.05716 34.73513
# Shear Modulus (GPa) = 20.81555 12.65078 16.73317
#
# Velocity S-wave (km/s) = 3.51069 2.73689 3.14765
# Velocity P-wave (km/s) = 5.55772 6.05523 5.81180
#
# Compressibility (1/GPa) = 0.04096162
#
# Stress axis : x y z
#
# Youngs Moduli (GPa) = 33.72537 74.86426 108.23971
#
# Poissons Ratio (x) = 0.15550 -0.23891
# Poissons Ratio (y) = 0.07005 0.62489
# Poissons Ratio (z) = -0.07444 0.43221
#
# Static dielectric constant tensor:
#      x y z
#    x 1.634320 0.000000 0.000000 
#    y 0.000000 1.577840 0.000000 
#    z 0.000000 0.000000 1.588650 
# 
# From -- ./inp_files/24629.got.cif
#   From: 2010.05.17/outbox.cif.g08.bks.cpg/sg38_13_cif.got.tgz:24629.got - 2010.06.03 18:07:57.
