data_PCOD9356759
_publ_section_title
;
Structure prediction by ZEFSAII (Michael W. Deem and Ramdas Pophale) SiO2 
 PCOD9356759
Probable space group: A M M 2
;
_chemical_formula_sum "Si O2"
_cell_formula_units_Z 64
_cell_length_a 8.828613
_cell_length_b 14.887891
_cell_length_c 28.889604
_cell_angle_alpha 90.000000
_cell_angle_beta 90.000000
_cell_angle_gamma 90.000000
_cell_volume 3797.233026
_symmetry_space_group_name_H-M "A M M 2"
_symmetry_group_IT_number 38
_symmetry_cell_setting 'orthorhombic'
loop_
_space_group_symop_operation_xyz
x,y,z
-x,-y,z
-x,y,z
x,-y,z
x,1/2+y,1/2+z
-x,1/2-y,1/2+z
-x,1/2+y,1/2+z
x,1/2-y,1/2+z
loop_
_atom_site_type_symbol
_atom_site_label
_atom_site_fract_x
_atom_site_fract_y
_atom_site_fract_z
Si Si1 0.181981 0.605783 0.571520
Si Si2 0.681361 0.403440 0.189051
Si Si3 0.318286 0.293109 0.657630
Si Si4 0.815610 0.897112 0.966195
Si Si5 0.828116 0.854344 0.249805
Si Si6 0.680760 0.401565 0.844481
Si Si7 0.828380 0.853362 0.782111
Si Si8 0.183738 0.716241 0.378431
O O1 0.214683 0.500000 0.579289
O O2 0.261597 0.666330 0.609659
O O3 0.228646 0.627088 0.518643
O O4 0.000000 0.616666 0.574988
O O5 0.500000 0.402674 0.185816
O O6 0.736799 0.500000 0.170331
O O7 0.734249 0.310716 0.165249
O O8 0.728061 0.398527 0.242943
O O9 0.500000 0.294999 0.660351
O O10 0.250814 0.351424 0.700030
O O11 0.766671 0.829091 0.926251
O O12 0.000000 0.897644 0.965635
O O13 0.767633 0.000000 0.956845
O O14 0.735821 0.899298 0.291161
O O15 0.835888 0.750506 0.266095
O O16 0.000000 0.888570 0.246835
O O17 0.500000 0.392250 0.845647
O O18 0.722484 0.500000 0.863816
O O19 0.753859 0.316075 0.869840
O O20 0.771297 0.846768 0.834720
O O21 0.000000 0.889569 0.781483
O O22 0.000000 0.720646 0.376939
#
# Coordination Sequence:
#
# PCOD9356759 Si02
#       8
#     8   8   8   8   8   8   8   8
#     4   9  18  33  52  72  94 121 153 192 240 291
#     4   9  18  31  45  63  91 127 161 188 220 268
#     4  10  19  31  49  71  96 126 158 195 238 283
#     4   8  15  30  52  75  96 119 151 193 241 289
#     4   9  17  30  47  66  90 121 158 197 232 270
#     4  10  20  32  46  67  98 133 164 195 232 274
#     4   8  15  26  41  65  92 116 147 186 225 263
#     4   9  17  30  50  73  95 123 158 194 232 278
#
# _framework density 16.854378000000001
#
# number of rings (size 3 to 8) (size 9 to 14) (size 15 to 20)
#    0.000    3.000    0.000    2.625    0.000    6.000 
#    0.000    1.875    0.000    1.875    0.000    3.500 
#    0.000    0.000    0.000    0.000    0.000    0.000 
#
# Total GULP energy -178198.315310 kJ/mol
# GULP energy per Si atom -5568.697353 kJ/mol
# Density = 1.681602 g / cm^3
# Si number density = 16.854378 Si / 1000 Ang^3
#
#
#
# Elastic Constant Matrix: (Units=GPa)
#
#
# Indices 1 2 3 4 5 6 
#
# 1 20.4231 20.9950 25.1301 0.0000 0.0000 0.0000
# 2 20.9950 91.9307 67.2171 0.0000 0.0000 0.0000
# 3 25.1301 67.2171 131.1491 0.0000 0.0000 0.0000
# 4 0.0000 0.0000 0.0000 21.0566 0.0000 0.0000
# 5 0.0000 0.0000 0.0000 0.0000 5.8022 0.0000
# 6 0.0000 0.0000 0.0000 0.0000 0.0000 11.2907
#
#
#
# Elastic Compliance Matrix: (Units=1/GPa)
#
#
# Indices 1 2 3 4 5 6 
#
# 1 0.069146 -0.009762 -0.008246 0.000000 0.000000 0.000000
# 2 -0.009762 0.018776 -0.007752 0.000000 0.000000 0.000000
# 3 -0.008246 -0.007752 0.013178 0.000000 0.000000 0.000000
# 4 0.000000 0.000000 0.000000 0.047491 0.000000 0.000000
# 5 0.000000 0.000000 0.000000 0.000000 0.172347 0.000000
# 6 0.000000 0.000000 0.000000 0.000000 0.000000 0.088568
#
#
# Mechanical properties :
#
#
# Convention : Reuss Voigt Hill
#
# Bulk Modulus (GPa) = 20.16988 52.24305 36.20646
# Shear Modulus (GPa) = 10.47001 16.30729 13.38865
#
# Velocity S-wave (km/s) = 2.49510 3.11391 2.82152
# Velocity P-wave (km/s) = 4.50487 6.63269 5.66950
#
# Compressibility (1/GPa) = 0.04957888
#
# Stress axis : x y z
#
# Youngs Moduli (GPa) = 14.46206 53.26083 75.88268
#
# Poissons Ratio (x) = 0.51995 0.62574
# Poissons Ratio (y) = 0.14118 0.58827
# Poissons Ratio (z) = 0.11926 0.41290
#
# Static dielectric constant tensor:
#      x y z
#    x 1.572650 0.000000 0.000000 
#    y 0.000000 1.601870 0.000000 
#    z 0.000000 0.000000 1.557840 
# 
# From -- ./inp_files/24710.got.cif
#   From: 2010.05.17/outbox.cif.g08.bks.cpg/sg38_13_cif.got.tgz:24710.got - 2010.06.03 18:07:57.
