data_PCOD9356768
_publ_section_title
;
Structure prediction by ZEFSAII (Michael W. Deem and Ramdas Pophale) SiO2 
 PCOD9356768
Probable space group: A M M 2
;
_chemical_formula_sum "Si O2"
_cell_formula_units_Z 48
_cell_length_a 7.445877
_cell_length_b 31.679134
_cell_length_c 9.462339
_cell_angle_alpha 90.000000
_cell_angle_beta 90.000000
_cell_angle_gamma 90.000000
_cell_volume 2231.966448
_symmetry_space_group_name_H-M "A M M 2"
_symmetry_group_IT_number 38
_symmetry_cell_setting 'orthorhombic'
loop_
_space_group_symop_operation_xyz
x,y,z
-x,-y,z
-x,y,z
x,-y,z
x,1/2+y,1/2+z
-x,1/2-y,1/2+z
-x,1/2+y,1/2+z
x,1/2-y,1/2+z
loop_
_atom_site_type_symbol
_atom_site_label
_atom_site_fract_x
_atom_site_fract_y
_atom_site_fract_z
Si Si1 0.218932 0.790132 0.223140
Si Si2 0.779601 0.126423 0.392704
Si Si3 0.712852 0.952494 0.882698
Si Si4 0.219856 0.207681 0.898246
Si Si5 0.208243 0.869910 0.712085
Si Si6 0.215292 0.047328 0.211597
O O1 0.274113 0.832461 0.304327
O O2 0.274458 0.748632 0.308934
O O3 0.000000 0.789894 0.221914
O O4 0.278792 0.790098 0.060678
O O5 0.716138 0.129113 0.554158
O O6 0.718481 0.083938 0.314226
O O7 0.000000 0.125450 0.392950
O O8 0.500000 0.953452 0.861981
O O9 0.784744 0.915623 0.784158
O O10 0.783279 0.000000 0.855358
O O11 0.747915 0.942689 0.047437
O O12 0.282514 0.165505 0.817837
O O13 0.000000 0.207259 0.902632
O O14 0.000000 0.858023 0.693533
O O15 0.000000 0.045892 0.226706
O O16 0.284680 0.000000 0.240158
#
# Coordination Sequence:
#
# PCOD9356768 Si02
#       6
#     8   8   8   8   8   8
#     4   9  15  24  39  64 100 133 161 198 242 284
#     4   9  17  28  45  72 103 131 162 202 245 289
#     4  10  21  36  52  71  96 127 163 201 243 293
#     4   9  16  25  41  67  99 132 163 198 240 284
#     4  10  19  31  49  74 101 129 163 201 243 289
#     4   9  17  31  51  73  97 127 164 205 247 289
#
# _framework density 21.505697000000001
#
# number of rings (size 3 to 8) (size 9 to 14) (size 15 to 20)
#    0.000    2.667    0.000    2.500    0.000    8.333 
#    0.000    2.500    0.000    2.000    0.000   10.500 
#    0.000    0.000    0.000    0.000    0.000    0.000 
#
# Total GULP energy -134063.784182 kJ/mol
# GULP energy per Si atom -5585.991008 kJ/mol
# Density = 2.145675 g / cm^3
# Si number density = 21.505697 Si / 1000 Ang^3
#
#
#
# Elastic Constant Matrix: (Units=GPa)
#
#
# Indices 1 2 3 4 5 6 
#
# 1 63.0991 -3.0975 -2.1600 0.0000 0.0000 0.0000
# 2 -3.0975 168.8821 143.8860 0.0000 0.0000 0.0000
# 3 -2.1600 143.8860 223.6179 0.0000 0.0000 0.0000
# 4 0.0000 0.0000 0.0000 41.8484 0.0000 0.0000
# 5 0.0000 0.0000 0.0000 0.0000 -38.6909 0.0000
# 6 0.0000 0.0000 0.0000 0.0000 0.0000 -21.0324
#
#
#
# Elastic Compliance Matrix: (Units=1/GPa)
#
#
# Indices 1 2 3 4 5 6 
#
# 1 0.015863 0.000355 -0.000075 0.000000 0.000000 0.000000
# 2 0.000355 0.013114 -0.008435 0.000000 0.000000 0.000000
# 3 -0.000075 -0.008435 0.009899 0.000000 0.000000 0.000000
# 4 0.000000 0.000000 0.000000 0.023896 0.000000 0.000000
# 5 0.000000 0.000000 0.000000 0.000000 -0.025846 0.000000
# 6 0.000000 0.000000 0.000000 0.000000 0.000000 -0.047546
#
#
# Mechanical properties :
#
#
# Convention : Reuss Voigt Hill
#
# Bulk Modulus (GPa) = 44.31522 81.42846 62.87184
# Shear Modulus (GPa) = 378.44594 17.55639 198.00116
#
# Velocity S-wave (km/s) = 13.27994 2.86030 9.60568
# Velocity P-wave (km/s) = 15.99354 6.98958 12.34195
#
# Compressibility (1/GPa) = 0.02256561
#
# Stress axis : x y z
#
# Youngs Moduli (GPa) = 63.04007 76.25303 101.02475
#
# Poissons Ratio (x) = -0.02707 0.00760
# Poissons Ratio (y) = -0.02238 0.85213
# Poissons Ratio (z) = 0.00474 0.64318
#
# Static dielectric constant tensor:
#      x y z
#    x 1.817100 0.000000 0.000000 
#    y 0.000000 1.741040 0.000000 
#    z 0.000000 0.000000 1.725410 
# 
# From -- ./inp_files/3748.got.cif
#   From: 2010.05.17/outbox.cif.g08.bks.cpg/sg38_2_cif.got.tgz:3748.got - 2010.06.03 18:07:57.
