data_PCOD9356518
_publ_section_title
;
Structure prediction by ZEFSAII (Michael W. Deem and Ramdas Pophale) SiO2 
 PCOD9356518
Probable space group: A M M 2
;
_chemical_formula_sum "Si O2"
_cell_formula_units_Z 64
_cell_length_a 8.222617
_cell_length_b 19.310866
_cell_length_c 22.315012
_cell_angle_alpha 90.000000
_cell_angle_beta 90.000000
_cell_angle_gamma 90.000000
_cell_volume 3543.308261
_symmetry_space_group_name_H-M "A M M 2"
_symmetry_group_IT_number 38
_symmetry_cell_setting 'orthorhombic'
loop_
_space_group_symop_operation_xyz
x,y,z
-x,-y,z
-x,y,z
x,-y,z
x,1/2+y,1/2+z
-x,1/2-y,1/2+z
-x,1/2+y,1/2+z
x,1/2-y,1/2+z
loop_
_atom_site_type_symbol
_atom_site_label
_atom_site_fract_x
_atom_site_fract_y
_atom_site_fract_z
Si Si1 0.306000 0.777194 0.737180
Si Si2 0.194082 0.721005 0.608409
Si Si3 0.684131 0.421025 0.096618
Si Si4 0.805050 0.922237 0.412707
Si Si5 0.303536 0.923308 0.154491
Si Si6 0.696535 0.629818 0.785261
Si Si7 0.184672 0.682709 0.009249
Si Si8 0.806854 0.924188 0.731297
O O1 0.500000 0.780153 0.739147
O O2 0.258586 0.760661 0.667855
O O3 0.252675 0.709832 0.774917
O O4 0.238574 0.850594 0.759922
O O5 0.236408 0.640821 0.617064
O O6 0.258686 0.752699 0.545749
O O7 0.000000 0.730021 0.608416
O O8 0.500000 0.395914 0.085672
O O9 0.696226 0.500000 0.075782
O O10 0.811227 0.374786 0.061698
O O11 0.718317 0.421513 0.167114
O O12 0.770224 0.904068 0.343989
O O13 0.738037 0.859678 0.454147
O O14 0.000000 0.923708 0.422605
O O15 0.742657 0.000000 0.426273
O O16 0.500000 0.920189 0.151900
O O17 0.258395 0.909546 0.223963
O O18 0.250504 0.000000 0.136099
O O19 0.500000 0.627712 0.790163
O O20 0.000000 0.701368 0.991966
O O21 0.000000 0.923941 0.721356
O O22 0.765281 0.000000 0.758830
#
# Coordination Sequence:
#
# PCOD9356518 Si02
#       8
#     8   8   8   8   8   8   8   8
#     4  10  19  32  49  69  96 128 164 205 249 297
#     4  10  19  30  47  71  97 127 162 200 245 296
#     4  10  19  28  41  63  90 124 164 199 232 276
#     4  10  21  35  50  70  97 132 172 209 244 286
#     4   9  18  33  52  73  99 129 157 195 251 303
#     4   9  19  34  51  71  96 127 163 205 248 290
#     4  10  20  33  47  65  95 132 166 202 244 285
#     4  10  19  29  43  66  96 127 158 195 241 291
#
# _framework density 18.062215999999999
#
# number of rings (size 3 to 8) (size 9 to 14) (size 15 to 20)
#    0.000    2.250    1.250    3.000    0.000    6.500 
#    0.000    0.000    0.000    0.000    0.000    0.875 
#    0.000    1.000    0.000    0.000    0.000    0.000 
#
# Total GULP energy -178298.956732 kJ/mol
# GULP energy per Si atom -5571.842398 kJ/mol
# Density = 1.802111 g / cm^3
# Si number density = 18.062216 Si / 1000 Ang^3
#
#
#
# Elastic Constant Matrix: (Units=GPa)
#
#
# Indices 1 2 3 4 5 6 
#
# 1 27.2267 17.3603 -0.0704 0.0000 0.0000 0.0000
# 2 17.3603 139.7889 32.8388 0.0000 0.0000 0.0000
# 3 -0.0704 32.8388 58.6971 0.0000 0.0000 0.0000
# 4 0.0000 0.0000 0.0000 22.7086 0.0000 0.0000
# 5 0.0000 0.0000 0.0000 0.0000 26.6609 0.0000
# 6 0.0000 0.0000 0.0000 0.0000 0.0000 20.3840
#
#
#
# Elastic Compliance Matrix: (Units=1/GPa)
#
#
# Indices 1 2 3 4 5 6 
#
# 1 0.040432 -0.005794 0.003290 0.000000 0.000000 0.000000
# 2 -0.005794 0.009066 -0.005079 0.000000 0.000000 0.000000
# 3 0.003290 -0.005079 0.019882 0.000000 0.000000 0.000000
# 4 0.000000 0.000000 0.000000 0.044036 0.000000 0.000000
# 5 0.000000 0.000000 0.000000 0.000000 0.037508 0.000000
# 6 0.000000 0.000000 0.000000 0.000000 0.000000 0.049058
#
#
# Mechanical properties :
#
#
# Convention : Reuss Voigt Hill
#
# Bulk Modulus (GPa) = 18.44555 36.21892 27.33224
# Shear Modulus (GPa) = 21.43894 25.65629 23.54762
#
# Velocity S-wave (km/s) = 3.44895 3.77296 3.61459
# Velocity P-wave (km/s) = 5.10830 6.25109 5.70837
#
# Compressibility (1/GPa) = 0.05421361
#
# Stress axis : x y z
#
# Youngs Moduli (GPa) = 24.73315 110.29722 50.29623
#
# Poissons Ratio (x) = 0.63907 -0.16548
# Poissons Ratio (y) = 0.14331 0.25547
# Poissons Ratio (z) = -0.08137 0.56023
#
# Static dielectric constant tensor:
#      x y z
#    x 1.644470 0.000000 0.000000 
#    y 0.000000 1.685310 0.000000 
#    z 0.000000 0.000000 1.602450 
# 
# From -- ./inp_files/20088.got.cif
#   From: 2010.05.17/outbox.cif.g08.bks.cpg/sg38_11_cif.got.tgz:20088.got - 2010.06.03 18:07:57.
