data_PCOD9356528
_publ_section_title
;
Structure prediction by ZEFSAII (Michael W. Deem and Ramdas Pophale) SiO2 
 PCOD9356528
Probable space group: A M M 2
;
_chemical_formula_sum "Si O2"
_cell_formula_units_Z 58
_cell_length_a 21.537975
_cell_length_b 7.534645
_cell_length_c 15.128483
_cell_angle_alpha 90.000000
_cell_angle_beta 90.000000
_cell_angle_gamma 90.000000
_cell_volume 2455.065284
_symmetry_space_group_name_H-M "A M M 2"
_symmetry_group_IT_number 38
_symmetry_cell_setting 'orthorhombic'
loop_
_space_group_symop_operation_xyz
x,y,z
-x,-y,z
-x,y,z
x,-y,z
x,1/2+y,1/2+z
-x,1/2-y,1/2+z
-x,1/2+y,1/2+z
x,1/2-y,1/2+z
loop_
_atom_site_type_symbol
_atom_site_label
_atom_site_fract_x
_atom_site_fract_y
_atom_site_fract_z
Si Si1 0.500000 0.000000 0.429840
Si Si2 0.408430 0.793854 0.995434
Si Si3 0.275403 0.285490 0.040687
Si Si4 0.069082 0.217516 0.648509
Si Si5 0.167318 0.290902 0.289566
Si Si6 0.432387 0.288653 0.702373
Si Si7 0.298715 0.211603 0.743977
Si Si8 0.860196 0.786400 0.480512
O O1 0.446292 0.156293 0.437428
O O2 0.334173 0.780463 0.985275
O O3 0.426443 0.000000 0.985470
O O4 0.421986 0.737139 0.098890
O O5 0.276536 0.500000 0.038896
O O6 0.208307 0.223232 0.009541
O O7 0.285826 0.231029 0.142490
O O8 0.124330 0.281636 0.711792
O O9 0.088188 0.271168 0.549791
O O10 0.000000 0.275909 0.672855
O O11 0.069000 0.000000 0.651835
O O12 0.173736 0.500000 0.270828
O O13 0.238088 0.218916 0.295816
O O14 0.131453 0.268782 0.380489
O O15 0.500000 0.217914 0.730926
O O16 0.437052 0.500000 0.702318
O O17 0.371015 0.251502 0.758918
O O18 0.297019 0.000000 0.748482
O O19 0.858380 0.000000 0.483678
#
# Coordination Sequence:
#
# PCOD9356528 Si02
#       8
#     2   8   8   8   8   8   8   8
#     4  12  18  28  44  70 112 160 192 252 314 382
#     4  10  19  28  43  72 109 147 199 254 310 371
#     4   9  16  31  51  74 103 144 194 250 305 361
#     4   9  18  36  61  87 120 162 202 242 294 364
#     4  10  20  36  56  86 118 153 199 248 296 358
#     4   9  17  27  41  70 106 139 182 243 302 360
#     4   9  17  29  50  73 102 143 193 241 290 356
#     4  10  20  35  59  87 116 154 202 249 300 362
#
# _framework density 23.624625000000002
#
# number of rings (size 3 to 8) (size 9 to 14) (size 15 to 20)
#    0.000    2.483    2.759    0.207    0.966    1.931 
#    0.000    0.690    0.000    0.828    1.793    0.000 
#    0.000    0.000    0.000    0.000    0.000    0.000 
#
# Total GULP energy -161748.611194 kJ/mol
# GULP energy per Si atom -5577.538317 kJ/mol
# Density = 2.357085 g / cm^3
# Si number density = 23.624625 Si / 1000 Ang^3
#
#
#
# Elastic Constant Matrix: (Units=GPa)
#
#
# Indices 1 2 3 4 5 6 
#
# 1 143.9957 13.7926 38.6047 0.0000 0.0000 0.0000
# 2 13.7926 76.5558 -0.3194 0.0000 0.0000 0.0000
# 3 38.6047 -0.3194 56.4117 0.0000 0.0000 0.0000
# 4 0.0000 0.0000 0.0000 9.0843 0.0000 0.0000
# 5 0.0000 0.0000 0.0000 0.0000 5.6390 0.0000
# 6 0.0000 0.0000 0.0000 0.0000 0.0000 14.1906
#
#
#
# Elastic Compliance Matrix: (Units=1/GPa)
#
#
# Indices 1 2 3 4 5 6 
#
# 1 0.008695 -0.001591 -0.005959 0.000000 0.000000 0.000000
# 2 -0.001591 0.013354 0.001165 0.000000 0.000000 0.000000
# 3 -0.005959 0.001165 0.021811 0.000000 0.000000 0.000000
# 4 0.000000 0.000000 0.000000 0.110080 0.000000 0.000000
# 5 0.000000 0.000000 0.000000 0.000000 0.177336 0.000000
# 6 0.000000 0.000000 0.000000 0.000000 0.000000 0.070469
#
#
# Mechanical properties :
#
#
# Convention : Reuss Voigt Hill
#
# Bulk Modulus (GPa) = 32.16629 42.34654 37.25642
# Shear Modulus (GPa) = 11.76802 20.77512 16.27157
#
# Velocity S-wave (km/s) = 2.23429 2.96866 2.62726
# Velocity P-wave (km/s) = 4.50569 5.45108 5.00077
#
# Compressibility (1/GPa) = 0.03108844
#
# Stress axis : x y z
#
# Youngs Moduli (GPa) = 115.01261 74.88432 45.84739
#
# Poissons Ratio (x) = 0.11917 0.27321
# Poissons Ratio (y) = 0.18302 -0.05340
# Poissons Ratio (z) = 0.68537 -0.08721
#
# Static dielectric constant tensor:
#      x y z
#    x 1.926970 0.000000 0.000000 
#    y 0.000000 1.886140 0.000000 
#    z 0.000000 0.000000 1.919970 
# 
# From -- ./inp_files/15698.got.cif
#   From: 2010.05.17/outbox.cif.g08.bks.cpg/sg38_8_cif.got.tgz:15698.got - 2010.06.03 18:07:57.
