data_PCOD9356348
_publ_section_title
;
Structure prediction by ZEFSAII (Michael W. Deem and Ramdas Pophale) SiO2 
 PCOD9356348
Probable space group: A M M 2
;
_chemical_formula_sum "Si O2"
_cell_formula_units_Z 64
_cell_length_a 14.632695
_cell_length_b 14.670147
_cell_length_c 18.257658
_cell_angle_alpha 90.000000
_cell_angle_beta 90.000000
_cell_angle_gamma 90.000000
_cell_volume 3919.258002
_symmetry_space_group_name_H-M "A M M 2"
_symmetry_group_IT_number 38
_symmetry_cell_setting 'orthorhombic'
loop_
_space_group_symop_operation_xyz
x,y,z
-x,-y,z
-x,y,z
x,-y,z
x,1/2+y,1/2+z
-x,1/2-y,1/2+z
-x,1/2+y,1/2+z
x,1/2-y,1/2+z
loop_
_atom_site_type_symbol
_atom_site_label
_atom_site_fract_x
_atom_site_fract_y
_atom_site_fract_z
Si Si1 0.207594 0.250000 0.971470
Si Si2 0.893638 0.861634 0.721470
Si Si3 0.109764 0.598075 0.380284
Si Si4 0.890236 0.098075 0.562656
Si Si5 0.254462 0.107309 0.095831
Si Si6 0.107279 0.142848 0.221470
Si Si7 0.745538 0.892691 0.347109
Si Si8 0.603473 0.110129 0.221470
O O1 0.146709 0.183325 0.922951
O O2 0.254207 0.321068 0.914227
O O3 0.146709 0.316675 0.019989
O O4 0.254207 0.178932 0.028713
O O5 0.854123 0.896603 0.797275
O O6 0.854123 0.896603 0.645665
O O7 0.891469 0.752565 0.721470
O O8 0.000000 0.890296 0.721470
O O9 0.134765 0.500000 0.413247
O O10 0.000000 0.603301 0.378269
O O11 0.000000 0.103301 0.564670
O O12 0.865235 0.000000 0.529693
O O13 0.163895 0.113551 0.148659
O O14 0.337483 0.133953 0.150060
O O15 0.263488 0.000000 0.074647
O O16 0.163895 0.113551 0.294281
O O17 0.000000 0.114398 0.221470
O O18 0.662517 0.866047 0.292880
O O19 0.736512 0.000000 0.368293
O O20 0.500000 0.145212 0.221470
O O21 0.599815 0.000000 0.221470
#
# Coordination Sequence:
#
# PCOD9356348 Si02
#       8
#     8   8   8   8   8   8   8   8
#     4  12  21  32  45  68 108 134 154 204 258 300
#     4   9  16  30  47  61  82 121 176 219 240 270
#     4  10  20  32  46  63  89 135 185 217 243 280
#     4  10  20  32  46  63  89 135 185 217 243 280
#     4  10  21  34  51  77 102 130 169 204 246 303
#     4  10  18  32  51  69  96 133 172 218 256 280
#     4  10  21  34  51  77 102 130 169 204 246 303
#     4   8  16  36  62  80  96 121 158 207 252 291
#
# _framework density 16.329622000000001
#
# number of rings (size 3 to 8) (size 9 to 14) (size 15 to 20)
#    0.000    2.125    2.500    2.625    0.000    3.500 
#    0.000    0.625    0.000    0.000    0.000    0.000 
#    0.000    4.000    0.000    0.000    0.000    0.000 
#
# Total GULP energy -178134.922373 kJ/mol
# GULP energy per Si atom -5566.716324 kJ/mol
# Density = 1.629245 g / cm^3
# Si number density = 16.329622 Si / 1000 Ang^3
#
#
#
# Elastic Constant Matrix: (Units=GPa)
#
#
# Indices 1 2 3 4 5 6 
#
# 1 81.6273 25.2405 38.9756 0.0000 0.0000 0.0000
# 2 25.2405 124.7232 58.1069 0.0000 0.0000 0.0000
# 3 38.9756 58.1069 109.7024 0.0000 0.0000 0.0000
# 4 0.0000 0.0000 0.0000 19.9208 0.0000 0.0000
# 5 0.0000 0.0000 0.0000 0.0000 10.6609 0.0000
# 6 0.0000 0.0000 0.0000 0.0000 0.0000 8.0647
#
#
#
# Elastic Compliance Matrix: (Units=1/GPa)
#
#
# Indices 1 2 3 4 5 6 
#
# 1 0.014803 -0.000724 -0.004876 0.000000 0.000000 0.000000
# 2 -0.000724 0.010680 -0.005400 0.000000 0.000000 0.000000
# 3 -0.004876 -0.005400 0.013708 0.000000 0.000000 0.000000
# 4 0.000000 0.000000 0.000000 0.050199 0.000000 0.000000
# 5 0.000000 0.000000 0.000000 0.000000 0.093801 0.000000
# 6 0.000000 0.000000 0.000000 0.000000 0.000000 0.123998
#
#
# Mechanical properties :
#
#
# Convention : Reuss Voigt Hill
#
# Bulk Modulus (GPa) = 58.16761 62.29989 60.23375
# Shear Modulus (GPa) = 14.92906 20.64459 17.78683
#
# Velocity S-wave (km/s) = 3.02691 3.55948 3.30394
# Velocity P-wave (km/s) = 6.92203 7.42479 7.17781
#
# Compressibility (1/GPa) = 0.01719170
#
# Stress axis : x y z
#
# Youngs Moduli (GPa) = 67.55497 93.63372 72.95088
#
# Poissons Ratio (x) = 0.06781 0.35568
# Poissons Ratio (y) = 0.04892 0.39391
# Poissons Ratio (z) = 0.32937 0.50559
#
# Static dielectric constant tensor:
#      x y z
#    x 1.533040 0.000000 0.000000 
#    y 0.000000 1.571740 0.000000 
#    z 0.000000 0.000000 1.591370 
# 
# From -- ./inp_files/18502.got.cif
#   From: 2010.05.17/outbox.cif.g08.bks.cpg/sg38_10_cif.got.tgz:18502.got - 2010.06.03 18:07:57.
