data_PCOD9356290
_publ_section_title
;
Structure prediction by ZEFSAII (Michael W. Deem and Ramdas Pophale) SiO2 
 PCOD9356290
Probable space group: A M M 2
;
_chemical_formula_sum "Si O2"
_cell_formula_units_Z 64
_cell_length_a 8.510035
_cell_length_b 21.390944
_cell_length_c 20.263406
_cell_angle_alpha 90.000000
_cell_angle_beta 90.000000
_cell_angle_gamma 90.000000
_cell_volume 3688.703460
_symmetry_space_group_name_H-M "A M M 2"
_symmetry_group_IT_number 38
_symmetry_cell_setting 'orthorhombic'
loop_
_space_group_symop_operation_xyz
x,y,z
-x,-y,z
-x,y,z
x,-y,z
x,1/2+y,1/2+z
-x,1/2-y,1/2+z
-x,1/2+y,1/2+z
x,1/2-y,1/2+z
loop_
_atom_site_type_symbol
_atom_site_label
_atom_site_fract_x
_atom_site_fract_y
_atom_site_fract_z
Si Si1 0.191856 0.189525 0.245480
Si Si2 0.811806 0.235502 0.104886
Si Si3 0.689821 0.069460 0.747302
Si Si4 0.310890 0.118539 0.461419
Si Si5 0.309938 0.123049 0.607979
Si Si6 0.189128 0.568901 0.825758
Si Si7 0.812257 0.312254 0.326858
Si Si8 0.312528 0.765631 0.962704
O O1 0.239293 0.196909 0.169312
O O2 0.247574 0.126606 0.281314
O O3 0.243604 0.251141 0.285769
O O4 0.000000 0.189391 0.246989
O O5 0.755598 0.306889 0.114955
O O6 0.000000 0.234928 0.101737
O O7 0.744907 0.213680 0.034800
O O8 0.500000 0.070551 0.748797
O O9 0.738045 0.083608 0.671587
O O10 0.750185 0.125029 0.793092
O O11 0.742592 0.000000 0.766860
O O12 0.500000 0.113662 0.456461
O O13 0.263494 0.098481 0.535473
O O14 0.235597 0.081900 0.401284
O O15 0.267620 0.192138 0.455337
O O16 0.500000 0.127129 0.607470
O O17 0.245654 0.500000 0.805602
O O18 0.000000 0.569226 0.821410
O O19 0.758000 0.303382 0.401889
O O20 0.000000 0.312644 0.324171
O O21 0.500000 0.768695 0.960410
#
# Coordination Sequence:
#
# PCOD9356290 Si02
#       8
#     8   8   8   8   8   8   8   8
#     4   9  18  32  51  77 104 132 171 216 263 307
#     4  10  18  31  52  77 104 135 170 217 269 311
#     4  10  21  36  53  75 107 146 182 219 266 319
#     4   9  18  31  48  72 103 137 172 211 251 299
#     4   9  18  32  49  72 103 139 178 213 253 309
#     4  10  20  34  51  72 102 139 174 210 255 308
#     4  11  20  34  56  80 105 137 176 224 268 311
#     4  10  20  34  52  79 107 135 172 216 265 319
#
# _framework density 17.350269000000001
#
# number of rings (size 3 to 8) (size 9 to 14) (size 15 to 20)
#    0.000    2.250    2.500    1.875    0.000    3.000 
#    0.000    2.500    0.000    0.750    0.000    1.750 
#    0.000    0.000    0.000    0.000    0.000    0.000 
#
# Total GULP energy -178510.516562 kJ/mol
# GULP energy per Si atom -5578.453643 kJ/mol
# Density = 1.731078 g / cm^3
# Si number density = 17.350269 Si / 1000 Ang^3
#
#
#
# Elastic Constant Matrix: (Units=GPa)
#
#
# Indices 1 2 3 4 5 6 
#
# 1 9.5628 22.1803 20.5464 0.0000 0.0000 0.0000
# 2 22.1803 125.6380 82.2858 0.0000 0.0000 0.0000
# 3 20.5464 82.2858 132.6453 0.0000 0.0000 0.0000
# 4 0.0000 0.0000 0.0000 19.6769 0.0000 0.0000
# 5 0.0000 0.0000 0.0000 0.0000 23.4812 0.0000
# 6 0.0000 0.0000 0.0000 0.0000 0.0000 17.5587
#
#
#
# Elastic Compliance Matrix: (Units=1/GPa)
#
#
# Indices 1 2 3 4 5 6 
#
# 1 0.192791 -0.024384 -0.014736 0.000000 0.000000 0.000000
# 2 -0.024384 0.016490 -0.006453 0.000000 0.000000 0.000000
# 3 -0.014736 -0.006453 0.013824 0.000000 0.000000 0.000000
# 4 0.000000 0.000000 0.000000 0.050821 0.000000 0.000000
# 5 0.000000 0.000000 0.000000 0.000000 0.042587 0.000000
# 6 0.000000 0.000000 0.000000 0.000000 0.000000 0.056952
#
#
# Mechanical properties :
#
#
# Convention : Reuss Voigt Hill
#
# Bulk Modulus (GPa) = 7.57808 57.54124 32.55966
# Shear Modulus (GPa) = 9.83094 21.66560 15.74827
#
# Velocity S-wave (km/s) = 2.38295 3.53755 3.01602
# Velocity P-wave (km/s) = 3.45666 7.06556 5.56195
#
# Compressibility (1/GPa) = 0.13195949
#
# Stress axis : x y z
#
# Youngs Moduli (GPa) = 5.18697 60.64173 72.33605
#
# Poissons Ratio (x) = 1.47870 1.06596
# Poissons Ratio (y) = 0.12648 0.46676
# Poissons Ratio (z) = 0.07644 0.39130
#
# Static dielectric constant tensor:
#      x y z
#    x 1.594910 0.000000 0.000000 
#    y 0.000000 1.583200 0.000000 
#    z 0.000000 0.000000 1.592220 
# 
# From -- ./inp_files/17214.got.cif
#   From: 2010.05.17/outbox.cif.g08.bks.cpg/sg38_9_cif.got.tgz:17214.got - 2010.06.03 18:07:57.
