data_PCOD9356552
_publ_section_title
;
Structure prediction by ZEFSAII (Michael W. Deem and Ramdas Pophale) SiO2 
 PCOD9356552
Probable space group: A M M 2
;
_chemical_formula_sum "Si O2"
_cell_formula_units_Z 56
_cell_length_a 9.083285
_cell_length_b 13.996865
_cell_length_c 29.876777
_cell_angle_alpha 90.000000
_cell_angle_beta 90.000000
_cell_angle_gamma 90.000000
_cell_volume 3798.459151
_symmetry_space_group_name_H-M "A M M 2"
_symmetry_group_IT_number 38
_symmetry_cell_setting 'orthorhombic'
loop_
_space_group_symop_operation_xyz
x,y,z
-x,-y,z
-x,y,z
x,-y,z
x,1/2+y,1/2+z
-x,1/2-y,1/2+z
-x,1/2+y,1/2+z
x,1/2-y,1/2+z
loop_
_atom_site_type_symbol
_atom_site_label
_atom_site_fract_x
_atom_site_fract_y
_atom_site_fract_z
Si Si1 0.324855 0.114016 0.967700
Si Si2 0.323214 0.298748 0.745474
Si Si3 0.323960 0.108351 0.795559
Si Si4 0.823627 0.201430 0.880990
Si Si5 0.176741 0.107609 0.330731
Si Si6 0.676181 0.886680 0.151555
Si Si7 0.830629 0.383947 0.559811
O O1 0.500000 0.127712 0.967088
O O2 0.248840 0.169161 0.927109
O O3 0.296439 0.000000 0.962219
O O4 0.258421 0.144323 0.015527
O O5 0.500000 0.310890 0.747862
O O6 0.288773 0.189395 0.758923
O O7 0.250234 0.363342 0.783804
O O8 0.276877 0.330448 0.696028
O O9 0.500000 0.114185 0.804311
O O10 0.239089 0.136231 0.840784
O O11 0.289862 0.000000 0.782014
O O12 0.784979 0.309904 0.866331
O O13 0.000000 0.192692 0.883435
O O14 0.000000 0.110719 0.325240
O O15 0.219040 0.000000 0.343605
O O16 0.500000 0.876325 0.145918
O O17 0.756070 0.854065 0.106329
O O18 0.705392 0.000000 0.158248
O O19 0.828331 0.500000 0.560378
O O20 0.000000 0.353225 0.557077
#
# Coordination Sequence:
#
# PCOD9356552 Si02
#       7
#     8   8   8   8   8   8   8
#     4  10  19  30  44  62  86 114 140 169 208 251
#     4   9  17  28  43  63  85 112 146 177 207 246
#     4   9  17  29  43  60  85 115 145 177 211 246
#     4  10  19  29  43  63  85 111 143 175 208 248
#     4   9  18  31  44  60  85 114 142 174 211 248
#     4   9  16  26  40  59  84 111 137 168 208 251
#     4   9  17  28  42  61  84 109 137 169 206 250
#
# _framework density 14.74282
#
# number of rings (size 3 to 8) (size 9 to 14) (size 15 to 20)
#    0.000    2.714    0.000    2.143    0.000    6.571 
#    0.000    1.429    0.000    0.000    0.000    1.000 
#    0.000    3.429    0.000    0.000    0.000    0.000 
#
# Total GULP energy -156027.184406 kJ/mol
# GULP energy per Si atom -5572.399443 kJ/mol
# Density = 1.470926 g / cm^3
# Si number density = 14.742820 Si / 1000 Ang^3
#
#
#
# Elastic Constant Matrix: (Units=GPa)
#
#
# Indices 1 2 3 4 5 6 
#
# 1 43.4855 37.8597 58.8435 0.0000 0.0000 0.0000
# 2 37.8597 81.2158 58.6642 0.0000 0.0000 0.0000
# 3 58.8435 58.6642 152.3053 0.0000 0.0000 0.0000
# 4 0.0000 0.0000 0.0000 21.2709 0.0000 0.0000
# 5 0.0000 0.0000 0.0000 0.0000 14.7180 0.0000
# 6 0.0000 0.0000 0.0000 0.0000 0.0000 15.9895
#
#
#
# Elastic Compliance Matrix: (Units=1/GPa)
#
#
# Indices 1 2 3 4 5 6 
#
# 1 0.059479 -0.015417 -0.017042 0.000000 0.000000 0.000000
# 2 -0.015417 0.021055 -0.002153 0.000000 0.000000 0.000000
# 3 -0.017042 -0.002153 0.013979 0.000000 0.000000 0.000000
# 4 0.000000 0.000000 0.000000 0.047012 0.000000 0.000000
# 5 0.000000 0.000000 0.000000 0.000000 0.067944 0.000000
# 6 0.000000 0.000000 0.000000 0.000000 0.000000 0.062541
#
#
# Mechanical properties :
#
#
# Convention : Reuss Voigt Hill
#
# Bulk Modulus (GPa) = 39.54279 65.30459 52.42369
# Shear Modulus (GPa) = 14.29935 18.50495 16.40215
#
# Velocity S-wave (km/s) = 3.11773 3.54670 3.33911
# Velocity P-wave (km/s) = 6.31192 7.82075 7.10649
#
# Compressibility (1/GPa) = 0.02528906
#
# Stress axis : x y z
#
# Youngs Moduli (GPa) = 16.81257 47.49381 71.53457
#
# Poissons Ratio (x) = 0.73223 1.21906
# Poissons Ratio (y) = 0.25921 0.15405
# Poissons Ratio (z) = 0.28651 0.10227
#
# Static dielectric constant tensor:
#      x y z
#    x 1.491970 0.000000 0.000000 
#    y 0.000000 1.486680 0.000000 
#    z 0.000000 0.000000 1.465520 
# 
# From -- ./inp_files/24624.got.cif
#   From: 2010.05.17/outbox.cif.g08.bks.cpg/sg38_13_cif.got.tgz:24624.got - 2010.06.03 18:07:57.
