data_PCOD9356362
_publ_section_title
;
Structure prediction by ZEFSAII (Michael W. Deem and Ramdas Pophale) SiO2 
 PCOD9356362
Probable space group: A M M 2
;
_chemical_formula_sum "Si O2"
_cell_formula_units_Z 56
_cell_length_a 17.125439
_cell_length_b 8.992853
_cell_length_c 20.623811
_cell_angle_alpha 90.000000
_cell_angle_beta 90.000000
_cell_angle_gamma 90.000000
_cell_volume 3176.202093
_symmetry_space_group_name_H-M "A M M 2"
_symmetry_group_IT_number 38
_symmetry_cell_setting 'orthorhombic'
loop_
_space_group_symop_operation_xyz
x,y,z
-x,-y,z
-x,y,z
x,-y,z
x,1/2+y,1/2+z
-x,1/2-y,1/2+z
-x,1/2+y,1/2+z
x,1/2-y,1/2+z
loop_
_atom_site_type_symbol
_atom_site_label
_atom_site_fract_x
_atom_site_fract_y
_atom_site_fract_z
Si Si1 0.000000 0.172308 0.530611
Si Si2 0.000000 0.170468 0.688212
Si Si3 0.839330 0.678062 0.684427
Si Si4 0.317608 0.323055 0.980710
Si Si5 0.162645 0.178346 0.031408
Si Si6 0.592433 0.825954 0.615346
Si Si7 0.407973 0.678300 0.360808
Si Si8 0.327588 0.322535 0.736389
O O1 0.079066 0.255663 0.510692
O O2 0.000000 0.175159 0.609410
O O3 0.000000 0.000000 0.510377
O O4 0.919761 0.249532 0.707880
O O5 0.000000 0.000000 0.708903
O O6 0.847363 0.500000 0.686766
O O7 0.826604 0.716981 0.608193
O O8 0.762864 0.721038 0.724830
O O9 0.310247 0.500000 0.970615
O O10 0.364216 0.249722 0.921886
O O11 0.233179 0.249991 0.991707
O O12 0.365797 0.298414 0.047037
O O13 0.163092 0.000000 0.026075
O O14 0.500000 0.803189 0.609207
O O15 0.627657 0.723405 0.670995
O O16 0.605644 0.000000 0.632768
O O17 0.500000 0.717271 0.361262
O O18 0.401697 0.500000 0.362929
O O19 0.367661 0.740345 0.296120
O O20 0.331084 0.500000 0.745694
#
# Coordination Sequence:
#
# PCOD9356362 Si02
#       8
#     4   4   8   8   8   8   8   8
#     4   9  17  29  47  78 115 150 189 230 277 331
#     4   9  17  27  47  78 111 146 185 226 271 323
#     4   9  18  32  51  78 114 149 183 224 276 331
#     4  11  22  37  59  84 113 148 189 237 285 339
#     4  10  18  32  53  81 116 151 188 230 282 337
#     4  10  21  36  55  81 112 144 180 229 287 338
#     4  11  25  43  60  80 110 150 193 237 288 345
#     4  11  22  37  58  84 112 147 189 233 280 337
#
# _framework density 17.631119999999999
#
# number of rings (size 3 to 8) (size 9 to 14) (size 15 to 20)
#    0.000    1.857    1.429    3.000    0.000    7.714 
#    0.000    0.000    0.000    0.857    0.000    3.000 
#    0.000    0.000    0.000    0.000    0.000    0.000 
#
# Total GULP energy -156356.288613 kJ/mol
# GULP energy per Si atom -5584.153165 kJ/mol
# Density = 1.759099 g / cm^3
# Si number density = 17.631120 Si / 1000 Ang^3
#
#
#
# Elastic Constant Matrix: (Units=GPa)
#
#
# Indices 1 2 3 4 5 6 
#
# 1 187.9094 82.1115 70.0634 0.0000 0.0000 0.0000
# 2 82.1115 78.2072 55.3871 0.0000 0.0000 0.0000
# 3 70.0634 55.3871 80.5965 0.0000 0.0000 0.0000
# 4 0.0000 0.0000 0.0000 27.6063 0.0000 0.0000
# 5 0.0000 0.0000 0.0000 0.0000 14.6782 0.0000
# 6 0.0000 0.0000 0.0000 0.0000 0.0000 33.7964
#
#
#
# Elastic Compliance Matrix: (Units=1/GPa)
#
#
# Indices 1 2 3 4 5 6 
#
# 1 0.010176 -0.008609 -0.002930 0.000000 0.000000 0.000000
# 2 -0.008609 0.032194 -0.014640 0.000000 0.000000 0.000000
# 3 -0.002930 -0.014640 0.025015 0.000000 0.000000 0.000000
# 4 0.000000 0.000000 0.000000 0.036224 0.000000 0.000000
# 5 0.000000 0.000000 0.000000 0.000000 0.068128 0.000000
# 6 0.000000 0.000000 0.000000 0.000000 0.000000 0.029589
#
#
# Mechanical properties :
#
#
# Convention : Reuss Voigt Hill
#
# Bulk Modulus (GPa) = 66.54644 84.64855 75.59749
# Shear Modulus (GPa) = 19.32795 24.49291 21.91043
#
# Velocity S-wave (km/s) = 3.31454 3.73122 3.52904
# Velocity P-wave (km/s) = 7.24389 8.16565 7.71854
#
# Compressibility (1/GPa) = 0.01502710
#
# Stress axis : x y z
#
# Youngs Moduli (GPa) = 98.26936 31.06206 39.97578
#
# Poissons Ratio (x) = 0.26742 0.11712
# Poissons Ratio (y) = 0.84602 0.58524
# Poissons Ratio (z) = 0.28791 0.45474
#
# Static dielectric constant tensor:
#      x y z
#    x 1.591070 0.000000 0.000000 
#    y 0.000000 1.589490 0.000000 
#    z 0.000000 0.000000 1.575360 
# 
# From -- ./inp_files/21106.got.cif
#   From: 2010.05.17/outbox.cif.g08.bks.cpg/sg38_11_cif.got.tgz:21106.got - 2010.06.03 18:07:57.
