data_PCOD9356883
_publ_section_title
;
Structure prediction by ZEFSAII (Michael W. Deem and Ramdas Pophale) SiO2 
 PCOD9356883
Probable space group: A M M 2
;
_chemical_formula_sum "Si O2"
_cell_formula_units_Z 48
_cell_length_a 11.380364
_cell_length_b 7.232067
_cell_length_c 24.109973
_cell_angle_alpha 90.000000
_cell_angle_beta 90.000000
_cell_angle_gamma 90.000000
_cell_volume 1984.336487
_symmetry_space_group_name_H-M "A M M 2"
_symmetry_group_IT_number 38
_symmetry_cell_setting 'orthorhombic'
loop_
_space_group_symop_operation_xyz
x,y,z
-x,-y,z
-x,y,z
x,-y,z
x,1/2+y,1/2+z
-x,1/2-y,1/2+z
-x,1/2+y,1/2+z
x,1/2-y,1/2+z
loop_
_atom_site_type_symbol
_atom_site_label
_atom_site_fract_x
_atom_site_fract_y
_atom_site_fract_z
Si Si1 0.292579 0.776123 0.950950
Si Si2 0.500000 0.723921 0.531438
Si Si3 0.244189 0.276986 0.658634
Si Si4 0.365864 0.274578 0.327370
Si Si5 0.867418 0.725212 0.544176
Si Si6 0.500000 0.776043 0.159469
Si Si7 0.871141 0.286229 0.268774
O O1 0.333343 0.717521 0.890363
O O2 0.291273 0.000000 0.947540
O O3 0.388898 0.720090 0.995959
O O4 0.174332 0.718779 0.982618
O O5 0.500000 0.500000 0.533036
O O6 0.500000 0.778522 0.594783
O O7 0.247659 0.500000 0.657211
O O8 0.213246 0.216780 0.596216
O O9 0.372706 0.212336 0.679885
O O10 0.146534 0.221536 0.702698
O O11 0.500000 0.214892 0.312740
O O12 0.369126 0.500000 0.324822
O O13 0.251803 0.209956 0.292763
O O14 0.863228 0.500000 0.544570
O O15 0.000000 0.782115 0.555025
O O16 0.500000 0.000000 0.164021
O O17 0.873707 0.500000 0.286765
O O18 0.000000 0.208127 0.283545
#
# Coordination Sequence:
#
# PCOD9356883 Si02
#       7
#     8   4   8   8   8   4   8
#     4   9  14  22  39  63  92 122 151 187 237 291
#     4   9  12  20  37  61  95 125 145 176 235 294
#     4  10  19  32  51  74 100 129 163 203 246 292
#     4   9  17  29  46  66  91 127 166 201 242 293
#     4   9  16  24  38  65  97 125 154 192 239 290
#     4   9  16  26  44  73 105 129 153 196 249 296
#     4  10  22  37  50  68  98 134 169 206 246 287
#
# _framework density 24.189444000000002
#
# number of rings (size 3 to 8) (size 9 to 14) (size 15 to 20)
#    0.000    2.667    2.500    0.500    1.167    1.667 
#    0.000    3.333    0.000    0.000    0.000    1.167 
#    0.000    0.000    0.000    0.000    0.000    0.000 
#
# Total GULP energy -133933.866294 kJ/mol
# GULP energy per Si atom -5580.577762 kJ/mol
# Density = 2.413439 g / cm^3
# Si number density = 24.189444 Si / 1000 Ang^3
#
#
#
# Elastic Constant Matrix: (Units=GPa)
#
#
# Indices 1 2 3 4 5 6 
#
# 1 207.7659 7.3825 58.0632 0.0000 0.0000 0.0000
# 2 7.3825 114.3611 -6.6523 0.0000 0.0000 0.0000
# 3 58.0632 -6.6523 76.1056 0.0000 0.0000 0.0000
# 4 0.0000 0.0000 0.0000 -9.0568 0.0000 0.0000
# 5 0.0000 0.0000 0.0000 0.0000 33.6486 0.0000
# 6 0.0000 0.0000 0.0000 0.0000 0.0000 -15.4269
#
#
#
# Elastic Compliance Matrix: (Units=1/GPa)
#
#
# Indices 1 2 3 4 5 6 
#
# 1 0.006169 -0.000675 -0.004765 0.000000 0.000000 0.000000
# 2 -0.000675 0.008863 0.001290 0.000000 0.000000 0.000000
# 3 -0.004765 0.001290 0.016888 0.000000 0.000000 0.000000
# 4 0.000000 0.000000 0.000000 -0.110414 0.000000 0.000000
# 5 0.000000 0.000000 0.000000 0.000000 0.029719 0.000000
# 6 0.000000 0.000000 0.000000 0.000000 0.000000 -0.064822
#
#
# Mechanical properties :
#
#
# Convention : Reuss Voigt Hill
#
# Bulk Modulus (GPa) = 42.34046 57.31327 49.82686
# Shear Modulus (GPa) = -51.32258 24.46227 -13.43015
#
# Velocity S-wave (km/s) = -4.61118 3.18351 -2.35884
# Velocity P-wave (km/s) = 3.28770 6.10393 3.63655
#
# Compressibility (1/GPa) = 0.02361807
#
# Stress axis : x y z
#
# Youngs Moduli (GPa) = 162.10373 112.83027 59.21329
#
# Poissons Ratio (x) = 0.07621 0.28218
# Poissons Ratio (y) = 0.10949 -0.07639
# Poissons Ratio (z) = 0.77250 -0.14555
#
# Static dielectric constant tensor:
#      x y z
#    x 1.947850 0.000000 0.000000 
#    y 0.000000 2.019970 0.000000 
#    z 0.000000 0.000000 1.865180 
# 
# From -- ./inp_files/20618.got.cif
#   From: 2010.05.17/outbox.cif.g08.bks.cpg/sg38_11_cif.got.tgz:20618.got - 2010.06.03 18:07:57.
