data_PCOD9356372
_publ_section_title
;
Structure prediction by ZEFSAII (Michael W. Deem and Ramdas Pophale) SiO2 
 PCOD9356372
Probable space group: A M M 2
;
_chemical_formula_sum "Si O2"
_cell_formula_units_Z 48
_cell_length_a 17.801966
_cell_length_b 8.577472
_cell_length_c 15.905412
_cell_angle_alpha 90.000000
_cell_angle_beta 90.000000
_cell_angle_gamma 90.000000
_cell_volume 2428.690642
_symmetry_space_group_name_H-M "A M M 2"
_symmetry_group_IT_number 38
_symmetry_cell_setting 'orthorhombic'
loop_
_space_group_symop_operation_xyz
x,y,z
-x,-y,z
-x,y,z
x,-y,z
x,1/2+y,1/2+z
-x,1/2-y,1/2+z
-x,1/2+y,1/2+z
x,1/2-y,1/2+z
loop_
_atom_site_type_symbol
_atom_site_label
_atom_site_fract_x
_atom_site_fract_y
_atom_site_fract_z
Si Si1 0.000000 0.182638 0.751340
Si Si2 0.161996 0.312232 0.258968
Si Si3 0.841710 0.813369 0.449013
Si Si4 0.317570 0.313759 0.696092
Si Si5 0.681793 0.188033 0.518730
Si Si6 0.000000 0.681153 0.456562
Si Si7 0.586217 0.190270 0.356505
O O1 0.919005 0.247459 0.725133
O O2 0.000000 0.191259 0.853794
O O3 0.000000 0.000000 0.728073
O O4 0.160762 0.500000 0.257214
O O5 0.167955 0.257380 0.355732
O O6 0.234071 0.251629 0.210477
O O7 0.768644 0.766889 0.502075
O O8 0.922162 0.759277 0.484130
O O9 0.841933 0.000000 0.441496
O O10 0.314529 0.500000 0.698947
O O11 0.345698 0.257967 0.605907
O O12 0.369964 0.259050 0.772866
O O13 0.632283 0.238230 0.439066
O O14 0.679221 0.000000 0.523503
O O15 0.000000 0.500000 0.478706
O O16 0.500000 0.242022 0.357999
O O17 0.586186 0.000000 0.356109
#
# Coordination Sequence:
#
# PCOD9356372 Si02
#       7
#     4   8   8   8   8   4   8
#     4   7  14  27  46  75 106 142 188 232 277 329
#     4  10  18  32  55  81 114 154 195 241 293 344
#     4  10  18  32  54  81 114 153 199 245 290 343
#     4  11  22  37  58  88 119 152 195 239 290 349
#     4  10  21  38  59  86 117 153 195 236 289 350
#     4   9  17  29  48  79 114 152 198 242 291 343
#     4   9  19  39  64  86 115 153 188 232 293 355
#
# _framework density 19.763735
#
# number of rings (size 3 to 8) (size 9 to 14) (size 15 to 20)
#    0.000    2.333    1.667    2.750    0.000    2.000 
#    0.000    2.083    0.000    5.500    0.000    0.000 
#    0.000    0.000    0.000    0.000    0.000    0.000 
#
# Total GULP energy -133946.744254 kJ/mol
# GULP energy per Si atom -5581.114344 kJ/mol
# Density = 1.971875 g / cm^3
# Si number density = 19.763735 Si / 1000 Ang^3
#
#
#
# Elastic Constant Matrix: (Units=GPa)
#
#
# Indices 1 2 3 4 5 6 
#
# 1 159.2983 29.7377 74.5018 0.0000 0.0000 0.0000
# 2 29.7377 35.3458 23.8751 0.0000 0.0000 0.0000
# 3 74.5018 23.8751 124.3367 0.0000 0.0000 0.0000
# 4 0.0000 0.0000 0.0000 23.7778 0.0000 0.0000
# 5 0.0000 0.0000 0.0000 0.0000 -4.7083 0.0000
# 6 0.0000 0.0000 0.0000 0.0000 0.0000 12.5023
#
#
#
# Elastic Compliance Matrix: (Units=1/GPa)
#
#
# Indices 1 2 3 4 5 6 
#
# 1 0.009353 -0.004692 -0.004703 0.000000 0.000000 0.000000
# 2 -0.004692 0.034862 -0.003883 0.000000 0.000000 0.000000
# 3 -0.004703 -0.003883 0.011606 0.000000 0.000000 0.000000
# 4 0.000000 0.000000 0.000000 0.042056 0.000000 0.000000
# 5 0.000000 0.000000 0.000000 0.000000 -0.212389 0.000000
# 6 0.000000 0.000000 0.000000 0.000000 0.000000 0.079986
#
#
# Mechanical properties :
#
#
# Convention : Reuss Voigt Hill
#
# Bulk Modulus (GPa) = 34.17009 63.91222 49.04115
# Shear Modulus (GPa) = 2799.22671 19.03877 1409.13274
#
# Velocity S-wave (km/s) = 37.67519 3.10710 26.73082
# Velocity P-wave (km/s) = 43.70225 6.72908 31.26633
#
# Compressibility (1/GPa) = 0.02926536
#
# Stress axis : x y z
#
# Youngs Moduli (GPa) = 106.91565 28.68436 86.15884
#
# Poissons Ratio (x) = 0.13459 0.40524
# Poissons Ratio (y) = 0.50167 0.33453
# Poissons Ratio (z) = 0.50286 0.11137
#
# Static dielectric constant tensor:
#      x y z
#    x 1.709140 0.000000 0.000000 
#    y 0.000000 1.675500 0.000000 
#    z 0.000000 0.000000 1.697090 
# 
# From -- ./inp_files/15046.got.cif
#   From: 2010.05.17/outbox.cif.g08.bks.cpg/sg38_8_cif.got.tgz:15046.got - 2010.06.03 18:07:57.
