data_PCOD9356085
_publ_section_title
;
Structure prediction by ZEFSAII (Michael W. Deem and Ramdas Pophale) SiO2 
 PCOD9356085
Probable space group: A M M 2
;
_chemical_formula_sum "Si O2"
_cell_formula_units_Z 64
_cell_length_a 19.992300
_cell_length_b 7.362607
_cell_length_c 21.302108
_cell_angle_alpha 90.000000
_cell_angle_beta 90.000000
_cell_angle_gamma 90.000000
_cell_volume 3135.573329
_symmetry_space_group_name_H-M "A M M 2"
_symmetry_group_IT_number 38
_symmetry_cell_setting 'orthorhombic'
loop_
_space_group_symop_operation_xyz
x,y,z
-x,-y,z
-x,y,z
x,-y,z
x,1/2+y,1/2+z
-x,1/2-y,1/2+z
-x,1/2+y,1/2+z
x,1/2-y,1/2+z
loop_
_atom_site_type_symbol
_atom_site_label
_atom_site_fract_x
_atom_site_fract_y
_atom_site_fract_z
Si Si1 0.713527 0.222794 0.839460
Si Si2 0.216212 0.210614 0.712991
Si Si3 0.924835 0.778373 0.022311
Si Si4 0.712607 0.220179 0.586954
Si Si5 0.791432 0.289568 0.460685
Si Si6 0.074489 0.281196 0.667371
Si Si7 0.574837 0.720683 0.142379
Si Si8 0.574849 0.220796 0.787860
O O1 0.752794 0.283618 0.776950
O O2 0.751167 0.287234 0.901715
O O3 0.636459 0.279433 0.830727
O O4 0.713180 0.000000 0.841067
O O5 0.245763 0.285461 0.647876
O O6 0.136379 0.221584 0.709247
O O7 0.236691 0.000000 0.712483
O O8 0.914333 0.722636 0.094983
O O9 0.000000 0.724355 0.003560
O O10 0.923466 0.000000 0.022599
O O11 0.863787 0.712193 0.979874
O O12 0.746087 0.282940 0.522927
O O13 0.636128 0.277753 0.598897
O O14 0.714782 0.000000 0.585236
O O15 0.804195 0.500000 0.445002
O O16 0.074542 0.500000 0.667274
O O17 0.000000 0.221320 0.686353
O O18 0.500000 0.780035 0.124688
O O19 0.574697 0.500000 0.142063
O O20 0.587172 0.773705 0.215064
O O21 0.500000 0.280348 0.805519
O O22 0.574342 0.000000 0.788154
#
# Coordination Sequence:
#
# PCOD9356085 Si02
#       8
#     8   8   8   8   8   8   8   8
#     4   9  17  29  43  66  97 125 154 191 234 275
#     4  10  18  29  47  71  97 119 146 194 245 276
#     4   8  14  26  44  64  85 114 155 191 215 256
#     4  10  18  29  47  70  95 119 149 196 239 272
#     4  10  19  31  48  68  94 126 157 189 228 282
#     4   9  17  30  48  69  93 122 158 194 225 272
#     4   8  13  23  42  67  91 119 156 193 228 269
#     4   8  12  21  40  64  90 120 155 192 228 270
#
# _framework density 20.410941000000001
#
# number of rings (size 3 to 8) (size 9 to 14) (size 15 to 20)
#    0.000    3.000    2.500    1.500    0.000    0.250 
#    0.000    1.875    0.000    3.750    0.000    0.000 
#    0.000    1.500    0.000    0.000    0.000    0.000 
#
# Total GULP energy -178503.300045 kJ/mol
# GULP energy per Si atom -5578.228126 kJ/mol
# Density = 2.036449 g / cm^3
# Si number density = 20.410941 Si / 1000 Ang^3
#
#
#
# Elastic Constant Matrix: (Units=GPa)
#
#
# Indices 1 2 3 4 5 6 
#
# 1 188.3590 -7.0124 84.6936 0.0000 0.0000 0.0000
# 2 -7.0124 70.8180 -1.7178 0.0000 0.0000 0.0000
# 3 84.6936 -1.7178 114.1821 0.0000 0.0000 0.0000
# 4 0.0000 0.0000 0.0000 3.3599 0.0000 0.0000
# 5 0.0000 0.0000 0.0000 0.0000 30.8197 0.0000
# 6 0.0000 0.0000 0.0000 0.0000 0.0000 90.7333
#
#
#
# Elastic Compliance Matrix: (Units=1/GPa)
#
#
# Indices 1 2 3 4 5 6 
#
# 1 0.007995 0.000648 -0.005921 0.000000 0.000000 0.000000
# 2 0.000648 0.014178 -0.000267 0.000000 0.000000 0.000000
# 3 -0.005921 -0.000267 0.013146 0.000000 0.000000 0.000000
# 4 0.000000 0.000000 0.000000 0.297632 0.000000 0.000000
# 5 0.000000 0.000000 0.000000 0.000000 0.032447 0.000000
# 6 0.000000 0.000000 0.000000 0.000000 0.000000 0.011021
#
#
# Mechanical properties :
#
#
# Convention : Reuss Voigt Hill
#
# Bulk Modulus (GPa) = 41.25550 58.36512 49.81031
# Shear Modulus (GPa) = 12.63969 44.80895 28.72432
#
# Velocity S-wave (km/s) = 2.49119 4.69053 3.75547
# Velocity P-wave (km/s) = 5.34145 7.61524 6.57734
#
# Compressibility (1/GPa) = 0.02423919
#
# Stress axis : x y z
#
# Youngs Moduli (GPa) = 125.07306 70.52987 76.07127
#
# Poissons Ratio (x) = -0.04571 0.45040
# Poissons Ratio (y) = -0.08106 0.02034
# Poissons Ratio (z) = 0.74052 0.01886
#
# Static dielectric constant tensor:
#      x y z
#    x 1.740300 0.000000 0.000000 
#    y 0.000000 1.851350 0.000000 
#    z 0.000000 0.000000 1.676830 
# 
# From -- ./inp_files/18762.got.cif
#   From: 2010.05.17/outbox.cif.g08.bks.cpg/sg38_10_cif.got.tgz:18762.got - 2010.06.03 18:07:57.
