data_PCOD9356325
_publ_section_title
;
Structure prediction by ZEFSAII (Michael W. Deem and Ramdas Pophale) SiO2 
 PCOD9356325
Probable space group: A M M 2
;
_chemical_formula_sum "Si O2"
_cell_formula_units_Z 36
_cell_length_a 13.161217
_cell_length_b 14.961997
_cell_length_c 10.013140
_cell_angle_alpha 90.000000
_cell_angle_beta 90.000000
_cell_angle_gamma 90.000000
_cell_volume 1971.768396
_symmetry_space_group_name_H-M "A M M 2"
_symmetry_group_IT_number 38
_symmetry_cell_setting 'orthorhombic'
loop_
_space_group_symop_operation_xyz
x,y,z
-x,-y,z
-x,y,z
x,-y,z
x,1/2+y,1/2+z
-x,1/2-y,1/2+z
-x,1/2+y,1/2+z
x,1/2-y,1/2+z
loop_
_atom_site_type_symbol
_atom_site_label
_atom_site_fract_x
_atom_site_fract_y
_atom_site_fract_z
Si Si1 0.381874 0.307304 0.460260
Si Si2 0.383164 0.000000 0.831964
Si Si3 0.289131 0.686559 0.732438
Si Si4 0.116991 0.397184 0.889766
Si Si5 0.750282 0.000000 0.570288
Si Si6 0.619211 0.500000 0.809231
O O1 0.500000 0.289872 0.496764
O O2 0.372252 0.410934 0.419531
O O3 0.307397 0.283051 0.581791
O O4 0.350281 0.250302 0.331976
O O5 0.300228 0.000000 0.713901
O O6 0.500000 0.000000 0.778327
O O7 0.177218 0.669290 0.792869
O O8 0.339612 0.588767 0.741018
O O9 0.119981 0.500000 0.832303
O O10 0.000000 0.373485 0.910999
O O11 0.179290 0.415078 0.027771
O O12 0.661093 0.000000 0.460304
O O13 0.500000 0.500000 0.806602
#
# Coordination Sequence:
#
# PCOD9356325 Si02
#       6
#     8   4   8   8   4   4
#     4  11  24  38  56  85 124 160 194 240 290 352
#     4  10  22  37  55  81 125 165 193 234 293 350
#     4  11  22  37  58  86 114 157 198 239 295 349
#     4   8  17  36  62  85 110 149 194 243 293 341
#     4   8  16  30  57  85 107 146 188 235 284 344
#     4  10  18  31  54  80 112 147 191 227 279 358
#
# _framework density 18.257722999999999
#
# number of rings (size 3 to 8) (size 9 to 14) (size 15 to 20)
#    0.667    1.556    1.111    3.000    6.222    0.889 
#    0.000    1.111    0.000    2.667    0.000    0.000 
#    0.000    0.000    0.000    0.000    0.000    0.000 
#
# Total GULP energy -100292.986478 kJ/mol
# GULP energy per Si atom -5571.832582 kJ/mol
# Density = 1.821617 g / cm^3
# Si number density = 18.257723 Si / 1000 Ang^3
#
#
#
# Elastic Constant Matrix: (Units=GPa)
#
#
# Indices 1 2 3 4 5 6 
#
# 1 107.2271 6.9859 37.2118 0.0000 0.0000 0.0000
# 2 6.9859 68.2044 14.3677 0.0000 0.0000 0.0000
# 3 37.2118 14.3677 102.4138 0.0000 0.0000 0.0000
# 4 0.0000 0.0000 0.0000 5.7359 0.0000 0.0000
# 5 0.0000 0.0000 0.0000 0.0000 15.8847 0.0000
# 6 0.0000 0.0000 0.0000 0.0000 0.0000 20.3850
#
#
#
# Elastic Compliance Matrix: (Units=1/GPa)
#
#
# Indices 1 2 3 4 5 6 
#
# 1 0.010677 -0.000285 -0.003840 0.000000 0.000000 0.000000
# 2 -0.000285 0.015116 -0.002017 0.000000 0.000000 0.000000
# 3 -0.003840 -0.002017 0.011442 0.000000 0.000000 0.000000
# 4 0.000000 0.000000 0.000000 0.174339 0.000000 0.000000
# 5 0.000000 0.000000 0.000000 0.000000 0.062954 0.000000
# 6 0.000000 0.000000 0.000000 0.000000 0.000000 0.049056
#
#
# Mechanical properties :
#
#
# Convention : Reuss Voigt Hill
#
# Bulk Modulus (GPa) = 40.07630 43.88624 41.98127
# Shear Modulus (GPa) = 14.52710 23.01979 18.77344
#
# Velocity S-wave (km/s) = 2.82382 3.55466 3.21011
# Velocity P-wave (km/s) = 5.71226 6.39818 6.06493
#
# Compressibility (1/GPa) = 0.02495240
#
# Stress axis : x y z
#
# Youngs Moduli (GPa) = 93.65918 66.15550 87.39443
#
# Poissons Ratio (x) = 0.01884 0.33555
# Poissons Ratio (y) = 0.02667 0.17629
# Poissons Ratio (z) = 0.35961 0.13345
#
# Static dielectric constant tensor:
#      x y z
#    x 1.632830 0.000000 0.000000 
#    y 0.000000 1.653390 0.000000 
#    z 0.000000 0.000000 1.629490 
# 
# From -- ./inp_files/5195.got.cif
#   From: 2010.05.17/outbox.cif.g08.bks.cpg/sg38_3_cif.got.tgz:5195.got - 2010.06.03 18:07:57.
