data_PCOD9356305
_publ_section_title
;
Structure prediction by ZEFSAII (Michael W. Deem and Ramdas Pophale) SiO2 
 PCOD9356305
Probable space group: A M M 2
;
_chemical_formula_sum "Si O2"
_cell_formula_units_Z 48
_cell_length_a 14.571735
_cell_length_b 7.437633
_cell_length_c 21.292143
_cell_angle_alpha 90.000000
_cell_angle_beta 90.000000
_cell_angle_gamma 90.000000
_cell_volume 2307.625789
_symmetry_space_group_name_H-M "A M M 2"
_symmetry_group_IT_number 38
_symmetry_cell_setting 'orthorhombic'
loop_
_space_group_symop_operation_xyz
x,y,z
-x,-y,z
-x,y,z
x,-y,z
x,1/2+y,1/2+z
-x,1/2-y,1/2+z
-x,1/2+y,1/2+z
x,1/2-y,1/2+z
loop_
_atom_site_type_symbol
_atom_site_label
_atom_site_fract_x
_atom_site_fract_y
_atom_site_fract_z
Si Si1 0.897619 0.283576 0.598350
Si Si2 0.298668 0.211107 0.641638
Si Si3 0.103098 0.219572 0.953537
Si Si4 0.393786 0.282227 0.014660
Si Si5 0.606134 0.279315 0.268802
Si Si6 0.283080 0.290557 0.389030
O O1 0.899193 0.500000 0.597653
O O2 0.811058 0.229101 0.639674
O O3 0.881497 0.224258 0.526048
O O4 0.000000 0.222627 0.617229
O O5 0.340061 0.284127 0.576454
O O6 0.346022 0.282092 0.704404
O O7 0.320802 0.000000 0.640863
O O8 0.184454 0.285921 0.909278
O O9 0.000000 0.272613 0.935375
O O10 0.105584 0.000000 0.954027
O O11 0.500000 0.228172 0.017350
O O12 0.390476 0.500000 0.013793
O O13 0.345919 0.220095 0.950928
O O14 0.500000 0.224510 0.271815
O O15 0.606263 0.500000 0.269595
O O16 0.663367 0.215867 0.329211
O O17 0.266859 0.500000 0.374514
#
# Coordination Sequence:
#
# PCOD9356305 Si02
#       6
#     8   8   8   8   8   8
#     4   9  17  31  51  74 101 131 160 198 251 299
#     4  10  19  32  50  72  99 132 168 202 239 290
#     4   8  14  26  46  72  99 124 152 192 245 294
#     4  10  20  32  47  69  98 130 163 203 251 296
#     4   9  18  32  49  71 101 135 166 199 246 296
#     4  10  18  31  53  76  96 124 167 210 244 285
#
# _framework density 20.800599999999999
#
# number of rings (size 3 to 8) (size 9 to 14) (size 15 to 20)
#    0.000    2.667    1.667    2.000    0.000    3.333 
#    0.000    1.667    0.000    6.000    0.000    0.000 
#    0.000    0.000    0.000    0.000    0.000    0.000 
#
# Total GULP energy -133976.004312 kJ/mol
# GULP energy per Si atom -5582.333513 kJ/mol
# Density = 2.075326 g / cm^3
# Si number density = 20.800600 Si / 1000 Ang^3
#
#
#
# Elastic Constant Matrix: (Units=GPa)
#
#
# Indices 1 2 3 4 5 6 
#
# 1 171.1453 -8.3803 80.2783 0.0000 0.0000 0.0000
# 2 -8.3803 61.3387 -2.4300 0.0000 0.0000 0.0000
# 3 80.2783 -2.4300 135.7700 0.0000 0.0000 0.0000
# 4 0.0000 0.0000 0.0000 8.6148 0.0000 0.0000
# 5 0.0000 0.0000 0.0000 0.0000 37.5565 0.0000
# 6 0.0000 0.0000 0.0000 0.0000 0.0000 12.6582
#
#
#
# Elastic Compliance Matrix: (Units=1/GPa)
#
#
# Indices 1 2 3 4 5 6 
#
# 1 0.008137 0.000922 -0.004795 0.000000 0.000000 0.000000
# 2 0.000922 0.016419 -0.000251 0.000000 0.000000 0.000000
# 3 -0.004795 -0.000251 0.010196 0.000000 0.000000 0.000000
# 4 0.000000 0.000000 0.000000 0.116080 0.000000 0.000000
# 5 0.000000 0.000000 0.000000 0.000000 0.026627 0.000000
# 6 0.000000 0.000000 0.000000 0.000000 0.000000 0.079000
#
#
# Mechanical properties :
#
#
# Convention : Reuss Voigt Hill
#
# Bulk Modulus (GPa) = 37.73072 56.35444 47.04258
# Shear Modulus (GPa) = 18.27875 31.68497 24.98186
#
# Velocity S-wave (km/s) = 2.96761 3.90715 3.46933
# Velocity P-wave (km/s) = 5.47000 6.89245 6.22201
#
# Compressibility (1/GPa) = 0.02650360
#
# Stress axis : x y z
#
# Youngs Moduli (GPa) = 122.89169 60.90543 98.07731
#
# Poissons Ratio (x) = -0.05614 0.47027
# Poissons Ratio (y) = -0.11328 0.02463
# Poissons Ratio (z) = 0.58925 0.01530
#
# Static dielectric constant tensor:
#      x y z
#    x 1.736360 0.000000 0.000000 
#    y 0.000000 1.837010 0.000000 
#    z 0.000000 0.000000 1.706200 
# 
# From -- ./inp_files/17652.got.cif
#   From: 2010.05.17/outbox.cif.g08.bks.cpg/sg38_9_cif.got.tgz:17652.got - 2010.06.03 18:07:57.
