data_PCOD9356587
_publ_section_title
;
Structure prediction by ZEFSAII (Michael W. Deem and Ramdas Pophale) SiO2 
 PCOD9356587
Probable space group: A M M 2
;
_chemical_formula_sum "Si O2"
_cell_formula_units_Z 64
_cell_length_a 9.074325
_cell_length_b 34.055274
_cell_length_c 11.990443
_cell_angle_alpha 90.000000
_cell_angle_beta 90.000000
_cell_angle_gamma 90.000000
_cell_volume 3705.390104
_symmetry_space_group_name_H-M "A M M 2"
_symmetry_group_IT_number 38
_symmetry_cell_setting 'orthorhombic'
loop_
_space_group_symop_operation_xyz
x,y,z
-x,-y,z
-x,y,z
x,-y,z
x,1/2+y,1/2+z
-x,1/2-y,1/2+z
-x,1/2+y,1/2+z
x,1/2-y,1/2+z
loop_
_atom_site_type_symbol
_atom_site_label
_atom_site_fract_x
_atom_site_fract_y
_atom_site_fract_z
Si Si1 0.328447 0.332263 0.074800
Si Si2 0.167276 0.454613 0.985251
Si Si3 0.825775 0.815657 0.979156
Si Si4 0.676033 0.545238 0.220685
Si Si5 0.324925 0.319566 0.716255
Si Si6 0.332155 0.108206 0.364698
Si Si7 0.174705 0.727087 0.915105
Si Si8 0.823207 0.875482 0.783428
O O1 0.500000 0.324318 0.101117
O O2 0.246181 0.351475 0.179504
O O3 0.325301 0.363839 0.973893
O O4 0.249959 0.294235 0.021450
O O5 0.171679 0.500000 0.952255
O O6 0.272295 0.449963 0.092307
O O7 0.000000 0.444725 0.019244
O O8 0.221609 0.426795 0.887477
O O9 0.734132 0.815848 0.092264
O O10 0.000000 0.818304 0.006118
O O11 0.802330 0.773635 0.920402
O O12 0.789003 0.850795 0.894753
O O13 0.500000 0.549576 0.228088
O O14 0.714406 0.500000 0.252864
O O15 0.755688 0.580733 0.284376
O O16 0.500000 0.312747 0.723317
O O17 0.296867 0.363521 0.762129
O O18 0.244397 0.290815 0.803175
O O19 0.500000 0.093782 0.354705
O O20 0.000000 0.718955 0.917674
O O21 0.000000 0.877328 0.770377
#
# Coordination Sequence:
#
# PCOD9356587 Si02
#       8
#     8   8   8   8   8   8   8   8
#     4  10  20  34  53  81 112 143 183 226 272 329
#     4  10  19  29  47  79 112 141 177 219 266 327
#     4  10  24  41  57  80 110 147 188 230 279 335
#     4  10  20  34  53  79 114 151 184 228 285 340
#     4  10  22  39  58  81 107 140 186 232 276 327
#     4   9  18  33  52  75 106 140 175 218 269 324
#     4  10  21  38  59  80 109 147 184 227 279 333
#     4  11  22  36  56  83 114 149 188 232 282 337
#
# _framework density 17.272134999999999
#
# number of rings (size 3 to 8) (size 9 to 14) (size 15 to 20)
#    0.000    2.000    1.250    3.000    1.750    6.000 
#    0.000    0.000    0.000    0.750    0.000    0.000 
#    0.000    0.000    0.000    0.000    0.000    0.000 
#
# Total GULP energy -178594.649077 kJ/mol
# GULP energy per Si atom -5581.082784 kJ/mol
# Density = 1.723282 g / cm^3
# Si number density = 17.272135 Si / 1000 Ang^3
#
#
#
# Elastic Constant Matrix: (Units=GPa)
#
#
# Indices 1 2 3 4 5 6 
#
# 1 87.4612 70.4908 49.6439 0.0000 0.0000 0.0000
# 2 70.4908 111.4135 48.3568 0.0000 0.0000 0.0000
# 3 49.6439 48.3568 78.8980 0.0000 0.0000 0.0000
# 4 0.0000 0.0000 0.0000 21.2847 0.0000 0.0000
# 5 0.0000 0.0000 0.0000 0.0000 24.4426 0.0000
# 6 0.0000 0.0000 0.0000 0.0000 0.0000 24.7850
#
#
#
# Elastic Compliance Matrix: (Units=1/GPa)
#
#
# Indices 1 2 3 4 5 6 
#
# 1 0.027325 -0.013387 -0.008988 0.000000 0.000000 0.000000
# 2 -0.013387 0.018787 -0.003091 0.000000 0.000000 0.000000
# 3 -0.008988 -0.003091 0.020225 0.000000 0.000000 0.000000
# 4 0.000000 0.000000 0.000000 0.046982 0.000000 0.000000
# 5 0.000000 0.000000 0.000000 0.000000 0.040912 0.000000
# 6 0.000000 0.000000 0.000000 0.000000 0.000000 0.040347
#
#
# Mechanical properties :
#
#
# Convention : Reuss Voigt Hill
#
# Bulk Modulus (GPa) = 64.92023 68.30619 66.61321
# Shear Modulus (GPa) = 19.94833 21.38786 20.66810
#
# Velocity S-wave (km/s) = 3.40213 3.52275 3.46297
# Velocity P-wave (km/s) = 7.28704 7.49528 7.39189
#
# Compressibility (1/GPa) = 0.01540352
#
# Stress axis : x y z
#
# Youngs Moduli (GPa) = 36.59613 53.22705 49.44408
#
# Poissons Ratio (x) = 0.71257 0.44442
# Poissons Ratio (y) = 0.48993 0.15285
# Poissons Ratio (z) = 0.32894 0.16454
#
# Static dielectric constant tensor:
#      x y z
#    x 1.585290 0.000000 0.000000 
#    y 0.000000 1.599840 0.000000 
#    z 0.000000 0.000000 1.554090 
# 
# From -- ./inp_files/8515.got.cif
#   From: 2010.05.17/outbox.cif.g08.bks.cpg/sg38_5_cif.got.tgz:8515.got - 2010.06.03 18:07:57.
