data_PCOD9356446
_publ_section_title
;
Structure prediction by ZEFSAII (Michael W. Deem and Ramdas Pophale) SiO2 
 PCOD9356446
Probable space group: A M M 2
;
_chemical_formula_sum "Si O2"
_cell_formula_units_Z 48
_cell_length_a 8.670278
_cell_length_b 18.602009
_cell_length_c 15.320396
_cell_angle_alpha 90.000000
_cell_angle_beta 90.000000
_cell_angle_gamma 90.000000
_cell_volume 2470.943778
_symmetry_space_group_name_H-M "A M M 2"
_symmetry_group_IT_number 38
_symmetry_cell_setting 'orthorhombic'
loop_
_space_group_symop_operation_xyz
x,y,z
-x,-y,z
-x,y,z
x,-y,z
x,1/2+y,1/2+z
-x,1/2-y,1/2+z
-x,1/2+y,1/2+z
x,1/2-y,1/2+z
loop_
_atom_site_type_symbol
_atom_site_label
_atom_site_fract_x
_atom_site_fract_y
_atom_site_fract_z
Si Si1 0.814194 0.500000 0.380570
Si Si2 0.317749 0.420486 0.852110
Si Si3 0.184451 0.768038 0.296079
Si Si4 0.180458 0.106452 0.535012
Si Si5 0.180381 0.732070 0.594680
Si Si6 0.186158 0.500000 0.183225
Si Si7 0.682514 0.652513 0.435648
O O1 0.754667 0.500000 0.280519
O O2 0.755806 0.574241 0.421314
O O3 0.000000 0.500000 0.381957
O O4 0.500000 0.412712 0.836017
O O5 0.268871 0.500000 0.819189
O O6 0.230882 0.350102 0.817580
O O7 0.283327 0.418840 0.955335
O O8 0.230993 0.757362 0.194831
O O9 0.255406 0.710588 0.364055
O O10 0.000000 0.759838 0.302425
O O11 0.189177 0.191097 0.547494
O O12 0.227572 0.068398 0.624786
O O13 0.000000 0.087881 0.517525
O O14 0.273961 0.679084 0.532781
O O15 0.000000 0.709905 0.596678
O O16 0.000000 0.500000 0.190405
O O17 0.500000 0.648552 0.425933
#
# Coordination Sequence:
#
# PCOD9356446 Si02
#       7
#     4   8   8   8   8   4   8
#     4  11  23  43  67  90 123 168 217 263 308 370
#     4  11  23  38  57  88 128 165 200 250 315 372
#     4  11  23  42  68  94 122 164 217 263 308 374
#     4  10  18  33  60  89 119 154 200 253 307 367
#     4  10  22  40  64  93 121 163 217 264 308 369
#     4   9  18  33  59  94 121 154 203 259 308 358
#     4  12  25  42  65  95 132 168 205 261 328 381
#
# _framework density 19.425775999999999
#
# number of rings (size 3 to 8) (size 9 to 14) (size 15 to 20)
#    0.000    1.333    2.500    3.750    0.000    5.000 
#    1.500    3.333    0.000    0.000    0.000    0.000 
#    0.000    0.000    0.000    0.000    0.000    0.000 
#
# Total GULP energy -134019.561138 kJ/mol
# GULP energy per Si atom -5584.148381 kJ/mol
# Density = 1.938156 g / cm^3
# Si number density = 19.425776 Si / 1000 Ang^3
#
#
#
# Elastic Constant Matrix: (Units=GPa)
#
#
# Indices 1 2 3 4 5 6 
#
# 1 66.2014 38.6161 29.6328 0.0000 0.0000 0.0000
# 2 38.6161 121.7865 29.6669 0.0000 0.0000 0.0000
# 3 29.6328 29.6669 68.8246 0.0000 0.0000 0.0000
# 4 0.0000 0.0000 0.0000 21.7711 0.0000 0.0000
# 5 0.0000 0.0000 0.0000 0.0000 -133.8524 0.0000
# 6 0.0000 0.0000 0.0000 0.0000 0.0000 21.4627
#
#
#
# Elastic Compliance Matrix: (Units=1/GPa)
#
#
# Indices 1 2 3 4 5 6 
#
# 1 0.021135 -0.005011 -0.006940 0.000000 0.000000 0.000000
# 2 -0.005011 0.010362 -0.002309 0.000000 0.000000 0.000000
# 3 -0.006940 -0.002309 0.018513 0.000000 0.000000 0.000000
# 4 0.000000 0.000000 0.000000 0.045933 0.000000 0.000000
# 5 0.000000 0.000000 0.000000 0.000000 -0.007471 0.000000
# 6 0.000000 0.000000 0.000000 0.000000 0.000000 0.046593
#
#
# Mechanical properties :
#
#
# Convention : Reuss Voigt Hill
#
# Bulk Modulus (GPa) = 46.53237 50.29380 48.41309
# Shear Modulus (GPa) = 29.28301 -7.53062 10.87619
#
# Velocity S-wave (km/s) = 3.88678 -1.97105 2.36875
# Velocity P-wave (km/s) = 6.64444 4.55702 5.69715
#
# Compressibility (1/GPa) = 0.02149041
#
# Stress axis : x y z
#
# Youngs Moduli (GPa) = 47.31569 96.50198 54.01601
#
# Poissons Ratio (x) = 0.48356 0.37485
# Poissons Ratio (y) = 0.23709 0.12474
# Poissons Ratio (z) = 0.32836 0.22285
#
# Static dielectric constant tensor:
#      x y z
#    x 1.740860 0.000000 0.000000 
#    y 0.000000 1.694830 0.000000 
#    z 0.000000 0.000000 1.684650 
# 
# From -- ./inp_files/12149.got.cif
#   From: 2010.05.17/outbox.cif.g08.bks.cpg/sg38_7_cif.got.tgz:12149.got - 2010.06.03 18:07:57.
