data_PCOD9356352
_publ_section_title
;
Structure prediction by ZEFSAII (Michael W. Deem and Ramdas Pophale) SiO2 
 PCOD9356352
Probable space group: A M M 2
;
_chemical_formula_sum "Si O2"
_cell_formula_units_Z 56
_cell_length_a 8.842036
_cell_length_b 19.398067
_cell_length_c 18.132822
_cell_angle_alpha 90.000000
_cell_angle_beta 90.000000
_cell_angle_gamma 90.000000
_cell_volume 3110.112739
_symmetry_space_group_name_H-M "A M M 2"
_symmetry_group_IT_number 38
_symmetry_cell_setting 'orthorhombic'
loop_
_space_group_symop_operation_xyz
x,y,z
-x,-y,z
-x,y,z
x,-y,z
x,1/2+y,1/2+z
-x,1/2-y,1/2+z
-x,1/2+y,1/2+z
x,1/2-y,1/2+z
loop_
_atom_site_type_symbol
_atom_site_label
_atom_site_fract_x
_atom_site_fract_y
_atom_site_fract_z
Si Si1 0.320831 0.708531 0.218590
Si Si2 0.826703 0.651542 0.447042
Si Si3 0.178270 0.806178 0.105166
Si Si4 0.816541 0.420573 0.301732
Si Si5 0.829038 0.288580 0.850010
Si Si6 0.323799 0.575847 0.871305
Si Si7 0.672173 0.421781 0.693512
O O1 0.500000 0.702490 0.214585
O O2 0.255410 0.740053 0.143015
O O3 0.249411 0.636206 0.245703
O O4 0.275591 0.763637 0.282567
O O5 0.757420 0.667403 0.526617
O O6 0.762839 0.600039 0.384801
O O7 0.830908 0.724746 0.405645
O O8 0.000000 0.628044 0.460882
O O9 0.209172 0.869777 0.159730
O O10 0.000000 0.792210 0.097073
O O11 0.779388 0.500000 0.285131
O O12 0.000000 0.413188 0.301389
O O13 0.771199 0.356974 0.890407
O O14 0.000000 0.298935 0.821887
O O15 0.500000 0.583583 0.892032
O O16 0.271329 0.500000 0.896627
O O17 0.317605 0.575559 0.781975
O O18 0.500000 0.399132 0.675447
O O19 0.692817 0.500000 0.666427
#
# Coordination Sequence:
#
# PCOD9356352 Si02
#       7
#     8   8   8   8   8   8   8
#     4  11  21  33  51  75 105 137 172 215 259 304
#     4   8  18  33  50  75 105 133 164 209 263 310
#     4  11  20  32  51  75 103 137 176 213 251 303
#     4   9  18  36  60  82 105 135 174 219 267 316
#     4  10  18  32  52  73  96 126 169 214 251 297
#     4   9  17  29  46  69  99 130 156 192 245 295
#     4   9  18  31  45  66 101 136 161 193 241 292
#
# _framework density 18.005777999999999
#
# number of rings (size 3 to 8) (size 9 to 14) (size 15 to 20)
#    0.000    2.429    1.429    3.857    0.000    1.429 
#    0.000   10.000    0.000    0.857    0.000    2.000 
#    0.000    0.000    0.000    0.000    0.000    0.000 
#
# Total GULP energy -155955.864460 kJ/mol
# GULP energy per Si atom -5569.852302 kJ/mol
# Density = 1.796480 g / cm^3
# Si number density = 18.005778 Si / 1000 Ang^3
#
#
#
# Elastic Constant Matrix: (Units=GPa)
#
#
# Indices 1 2 3 4 5 6 
#
# 1 49.6833 25.8776 6.0273 0.0000 0.0000 0.0000
# 2 25.8776 102.5393 -2.1656 0.0000 0.0000 0.0000
# 3 6.0273 -2.1656 31.0621 0.0000 0.0000 0.0000
# 4 0.0000 0.0000 0.0000 9.9143 0.0000 0.0000
# 5 0.0000 0.0000 0.0000 0.0000 -10.3029 0.0000
# 6 0.0000 0.0000 0.0000 0.0000 0.0000 25.9088
#
#
#
# Elastic Compliance Matrix: (Units=1/GPa)
#
#
# Indices 1 2 3 4 5 6 
#
# 1 0.023947 -0.006151 -0.005075 0.000000 0.000000 0.000000
# 2 -0.006151 0.011346 0.001985 0.000000 0.000000 0.000000
# 3 -0.005075 0.001985 0.033317 0.000000 0.000000 0.000000
# 4 0.000000 0.000000 0.000000 0.100865 0.000000 0.000000
# 5 0.000000 0.000000 0.000000 0.000000 -0.097060 0.000000
# 6 0.000000 0.000000 0.000000 0.000000 0.000000 0.038597
#
#
# Mechanical properties :
#
#
# Convention : Reuss Voigt Hill
#
# Bulk Modulus (GPa) = 19.94933 26.97370 23.46151
# Shear Modulus (GPa) = 34.19899 15.34040 24.76969
#
# Velocity S-wave (km/s) = 4.36286 2.92202 3.71300
# Velocity P-wave (km/s) = 6.04011 5.13784 5.60715
#
# Compressibility (1/GPa) = 0.05012700
#
# Stress axis : x y z
#
# Youngs Moduli (GPa) = 41.75932 88.13311 30.01487
#
# Poissons Ratio (x) = 0.54207 0.15234
# Poissons Ratio (y) = 0.25684 -0.05956
# Poissons Ratio (z) = 0.21195 -0.17490
#
# Static dielectric constant tensor:
#      x y z
#    x 1.632250 0.000000 0.000000 
#    y 0.000000 1.637340 0.000000 
#    z 0.000000 0.000000 1.633820 
# 
# From -- ./inp_files/17060.got.cif
#   From: 2010.05.17/outbox.cif.g08.bks.cpg/sg38_9_cif.got.tgz:17060.got - 2010.06.03 18:07:57.
