data_PCOD9356477
_publ_section_title
;
Structure prediction by ZEFSAII (Michael W. Deem and Ramdas Pophale) SiO2 
 PCOD9356477
Probable space group: A M M 2
;
_chemical_formula_sum "Si O2"
_cell_formula_units_Z 64
_cell_length_a 8.517535
_cell_length_b 15.957605
_cell_length_c 24.460383
_cell_angle_alpha 90.000000
_cell_angle_beta 90.000000
_cell_angle_gamma 90.000000
_cell_volume 3324.642027
_symmetry_space_group_name_H-M "A M M 2"
_symmetry_group_IT_number 38
_symmetry_cell_setting 'orthorhombic'
loop_
_space_group_symop_operation_xyz
x,y,z
-x,-y,z
-x,y,z
x,-y,z
x,1/2+y,1/2+z
-x,1/2-y,1/2+z
-x,1/2+y,1/2+z
x,1/2-y,1/2+z
loop_
_atom_site_type_symbol
_atom_site_label
_atom_site_fract_x
_atom_site_fract_y
_atom_site_fract_z
Si Si1 0.690616 0.347079 0.460460
Si Si2 0.187561 0.093851 0.343019
Si Si3 0.690163 0.093525 0.079208
Si Si4 0.310199 0.093974 0.580159
Si Si5 0.691779 0.407158 0.342044
Si Si6 0.310417 0.349310 0.959022
Si Si7 0.813635 0.249217 0.148875
Si Si8 0.311824 0.752412 0.271737
O O1 0.500000 0.351078 0.460387
O O2 0.742403 0.389537 0.516701
O O3 0.743383 0.389716 0.404347
O O4 0.732443 0.249023 0.460197
O O5 0.236000 0.109159 0.405876
O O6 0.261453 0.166220 0.305981
O O7 0.000000 0.098853 0.338448
O O8 0.238205 0.000000 0.326744
O O9 0.500000 0.096841 0.079809
O O10 0.751641 0.167802 0.116798
O O11 0.738309 0.000000 0.096366
O O12 0.500000 0.098120 0.582156
O O13 0.264900 0.110630 0.516964
O O14 0.245828 0.167528 0.618008
O O15 0.261790 0.000000 0.596417
O O16 0.500000 0.405881 0.342180
O O17 0.741052 0.500000 0.324330
O O18 0.743418 0.330952 0.303825
O O19 0.500000 0.355126 0.954069
O O20 0.753405 0.246747 0.210772
O O21 0.000000 0.248550 0.148247
O O22 0.500000 0.750109 0.269584
#
# Coordination Sequence:
#
# PCOD9356477 Si02
#       8
#     8   8   8   8   8   8   8   8
#     4   9  15  29  57  92 123 147 182 235 290 344
#     4  11  24  40  59  87 124 161 196 241 301 364
#     4  10  20  37  64  93 120 154 197 245 295 354
#     4  10  21  39  64  91 120 157 205 257 300 348
#     4   9  17  31  56  91 121 144 178 230 290 344
#     4  10  18  34  62  92 121 155 197 245 295 349
#     4  12  26  42  60  84 120 162 199 249 310 367
#     4  11  23  41  64  87 112 152 205 254 295 348
#
# _framework density 19.250191999999998
#
# number of rings (size 3 to 8) (size 9 to 14) (size 15 to 20)
#    0.000    1.750    2.500    2.625    0.000    5.000 
#    0.000    1.250    0.000    1.125    0.000    0.000 
#    0.000    0.000    0.000    0.000    0.000    0.000 
#
# Total GULP energy -178774.704995 kJ/mol
# GULP energy per Si atom -5586.709531 kJ/mol
# Density = 1.920638 g / cm^3
# Si number density = 19.250192 Si / 1000 Ang^3
#
#
#
# Elastic Constant Matrix: (Units=GPa)
#
#
# Indices 1 2 3 4 5 6 
#
# 1 31.4846 40.1025 30.2938 0.0000 0.0000 0.0000
# 2 40.1025 200.7079 94.8934 0.0000 0.0000 0.0000
# 3 30.2938 94.8934 153.9266 0.0000 0.0000 0.0000
# 4 0.0000 0.0000 0.0000 -2.3538 0.0000 0.0000
# 5 0.0000 0.0000 0.0000 0.0000 317.2162 0.0000
# 6 0.0000 0.0000 0.0000 0.0000 0.0000 9.8098
#
#
#
# Elastic Compliance Matrix: (Units=1/GPa)
#
#
# Indices 1 2 3 4 5 6 
#
# 1 0.044855 -0.006758 -0.004661 0.000000 0.000000 0.000000
# 2 -0.006758 0.008050 -0.003633 0.000000 0.000000 0.000000
# 3 -0.004661 -0.003633 0.009654 0.000000 0.000000 0.000000
# 4 0.000000 0.000000 0.000000 -0.424839 0.000000 0.000000
# 5 0.000000 0.000000 0.000000 0.000000 0.003152 0.000000
# 6 0.000000 0.000000 0.000000 0.000000 0.000000 0.101939
#
#
# Mechanical properties :
#
#
# Convention : Reuss Voigt Hill
#
# Bulk Modulus (GPa) = 30.81305 79.63316 55.22311
# Shear Modulus (GPa) = -23.11966 79.65638 28.26836
#
# Velocity S-wave (km/s) = -3.46932 6.43967 3.83622
# Velocity P-wave (km/s) = 0.08276 9.83614 6.95496
#
# Compressibility (1/GPa) = 0.03245378
#
# Stress axis : x y z
#
# Youngs Moduli (GPa) = 22.29409 124.21906 103.58916
#
# Poissons Ratio (x) = 0.83953 0.48286
# Poissons Ratio (y) = 0.15067 0.37632
# Poissons Ratio (z) = 0.10392 0.45126
#
# Static dielectric constant tensor:
#      x y z
#    x 1.652280 0.000000 0.000000 
#    y 0.000000 1.670730 0.000000 
#    z 0.000000 0.000000 1.640330 
# 
# From -- ./inp_files/22172.got.cif
#   From: 2010.05.17/outbox.cif.g08.bks.cpg/sg38_12_cif.got.tgz:22172.got - 2010.06.03 18:07:57.
