data_PCOD9356178
_publ_section_title
;
Structure prediction by ZEFSAII (Michael W. Deem and Ramdas Pophale) SiO2 
 PCOD9356178
Probable space group: A M M 2
;
_chemical_formula_sum "Si O2"
_cell_formula_units_Z 40
_cell_length_a 13.509039
_cell_length_b 7.853321
_cell_length_c 20.022794
_cell_angle_alpha 90.000000
_cell_angle_beta 90.000000
_cell_angle_gamma 90.000000
_cell_volume 2124.234628
_symmetry_space_group_name_H-M "A M M 2"
_symmetry_group_IT_number 38
_symmetry_cell_setting 'orthorhombic'
loop_
_space_group_symop_operation_xyz
x,y,z
-x,-y,z
-x,y,z
x,-y,z
x,1/2+y,1/2+z
-x,1/2-y,1/2+z
-x,1/2+y,1/2+z
x,1/2-y,1/2+z
loop_
_atom_site_type_symbol
_atom_site_label
_atom_site_fract_x
_atom_site_fract_y
_atom_site_fract_z
Si Si1 0.000000 0.193202 0.765530
Si Si2 0.611041 0.794783 0.875165
Si Si3 0.785065 0.709300 0.625761
Si Si4 0.000000 0.193910 0.117312
Si Si5 0.388405 0.707870 0.528221
Si Si6 0.209515 0.201864 0.279356
O O1 0.103360 0.225152 0.802535
O O2 0.000000 0.307273 0.698635
O O3 0.000000 0.000000 0.741238
O O4 0.500000 0.736027 0.855681
O O5 0.698116 0.742392 0.825998
O O6 0.608789 0.000000 0.875952
O O7 0.629558 0.738727 0.951622
O O8 0.786856 0.500000 0.625361
O O9 0.695639 0.765943 0.579045
O O10 0.773134 0.762740 0.702993
O O11 0.893010 0.769331 0.600231
O O12 0.000000 0.000000 0.092297
O O13 0.500000 0.760004 0.547045
O O14 0.387075 0.500000 0.528770
O O15 0.198024 0.000000 0.276782
#
# Coordination Sequence:
#
# PCOD9356178 Si02
#       6
#     4   8   8   4   8   8
#     4  10  18  30  49  70  95 127 159 191 233 286
#     4   9  18  32  48  67  95 130 164 198 237 281
#     4   8  14  25  43  66  90 117 151 192 234 272
#     4   8  14  26  43  66  95 121 147 187 237 280
#     4   8  14  26  44  65  90 120 155 195 233 269
#     4  10  19  31  49  73  99 124 155 198 241 282
#
# _framework density 18.830310000000001
#
# number of rings (size 3 to 8) (size 9 to 14) (size 15 to 20)
#    0.000    3.200    0.000    3.900    0.000    1.200 
#    0.000    3.000    0.000    9.600    0.000    0.000 
#    0.000    0.000    0.000    0.000    0.000    0.000 
#
# Total GULP energy -111391.248556 kJ/mol
# GULP energy per Si atom -5569.562428 kJ/mol
# Density = 1.878745 g / cm^3
# Si number density = 18.830310 Si / 1000 Ang^3
#
#
#
# Elastic Constant Matrix: (Units=GPa)
#
#
# Indices 1 2 3 4 5 6 
#
# 1 229.1984 12.7054 107.3198 0.0000 0.0000 0.0000
# 2 12.7054 32.9354 8.3940 0.0000 0.0000 0.0000
# 3 107.3198 8.3940 75.5462 0.0000 0.0000 0.0000
# 4 0.0000 0.0000 0.0000 13.1047 0.0000 0.0000
# 5 0.0000 0.0000 0.0000 0.0000 -27.2908 0.0000
# 6 0.0000 0.0000 0.0000 0.0000 0.0000 18.6231
#
#
#
# Elastic Compliance Matrix: (Units=1/GPa)
#
#
# Indices 1 2 3 4 5 6 
#
# 1 0.013034 -0.000318 -0.018481 0.000000 0.000000 0.000000
# 2 -0.000318 0.031255 -0.003021 0.000000 0.000000 0.000000
# 3 -0.018481 -0.003021 0.039826 0.000000 0.000000 0.000000
# 4 0.000000 0.000000 0.000000 0.076309 0.000000 0.000000
# 5 0.000000 0.000000 0.000000 0.000000 -0.036642 0.000000
# 6 0.000000 0.000000 0.000000 0.000000 0.000000 0.053697
#
#
# Mechanical properties :
#
#
# Convention : Reuss Voigt Hill
#
# Bulk Modulus (GPa) = 24.70614 66.05758 45.38186
# Shear Modulus (GPa) = 21.31208 14.83814 18.07511
#
# Velocity S-wave (km/s) = 3.36787 2.81017 3.10158
# Velocity P-wave (km/s) = 5.31717 6.75914 6.08105
#
# Compressibility (1/GPa) = 0.04047577
#
# Stress axis : x y z
#
# Youngs Moduli (GPa) = 76.72247 31.99482 25.10936
#
# Poissons Ratio (x) = 0.01018 0.46403
# Poissons Ratio (y) = 0.02440 0.07585
# Poissons Ratio (z) = 1.41787 0.09665
#
# Static dielectric constant tensor:
#      x y z
#    x 1.684110 0.000000 0.000000 
#    y 0.000000 1.710930 0.000000 
#    z 0.000000 0.000000 1.621810 
# 
# From -- ./inp_files/20482.got.cif
#   From: 2010.05.17/outbox.cif.g08.bks.cpg/sg38_11_cif.got.tgz:20482.got - 2010.06.03 18:07:57.
