data_PCOD9356081
_publ_section_title
;
Structure prediction by ZEFSAII (Michael W. Deem and Ramdas Pophale) SiO2 
 PCOD9356081
Probable space group: A M M 2
;
_chemical_formula_sum "Si O2"
_cell_formula_units_Z 64
_cell_length_a 8.007797
_cell_length_b 14.888113
_cell_length_c 25.155896
_cell_angle_alpha 90.000000
_cell_angle_beta 90.000000
_cell_angle_gamma 90.000000
_cell_volume 2999.110740
_symmetry_space_group_name_H-M "A M M 2"
_symmetry_group_IT_number 38
_symmetry_cell_setting 'orthorhombic'
loop_
_space_group_symop_operation_xyz
x,y,z
-x,-y,z
-x,y,z
x,-y,z
x,1/2+y,1/2+z
-x,1/2-y,1/2+z
-x,1/2+y,1/2+z
x,1/2-y,1/2+z
loop_
_atom_site_type_symbol
_atom_site_label
_atom_site_fract_x
_atom_site_fract_y
_atom_site_fract_z
Si Si1 0.302779 0.598073 0.478610
Si Si2 0.689477 0.401219 0.246795
Si Si3 0.814052 0.257326 0.176913
Si Si4 0.299667 0.898856 0.589182
Si Si5 0.203708 0.397448 0.751243
Si Si6 0.192900 0.373875 0.360494
Si Si7 0.809640 0.659749 0.866840
Si Si8 0.700334 0.697722 0.984156
O O1 0.500000 0.598683 0.491253
O O2 0.235768 0.500000 0.498304
O O3 0.276605 0.597788 0.415189
O O4 0.234634 0.698725 0.492031
O O5 0.500000 0.375868 0.232207
O O6 0.722587 0.500000 0.224536
O O7 0.814683 0.327952 0.225410
O O8 0.707730 0.405446 0.309584
O O9 0.737188 0.318753 0.130687
O O10 0.733805 0.170417 0.205369
O O11 0.000000 0.232465 0.159404
O O12 0.500000 0.905522 0.587080
O O13 0.238226 0.865050 0.531717
O O14 0.236109 0.000000 0.601437
O O15 0.238487 0.500000 0.737378
O O16 0.264912 0.379456 0.811917
O O17 0.000000 0.384727 0.753314
O O18 0.191185 0.266418 0.357786
O O19 0.000000 0.402933 0.359055
O O20 0.735644 0.654691 0.926240
O O21 0.000000 0.626014 0.870273
O O22 0.500000 0.704818 0.987852
#
# Coordination Sequence:
#
# PCOD9356081 Si02
#       8
#     8   8   8   8   8   8   8   8
#     4   9  17  30  48  72 104 143 184 223 273 333
#     4  11  22  33  48  73 106 145 183 220 272 332
#     4  11  22  38  59  83 109 140 184 233 278 331
#     4  10  22  41  61  81 111 150 188 232 291 345
#     4   9  18  35  58  83 114 149 180 219 279 343
#     4  10  18  29  46  73 108 144 183 225 268 320
#     4   9  17  32  53  80 113 147 183 224 273 325
#     4   9  19  35  55  79 108 146 188 231 277 330
#
# _framework density 21.339658
#
# number of rings (size 3 to 8) (size 9 to 14) (size 15 to 20)
#    0.000    2.250    1.250    1.875    0.000    6.000 
#    0.000    0.625    0.000    3.750    0.000    0.000 
#    0.000    0.000    0.000    0.000    0.000    0.000 
#
# Total GULP energy -178244.659137 kJ/mol
# GULP energy per Si atom -5570.145598 kJ/mol
# Density = 2.129109 g / cm^3
# Si number density = 21.339658 Si / 1000 Ang^3
#
#
#
# Elastic Constant Matrix: (Units=GPa)
#
#
# Indices 1 2 3 4 5 6 
#
# 1 15.0330 16.4734 5.1853 0.0000 0.0000 0.0000
# 2 16.4734 128.7845 67.0376 0.0000 0.0000 0.0000
# 3 5.1853 67.0376 118.7976 0.0000 0.0000 0.0000
# 4 0.0000 0.0000 0.0000 13.9030 0.0000 0.0000
# 5 0.0000 0.0000 0.0000 0.0000 25.7541 0.0000
# 6 0.0000 0.0000 0.0000 0.0000 0.0000 13.0154
#
#
#
# Elastic Compliance Matrix: (Units=1/GPa)
#
#
# Indices 1 2 3 4 5 6 
#
# 1 0.078193 -0.011647 0.003159 0.000000 0.000000 0.000000
# 2 -0.011647 0.012729 -0.006675 0.000000 0.000000 0.000000
# 3 0.003159 -0.006675 0.012046 0.000000 0.000000 0.000000
# 4 0.000000 0.000000 0.000000 0.071927 0.000000 0.000000
# 5 0.000000 0.000000 0.000000 0.000000 0.038829 0.000000
# 6 0.000000 0.000000 0.000000 0.000000 0.000000 0.076832
#
#
# Mechanical properties :
#
#
# Convention : Reuss Voigt Hill
#
# Bulk Modulus (GPa) = 13.76567 48.88975 31.32771
# Shear Modulus (GPa) = 14.48874 22.12908 18.30891
#
# Velocity S-wave (km/s) = 2.60851 3.22373 2.93230
# Velocity P-wave (km/s) = 3.94172 6.06767 5.11634
#
# Compressibility (1/GPa) = 0.07264449
#
# Stress axis : x y z
#
# Youngs Moduli (GPa) = 12.78884 78.55994 83.01284
#
# Poissons Ratio (x) = 0.91495 -0.26225
# Poissons Ratio (y) = 0.14895 0.55409
# Poissons Ratio (z) = -0.04040 0.52436
#
# Static dielectric constant tensor:
#      x y z
#    x 1.772550 0.000000 0.000000 
#    y 0.000000 1.814630 0.000000 
#    z 0.000000 0.000000 1.787460 
# 
# From -- ./inp_files/22225.got.cif
#   From: 2010.05.17/outbox.cif.g08.bks.cpg/sg38_12_cif.got.tgz:22225.got - 2010.06.03 18:07:57.
