data_PCOD9356225
_publ_section_title
;
Structure prediction by ZEFSAII (Michael W. Deem and Ramdas Pophale) SiO2 
 PCOD9356225
Probable space group: A M M 2
;
_chemical_formula_sum "Si O2"
_cell_formula_units_Z 64
_cell_length_a 8.915051
_cell_length_b 18.098121
_cell_length_c 21.172998
_cell_angle_alpha 90.000000
_cell_angle_beta 90.000000
_cell_angle_gamma 90.000000
_cell_volume 3416.171585
_symmetry_space_group_name_H-M "A M M 2"
_symmetry_group_IT_number 38
_symmetry_cell_setting 'orthorhombic'
loop_
_space_group_symop_operation_xyz
x,y,z
-x,-y,z
-x,y,z
x,-y,z
x,1/2+y,1/2+z
-x,1/2-y,1/2+z
-x,1/2+y,1/2+z
x,1/2-y,1/2+z
loop_
_atom_site_type_symbol
_atom_site_label
_atom_site_fract_x
_atom_site_fract_y
_atom_site_fract_z
Si Si1 0.179742 0.699066 0.966040
Si Si2 0.327266 0.195359 0.337366
Si Si3 0.320760 0.417990 0.593861
Si Si4 0.179890 0.635601 0.203443
Si Si5 0.179642 0.870954 0.964725
Si Si6 0.182676 0.081068 0.567086
Si Si7 0.318132 0.798404 0.198145
Si Si8 0.673316 0.875350 0.833810
O O1 0.231654 0.671874 0.897371
O O2 0.226885 0.784549 0.972514
O O3 0.000000 0.698944 0.968134
O O4 0.237097 0.646670 0.021892
O O5 0.500000 0.174719 0.347833
O O6 0.279899 0.169880 0.267688
O O7 0.320433 0.285179 0.334248
O O8 0.500000 0.410882 0.584415
O O9 0.291736 0.500000 0.620135
O O10 0.241256 0.410519 0.526563
O O11 0.274591 0.353814 0.642343
O O12 0.224240 0.592817 0.139975
O O13 0.239460 0.719132 0.193311
O O14 0.248046 0.603799 0.268172
O O15 0.000000 0.636435 0.208905
O O16 0.246431 0.899072 0.898406
O O17 0.000000 0.874750 0.961969
O O18 0.000000 0.083141 0.565468
O O19 0.230563 0.000000 0.545051
O O20 0.500000 0.788236 0.197406
O O21 0.500000 0.897603 0.834064
#
# Coordination Sequence:
#
# PCOD9356225 Si02
#       8
#     8   8   8   8   8   8   8   8
#     4   9  17  30  50  74  97 125 162 200 239 288
#     4   8  15  28  47  72  98 123 155 197 244 289
#     4  10  21  36  52  71  98 134 173 209 249 302
#     4  10  18  30  52  78  99 125 166 212 252 294
#     4  10  19  32  52  78 103 127 161 206 253 299
#     4   9  18  32  48  68  98 133 164 196 239 290
#     4   9  18  33  52  73  99 132 166 203 251 303
#     4   9  17  31  51  75 102 130 161 201 249 300
#
# _framework density 18.734421000000001
#
# number of rings (size 3 to 8) (size 9 to 14) (size 15 to 20)
#    0.000    2.750    0.000    2.625    0.000    5.250 
#    0.000    2.500    0.000    6.375    0.000    0.000 
#    0.000    0.000    0.000    0.000    0.000    0.000 
#
# Total GULP energy -178424.721540 kJ/mol
# GULP energy per Si atom -5575.772548 kJ/mol
# Density = 1.869178 g / cm^3
# Si number density = 18.734421 Si / 1000 Ang^3
#
#
#
# Elastic Constant Matrix: (Units=GPa)
#
#
# Indices 1 2 3 4 5 6 
#
# 1 22.0045 9.5864 15.0176 0.0000 0.0000 0.0000
# 2 9.5864 38.8453 17.6180 0.0000 0.0000 0.0000
# 3 15.0176 17.6180 91.1366 0.0000 0.0000 0.0000
# 4 0.0000 0.0000 0.0000 -10.5801 0.0000 0.0000
# 5 0.0000 0.0000 0.0000 0.0000 33.2385 0.0000
# 6 0.0000 0.0000 0.0000 0.0000 0.0000 8.8887
#
#
#
# Elastic Compliance Matrix: (Units=1/GPa)
#
#
# Indices 1 2 3 4 5 6 
#
# 1 0.054736 -0.010322 -0.007024 0.000000 0.000000 0.000000
# 2 -0.010322 0.030164 -0.004130 0.000000 0.000000 0.000000
# 3 -0.007024 -0.004130 0.012928 0.000000 0.000000 0.000000
# 4 0.000000 0.000000 0.000000 -0.094517 0.000000 0.000000
# 5 0.000000 0.000000 0.000000 0.000000 0.030086 0.000000
# 6 0.000000 0.000000 0.000000 0.000000 0.000000 0.112503
#
#
# Mechanical properties :
#
#
# Convention : Reuss Voigt Hill
#
# Bulk Modulus (GPa) = 18.22320 26.27004 22.24662
# Shear Modulus (GPa) = 24.13779 13.62704 18.88242
#
# Velocity S-wave (km/s) = 3.59335 2.69992 3.17819
# Velocity P-wave (km/s) = 5.19273 4.87568 5.03670
#
# Compressibility (1/GPa) = 0.05487510
#
# Stress axis : x y z
#
# Youngs Moduli (GPa) = 18.26956 33.15240 77.34929
#
# Poissons Ratio (x) = 0.34221 0.54330
# Poissons Ratio (y) = 0.18858 0.31946
# Poissons Ratio (z) = 0.12832 0.13692
#
# Static dielectric constant tensor:
#      x y z
#    x 1.629240 0.000000 0.000000 
#    y 0.000000 1.646850 0.000000 
#    z 0.000000 0.000000 1.650350 
# 
# From -- ./inp_files/20019.got.cif
#   From: 2010.05.17/outbox.cif.g08.bks.cpg/sg38_11_cif.got.tgz:20019.got - 2010.06.03 18:07:57.
