data_PCOD9356398
_publ_section_title
;
Structure prediction by ZEFSAII (Michael W. Deem and Ramdas Pophale) SiO2 
 PCOD9356398
Probable space group: A M M 2
;
_chemical_formula_sum "Si O2"
_cell_formula_units_Z 64
_cell_length_a 16.062055
_cell_length_b 7.752802
_cell_length_c 24.548252
_cell_angle_alpha 90.000000
_cell_angle_beta 90.000000
_cell_angle_gamma 90.000000
_cell_volume 3056.893962
_symmetry_space_group_name_H-M "A M M 2"
_symmetry_group_IT_number 38
_symmetry_cell_setting 'orthorhombic'
loop_
_space_group_symop_operation_xyz
x,y,z
-x,-y,z
-x,y,z
x,-y,z
x,1/2+y,1/2+z
-x,1/2-y,1/2+z
-x,1/2+y,1/2+z
x,1/2-y,1/2+z
loop_
_atom_site_type_symbol
_atom_site_label
_atom_site_fract_x
_atom_site_fract_y
_atom_site_fract_z
Si Si1 0.591932 0.296832 0.111880
Si Si2 0.908378 0.705124 0.353137
Si Si3 0.092313 0.711183 0.615901
Si Si4 0.753718 0.795664 0.043876
Si Si5 0.249617 0.707624 0.420864
Si Si6 0.408369 0.792139 0.348184
Si Si7 0.345750 0.791062 0.230773
Si Si8 0.152488 0.708520 0.733929
O O1 0.500000 0.224830 0.099089
O O2 0.590357 0.500000 0.101113
O O3 0.668429 0.224831 0.077172
O O4 0.610877 0.269642 0.175709
O O5 0.911153 0.500000 0.363215
O O6 0.830760 0.775184 0.387840
O O7 0.889379 0.730406 0.289373
O O8 0.000000 0.776548 0.366276
O O9 0.094398 0.500000 0.615870
O O10 0.168039 0.773664 0.578348
O O11 0.108437 0.764720 0.678305
O O12 0.000000 0.763541 0.597925
O O13 0.768610 0.000000 0.038934
O O14 0.747743 0.725505 0.982667
O O15 0.242833 0.500000 0.422767
O O16 0.333677 0.745172 0.388063
O O17 0.500000 0.730751 0.365263
O O18 0.388227 0.732186 0.286723
O O19 0.410340 0.000000 0.346079
O O20 0.249090 0.737017 0.231804
O O21 0.347474 0.000000 0.229696
O O22 0.151126 0.500000 0.735023
#
# Coordination Sequence:
#
# PCOD9356398 Si02
#       8
#     8   8   8   8   8   8   8   8
#     4  11  24  39  57  84 115 147 182 225 281 338
#     4  10  21  36  54  81 117 152 183 222 278 335
#     4   9  17  31  54  83 110 136 175 227 274 318
#     4  10  21  39  59  80 107 146 193 235 276 324
#     4  10  22  38  57  80 109 146 191 237 277 323
#     4  10  21  37  58  83 111 145 183 225 278 336
#     4  10  19  35  60  86 112 144 183 225 273 331
#     4  10  18  32  57  85 111 142 182 226 273 327
#
# _framework density 20.936283
#
# number of rings (size 3 to 8) (size 9 to 14) (size 15 to 20)
#    0.000    2.000    2.500    1.125    0.000    5.000 
#    0.000    5.000    0.000    0.375    0.000    1.750 
#    0.000    0.000    0.000    0.000    0.000    0.000 
#
# Total GULP energy -178755.069156 kJ/mol
# GULP energy per Si atom -5586.095911 kJ/mol
# Density = 2.088863 g / cm^3
# Si number density = 20.936283 Si / 1000 Ang^3
#
#
#
# Elastic Constant Matrix: (Units=GPa)
#
#
# Indices 1 2 3 4 5 6 
#
# 1 212.3795 3.3497 97.3897 0.0000 0.0000 0.0000
# 2 3.3497 27.1471 -0.6656 0.0000 0.0000 0.0000
# 3 97.3897 -0.6656 165.5108 0.0000 0.0000 0.0000
# 4 0.0000 0.0000 0.0000 13.4359 0.0000 0.0000
# 5 0.0000 0.0000 0.0000 0.0000 -1.0444 0.0000
# 6 0.0000 0.0000 0.0000 0.0000 0.0000 -57.2142
#
#
#
# Elastic Compliance Matrix: (Units=1/GPa)
#
#
# Indices 1 2 3 4 5 6 
#
# 1 0.006470 -0.000892 -0.003811 0.000000 0.000000 0.000000
# 2 -0.000892 0.036963 0.000673 0.000000 0.000000 0.000000
# 3 -0.003811 0.000673 0.008287 0.000000 0.000000 0.000000
# 4 0.000000 0.000000 0.000000 0.074427 0.000000 0.000000
# 5 0.000000 0.000000 0.000000 0.000000 -0.957486 0.000000
# 6 0.000000 0.000000 0.000000 0.000000 0.000000 -0.017478
#
#
# Mechanical properties :
#
#
# Convention : Reuss Voigt Hill
#
# Bulk Modulus (GPa) = 22.90338 67.24277 45.07307
# Shear Modulus (GPa) = -6.05177 11.36637 2.65730
#
# Velocity S-wave (km/s) = -1.70201 2.33256 1.12782
# Velocity P-wave (km/s) = 2.66474 6.28028 4.82405
#
# Compressibility (1/GPa) = 0.04366169
#
# Stress axis : x y z
#
# Youngs Moduli (GPa) = 154.55791 27.05415 120.67242
#
# Poissons Ratio (x) = 0.02413 0.45985
# Poissons Ratio (y) = 0.13783 -0.08126
# Poissons Ratio (z) = 0.58897 -0.01822
#
# Static dielectric constant tensor:
#      x y z
#    x 1.752290 0.000000 0.000000 
#    y 0.000000 1.785570 0.000000 
#    z 0.000000 0.000000 1.714120 
# 
# From -- ./inp_files/22899.got.cif
#   From: 2010.05.17/outbox.cif.g08.bks.cpg/sg38_12_cif.got.tgz:22899.got - 2010.06.03 18:07:57.
