data_PCOD9356383
_publ_section_title
;
Structure prediction by ZEFSAII (Michael W. Deem and Ramdas Pophale) SiO2 
 PCOD9356383
Probable space group: A M M 2
;
_chemical_formula_sum "Si O2"
_cell_formula_units_Z 40
_cell_length_a 8.204559
_cell_length_b 9.678306
_cell_length_c 29.040853
_cell_angle_alpha 90.000000
_cell_angle_beta 90.000000
_cell_angle_gamma 90.000000
_cell_volume 2306.024728
_symmetry_space_group_name_H-M "A M M 2"
_symmetry_group_IT_number 38
_symmetry_cell_setting 'orthorhombic'
loop_
_space_group_symop_operation_xyz
x,y,z
-x,-y,z
-x,y,z
x,-y,z
x,1/2+y,1/2+z
-x,1/2-y,1/2+z
-x,1/2+y,1/2+z
x,1/2-y,1/2+z
loop_
_atom_site_type_symbol
_atom_site_label
_atom_site_fract_x
_atom_site_fract_y
_atom_site_fract_z
Si Si1 0.308397 0.343028 0.550860
Si Si2 0.000000 0.332346 0.810306
Si Si3 0.191663 0.159485 0.467398
Si Si4 0.000000 0.663025 0.217160
Si Si5 0.813172 0.655965 0.128499
Si Si6 0.318681 0.832201 0.368729
O O1 0.500000 0.345229 0.540686
O O2 0.246690 0.500000 0.552262
O O3 0.224471 0.253886 0.511147
O O4 0.281907 0.267582 0.599545
O O5 0.835753 0.290173 0.837815
O O6 0.000000 0.500000 0.806552
O O7 0.000000 0.260399 0.760746
O O8 0.286544 0.207229 0.421812
O O9 0.000000 0.159987 0.455930
O O10 0.238184 0.000000 0.477684
O O11 0.153671 0.685774 0.182464
O O12 0.000000 0.500000 0.229203
O O13 0.747987 0.500000 0.123438
O O14 0.000000 0.654683 0.109571
O O15 0.500000 0.786685 0.353910
O O16 0.317407 0.000000 0.368244
#
# Coordination Sequence:
#
# PCOD9356383 Si02
#       6
#     8   4   8   4   8   8
#     4  11  23  34  46  73 112 144 173 214 264 318
#     4  10  18  32  55  82 105 137 180 215 265 324
#     4  10  19  33  54  78 103 137 184 224 258 311
#     4   8  18  36  57  78 101 129 166 217 269 318
#     4   8  17  35  56  75  94 127 175 217 255 310
#     4   9  17  31  52  79 110 140 176 223 262 302
#
# _framework density 17.345866999999998
#
# number of rings (size 3 to 8) (size 9 to 14) (size 15 to 20)
#    0.600    2.000    1.000    1.800    0.000    6.400 
#    0.000    2.000    0.000    5.400    0.000    0.000 
#    0.000    0.000    0.000    0.000    0.000    0.000 
#
# Total GULP energy -111354.984967 kJ/mol
# GULP energy per Si atom -5567.749248 kJ/mol
# Density = 1.730639 g / cm^3
# Si number density = 17.345867 Si / 1000 Ang^3
#
#
#
# Elastic Constant Matrix: (Units=GPa)
#
#
# Indices 1 2 3 4 5 6 
#
# 1 76.2109 23.5066 35.8179 0.0000 0.0000 0.0000
# 2 23.5066 69.5900 56.4950 0.0000 0.0000 0.0000
# 3 35.8179 56.4950 102.2330 0.0000 0.0000 0.0000
# 4 0.0000 0.0000 0.0000 30.1759 0.0000 0.0000
# 5 0.0000 0.0000 0.0000 0.0000 9.5180 0.0000
# 6 0.0000 0.0000 0.0000 0.0000 0.0000 16.4540
#
#
#
# Elastic Compliance Matrix: (Units=1/GPa)
#
#
# Indices 1 2 3 4 5 6 
#
# 1 0.015797 -0.001529 -0.004690 0.000000 0.000000 0.000000
# 2 -0.001529 0.026210 -0.013948 0.000000 0.000000 0.000000
# 3 -0.004690 -0.013948 0.019133 0.000000 0.000000 0.000000
# 4 0.000000 0.000000 0.000000 0.033139 0.000000 0.000000
# 5 0.000000 0.000000 0.000000 0.000000 0.105064 0.000000
# 6 0.000000 0.000000 0.000000 0.000000 0.000000 0.060776
#
#
# Mechanical properties :
#
#
# Convention : Reuss Voigt Hill
#
# Bulk Modulus (GPa) = 48.06302 53.29699 50.68001
# Shear Modulus (GPa) = 16.26611 20.04386 18.15499
#
# Velocity S-wave (km/s) = 3.06559 3.40301 3.23870
# Velocity P-wave (km/s) = 6.34817 6.79952 6.57772
#
# Compressibility (1/GPa) = 0.02080602
#
# Stress axis : x y z
#
# Youngs Moduli (GPa) = 63.30258 38.15363 52.26678
#
# Poissons Ratio (x) = 0.05833 0.24512
# Poissons Ratio (y) = 0.09677 0.72903
# Poissons Ratio (z) = 0.29688 0.53218
#
# Static dielectric constant tensor:
#      x y z
#    x 1.624180 0.000000 0.000000 
#    y 0.000000 1.578340 0.000000 
#    z 0.000000 0.000000 1.573180 
# 
# From -- ./inp_files/23239.got.cif
#   From: 2010.05.17/outbox.cif.g08.bks.cpg/sg38_12_cif.got.tgz:23239.got - 2010.06.03 18:07:57.
