data_PCOD9356867
_publ_section_title
;
Structure prediction by ZEFSAII (Michael W. Deem and Ramdas Pophale) SiO2 
 PCOD9356867
Probable space group: A M M 2
;
_chemical_formula_sum "Si O2"
_cell_formula_units_Z 56
_cell_length_a 18.370098
_cell_length_b 8.994501
_cell_length_c 19.098586
_cell_angle_alpha 90.000000
_cell_angle_beta 90.000000
_cell_angle_gamma 90.000000
_cell_volume 3155.656783
_symmetry_space_group_name_H-M "A M M 2"
_symmetry_group_IT_number 38
_symmetry_cell_setting 'orthorhombic'
loop_
_space_group_symop_operation_xyz
x,y,z
-x,-y,z
-x,y,z
x,-y,z
x,1/2+y,1/2+z
-x,1/2-y,1/2+z
-x,1/2+y,1/2+z
x,1/2-y,1/2+z
loop_
_atom_site_type_symbol
_atom_site_label
_atom_site_fract_x
_atom_site_fract_y
_atom_site_fract_z
Si Si1 0.085092 0.833031 0.250000
Si Si2 0.305473 0.175625 0.071375
Si Si3 0.584875 0.821194 0.194155
Si Si4 0.082161 0.819858 0.413530
Si Si5 0.755766 0.821608 0.437460
Si Si6 0.692056 0.329454 0.299133
Si Si7 0.197700 0.332883 0.168418
O O1 0.092325 0.784718 0.330946
O O2 0.120941 0.722480 0.195748
O O3 0.000000 0.843257 0.236634
O O4 0.117660 0.000000 0.244291
O O5 0.371542 0.221683 0.123156
O O6 0.233735 0.218872 0.115190
O O7 0.310579 0.000000 0.059074
O O8 0.295617 0.261522 0.999056
O O9 0.500000 0.783451 0.189530
O O10 0.623365 0.746199 0.260890
O O11 0.592153 0.000000 0.200605
O O12 0.158983 0.772506 0.448003
O O13 0.000000 0.767368 0.434801
O O14 0.079538 0.000000 0.418532
O O15 0.724590 0.758822 0.364606
O O16 0.755410 0.000000 0.435808
O O17 0.676249 0.500000 0.319083
O O18 0.752529 0.331720 0.237937
O O19 0.197122 0.500000 0.139098
#
# Coordination Sequence:
#
# PCOD9356867 Si02
#       7
#     8   8   8   8   8   8   8
#     4   9  16  28  48  73 100 133 176 224 274 321
#     4  10  21  36  55  77 107 142 177 219 272 328
#     4   9  19  38  62  84 105 135 176 219 266 323
#     4   8  15  28  48  74 102 136 179 225 273 318
#     4  11  20  33  55  80 109 144 185 228 269 318
#     4  10  20  33  53  81 110 138 171 214 264 316
#     4  10  19  32  50  74 103 135 176 220 261 316
#
# _framework density 17.745909999999999
#
# number of rings (size 3 to 8) (size 9 to 14) (size 15 to 20)
#    0.000    2.429    1.429    2.571    0.000    2.286 
#    0.000    1.429    0.000    6.857    0.000    0.000 
#    0.000    0.000    0.000    0.000    0.000    0.000 
#
# Total GULP energy -155987.391667 kJ/mol
# GULP energy per Si atom -5570.978274 kJ/mol
# Density = 1.770552 g / cm^3
# Si number density = 17.745910 Si / 1000 Ang^3
#
#
#
# Elastic Constant Matrix: (Units=GPa)
#
#
# Indices 1 2 3 4 5 6 
#
# 1 101.8044 31.9717 34.8427 0.0000 0.0000 0.0000
# 2 31.9717 49.4829 28.6226 0.0000 0.0000 0.0000
# 3 34.8427 28.6226 63.0952 0.0000 0.0000 0.0000
# 4 0.0000 0.0000 0.0000 27.0841 0.0000 0.0000
# 5 0.0000 0.0000 0.0000 0.0000 19.1653 0.0000
# 6 0.0000 0.0000 0.0000 0.0000 0.0000 20.2846
#
#
#
# Elastic Compliance Matrix: (Units=1/GPa)
#
#
# Indices 1 2 3 4 5 6 
#
# 1 0.013262 -0.005874 -0.004659 0.000000 0.000000 0.000000
# 2 -0.005874 0.030000 -0.010366 0.000000 0.000000 0.000000
# 3 -0.004659 -0.010366 0.023124 0.000000 0.000000 0.000000
# 4 0.000000 0.000000 0.000000 0.036922 0.000000 0.000000
# 5 0.000000 0.000000 0.000000 0.000000 0.052178 0.000000
# 6 0.000000 0.000000 0.000000 0.000000 0.000000 0.049298
#
#
# Mechanical properties :
#
#
# Convention : Reuss Voigt Hill
#
# Bulk Modulus (GPa) = 40.66808 45.02851 42.84829
# Shear Modulus (GPa) = 19.62499 21.23651 20.43075
#
# Velocity S-wave (km/s) = 3.32910 3.46309 3.39675
# Velocity P-wave (km/s) = 6.14360 6.43582 6.29140
#
# Compressibility (1/GPa) = 0.02458931
#
# Stress axis : x y z
#
# Youngs Moduli (GPa) = 75.40352 33.33335 43.24496
#
# Poissons Ratio (x) = 0.19580 0.20148
# Poissons Ratio (y) = 0.44291 0.44826
# Poissons Ratio (z) = 0.35130 0.34552
#
# Static dielectric constant tensor:
#      x y z
#    x 1.617060 0.000000 0.000000 
#    y 0.000000 1.611820 0.000000 
#    z 0.000000 0.000000 1.598200 
# 
# From -- ./inp_files/21290.got.cif
#   From: 2010.05.17/outbox.cif.g08.bks.cpg/sg38_11_cif.got.tgz:21290.got - 2010.06.03 18:07:57.
