data_PCOD9356166
_publ_section_title
;
Structure prediction by ZEFSAII (Michael W. Deem and Ramdas Pophale) SiO2 
 PCOD9356166
Probable space group: A M M 2
;
_chemical_formula_sum "Si O2"
_cell_formula_units_Z 64
_cell_length_a 9.031768
_cell_length_b 30.910301
_cell_length_c 14.722213
_cell_angle_alpha 90.000000
_cell_angle_beta 90.000000
_cell_angle_gamma 90.000000
_cell_volume 4110.068918
_symmetry_space_group_name_H-M "A M M 2"
_symmetry_group_IT_number 38
_symmetry_cell_setting 'orthorhombic'
loop_
_space_group_symop_operation_xyz
x,y,z
-x,-y,z
-x,y,z
x,-y,z
x,1/2+y,1/2+z
-x,1/2-y,1/2+z
-x,1/2+y,1/2+z
x,1/2-y,1/2+z
loop_
_atom_site_type_symbol
_atom_site_label
_atom_site_fract_x
_atom_site_fract_y
_atom_site_fract_z
Si Si1 0.673491 0.370669 0.505510
Si Si2 0.823558 0.049672 0.085533
Si Si3 0.333117 0.684027 0.688779
Si Si4 0.677755 0.450268 0.782542
Si Si5 0.328454 0.133799 0.379188
Si Si6 0.825866 0.227741 0.693967
Si Si7 0.677918 0.709653 0.381918
Si Si8 0.823137 0.291281 0.987038
O O1 0.500000 0.380285 0.490953
O O2 0.762215 0.414977 0.515745
O O3 0.686732 0.346302 0.602185
O O4 0.721111 0.334962 0.431974
O O5 0.753358 0.057782 0.185187
O O6 0.000000 0.053244 0.092506
O O7 0.785693 0.000000 0.061019
O O8 0.500000 0.703288 0.682695
O O9 0.326207 0.656893 0.780735
O O10 0.213200 0.721485 0.690539
O O11 0.500000 0.445366 0.770216
O O12 0.708248 0.500000 0.808270
O O13 0.722961 0.414934 0.857340
O O14 0.500000 0.133152 0.410161
O O15 0.232796 0.163942 0.444128
O O16 0.734606 0.209679 0.778870
O O17 0.786664 0.210305 0.594067
O O18 0.000000 0.221150 0.709584
O O19 0.500000 0.713683 0.385750
O O20 0.746589 0.751005 0.434682
O O21 0.000000 0.286843 0.976989
#
# Coordination Sequence:
#
# PCOD9356166 Si02
#       8
#     8   8   8   8   8   8   8   8
#     4  10  20  34  51  72  97 131 170 204 244 292
#     4  10  20  31  46  72 103 133 164 199 243 294
#     4  10  18  30  48  71 100 131 167 202 241 290
#     4   9  17  31  50  71  98 131 166 204 246 293
#     4  10  19  31  49  73  98 132 169 202 244 292
#     4  11  23  36  49  69  99 133 169 207 248 290
#     4  11  22  35  53  74  97 129 169 209 248 292
#     4  11  23  35  49  72 100 133 169 204 246 294
#
# _framework density 15.571515
#
# number of rings (size 3 to 8) (size 9 to 14) (size 15 to 20)
#    0.000    1.750    3.750    1.500    0.000    4.250 
#    0.000    0.000    0.000    0.000    0.000    0.875 
#    0.000    3.000    0.000    0.000    0.000    0.000 
#
# Total GULP energy -178523.073430 kJ/mol
# GULP energy per Si atom -5578.846045 kJ/mol
# Density = 1.553607 g / cm^3
# Si number density = 15.571515 Si / 1000 Ang^3
#
#
#
# Elastic Constant Matrix: (Units=GPa)
#
#
# Indices 1 2 3 4 5 6 
#
# 1 43.8594 45.3625 41.1606 0.0000 0.0000 0.0000
# 2 45.3625 120.7493 51.9454 0.0000 0.0000 0.0000
# 3 41.1606 51.9454 89.0500 0.0000 0.0000 0.0000
# 4 0.0000 0.0000 0.0000 20.5140 0.0000 0.0000
# 5 0.0000 0.0000 0.0000 0.0000 10.5171 0.0000
# 6 0.0000 0.0000 0.0000 0.0000 0.0000 18.5042
#
#
#
# Elastic Compliance Matrix: (Units=1/GPa)
#
#
# Indices 1 2 3 4 5 6 
#
# 1 0.050522 -0.011927 -0.016395 0.000000 0.000000 0.000000
# 2 -0.011927 0.013872 -0.002579 0.000000 0.000000 0.000000
# 3 -0.016395 -0.002579 0.020312 0.000000 0.000000 0.000000
# 4 0.000000 0.000000 0.000000 0.048747 0.000000 0.000000
# 5 0.000000 0.000000 0.000000 0.000000 0.095083 0.000000
# 6 0.000000 0.000000 0.000000 0.000000 0.000000 0.054042
#
#
# Mechanical properties :
#
#
# Convention : Reuss Voigt Hill
#
# Bulk Modulus (GPa) = 43.66008 58.95508 51.30758
# Shear Modulus (GPa) = 14.20397 17.58640 15.89518
#
# Velocity S-wave (km/s) = 3.02350 3.36429 3.19844
# Velocity P-wave (km/s) = 6.34729 7.28247 6.83090
#
# Compressibility (1/GPa) = 0.02290422
#
# Stress axis : x y z
#
# Youngs Moduli (GPa) = 19.79339 72.08937 49.23182
#
# Poissons Ratio (x) = 0.85980 0.80715
# Poissons Ratio (y) = 0.23607 0.12696
# Poissons Ratio (z) = 0.32451 0.18591
#
# Static dielectric constant tensor:
#      x y z
#    x 1.530540 0.000000 0.000000 
#    y 0.000000 1.528170 0.000000 
#    z 0.000000 0.000000 1.509030 
# 
# From -- ./inp_files/13057.got.cif
#   From: 2010.05.17/outbox.cif.g08.bks.cpg/sg38_7_cif.got.tgz:13057.got - 2010.06.03 18:07:57.
