data_PCOD9356729
_publ_section_title
;
Structure prediction by ZEFSAII (Michael W. Deem and Ramdas Pophale) SiO2 
 PCOD9356729
Probable space group: A M M 2
;
_chemical_formula_sum "Si O2"
_cell_formula_units_Z 64
_cell_length_a 8.838152
_cell_length_b 31.022522
_cell_length_c 14.736133
_cell_angle_alpha 90.000000
_cell_angle_beta 90.000000
_cell_angle_gamma 90.000000
_cell_volume 4040.378953
_symmetry_space_group_name_H-M "A M M 2"
_symmetry_group_IT_number 38
_symmetry_cell_setting 'orthorhombic'
loop_
_space_group_symop_operation_xyz
x,y,z
-x,-y,z
-x,y,z
x,-y,z
x,1/2+y,1/2+z
-x,1/2-y,1/2+z
-x,1/2+y,1/2+z
x,1/2-y,1/2+z
loop_
_atom_site_type_symbol
_atom_site_label
_atom_site_fract_x
_atom_site_fract_y
_atom_site_fract_z
Si Si1 0.184251 0.951484 0.515850
Si Si2 0.676164 0.723241 0.617768
Si Si3 0.181992 0.950168 0.725983
Si Si4 0.318565 0.711993 0.824922
Si Si5 0.672088 0.673557 0.110171
Si Si6 0.322303 0.132224 0.808033
Si Si7 0.178004 0.863672 0.439441
Si Si8 0.179307 0.794889 0.928870
O O1 0.230510 0.942823 0.620622
O O2 0.231558 0.913195 0.449043
O O3 0.000000 0.951155 0.516719
O O4 0.232739 0.000000 0.491838
O O5 0.500000 0.710177 0.608029
O O6 0.728159 0.711848 0.719306
O O7 0.681275 0.775039 0.611249
O O8 0.769771 0.705440 0.533549
O O9 0.257129 0.915353 0.791280
O O10 0.000000 0.945315 0.728841
O O11 0.217587 0.000000 0.747629
O O12 0.500000 0.716098 0.828339
O O13 0.265901 0.668154 0.872900
O O14 0.251381 0.753223 0.878156
O O15 0.500000 0.661654 0.081100
O O16 0.695314 0.655939 0.210830
O O17 0.791986 0.655100 0.039933
O O18 0.500000 0.130727 0.829496
O O19 0.237533 0.161876 0.880317
O O20 0.000000 0.862614 0.418211
O O21 0.000000 0.791469 0.921571
#
# Coordination Sequence:
#
# PCOD9356729 Si02
#       8
#     8   8   8   8   8   8   8   8
#     4   8  15  28  46  70 102 136 167 204 251 298
#     4  10  21  38  54  68  96 137 173 207 250 298
#     4   9  17  31  50  73 103 136 170 210 255 301
#     4  11  22  37  53  71 101 137 170 205 253 306
#     4  10  19  31  48  69  99 137 172 205 245 294
#     4  11  21  34  51  73 103 139 176 208 250 305
#     4  11  20  30  49  76 101 132 173 210 249 296
#     4  12  24  35  52  76 101 130 170 215 254 296
#
# _framework density 15.840097
#
# number of rings (size 3 to 8) (size 9 to 14) (size 15 to 20)
#    0.000    1.750    3.750    3.000    0.000    1.750 
#    0.000    0.000    0.000    1.500    0.000    0.875 
#    0.000    3.000    0.000    0.000    0.000    0.000 
#
# Total GULP energy -178538.291434 kJ/mol
# GULP energy per Si atom -5579.321607 kJ/mol
# Density = 1.580404 g / cm^3
# Si number density = 15.840097 Si / 1000 Ang^3
#
#
#
# Elastic Constant Matrix: (Units=GPa)
#
#
# Indices 1 2 3 4 5 6 
#
# 1 55.8455 35.4985 42.4484 0.0000 0.0000 0.0000
# 2 35.4985 106.5654 50.9149 0.0000 0.0000 0.0000
# 3 42.4484 50.9149 84.6081 0.0000 0.0000 0.0000
# 4 0.0000 0.0000 0.0000 22.9238 0.0000 0.0000
# 5 0.0000 0.0000 0.0000 0.0000 -2.2833 0.0000
# 6 0.0000 0.0000 0.0000 0.0000 0.0000 0.7419
#
#
#
# Elastic Compliance Matrix: (Units=1/GPa)
#
#
# Indices 1 2 3 4 5 6 
#
# 1 0.030081 -0.003944 -0.012718 0.000000 0.000000 0.000000
# 2 -0.003944 0.013688 -0.006258 0.000000 0.000000 0.000000
# 3 -0.012718 -0.006258 0.021966 0.000000 0.000000 0.000000
# 4 0.000000 0.000000 0.000000 0.043623 0.000000 0.000000
# 5 0.000000 0.000000 0.000000 0.000000 -0.437971 0.000000
# 6 0.000000 0.000000 0.000000 0.000000 0.000000 1.347941
#
#
# Mechanical properties :
#
#
# Convention : Reuss Voigt Hill
#
# Bulk Modulus (GPa) = 50.26720 56.08250 53.17485
# Shear Modulus (GPa) = 4.66505 12.15364 8.40934
#
# Velocity S-wave (km/s) = 1.71799 2.77297 2.30660
# Velocity P-wave (km/s) = 5.97816 6.76275 6.38252
#
# Compressibility (1/GPa) = 0.01989369
#
# Stress axis : x y z
#
# Youngs Moduli (GPa) = 33.24386 73.05817 45.52447
#
# Poissons Ratio (x) = 0.28812 0.57900
# Poissons Ratio (y) = 0.13110 0.28491
# Poissons Ratio (z) = 0.42281 0.45722
#
# Static dielectric constant tensor:
#      x y z
#    x 1.548100 0.000000 0.000000 
#    y 0.000000 1.536350 0.000000 
#    z 0.000000 0.000000 1.515040 
# 
# From -- ./inp_files/13075.got.cif
#   From: 2010.05.17/outbox.cif.g08.bks.cpg/sg38_7_cif.got.tgz:13075.got - 2010.06.03 18:07:57.
