data_PCOD9356027
_publ_section_title
;
Structure prediction by ZEFSAII (Michael W. Deem and Ramdas Pophale) SiO2 
 PCOD9356027
Probable space group: A M M 2
;
_chemical_formula_sum "Si O2"
_cell_formula_units_Z 64
_cell_length_a 14.822255
_cell_length_b 8.543748
_cell_length_c 32.156992
_cell_angle_alpha 90.000000
_cell_angle_beta 90.000000
_cell_angle_gamma 90.000000
_cell_volume 4072.284660
_symmetry_space_group_name_H-M "A M M 2"
_symmetry_group_IT_number 38
_symmetry_cell_setting 'orthorhombic'
loop_
_space_group_symop_operation_xyz
x,y,z
-x,-y,z
-x,y,z
x,-y,z
x,1/2+y,1/2+z
-x,1/2-y,1/2+z
-x,1/2+y,1/2+z
x,1/2-y,1/2+z
loop_
_atom_site_type_symbol
_atom_site_label
_atom_site_fract_x
_atom_site_fract_y
_atom_site_fract_z
Si Si1 0.395726 0.314093 0.723370
Si Si2 0.101469 0.688643 0.014901
Si Si3 0.390557 0.819267 0.811618
Si Si4 0.604546 0.808555 0.902936
Si Si5 0.710729 0.687388 0.145193
Si Si6 0.604568 0.310609 0.565074
Si Si7 0.285192 0.811218 0.983342
Si Si8 0.100343 0.809517 0.611806
O O1 0.500000 0.257863 0.718549
O O2 0.396276 0.500000 0.718433
O O3 0.365045 0.271518 0.770025
O O4 0.333546 0.241700 0.687999
O O5 0.105235 0.500000 0.013577
O O6 0.114124 0.735197 0.063409
O O7 0.000000 0.736640 0.002503
O O8 0.182796 0.756484 0.988362
O O9 0.500000 0.818128 0.813394
O O10 0.362700 0.757822 0.857078
O O11 0.361962 0.000000 0.807284
O O12 0.500000 0.761446 0.909201
O O13 0.665960 0.757130 0.941233
O O14 0.604498 0.000000 0.901957
O O15 0.710648 0.500000 0.143788
O O16 0.652113 0.748880 0.106480
O O17 0.813831 0.743247 0.138249
O O18 0.500000 0.262060 0.563149
O O19 0.606558 0.500000 0.566011
O O20 0.658823 0.258309 0.524045
O O21 0.287434 0.000000 0.983209
O O22 0.000000 0.756709 0.624702
O O23 0.099306 0.000000 0.612639
#
# Coordination Sequence:
#
# PCOD9356027 Si02
#       8
#     8   8   8   8   8   8   8   8
#     4  10  20  32  45  63  92 124 149 179 224 272
#     4   9  17  31  48  63  85 118 152 188 231 272
#     4   8  14  27  47  67  86 112 151 192 222 256
#     4   8  14  26  45  68  93 121 151 183 221 264
#     4  11  20  30  47  67  86 114 154 191 220 258
#     4  10  20  31  41  58  91 129 155 176 211 260
#     4  10  18  28  45  68  92 119 152 187 221 261
#     4   8  15  29  47  64  83 110 145 186 229 266
#
# _framework density 15.715992999999999
#
# number of rings (size 3 to 8) (size 9 to 14) (size 15 to 20)
#    0.000    2.750    1.250    3.000    0.000    4.250 
#    0.000    0.625    0.000    3.375    0.000    0.875 
#    0.000    3.000    0.000    0.000    0.000    0.000 
#
# Total GULP energy -178296.166021 kJ/mol
# GULP energy per Si atom -5571.755188 kJ/mol
# Density = 1.568022 g / cm^3
# Si number density = 15.715993 Si / 1000 Ang^3
#
#
#
# Elastic Constant Matrix: (Units=GPa)
#
#
# Indices 1 2 3 4 5 6 
#
# 1 122.2840 17.4701 76.2468 0.0000 0.0000 0.0000
# 2 17.4701 8.4040 16.9802 0.0000 0.0000 0.0000
# 3 76.2468 16.9802 129.1969 0.0000 0.0000 0.0000
# 4 0.0000 0.0000 0.0000 18.7545 0.0000 0.0000
# 5 0.0000 0.0000 0.0000 0.0000 8.7209 0.0000
# 6 0.0000 0.0000 0.0000 0.0000 0.0000 19.2585
#
#
#
# Elastic Compliance Matrix: (Units=1/GPa)
#
#
# Indices 1 2 3 4 5 6 
#
# 1 0.014642 -0.017671 -0.006319 0.000000 0.000000 0.000000
# 2 -0.017671 0.183339 -0.013668 0.000000 0.000000 0.000000
# 3 -0.006319 -0.013668 0.013265 0.000000 0.000000 0.000000
# 4 0.000000 0.000000 0.000000 0.053321 0.000000 0.000000
# 5 0.000000 0.000000 0.000000 0.000000 0.114667 0.000000
# 6 0.000000 0.000000 0.000000 0.000000 0.000000 0.051925
#
#
# Mechanical properties :
#
#
# Convention : Reuss Voigt Hill
#
# Bulk Modulus (GPa) = 7.35659 53.47544 30.41601
# Shear Modulus (GPa) = 9.06152 19.29263 14.17708
#
# Velocity S-wave (km/s) = 2.40381 3.50748 3.00672
# Velocity P-wave (km/s) = 3.52073 7.10656 5.60798
#
# Compressibility (1/GPa) = 0.13593256
#
# Stress axis : x y z
#
# Youngs Moduli (GPa) = 68.29640 5.45438 75.38365
#
# Poissons Ratio (x) = 0.09638 0.47633
# Poissons Ratio (y) = 1.20684 1.03031
# Poissons Ratio (z) = 0.43155 0.07455
#
# Static dielectric constant tensor:
#      x y z
#    x 1.522550 0.000000 0.000000 
#    y 0.000000 1.543140 0.000000 
#    z 0.000000 0.000000 1.519610 
# 
# From -- ./inp_files/25057.got.cif
#   From: 2010.05.17/outbox.cif.g08.bks.cpg/sg38_13_cif.got.tgz:25057.got - 2010.06.03 18:07:57.
