data_PCOD9356171
_publ_section_title
;
Structure prediction by ZEFSAII (Michael W. Deem and Ramdas Pophale) SiO2 
 PCOD9356171
Probable space group: A M M 2
;
_chemical_formula_sum "Si O2"
_cell_formula_units_Z 52
_cell_length_a 9.069673
_cell_length_b 12.387994
_cell_length_c 25.908244
_cell_angle_alpha 90.000000
_cell_angle_beta 90.000000
_cell_angle_gamma 90.000000
_cell_volume 2910.922172
_symmetry_space_group_name_H-M "A M M 2"
_symmetry_group_IT_number 38
_symmetry_cell_setting 'orthorhombic'
loop_
_space_group_symop_operation_xyz
x,y,z
-x,-y,z
-x,y,z
x,-y,z
x,1/2+y,1/2+z
-x,1/2-y,1/2+z
-x,1/2+y,1/2+z
x,1/2-y,1/2+z
loop_
_atom_site_type_symbol
_atom_site_label
_atom_site_fract_x
_atom_site_fract_y
_atom_site_fract_z
Si Si1 0.831020 0.743663 0.563160
Si Si2 0.667575 0.000000 0.171579
Si Si3 0.821841 0.799010 0.884870
Si Si4 0.665928 0.000000 0.937760
Si Si5 0.179327 0.875535 0.772741
Si Si6 0.819882 0.123760 0.464862
Si Si7 0.253571 0.000000 0.053399
Si Si8 0.820552 0.225664 0.177900
O O1 0.765900 0.808732 0.514885
O O2 0.830072 0.614787 0.553301
O O3 0.767933 0.760365 0.620519
O O4 0.000000 0.780092 0.566428
O O5 0.666405 0.000000 0.108705
O O6 0.753866 0.892386 0.187894
O O7 0.500000 0.000000 0.190190
O O8 0.776621 0.815633 0.825546
O O9 0.778325 0.688423 0.913146
O O10 0.000000 0.807927 0.887076
O O11 0.752934 0.896089 0.917601
O O12 0.500000 0.000000 0.917182
O O13 0.661119 0.000000 0.999685
O O14 0.223555 0.809767 0.721993
O O15 0.000000 0.878113 0.772472
O O16 0.229688 0.000000 0.773325
O O17 0.000000 0.124051 0.465955
O O18 0.771295 0.000000 0.466023
O O19 0.000000 0.217544 0.176855
#
# Coordination Sequence:
#
# PCOD9356171 Si02
#       8
#     8   4   8   4   8   8   4   8
#     4   9  16  26  46  74 103 131 164 208 255 301
#     4  10  20  35  52  73 104 141 173 206 252 309
#     4  10  19  34  54  75 102 136 169 205 253 312
#     4  12  22  31  50  81 106 129 165 216 264 299
#     4   9  17  31  53  78 101 128 167 212 256 302
#     4   9  17  28  45  74 105 132 165 204 247 300
#     4  10  18  30  48  72  99 136 171 210 255 302
#     4   9  18  32  51  77 103 131 169 213 256 298
#
# _framework density 17.863755000000001
#
# number of rings (size 3 to 8) (size 9 to 14) (size 15 to 20)
#    0.000    2.462    2.308    0.923    0.000    3.077 
#    1.385    3.846    0.000    0.462    0.000    0.000 
#    0.000    0.000    0.000    0.000    0.000    0.000 
#
# Total GULP energy -144780.652385 kJ/mol
# GULP energy per Si atom -5568.486630 kJ/mol
# Density = 1.782310 g / cm^3
# Si number density = 17.863755 Si / 1000 Ang^3
#
#
#
# Elastic Constant Matrix: (Units=GPa)
#
#
# Indices 1 2 3 4 5 6 
#
# 1 15.7945 8.5314 12.2257 0.0000 0.0000 0.0000
# 2 8.5314 145.0551 92.7895 0.0000 0.0000 0.0000
# 3 12.2257 92.7895 150.2454 0.0000 0.0000 0.0000
# 4 0.0000 0.0000 0.0000 28.5885 0.0000 0.0000
# 5 0.0000 0.0000 0.0000 0.0000 4.2708 0.0000
# 6 0.0000 0.0000 0.0000 0.0000 0.0000 -3.4773
#
#
#
# Elastic Compliance Matrix: (Units=1/GPa)
#
#
# Indices 1 2 3 4 5 6 
#
# 1 0.067619 -0.000756 -0.005035 0.000000 0.000000 0.000000
# 2 -0.000756 0.011405 -0.006982 0.000000 0.000000 0.000000
# 3 -0.005035 -0.006982 0.011377 0.000000 0.000000 0.000000
# 4 0.000000 0.000000 0.000000 0.034979 0.000000 0.000000
# 5 0.000000 0.000000 0.000000 0.000000 0.234148 0.000000
# 6 0.000000 0.000000 0.000000 0.000000 0.000000 -0.287577
#
#
# Mechanical properties :
#
#
# Convention : Reuss Voigt Hill
#
# Bulk Modulus (GPa) = 15.41907 59.79872 37.60889
# Shear Modulus (GPa) = 41.97588 19.04627 30.51108
#
# Velocity S-wave (km/s) = 4.85271 3.26881 4.13726
# Velocity P-wave (km/s) = 6.32840 6.91335 6.62733
#
# Compressibility (1/GPa) = 0.06485476
#
# Stress axis : x y z
#
# Youngs Moduli (GPa) = 14.78871 87.68450 87.89383
#
# Poissons Ratio (x) = 0.06628 0.44258
# Poissons Ratio (y) = 0.01118 0.61365
# Poissons Ratio (z) = 0.07447 0.61219
#
# Static dielectric constant tensor:
#      x y z
#    x 1.599290 0.000000 0.000000 
#    y 0.000000 1.593660 0.000000 
#    z 0.000000 0.000000 1.631810 
# 
# From -- ./inp_files/23432.got.cif
#   From: 2010.05.17/outbox.cif.g08.bks.cpg/sg38_12_cif.got.tgz:23432.got - 2010.06.03 18:07:57.
