data_PCOD9356603
_publ_section_title
;
Structure prediction by ZEFSAII (Michael W. Deem and Ramdas Pophale) SiO2 
 PCOD9356603
Probable space group: A M M 2
;
_chemical_formula_sum "Si O2"
_cell_formula_units_Z 56
_cell_length_a 9.094984
_cell_length_b 14.009562
_cell_length_c 29.723202
_cell_angle_alpha 90.000000
_cell_angle_beta 90.000000
_cell_angle_gamma 90.000000
_cell_volume 3787.233568
_symmetry_space_group_name_H-M "A M M 2"
_symmetry_group_IT_number 38
_symmetry_cell_setting 'orthorhombic'
loop_
_space_group_symop_operation_xyz
x,y,z
-x,-y,z
-x,y,z
x,-y,z
x,1/2+y,1/2+z
-x,1/2-y,1/2+z
-x,1/2+y,1/2+z
x,1/2-y,1/2+z
loop_
_atom_site_type_symbol
_atom_site_label
_atom_site_fract_x
_atom_site_fract_y
_atom_site_fract_z
Si Si1 0.176575 0.110623 0.222650
Si Si2 0.676408 0.609245 0.175719
Si Si3 0.330765 0.384072 0.446215
Si Si4 0.675844 0.285751 0.269099
Si Si5 0.176468 0.215831 0.130040
Si Si6 0.176434 0.387198 0.538399
Si Si7 0.824839 0.613719 0.353549
O O1 0.258992 0.182812 0.255825
O O2 0.211520 0.145337 0.171787
O O3 0.000000 0.120343 0.228381
O O4 0.215574 0.000000 0.228685
O O5 0.500000 0.613593 0.170666
O O6 0.724078 0.500000 0.169960
O O7 0.710273 0.646345 0.226171
O O8 0.750567 0.683459 0.141832
O O9 0.500000 0.353170 0.443654
O O10 0.328950 0.500000 0.446834
O O11 0.255191 0.354136 0.492810
O O12 0.241805 0.356118 0.401662
O O13 0.500000 0.281572 0.274014
O O14 0.749313 0.329254 0.313264
O O15 0.222355 0.170634 0.082662
O O16 0.000000 0.226252 0.129274
O O17 0.207721 0.500000 0.545179
O O18 0.000000 0.378556 0.533072
O O19 0.795436 0.500000 0.347894
O O20 0.000000 0.627068 0.353169
#
# Coordination Sequence:
#
# PCOD9356603 Si02
#       7
#     8   8   8   8   8   8   8
#     4   9  17  30  46  64  89 119 150 184 219 256
#     4   9  18  31  44  60  86 118 148 180 219 259
#     4   9  17  28  42  62  88 116 145 177 214 257
#     4  10  19  30  45  65  89 117 149 183 220 262
#     4   9  17  28  44  66  88 114 149 183 216 254
#     4   9  16  27  43  63  89 118 145 175 213 257
#     4  10  19  30  45  65  89 117 148 181 218 262
#
# _framework density 14.786519
#
# number of rings (size 3 to 8) (size 9 to 14) (size 15 to 20)
#    0.000    2.714    0.000    2.143    0.000    6.571 
#    0.000    0.000    0.000    2.571    0.000    1.000 
#    0.000    3.429    0.000    0.000    0.000    0.000 
#
# Total GULP energy -156065.544242 kJ/mol
# GULP energy per Si atom -5573.769437 kJ/mol
# Density = 1.475286 g / cm^3
# Si number density = 14.786519 Si / 1000 Ang^3
#
#
#
# Elastic Constant Matrix: (Units=GPa)
#
#
# Indices 1 2 3 4 5 6 
#
# 1 51.4392 48.8312 63.9901 0.0000 0.0000 0.0000
# 2 48.8312 102.3858 69.9991 0.0000 0.0000 0.0000
# 3 63.9901 69.9991 147.9459 0.0000 0.0000 0.0000
# 4 0.0000 0.0000 0.0000 25.2736 0.0000 0.0000
# 5 0.0000 0.0000 0.0000 0.0000 25.1458 0.0000
# 6 0.0000 0.0000 0.0000 0.0000 0.0000 21.3649
#
#
#
# Elastic Compliance Matrix: (Units=1/GPa)
#
#
# Indices 1 2 3 4 5 6 
#
# 1 0.053216 -0.014255 -0.016272 0.000000 0.000000 0.000000
# 2 -0.014255 0.018256 -0.002472 0.000000 0.000000 0.000000
# 3 -0.016272 -0.002472 0.014967 0.000000 0.000000 0.000000
# 4 0.000000 0.000000 0.000000 0.039567 0.000000 0.000000
# 5 0.000000 0.000000 0.000000 0.000000 0.039768 0.000000
# 6 0.000000 0.000000 0.000000 0.000000 0.000000 0.046806
#
#
# Mechanical properties :
#
#
# Convention : Reuss Voigt Hill
#
# Bulk Modulus (GPa) = 48.92474 74.15687 61.54081
# Shear Modulus (GPa) = 17.51984 22.28691 19.90337
#
# Velocity S-wave (km/s) = 3.44590 3.88654 3.67283
# Velocity P-wave (km/s) = 6.99940 8.39052 7.72633
#
# Compressibility (1/GPa) = 0.02043956
#
# Stress axis : x y z
#
# Youngs Moduli (GPa) = 18.79145 54.77750 66.81428
#
# Poissons Ratio (x) = 0.78087 1.08722
# Poissons Ratio (y) = 0.26788 0.16515
# Poissons Ratio (z) = 0.30578 0.13540
#
# Static dielectric constant tensor:
#      x y z
#    x 1.492720 0.000000 0.000000 
#    y 0.000000 1.466300 0.000000 
#    z 0.000000 0.000000 1.474250 
# 
# From -- ./inp_files/24645.got.cif
#   From: 2010.05.17/outbox.cif.g08.bks.cpg/sg38_13_cif.got.tgz:24645.got - 2010.06.03 18:07:57.
