data_PCOD9356553
_publ_section_title
;
Structure prediction by ZEFSAII (Michael W. Deem and Ramdas Pophale) SiO2 
 PCOD9356553
Probable space group: A M M 2
;
_chemical_formula_sum "Si O2"
_cell_formula_units_Z 64
_cell_length_a 9.424691
_cell_length_b 13.968890
_cell_length_c 34.988088
_cell_angle_alpha 90.000000
_cell_angle_beta 90.000000
_cell_angle_gamma 90.000000
_cell_volume 4606.268271
_symmetry_space_group_name_H-M "A M M 2"
_symmetry_group_IT_number 38
_symmetry_cell_setting 'orthorhombic'
loop_
_space_group_symop_operation_xyz
x,y,z
-x,-y,z
-x,y,z
x,-y,z
x,1/2+y,1/2+z
-x,1/2-y,1/2+z
-x,1/2+y,1/2+z
x,1/2-y,1/2+z
loop_
_atom_site_type_symbol
_atom_site_label
_atom_site_fract_x
_atom_site_fract_y
_atom_site_fract_z
Si Si1 0.336390 0.383524 0.611580
Si Si2 0.167593 0.292757 0.766318
Si Si3 0.831632 0.889460 0.814650
Si Si4 0.168922 0.388527 0.847807
Si Si5 0.329034 0.112267 0.197313
Si Si6 0.329928 0.714184 0.382201
Si Si7 0.668604 0.387333 0.461931
Si Si8 0.837138 0.383435 0.537720
O O1 0.500000 0.354024 0.605987
O O2 0.336189 0.500000 0.611581
O O3 0.288551 0.356106 0.654270
O O4 0.240551 0.350969 0.576401
O O5 0.198663 0.184946 0.780555
O O6 0.196582 0.358204 0.803742
O O7 0.256902 0.327228 0.730438
O O8 0.000000 0.300394 0.757895
O O9 0.739805 0.856076 0.850815
O O10 0.000000 0.877989 0.823726
O O11 0.805792 0.000000 0.805287
O O12 0.201018 0.500000 0.853576
O O13 0.259387 0.316909 0.873834
O O14 0.000000 0.373365 0.854160
O O15 0.500000 0.117888 0.199528
O O16 0.290182 0.000000 0.201897
O O17 0.500000 0.717687 0.377429
O O18 0.298490 0.673551 0.424272
O O19 0.500000 0.380673 0.469447
O O20 0.700132 0.500000 0.454611
O O21 0.753735 0.355804 0.499410
O O22 0.834938 0.500000 0.538446
O O23 0.000000 0.352656 0.536589
#
# Coordination Sequence:
#
# PCOD9356553 Si02
#       8
#     8   8   8   8   8   8   8   8
#     4   8  14  25  38  51  73 106 136 159 190 235
#     4   9  17  28  42  60  79 102 135 171 204 238
#     4   9  18  32  46  58  78 110 142 171 207 249
#     4   9  18  32  46  59  80 111 142 170 205 248
#     4   9  17  27  39  57  81 109 138 165 196 237
#     4  10  19  29  43  64  85 105 136 175 209 243
#     4   9  17  28  40  55  80 112 138 162 198 242
#     4   9  16  24  36  56  78 101 133 168 197 229
#
# _framework density 13.894111000000001
#
# number of rings (size 3 to 8) (size 9 to 14) (size 15 to 20)
#    0.000    3.000    0.000    3.000    0.000    6.750 
#    0.000    2.500    0.000    0.000    0.000    0.000 
#    0.000    1.000    0.000    7.500    0.000    4.125 
#
# Total GULP energy -178207.271541 kJ/mol
# GULP energy per Si atom -5568.977236 kJ/mol
# Density = 1.386249 g / cm^3
# Si number density = 13.894111 Si / 1000 Ang^3
#
#
#
# Elastic Constant Matrix: (Units=GPa)
#
#
# Indices 1 2 3 4 5 6 
#
# 1 58.8800 39.9681 74.8655 0.0000 0.0000 0.0000
# 2 39.9681 76.7648 55.9254 0.0000 0.0000 0.0000
# 3 74.8655 55.9254 138.6433 0.0000 0.0000 0.0000
# 4 0.0000 0.0000 0.0000 17.9469 0.0000 0.0000
# 5 0.0000 0.0000 0.0000 0.0000 -19.1480 0.0000
# 6 0.0000 0.0000 0.0000 0.0000 0.0000 17.3156
#
#
#
# Elastic Compliance Matrix: (Units=1/GPa)
#
#
# Indices 1 2 3 4 5 6 
#
# 1 0.059905 -0.010796 -0.027993 0.000000 0.000000 0.000000
# 2 -0.010796 0.020394 -0.002397 0.000000 0.000000 0.000000
# 3 -0.027993 -0.002397 0.023295 0.000000 0.000000 0.000000
# 4 0.000000 0.000000 0.000000 0.055720 0.000000 0.000000
# 5 0.000000 0.000000 0.000000 0.000000 -0.052225 0.000000
# 6 0.000000 0.000000 0.000000 0.000000 0.000000 0.057751
#
#
# Mechanical properties :
#
#
# Convention : Reuss Voigt Hill
#
# Bulk Modulus (GPa) = 47.11938 68.42286 57.77112
# Shear Modulus (GPa) = 19.66280 10.12483 14.89382
#
# Velocity S-wave (km/s) = 3.76598 2.70240 3.27762
# Velocity P-wave (km/s) = 7.27303 7.68701 7.48288
#
# Compressibility (1/GPa) = 0.02122269
#
# Stress axis : x y z
#
# Youngs Moduli (GPa) = 16.69301 49.03414 42.92704
#
# Poissons Ratio (x) = 0.52939 1.20166
# Poissons Ratio (y) = 0.18022 0.10288
# Poissons Ratio (z) = 0.46729 0.11751
#
# Static dielectric constant tensor:
#      x y z
#    x 1.463560 0.000000 0.000000 
#    y 0.000000 1.441670 0.000000 
#    z 0.000000 0.000000 1.445510 
# 
# From -- ./inp_files/24792.got.cif
#   From: 2010.05.17/outbox.cif.g08.bks.cpg/sg38_13_cif.got.tgz:24792.got - 2010.06.03 18:07:57.
