data_PCOD9356097
_publ_section_title
;
Structure prediction by ZEFSAII (Michael W. Deem and Ramdas Pophale) SiO2 
 PCOD9356097
Probable space group: A M M 2
;
_chemical_formula_sum "Si O2"
_cell_formula_units_Z 40
_cell_length_a 8.942037
_cell_length_b 21.525548
_cell_length_c 12.900721
_cell_angle_alpha 90.000000
_cell_angle_beta 90.000000
_cell_angle_gamma 90.000000
_cell_volume 2483.159762
_symmetry_space_group_name_H-M "A M M 2"
_symmetry_group_IT_number 38
_symmetry_cell_setting 'orthorhombic'
loop_
_space_group_symop_operation_xyz
x,y,z
-x,-y,z
-x,y,z
x,-y,z
x,1/2+y,1/2+z
-x,1/2-y,1/2+z
-x,1/2+y,1/2+z
x,1/2-y,1/2+z
loop_
_atom_site_type_symbol
_atom_site_label
_atom_site_fract_x
_atom_site_fract_y
_atom_site_fract_z
Si Si1 0.821186 0.669204 0.444420
Si Si2 0.821850 0.797050 0.171722
Si Si3 0.819891 0.428122 0.270126
Si Si4 0.678880 0.165058 0.610672
Si Si5 0.677887 0.700072 0.882163
O O1 0.788480 0.664685 0.566862
O O2 0.782249 0.610125 0.374573
O O3 0.737571 0.730076 0.402328
O O4 0.000000 0.680076 0.434298
O O5 0.751988 0.728732 0.152953
O O6 0.754090 0.823418 0.277358
O O7 0.000000 0.790887 0.181836
O O8 0.775680 0.500000 0.275663
O O9 0.744069 0.391785 0.175514
O O10 0.000000 0.425202 0.258051
O O11 0.500000 0.168965 0.622885
O O12 0.713073 0.163036 0.487809
O O13 0.500000 0.701616 0.869131
#
# Coordination Sequence:
#
# PCOD9356097 Si02
#       5
#     8   8   8   8   8
#     4   9  18  31  47  70  98 129 162 198 245 294
#     4  10  18  29  48  72  99 129 161 201 248 298
#     4  10  20  34  52  73  99 131 167 205 244 291
#     4  10  20  32  47  71 100 130 166 203 245 294
#     4  10  19  30  47  72 101 129 158 202 249 292
#
# _framework density 16.108508
#
# number of rings (size 3 to 8) (size 9 to 14) (size 15 to 20)
#    0.000    2.200    2.000    1.800    0.000    3.600 
#    0.000    0.000    0.000    1.200    0.000    2.800 
#    0.000    0.000    0.000    0.000    0.000    0.000 
#
# Total GULP energy -111532.713815 kJ/mol
# GULP energy per Si atom -5576.635691 kJ/mol
# Density = 1.607184 g / cm^3
# Si number density = 16.108508 Si / 1000 Ang^3
#
#
#
# Elastic Constant Matrix: (Units=GPa)
#
#
# Indices 1 2 3 4 5 6 
#
# 1 42.4387 35.5271 61.9076 0.0000 0.0000 0.0000
# 2 35.5271 93.9277 68.9698 0.0000 0.0000 0.0000
# 3 61.9076 68.9698 174.4204 0.0000 0.0000 0.0000
# 4 0.0000 0.0000 0.0000 19.0673 0.0000 0.0000
# 5 0.0000 0.0000 0.0000 0.0000 30.1866 0.0000
# 6 0.0000 0.0000 0.0000 0.0000 0.0000 -3.4346
#
#
#
# Elastic Compliance Matrix: (Units=1/GPa)
#
#
# Indices 1 2 3 4 5 6 
#
# 1 0.053663 -0.008894 -0.015530 0.000000 0.000000 0.000000
# 2 -0.008894 0.016477 -0.003358 0.000000 0.000000 0.000000
# 3 -0.015530 -0.003358 0.012573 0.000000 0.000000 0.000000
# 4 0.000000 0.000000 0.000000 0.052446 0.000000 0.000000
# 5 0.000000 0.000000 0.000000 0.000000 0.033127 0.000000
# 6 0.000000 0.000000 0.000000 0.000000 0.000000 -0.291151
#
#
# Mechanical properties :
#
#
# Convention : Reuss Voigt Hill
#
# Bulk Modulus (GPa) = 36.83462 71.51064 54.17263
# Shear Modulus (GPa) = -85.83745 18.78934 -33.52405
#
# Velocity S-wave (km/s) = -7.30772 3.41900 -4.56690
# Velocity P-wave (km/s) = 6.94891 7.75084 2.42777
#
# Compressibility (1/GPa) = 0.02714838
#
# Stress axis : x y z
#
# Youngs Moduli (GPa) = 18.63465 60.69203 79.53312
#
# Poissons Ratio (x) = 0.53980 1.23515
# Poissons Ratio (y) = 0.16574 0.26710
# Poissons Ratio (z) = 0.28940 0.20383
#
# Static dielectric constant tensor:
#      x y z
#    x 1.537130 0.000000 0.000000 
#    y 0.000000 1.495690 0.000000 
#    z 0.000000 0.000000 1.577500 
# 
# From -- ./inp_files/7946.got.cif
#   From: 2010.05.17/outbox.cif.g08.bks.cpg/sg38_4_cif.got.tgz:7946.got - 2010.06.03 18:07:57.
