data_PCOD9356786
_publ_section_title
;
Structure prediction by ZEFSAII (Michael W. Deem and Ramdas Pophale) SiO2 
 PCOD9356786
Probable space group: A M M 2
;
_chemical_formula_sum "Si O2"
_cell_formula_units_Z 64
_cell_length_a 18.103101
_cell_length_b 7.481820
_cell_length_c 21.675977
_cell_angle_alpha 90.000000
_cell_angle_beta 90.000000
_cell_angle_gamma 90.000000
_cell_volume 2935.884131
_symmetry_space_group_name_H-M "A M M 2"
_symmetry_group_IT_number 38
_symmetry_cell_setting 'orthorhombic'
loop_
_space_group_symop_operation_xyz
x,y,z
-x,-y,z
-x,y,z
x,-y,z
x,1/2+y,1/2+z
-x,1/2-y,1/2+z
-x,1/2+y,1/2+z
x,1/2-y,1/2+z
loop_
_atom_site_type_symbol
_atom_site_label
_atom_site_fract_x
_atom_site_fract_y
_atom_site_fract_z
Si Si1 0.689044 0.710561 0.648670
Si Si2 0.353300 0.702459 0.520560
Si Si3 0.182512 0.213419 0.506029
Si Si4 0.580694 0.784486 0.758538
Si Si5 0.811192 0.286477 0.371227
Si Si6 0.357685 0.780550 0.887877
Si Si7 0.916732 0.719096 0.262993
Si Si8 0.142044 0.796090 0.634893
O O1 0.701134 0.500000 0.637650
O O2 0.642723 0.781631 0.589342
O O3 0.644440 0.731572 0.711387
O O4 0.770097 0.795618 0.649959
O O5 0.382302 0.500000 0.524214
O O6 0.264271 0.701762 0.509407
O O7 0.382064 0.781921 0.456088
O O8 0.152762 0.248084 0.437813
O O9 0.137501 0.279636 0.565614
O O10 0.192551 0.000000 0.513252
O O11 0.500000 0.722410 0.737639
O O12 0.595717 0.726025 0.828630
O O13 0.580776 0.000000 0.759492
O O14 0.806556 0.500000 0.364739
O O15 0.726702 0.221333 0.374754
O O16 0.857954 0.218423 0.313672
O O17 0.357886 0.000000 0.890635
O O18 0.912649 0.500000 0.261838
O O19 0.897404 0.784430 0.194255
O O20 0.000000 0.767470 0.279905
O O21 0.115034 0.000000 0.630644
#
# Coordination Sequence:
#
# PCOD9356786 Si02
#       8
#     8   8   8   8   8   8   8   8
#     4  10  19  31  50  74  98 124 154 192 239 288
#     4   8  15  29  48  69  92 119 153 194 235 272
#     4   9  16  26  44  71  97 119 148 190 238 283
#     4  10  20  33  49  69  95 127 160 194 232 276
#     4   9  16  28  48  69  91 120 153 194 237 277
#     4   8  14  28  49  69  88 115 155 195 228 267
#     4   9  17  30  49  71  93 123 166 206 234 268
#     4   9  17  31  51  72  94 122 159 201 237 275
#
# _framework density 21.799225
#
# number of rings (size 3 to 8) (size 9 to 14) (size 15 to 20)
#    0.000    3.000    0.000    2.250    0.000    3.250 
#    0.000    6.875    0.000    4.500    0.000    0.000 
#    0.000    0.000    0.000    0.000    0.000    0.000 
#
# Total GULP energy -178375.923882 kJ/mol
# GULP energy per Si atom -5574.247621 kJ/mol
# Density = 2.174961 g / cm^3
# Si number density = 21.799225 Si / 1000 Ang^3
#
#
#
# Elastic Constant Matrix: (Units=GPa)
#
#
# Indices 1 2 3 4 5 6 
#
# 1 19.4333 -4.7702 -4.1496 0.0000 0.0000 0.0000
# 2 -4.7702 68.8107 -8.5833 0.0000 0.0000 0.0000
# 3 -4.1496 -8.5833 87.3369 0.0000 0.0000 0.0000
# 4 0.0000 0.0000 0.0000 5.8768 0.0000 0.0000
# 5 0.0000 0.0000 0.0000 0.0000 0.3559 0.0000
# 6 0.0000 0.0000 0.0000 0.0000 0.0000 0.5782
#
#
#
# Elastic Compliance Matrix: (Units=1/GPa)
#
#
# Indices 1 2 3 4 5 6 
#
# 1 0.053074 0.004043 0.002919 0.000000 0.000000 0.000000
# 2 0.004043 0.015021 0.001668 0.000000 0.000000 0.000000
# 3 0.002919 0.001668 0.011753 0.000000 0.000000 0.000000
# 4 0.000000 0.000000 0.000000 0.170160 0.000000 0.000000
# 5 0.000000 0.000000 0.000000 0.000000 2.809520 0.000000
# 6 0.000000 0.000000 0.000000 0.000000 0.000000 1.729522
#
#
# Mechanical properties :
#
#
# Convention : Reuss Voigt Hill
#
# Bulk Modulus (GPa) = 10.29770 15.61942 12.95856
# Shear Modulus (GPa) = 1.04077 14.23446 7.63761
#
# Velocity S-wave (km/s) = 0.69171 2.55812 1.87383
# Velocity P-wave (km/s) = 2.31778 3.98823 3.26175
#
# Compressibility (1/GPa) = 0.09710909
#
# Stress axis : x y z
#
# Youngs Moduli (GPa) = 18.84162 66.57336 85.08783
#
# Poissons Ratio (x) = -0.26918 -0.24837
# Poissons Ratio (y) = -0.07618 -0.14196
# Poissons Ratio (z) = -0.05500 -0.11107
#
# Static dielectric constant tensor:
#      x y z
#    x 1.747350 0.000000 0.000000 
#    y 0.000000 1.946610 0.000000 
#    z 0.000000 0.000000 1.845550 
# 
# From -- ./inp_files/21381.got.cif
#   From: 2010.05.17/outbox.cif.g08.bks.cpg/sg38_11_cif.got.tgz:21381.got - 2010.06.03 18:07:57.
