data_PCOD9356598
_publ_section_title
;
Structure prediction by ZEFSAII (Michael W. Deem and Ramdas Pophale) SiO2 
 PCOD9356598
Probable space group: A M M 2
;
_chemical_formula_sum "Si O2"
_cell_formula_units_Z 64
_cell_length_a 14.757376
_cell_length_b 8.749978
_cell_length_c 32.164829
_cell_angle_alpha 90.000000
_cell_angle_beta 90.000000
_cell_angle_gamma 90.000000
_cell_volume 4153.338718
_symmetry_space_group_name_H-M "A M M 2"
_symmetry_group_IT_number 38
_symmetry_cell_setting 'orthorhombic'
loop_
_space_group_symop_operation_xyz
x,y,z
-x,-y,z
-x,y,z
x,-y,z
x,1/2+y,1/2+z
-x,1/2-y,1/2+z
-x,1/2+y,1/2+z
x,1/2-y,1/2+z
loop_
_atom_site_type_symbol
_atom_site_label
_atom_site_fract_x
_atom_site_fract_y
_atom_site_fract_z
Si Si1 0.894388 0.684635 0.904930
Si Si2 0.602973 0.684015 0.856946
Si Si3 0.894455 0.184351 0.570756
Si Si4 0.789558 0.186535 0.488804
Si Si5 0.785186 0.683088 0.326830
Si Si6 0.600794 0.185898 0.454259
Si Si7 0.109868 0.177106 0.158114
Si Si8 0.105198 0.815871 0.745526
O O1 0.888571 0.500000 0.902496
O O2 0.848626 0.730910 0.948546
O O3 0.840307 0.753248 0.866279
O O4 0.000000 0.727845 0.903764
O O5 0.500000 0.725907 0.845143
O O6 0.610616 0.500000 0.854609
O O7 0.682543 0.759040 0.830801
O O8 0.615257 0.726054 0.905723
O O9 0.835321 0.237576 0.531617
O O10 0.860824 0.244780 0.615197
O O11 0.000000 0.230531 0.565041
O O12 0.892963 0.000000 0.571713
O O13 0.686368 0.237860 0.481061
O O14 0.789489 0.000000 0.489558
O O15 0.787136 0.500000 0.328029
O O16 0.834452 0.734380 0.284453
O O17 0.500000 0.237986 0.466768
O O18 0.600047 0.000000 0.455532
O O19 0.138845 0.254529 0.201156
O O20 0.000000 0.188761 0.158066
O O21 0.134809 0.000000 0.158044
O O22 0.000000 0.767355 0.751561
O O23 0.105665 0.000000 0.744096
#
# Coordination Sequence:
#
# PCOD9356598 Si02
#       8
#     8   8   8   8   8   8   8   8
#     4  10  19  30  44  62  89 126 164 195 220 257
#     4   9  17  31  50  68  88 118 156 196 233 269
#     4   9  16  26  42  63  87 116 147 180 221 268
#     4   9  15  25  42  64  88 116 154 191 220 260
#     4  11  21  31  45  67  95 124 152 187 233 279
#     4   8  13  23  42  65  86 110 145 192 233 257
#     4   9  17  29  45  65  87 111 143 186 230 268
#     4   9  18  32  47  63  88 122 155 185 221 270
#
# _framework density 15.40929
#
# number of rings (size 3 to 8) (size 9 to 14) (size 15 to 20)
#    0.000    2.750    1.250    2.250    0.000    5.000 
#    0.000    1.875    0.000    1.500    0.000    0.875 
#    0.000    5.000    0.000    0.000    0.000    0.000 
#
# Total GULP energy -178295.448993 kJ/mol
# GULP energy per Si atom -5571.732781 kJ/mol
# Density = 1.537422 g / cm^3
# Si number density = 15.409290 Si / 1000 Ang^3
#
#
#
# Elastic Constant Matrix: (Units=GPa)
#
#
# Indices 1 2 3 4 5 6 
#
# 1 113.8678 22.9109 78.1344 0.0000 0.0000 0.0000
# 2 22.9109 9.3148 27.5382 0.0000 0.0000 0.0000
# 3 78.1344 27.5382 146.8061 0.0000 0.0000 0.0000
# 4 0.0000 0.0000 0.0000 19.4495 0.0000 0.0000
# 5 0.0000 0.0000 0.0000 0.0000 9.4725 0.0000
# 6 0.0000 0.0000 0.0000 0.0000 0.0000 14.2209
#
#
#
# Elastic Compliance Matrix: (Units=1/GPa)
#
#
# Indices 1 2 3 4 5 6 
#
# 1 0.017901 -0.035614 -0.002847 0.000000 0.000000 0.000000
# 2 -0.035614 0.311867 -0.039546 0.000000 0.000000 0.000000
# 3 -0.002847 -0.039546 0.015745 0.000000 0.000000 0.000000
# 4 0.000000 0.000000 0.000000 0.051415 0.000000 0.000000
# 5 0.000000 0.000000 0.000000 0.000000 0.105569 0.000000
# 6 0.000000 0.000000 0.000000 0.000000 0.000000 0.070319
#
#
# Mechanical properties :
#
#
# Convention : Reuss Voigt Hill
#
# Bulk Modulus (GPa) = 5.27704 58.57286 31.92495
# Shear Modulus (GPa) = 6.31315 18.05557 12.18436
#
# Velocity S-wave (km/s) = 2.02629 3.42677 2.81502
# Velocity P-wave (km/s) = 2.98438 7.33150 5.59721
#
# Compressibility (1/GPa) = 0.18950003
#
# Stress axis : x y z
#
# Youngs Moduli (GPa) = 55.86126 3.20649 63.51117
#
# Poissons Ratio (x) = 0.11419 0.18083
# Poissons Ratio (y) = 1.98942 2.51163
# Poissons Ratio (z) = 0.15905 0.12680
#
# Static dielectric constant tensor:
#      x y z
#    x 1.515570 0.000000 0.000000 
#    y 0.000000 1.522990 0.000000 
#    z 0.000000 0.000000 1.498500 
# 
# From -- ./inp_files/25051.got.cif
#   From: 2010.05.17/outbox.cif.g08.bks.cpg/sg38_13_cif.got.tgz:25051.got - 2010.06.03 18:07:57.
