data_PCOD9356215
_publ_section_title
;
Structure prediction by ZEFSAII (Michael W. Deem and Ramdas Pophale) SiO2 
 PCOD9356215
Probable space group: A M M 2
;
_chemical_formula_sum "Si O2"
_cell_formula_units_Z 64
_cell_length_a 15.112537
_cell_length_b 8.326814
_cell_length_c 25.323730
_cell_angle_alpha 90.000000
_cell_angle_beta 90.000000
_cell_angle_gamma 90.000000
_cell_volume 3186.720068
_symmetry_space_group_name_H-M "A M M 2"
_symmetry_group_IT_number 38
_symmetry_cell_setting 'orthorhombic'
loop_
_space_group_symop_operation_xyz
x,y,z
-x,-y,z
-x,y,z
x,-y,z
x,1/2+y,1/2+z
-x,1/2-y,1/2+z
-x,1/2+y,1/2+z
x,1/2-y,1/2+z
loop_
_atom_site_type_symbol
_atom_site_label
_atom_site_fract_x
_atom_site_fract_y
_atom_site_fract_z
Si Si1 0.398718 0.807394 0.516540
Si Si2 0.096214 0.308354 0.643903
Si Si3 0.154636 0.689948 0.761583
Si Si4 0.902273 0.194338 0.875052
Si Si5 0.342607 0.313715 0.233205
Si Si6 0.290604 0.693826 0.118424
Si Si7 0.401403 0.814288 0.337894
Si Si8 0.721869 0.685994 0.422487
O O1 0.500000 0.746278 0.512377
O O2 0.346062 0.747653 0.568270
O O3 0.338341 0.769795 0.466130
O O4 0.404479 0.000000 0.521080
O O5 0.098016 0.500000 0.635679
O O6 0.101792 0.282150 0.707317
O O7 0.187083 0.241408 0.619510
O O8 0.000000 0.246999 0.625120
O O9 0.177543 0.500000 0.763197
O O10 0.108583 0.736677 0.816039
O O11 0.242852 0.793954 0.754801
O O12 0.820460 0.250368 0.911178
O O13 0.000000 0.235702 0.895255
O O14 0.895893 0.000000 0.871432
O O15 0.369627 0.500000 0.233126
O O16 0.336092 0.251726 0.173301
O O17 0.398906 0.217300 0.275563
O O18 0.293134 0.500000 0.119337
O O19 0.500000 0.781722 0.358260
O O20 0.330901 0.705647 0.367648
O O21 0.379678 0.000000 0.348445
O O22 0.728926 0.500000 0.437182
#
# Coordination Sequence:
#
# PCOD9356215 Si02
#       8
#     8   8   8   8   8   8   8   8
#     4  10  22  42  65  85 108 143 188 240 295 347
#     4   9  18  32  51  80 118 156 192 230 277 332
#     4  10  18  30  51  79 114 154 194 232 274 331
#     4  10  21  36  54  79 113 151 189 231 282 338
#     4  10  19  33  54  82 116 152 188 230 283 340
#     4   9  20  37  58  84 113 146 190 238 287 339
#     4  11  23  37  55  82 116 153 188 228 285 346
#     4  11  23  39  60  85 114 147 188 238 286 338
#
# _framework density 20.083344
#
# number of rings (size 3 to 8) (size 9 to 14) (size 15 to 20)
#    0.000    2.000    1.250    2.250    0.000    6.250 
#    0.000    1.875    0.000    2.250    0.000    0.000 
#    0.000    0.000    0.000    0.000    0.000    0.000 
#
# Total GULP energy -178550.621159 kJ/mol
# GULP energy per Si atom -5579.706911 kJ/mol
# Density = 2.003763 g / cm^3
# Si number density = 20.083344 Si / 1000 Ang^3
#
#
#
# Elastic Constant Matrix: (Units=GPa)
#
#
# Indices 1 2 3 4 5 6 
#
# 1 135.4215 15.9622 62.2581 0.0000 0.0000 0.0000
# 2 15.9622 14.1312 5.4354 0.0000 0.0000 0.0000
# 3 62.2581 5.4354 102.0164 0.0000 0.0000 0.0000
# 4 0.0000 0.0000 0.0000 24.0273 0.0000 0.0000
# 5 0.0000 0.0000 0.0000 0.0000 13.5926 0.0000
# 6 0.0000 0.0000 0.0000 0.0000 0.0000 14.8113
#
#
#
# Elastic Compliance Matrix: (Units=1/GPa)
#
#
# Indices 1 2 3 4 5 6 
#
# 1 0.011645 -0.010638 -0.006540 0.000000 0.000000 0.000000
# 2 -0.010638 0.081964 0.002125 0.000000 0.000000 0.000000
# 3 -0.006540 0.002125 0.013680 0.000000 0.000000 0.000000
# 4 0.000000 0.000000 0.000000 0.041619 0.000000 0.000000
# 5 0.000000 0.000000 0.000000 0.000000 0.073569 0.000000
# 6 0.000000 0.000000 0.000000 0.000000 0.000000 0.067516
#
#
# Mechanical properties :
#
#
# Convention : Reuss Voigt Hill
#
# Bulk Modulus (GPa) = 12.95608 46.54228 29.74918
# Shear Modulus (GPa) = 14.45807 21.68046 18.06927
#
# Velocity S-wave (km/s) = 2.68601 3.28918 3.00278
# Velocity P-wave (km/s) = 4.01057 6.13594 5.18336
#
# Compressibility (1/GPa) = 0.07718384
#
# Stress axis : x y z
#
# Youngs Moduli (GPa) = 85.87494 12.20042 73.09845
#
# Poissons Ratio (x) = 0.12979 0.47805
# Poissons Ratio (y) = 0.91355 -0.15535
# Poissons Ratio (z) = 0.56160 -0.02593
#
# Static dielectric constant tensor:
#      x y z
#    x 1.734680 0.000000 0.000000 
#    y 0.000000 1.694650 0.000000 
#    z 0.000000 0.000000 1.713370 
# 
# From -- ./inp_files/22986.got.cif
#   From: 2010.05.17/outbox.cif.g08.bks.cpg/sg38_12_cif.got.tgz:22986.got - 2010.06.03 18:07:57.
