data_PCOD9356949
_publ_section_title
;
Structure prediction by ZEFSAII (Michael W. Deem and Ramdas Pophale) SiO2 
 PCOD9356949
Probable space group: A M M 2
;
_chemical_formula_sum "Si O2"
_cell_formula_units_Z 56
_cell_length_a 7.701137
_cell_length_b 14.795210
_cell_length_c 23.550284
_cell_angle_alpha 90.000000
_cell_angle_beta 90.000000
_cell_angle_gamma 90.000000
_cell_volume 2683.317926
_symmetry_space_group_name_H-M "A M M 2"
_symmetry_group_IT_number 38
_symmetry_cell_setting 'orthorhombic'
loop_
_space_group_symop_operation_xyz
x,y,z
-x,-y,z
-x,y,z
x,-y,z
x,1/2+y,1/2+z
-x,1/2-y,1/2+z
-x,1/2+y,1/2+z
x,1/2-y,1/2+z
loop_
_atom_site_type_symbol
_atom_site_label
_atom_site_fract_x
_atom_site_fract_y
_atom_site_fract_z
Si Si1 0.208996 0.101678 0.104780
Si Si2 0.709228 0.101943 0.410248
Si Si3 0.292206 0.288398 0.147372
Si Si4 0.788898 0.395341 0.476684
Si Si5 0.293624 0.102137 0.755675
Si Si6 0.711137 0.604532 0.038537
Si Si7 0.795053 0.210820 0.867909
O O1 0.258443 0.181822 0.146579
O O2 0.000000 0.098625 0.102528
O O3 0.269491 0.000000 0.118659
O O4 0.272120 0.124927 0.040683
O O5 0.500000 0.099541 0.411959
O O6 0.771688 0.124614 0.474485
O O7 0.761049 0.182431 0.368952
O O8 0.768578 0.000000 0.396355
O O9 0.500000 0.300270 0.146464
O O10 0.223093 0.342068 0.201851
O O11 0.223733 0.331437 0.088555
O O12 0.745821 0.500000 0.464320
O O13 0.722474 0.331839 0.426495
O O14 0.000000 0.389422 0.477982
O O15 0.500000 0.094105 0.746761
O O16 0.270592 0.157991 0.813243
O O17 0.222817 0.000000 0.759799
O O18 0.500000 0.609903 0.037354
O O19 0.754508 0.500000 0.051123
O O20 0.000000 0.196346 0.868933
#
# Coordination Sequence:
#
# PCOD9356949 Si02
#       7
#     8   8   8   8   8   8   8
#     4   9  18  33  52  74 103 137 168 201 248 306
#     4   9  18  33  53  77 106 138 170 207 254 308
#     4  10  19  32  53  78 102 131 169 212 254 296
#     4   8  15  29  49  74 104 136 167 201 249 307
#     4  10  22  39  56  75 102 136 172 209 251 302
#     4   8  14  27  50  79 107 134 165 203 250 304
#     4  11  21  33  53  78 104 136 174 216 258 300
#
# _framework density 20.869683999999999
#
# number of rings (size 3 to 8) (size 9 to 14) (size 15 to 20)
#    0.000    2.714    0.000    3.857    0.000    3.714 
#    0.000    1.429    0.000    4.714    0.000    0.000 
#    0.000    0.000    0.000    0.000    0.000    0.000 
#
# Total GULP energy -156270.397637 kJ/mol
# GULP energy per Si atom -5581.085630 kJ/mol
# Density = 2.082218 g / cm^3
# Si number density = 20.869684 Si / 1000 Ang^3
#
#
#
# Elastic Constant Matrix: (Units=GPa)
#
#
# Indices 1 2 3 4 5 6 
#
# 1 34.8167 -0.5072 4.4038 0.0000 0.0000 0.0000
# 2 -0.5072 167.8808 100.3975 0.0000 0.0000 0.0000
# 3 4.4038 100.3975 82.1196 0.0000 0.0000 0.0000
# 4 0.0000 0.0000 0.0000 26.8639 0.0000 0.0000
# 5 0.0000 0.0000 0.0000 0.0000 11.6972 0.0000
# 6 0.0000 0.0000 0.0000 0.0000 0.0000 52.0390
#
#
#
# Elastic Compliance Matrix: (Units=1/GPa)
#
#
# Indices 1 2 3 4 5 6 
#
# 1 0.029576 0.003860 -0.006305 0.000000 0.000000 0.000000
# 2 0.003860 0.022658 -0.027909 0.000000 0.000000 0.000000
# 3 -0.006305 -0.027909 0.046636 0.000000 0.000000 0.000000
# 4 0.000000 0.000000 0.000000 0.037225 0.000000 0.000000
# 5 0.000000 0.000000 0.000000 0.000000 0.085490 0.000000
# 6 0.000000 0.000000 0.000000 0.000000 0.000000 0.019216
#
#
# Mechanical properties :
#
#
# Convention : Reuss Voigt Hill
#
# Bulk Modulus (GPa) = 26.20394 54.82283 40.51338
# Shear Modulus (GPa) = 15.91192 30.15491 23.03342
#
# Velocity S-wave (km/s) = 2.76423 3.80533 3.32577
# Velocity P-wave (km/s) = 4.77192 6.75526 5.84828
#
# Compressibility (1/GPa) = 0.03816219
#
# Stress axis : x y z
#
# Youngs Moduli (GPa) = 33.81167 44.13364 21.44268
#
# Poissons Ratio (x) = -0.17036 0.13520
# Poissons Ratio (y) = -0.13052 0.59844
# Poissons Ratio (z) = 0.21319 1.23171
#
# Static dielectric constant tensor:
#      x y z
#    x 1.782900 0.000000 0.000000 
#    y 0.000000 1.751260 0.000000 
#    z 0.000000 0.000000 1.738420 
# 
# From -- ./inp_files/19817.got.cif
#   From: 2010.05.17/outbox.cif.g08.bks.cpg/sg38_10_cif.got.tgz:19817.got - 2010.06.03 18:07:57.
