data_PCOD9356551
_publ_section_title
;
Structure prediction by ZEFSAII (Michael W. Deem and Ramdas Pophale) SiO2 
 PCOD9356551
Probable space group: A M M 2
;
_chemical_formula_sum "Si O2"
_cell_formula_units_Z 48
_cell_length_a 7.699353
_cell_length_b 14.334582
_cell_length_c 24.599204
_cell_angle_alpha 90.000000
_cell_angle_beta 90.000000
_cell_angle_gamma 90.000000
_cell_volume 2714.940518
_symmetry_space_group_name_H-M "A M M 2"
_symmetry_group_IT_number 38
_symmetry_cell_setting 'orthorhombic'
loop_
_space_group_symop_operation_xyz
x,y,z
-x,-y,z
-x,y,z
x,-y,z
x,1/2+y,1/2+z
-x,1/2-y,1/2+z
-x,1/2+y,1/2+z
x,1/2-y,1/2+z
loop_
_atom_site_type_symbol
_atom_site_label
_atom_site_fract_x
_atom_site_fract_y
_atom_site_fract_z
Si Si1 0.204640 0.396695 0.943000
Si Si2 0.705385 0.291730 0.049638
Si Si3 0.707875 0.103760 0.996959
Si Si4 0.790559 0.606671 0.158730
Si Si5 0.211926 0.107784 0.780781
Si Si6 0.789752 0.209671 0.887880
O O1 0.279931 0.500000 0.935344
O O2 0.276420 0.311135 0.907122
O O3 0.000000 0.402088 0.930529
O O4 0.219746 0.363894 0.005548
O O5 0.500000 0.290798 0.039771
O O6 0.736966 0.325771 0.110413
O O7 0.774035 0.188447 0.034775
O O8 0.500000 0.099288 0.004267
O O9 0.742603 0.137071 0.935408
O O10 0.778411 0.000000 0.006775
O O11 0.731386 0.500000 0.148076
O O12 0.732341 0.633388 0.219614
O O13 0.000000 0.604719 0.159483
O O14 0.272243 0.173382 0.829598
O O15 0.000000 0.109586 0.781114
O O16 0.262297 0.000000 0.790647
O O17 0.000000 0.213748 0.886361
#
# Coordination Sequence:
#
# PCOD9356551 Si02
#       6
#     8   8   8   8   8   8
#     4   9  17  28  42  62  88 115 139 165 203 248
#     4  10  19  29  43  63  84 108 140 175 207 241
#     4   9  18  31  44  60  85 113 136 164 209 256
#     4   9  17  29  44  61  84 114 141 166 204 251
#     4   8  14  25  42  63  84 107 136 169 206 246
#     4   9  16  27  45  66  85 108 140 173 201 238
#
# _framework density 17.679945
#
# number of rings (size 3 to 8) (size 9 to 14) (size 15 to 20)
#    0.000    3.000    0.000    2.500    0.000    4.333 
#    0.000    0.833    0.000    2.000    0.000    2.333 
#    0.000    0.000    0.000    0.000    0.000    0.000 
#
# Total GULP energy -133746.985435 kJ/mol
# GULP energy per Si atom -5572.791060 kJ/mol
# Density = 1.763970 g / cm^3
# Si number density = 17.679945 Si / 1000 Ang^3
#
#
#
# Elastic Constant Matrix: (Units=GPa)
#
#
# Indices 1 2 3 4 5 6 
#
# 1 27.6646 1.8398 -6.2775 0.0000 0.0000 0.0000
# 2 1.8398 134.8195 81.0089 0.0000 0.0000 0.0000
# 3 -6.2775 81.0089 135.1372 0.0000 0.0000 0.0000
# 4 0.0000 0.0000 0.0000 21.8093 0.0000 0.0000
# 5 0.0000 0.0000 0.0000 0.0000 -43.6009 0.0000
# 6 0.0000 0.0000 0.0000 0.0000 0.0000 11.3537
#
#
#
# Elastic Compliance Matrix: (Units=1/GPa)
#
#
# Indices 1 2 3 4 5 6 
#
# 1 0.037025 -0.002405 0.003162 0.000000 0.000000 0.000000
# 2 -0.002405 0.011749 -0.007155 0.000000 0.000000 0.000000
# 3 0.003162 -0.007155 0.011836 0.000000 0.000000 0.000000
# 4 0.000000 0.000000 0.000000 0.045852 0.000000 0.000000
# 5 0.000000 0.000000 0.000000 0.000000 -0.022935 0.000000
# 6 0.000000 0.000000 0.000000 0.000000 0.000000 0.088077
#
#
# Mechanical properties :
#
#
# Convention : Reuss Voigt Hill
#
# Bulk Modulus (GPa) = 20.91474 50.08486 35.49980
# Shear Modulus (GPa) = 24.95789 12.64910 18.80349
#
# Velocity S-wave (km/s) = 3.76127 2.67769 3.26475
# Velocity P-wave (km/s) = 5.54240 6.16037 5.85954
#
# Compressibility (1/GPa) = 0.04781316
#
# Stress axis : x y z
#
# Youngs Moduli (GPa) = 27.00903 85.11137 84.48936
#
# Poissons Ratio (x) = 0.20469 -0.26712
# Poissons Ratio (y) = 0.06496 0.60451
# Poissons Ratio (z) = -0.08539 0.60896
#
# Static dielectric constant tensor:
#      x y z
#    x 1.657310 0.000000 0.000000 
#    y 0.000000 1.625860 0.000000 
#    z 0.000000 0.000000 1.583920 
# 
# From -- ./inp_files/19632.got.cif
#   From: 2010.05.17/outbox.cif.g08.bks.cpg/sg38_10_cif.got.tgz:19632.got - 2010.06.03 18:07:57.
