data_PCOD9356261
_publ_section_title
;
Structure prediction by ZEFSAII (Michael W. Deem and Ramdas Pophale) SiO2 
 PCOD9356261
Probable space group: A M M 2
;
_chemical_formula_sum "Si O2"
_cell_formula_units_Z 64
_cell_length_a 8.899326
_cell_length_b 31.005353
_cell_length_c 14.676069
_cell_angle_alpha 90.000000
_cell_angle_beta 90.000000
_cell_angle_gamma 90.000000
_cell_volume 4049.519935
_symmetry_space_group_name_H-M "A M M 2"
_symmetry_group_IT_number 38
_symmetry_cell_setting 'orthorhombic'
loop_
_space_group_symop_operation_xyz
x,y,z
-x,-y,z
-x,y,z
x,-y,z
x,1/2+y,1/2+z
-x,1/2-y,1/2+z
-x,1/2+y,1/2+z
x,1/2-y,1/2+z
loop_
_atom_site_type_symbol
_atom_site_label
_atom_site_fract_x
_atom_site_fract_y
_atom_site_fract_z
Si Si1 0.319368 0.290069 0.125000
Si Si2 0.682845 0.048571 0.230393
Si Si3 0.325575 0.276791 0.334563
Si Si4 0.177736 0.292832 0.522261
Si Si5 0.823787 0.133556 0.511903
Si Si6 0.319147 0.049718 0.442708
Si Si7 0.330642 0.826328 0.344264
Si Si8 0.676755 0.865236 0.142671
O O1 0.500000 0.287978 0.118259
O O2 0.277776 0.287744 0.231754
O O3 0.254345 0.248752 0.070791
O O4 0.258889 0.333954 0.080660
O O5 0.500000 0.049346 0.229465
O O6 0.723879 0.057373 0.336119
O O7 0.731928 0.086152 0.162217
O O8 0.731256 0.000000 0.207393
O O9 0.500000 0.290111 0.345888
O O10 0.228597 0.294723 0.417294
O O11 0.320915 0.225015 0.343566
O O12 0.232777 0.335762 0.573462
O O13 0.000000 0.287817 0.529403
O O14 0.756937 0.085493 0.505467
O O15 0.788542 0.153892 0.412696
O O16 0.000000 0.132887 0.530264
O O17 0.500000 0.053592 0.447890
O O18 0.280109 0.000000 0.464000
O O19 0.500000 0.838850 0.375862
O O20 0.314677 0.842933 0.241937
O O21 0.500000 0.865876 0.116535
#
# Coordination Sequence:
#
# PCOD9356261 Si02
#       8
#     8   8   8   8   8   8   8   8
#     4  11  22  38  56  72  95 132 178 215 247 296
#     4   8  14  26  48  76 100 127 170 217 251 284
#     4  10  21  37  55  71  94 133 178 218 249 287
#     4  12  24  34  49  75 106 134 165 208 258 308
#     4  12  23  32  47  76 109 139 168 205 259 310
#     4   9  17  32  53  74  99 135 176 212 248 296
#     4  10  18  31  51  72  98 136 178 212 242 288
#     4  10  18  32  52  72  99 137 176 208 246 295
#
# _framework density 15.804342
#
# number of rings (size 3 to 8) (size 9 to 14) (size 15 to 20)
#    0.000    1.750    3.750    3.375    0.000    1.750 
#    0.000    0.000    0.000    0.375    0.000    0.875 
#    0.000    3.000    0.000    0.000    0.000    0.000 
#
# Total GULP energy -178555.250493 kJ/mol
# GULP energy per Si atom -5579.851578 kJ/mol
# Density = 1.576837 g / cm^3
# Si number density = 15.804342 Si / 1000 Ang^3
#
#
#
# Elastic Constant Matrix: (Units=GPa)
#
#
# Indices 1 2 3 4 5 6 
#
# 1 63.7745 40.1096 44.6363 0.0000 0.0000 0.0000
# 2 40.1096 114.9962 51.9291 0.0000 0.0000 0.0000
# 3 44.6363 51.9291 84.6981 0.0000 0.0000 0.0000
# 4 0.0000 0.0000 0.0000 23.5617 0.0000 0.0000
# 5 0.0000 0.0000 0.0000 0.0000 -24.0466 0.0000
# 6 0.0000 0.0000 0.0000 0.0000 0.0000 7.4037
#
#
#
# Elastic Compliance Matrix: (Units=1/GPa)
#
#
# Indices 1 2 3 4 5 6 
#
# 1 0.026111 -0.004001 -0.011307 0.000000 0.000000 0.000000
# 2 -0.004001 0.012638 -0.005640 0.000000 0.000000 0.000000
# 3 -0.011307 -0.005640 0.021224 0.000000 0.000000 0.000000
# 4 0.000000 0.000000 0.000000 0.042442 0.000000 0.000000
# 5 0.000000 0.000000 0.000000 0.000000 -0.041586 0.000000
# 6 0.000000 0.000000 0.000000 0.000000 0.000000 0.135068
#
#
# Mechanical properties :
#
#
# Convention : Reuss Voigt Hill
#
# Bulk Modulus (GPa) = 55.32300 59.64655 57.48477
# Shear Modulus (GPa) = 20.50702 9.83668 15.17185
#
# Velocity S-wave (km/s) = 3.60607 2.49751 3.10172
# Velocity P-wave (km/s) = 7.24011 6.79259 7.01992
#
# Compressibility (1/GPa) = 0.01807567
#
# Stress axis : x y z
#
# Youngs Moduli (GPa) = 38.29832 79.12388 47.11712
#
# Poissons Ratio (x) = 0.31658 0.53277
# Poissons Ratio (y) = 0.15324 0.26575
# Poissons Ratio (z) = 0.43305 0.44627
#
# Static dielectric constant tensor:
#      x y z
#    x 1.541750 0.000000 0.000000 
#    y 0.000000 1.544570 0.000000 
#    z 0.000000 0.000000 1.512080 
# 
# From -- ./inp_files/13070.got.cif
#   From: 2010.05.17/outbox.cif.g08.bks.cpg/sg38_7_cif.got.tgz:13070.got - 2010.06.03 18:07:57.
