data_PCOD9356185
_publ_section_title
;
Structure prediction by ZEFSAII (Michael W. Deem and Ramdas Pophale) SiO2 
 PCOD9356185
Probable space group: A M M 2
;
_chemical_formula_sum "Si O2"
_cell_formula_units_Z 56
_cell_length_a 16.111658
_cell_length_b 7.743979
_cell_length_c 20.967254
_cell_angle_alpha 90.000000
_cell_angle_beta 90.000000
_cell_angle_gamma 90.000000
_cell_volume 2616.049501
_symmetry_space_group_name_H-M "A M M 2"
_symmetry_group_IT_number 38
_symmetry_cell_setting 'orthorhombic'
loop_
_space_group_symop_operation_xyz
x,y,z
-x,-y,z
-x,y,z
x,-y,z
x,1/2+y,1/2+z
-x,1/2-y,1/2+z
-x,1/2+y,1/2+z
x,1/2-y,1/2+z
loop_
_atom_site_type_symbol
_atom_site_label
_atom_site_fract_x
_atom_site_fract_y
_atom_site_fract_z
Si Si1 0.267671 0.792655 0.008820
Si Si2 0.090775 0.201231 0.688310
Si Si3 0.864834 0.792217 0.330447
Si Si4 0.680890 0.792812 0.371845
Si Si5 0.274738 0.295338 0.647484
Si Si6 0.407950 0.711726 0.749587
Si Si7 0.912556 0.705620 0.470783
O O1 0.296692 0.726408 0.077298
O O2 0.261526 0.000000 0.013329
O O3 0.320870 0.757825 0.945696
O O4 0.174159 0.722985 0.996741
O O5 0.099836 0.220354 0.764863
O O6 0.176358 0.274789 0.660164
O O7 0.000000 0.275767 0.669740
O O8 0.090302 0.000000 0.671931
O O9 0.769538 0.736732 0.342269
O O10 0.909829 0.735438 0.394836
O O11 0.867568 0.000000 0.325773
O O12 0.611874 0.733385 0.322071
O O13 0.681620 0.000000 0.371138
O O14 0.290021 0.500000 0.647137
O O15 0.334327 0.226450 0.703112
O O16 0.500000 0.765237 0.729527
O O17 0.406573 0.500000 0.749547
O O18 0.911949 0.500000 0.482319
O O19 0.000000 0.776262 0.496194
#
# Coordination Sequence:
#
# PCOD9356185 Si02
#       7
#     8   8   8   8   8   8   8
#     4   9  19  33  52  76 106 143 177 217 271 320
#     4  11  23  35  49  74 109 148 184 222 275 328
#     4  10  18  30  49  74 102 134 178 228 271 314
#     4   9  17  32  54  79 105 135 176 220 264 319
#     4  10  20  37  57  80 109 144 187 229 269 321
#     4   9  17  33  59  86 109 138 180 227 274 325
#     4   9  17  29  44  66  99 138 179 219 266 321
#
# _framework density 21.406320999999998
#
# number of rings (size 3 to 8) (size 9 to 14) (size 15 to 20)
#    0.000    2.429    1.429    1.286    0.000    4.857 
#    0.000    2.143    0.000    2.571    0.000    0.000 
#    0.000    0.000    0.000    0.000    0.000    0.000 
#
# Total GULP energy -156192.327808 kJ/mol
# GULP energy per Si atom -5578.297422 kJ/mol
# Density = 2.135760 g / cm^3
# Si number density = 21.406321 Si / 1000 Ang^3
#
#
#
# Elastic Constant Matrix: (Units=GPa)
#
#
# Indices 1 2 3 4 5 6 
#
# 1 96.4847 2.6976 56.3810 0.0000 0.0000 0.0000
# 2 2.6976 28.6658 -0.9786 0.0000 0.0000 0.0000
# 3 56.3810 -0.9786 139.9059 0.0000 0.0000 0.0000
# 4 0.0000 0.0000 0.0000 13.7112 0.0000 0.0000
# 5 0.0000 0.0000 0.0000 0.0000 1.5939 0.0000
# 6 0.0000 0.0000 0.0000 0.0000 0.0000 1.8131
#
#
#
# Elastic Compliance Matrix: (Units=1/GPa)
#
#
# Indices 1 2 3 4 5 6 
#
# 1 0.013618 -0.001469 -0.005498 0.000000 0.000000 0.000000
# 2 -0.001469 0.035052 0.000837 0.000000 0.000000 0.000000
# 3 -0.005498 0.000837 0.009369 0.000000 0.000000 0.000000
# 4 0.000000 0.000000 0.000000 0.072933 0.000000 0.000000
# 5 0.000000 0.000000 0.000000 0.000000 0.627398 0.000000
# 6 0.000000 0.000000 0.000000 0.000000 0.000000 0.551550
#
#
# Mechanical properties :
#
#
# Convention : Reuss Voigt Hill
#
# Bulk Modulus (GPa) = 21.84427 42.36184 32.10305
# Shear Modulus (GPa) = 3.73849 17.22071 10.47960
#
# Velocity S-wave (km/s) = 1.32296 2.83939 2.21499
# Velocity P-wave (km/s) = 3.54406 5.53009 4.64447
#
# Compressibility (1/GPa) = 0.04577859
#
# Stress axis : x y z
#
# Youngs Moduli (GPa) = 73.42995 28.52934 106.73118
#
# Poissons Ratio (x) = 0.04192 0.58685
# Poissons Ratio (y) = 0.10789 -0.08936
# Poissons Ratio (z) = 0.40375 -0.02389
#
# Static dielectric constant tensor:
#      x y z
#    x 1.796090 0.000000 0.000000 
#    y 0.000000 1.789110 0.000000 
#    z 0.000000 0.000000 1.783970 
# 
# From -- ./inp_files/21080.got.cif
#   From: 2010.05.17/outbox.cif.g08.bks.cpg/sg38_11_cif.got.tgz:21080.got - 2010.06.03 18:07:57.
