data_PCOD9356568
_publ_section_title
;
Structure prediction by ZEFSAII (Michael W. Deem and Ramdas Pophale) SiO2 
 PCOD9356568
Probable space group: A M M 2
;
_chemical_formula_sum "Si O2"
_cell_formula_units_Z 56
_cell_length_a 8.744716
_cell_length_b 19.014847
_cell_length_c 21.408668
_cell_angle_alpha 90.000000
_cell_angle_beta 90.000000
_cell_angle_gamma 90.000000
_cell_volume 3559.821258
_symmetry_space_group_name_H-M "A M M 2"
_symmetry_group_IT_number 38
_symmetry_cell_setting 'orthorhombic'
loop_
_space_group_symop_operation_xyz
x,y,z
-x,-y,z
-x,y,z
x,-y,z
x,1/2+y,1/2+z
-x,1/2-y,1/2+z
-x,1/2+y,1/2+z
x,1/2-y,1/2+z
loop_
_atom_site_type_symbol
_atom_site_label
_atom_site_fract_x
_atom_site_fract_y
_atom_site_fract_z
Si Si1 0.818303 0.345083 0.688630
Si Si2 0.685957 0.080825 0.311179
Si Si3 0.684420 0.417835 0.567111
Si Si4 0.816920 0.419304 0.307802
Si Si5 0.324305 0.287961 0.880422
Si Si6 0.324360 0.788963 0.744763
Si Si7 0.685993 0.352841 0.433526
O O1 0.747587 0.391742 0.744850
O O2 0.759475 0.375542 0.623468
O O3 0.762420 0.265247 0.700171
O O4 0.000000 0.348345 0.692458
O O5 0.500000 0.085532 0.309083
O O6 0.742298 0.135593 0.364352
O O7 0.728046 0.000000 0.321847
O O8 0.500000 0.413162 0.572908
O O9 0.726590 0.500000 0.570372
O O10 0.726725 0.386342 0.499665
O O11 0.774796 0.500000 0.294636
O O12 0.751940 0.363947 0.257695
O O13 0.751182 0.396798 0.375425
O O14 0.000000 0.413469 0.309677
O O15 0.500000 0.299285 0.900230
O O16 0.324788 0.249260 0.812827
O O17 0.258481 0.228152 0.925713
O O18 0.500000 0.796617 0.725201
O O19 0.500000 0.352740 0.427912
#
# Coordination Sequence:
#
# PCOD9356568 Si02
#       7
#     8   8   8   8   8   8   8
#     4  11  21  31  44  63  89 118 149 188 234 278
#     4   9  16  27  44  65  90 119 148 179 220 273
#     4  10  20  32  45  62  86 120 162 199 227 263
#     4  10  19  29  44  70 101 125 146 181 229 273
#     4   7  12  24  42  63  83 106 141 184 224 258
#     4   9  17  31  49  65  85 116 153 188 222 267
#     4   9  17  30  47  64  86 121 163 197 223 261
#
# _framework density 15.731127000000001
#
# number of rings (size 3 to 8) (size 9 to 14) (size 15 to 20)
#    0.000    2.714    0.000    4.714    0.000    4.571 
#    0.000    0.000    0.000    0.000    0.000    1.000 
#    0.000    3.429    0.000    0.000    0.000    0.000 
#
# Total GULP energy -155951.466479 kJ/mol
# GULP energy per Si atom -5569.695231 kJ/mol
# Density = 1.569532 g / cm^3
# Si number density = 15.731127 Si / 1000 Ang^3
#
#
#
# Elastic Constant Matrix: (Units=GPa)
#
#
# Indices 1 2 3 4 5 6 
#
# 1 35.4037 42.3335 24.6840 0.0000 0.0000 0.0000
# 2 42.3335 168.1056 61.7800 0.0000 0.0000 0.0000
# 3 24.6840 61.7800 64.9370 0.0000 0.0000 0.0000
# 4 0.0000 0.0000 0.0000 25.7751 0.0000 0.0000
# 5 0.0000 0.0000 0.0000 0.0000 7.3030 0.0000
# 6 0.0000 0.0000 0.0000 0.0000 0.0000 19.4460
#
#
#
# Elastic Compliance Matrix: (Units=1/GPa)
#
#
# Indices 1 2 3 4 5 6 
#
# 1 0.043916 -0.007572 -0.009490 0.000000 0.000000 0.000000
# 2 -0.007572 0.010452 -0.007066 0.000000 0.000000 0.000000
# 3 -0.009490 -0.007066 0.025729 0.000000 0.000000 0.000000
# 4 0.000000 0.000000 0.000000 0.038797 0.000000 0.000000
# 5 0.000000 0.000000 0.000000 0.000000 0.136931 0.000000
# 6 0.000000 0.000000 0.000000 0.000000 0.000000 0.051424
#
#
# Mechanical properties :
#
#
# Convention : Reuss Voigt Hill
#
# Bulk Modulus (GPa) = 31.40466 58.44903 44.92685
# Shear Modulus (GPa) = 13.65680 19.81474 16.73577
#
# Velocity S-wave (km/s) = 2.94962 3.55292 3.26523
# Velocity P-wave (km/s) = 5.62201 7.35300 6.54499
#
# Compressibility (1/GPa) = 0.03184240
#
# Stress axis : x y z
#
# Youngs Moduli (GPa) = 22.77090 95.67450 38.86633
#
# Poissons Ratio (x) = 0.72440 0.36884
# Poissons Ratio (y) = 0.17241 0.27462
# Poissons Ratio (z) = 0.21609 0.67602
#
# Static dielectric constant tensor:
#      x y z
#    x 1.532470 0.000000 0.000000 
#    y 0.000000 1.558050 0.000000 
#    z 0.000000 0.000000 1.497230 
# 
# From -- ./inp_files/19980.got.cif
#   From: 2010.05.17/outbox.cif.g08.bks.cpg/sg38_10_cif.got.tgz:19980.got - 2010.06.03 18:07:57.
