data_PCOD9356433
_publ_section_title
;
Structure prediction by ZEFSAII (Michael W. Deem and Ramdas Pophale) SiO2 
 PCOD9356433
Probable space group: A M M 2
;
_chemical_formula_sum "Si O2"
_cell_formula_units_Z 48
_cell_length_a 14.573242
_cell_length_b 7.874118
_cell_length_c 20.877355
_cell_angle_alpha 90.000000
_cell_angle_beta 90.000000
_cell_angle_gamma 90.000000
_cell_volume 2395.706281
_symmetry_space_group_name_H-M "A M M 2"
_symmetry_group_IT_number 38
_symmetry_cell_setting 'orthorhombic'
loop_
_space_group_symop_operation_xyz
x,y,z
-x,-y,z
-x,y,z
x,-y,z
x,1/2+y,1/2+z
-x,1/2-y,1/2+z
-x,1/2+y,1/2+z
x,1/2-y,1/2+z
loop_
_atom_site_type_symbol
_atom_site_label
_atom_site_fract_x
_atom_site_fract_y
_atom_site_fract_z
Si Si1 0.500000 0.798353 0.407920
Si Si2 0.698878 0.794938 0.858171
Si Si3 0.000000 0.705139 0.532582
Si Si4 0.803705 0.800316 0.732863
Si Si5 0.500000 0.203742 0.556130
Si Si6 0.000000 0.294813 0.183074
Si Si7 0.305003 0.798685 0.108560
Si Si8 0.194280 0.707650 0.483867
O O1 0.407306 0.748238 0.370872
O O2 0.500000 0.731071 0.481914
O O3 0.500000 0.000000 0.413222
O O4 0.748146 0.729646 0.793818
O O5 0.702615 0.000000 0.856723
O O6 0.757229 0.734176 0.919320
O O7 0.000000 0.753611 0.607393
O O8 0.090894 0.764255 0.496333
O O9 0.000000 0.500000 0.531307
O O10 0.739025 0.782761 0.671054
O O11 0.905152 0.730600 0.715308
O O12 0.818152 0.000000 0.745797
O O13 0.410620 0.263256 0.594178
O O14 0.500000 0.000000 0.553860
O O15 0.000000 0.500000 0.187636
O O16 0.251961 0.737306 0.045432
O O17 0.290332 0.000000 0.114560
O O18 0.195090 0.500000 0.482610
#
# Coordination Sequence:
#
# PCOD9356433 Si02
#       8
#     4   8   4   8   4   4   8   8
#     4  11  23  38  59  86 113 147 187 238 295 344
#     4  10  21  39  60  83 115 154 192 234 285 346
#     4  10  18  33  57  87 115 147 192 240 285 331
#     4  10  22  38  58  85 119 157 192 234 289 344
#     4  11  23  38  59  88 119 151 189 238 293 348
#     4  10  20  35  55  83 117 153 192 232 285 347
#     4  11  21  36  60  87 114 148 193 241 283 335
#     4   9  18  32  56  86 111 142 190 238 278 327
#
# _framework density 20.035845999999999
#
# number of rings (size 3 to 8) (size 9 to 14) (size 15 to 20)
#    0.000    1.833    3.333    1.000    0.000    2.667 
#    0.000    5.000    0.000    0.000    0.000    2.333 
#    0.000    0.000    0.000    0.000    0.000    0.000 
#
# Total GULP energy -133999.004908 kJ/mol
# GULP energy per Si atom -5583.291871 kJ/mol
# Density = 1.999024 g / cm^3
# Si number density = 20.035846 Si / 1000 Ang^3
#
#
#
# Elastic Constant Matrix: (Units=GPa)
#
#
# Indices 1 2 3 4 5 6 
#
# 1 220.8943 -3.9523 105.1033 0.0000 0.0000 0.0000
# 2 -3.9523 23.9394 -1.0189 0.0000 0.0000 0.0000
# 3 105.1033 -1.0189 167.2438 0.0000 0.0000 0.0000
# 4 0.0000 0.0000 0.0000 20.4446 0.0000 0.0000
# 5 0.0000 0.0000 0.0000 0.0000 31.0153 0.0000
# 6 0.0000 0.0000 0.0000 0.0000 0.0000 6.6863
#
#
#
# Elastic Compliance Matrix: (Units=1/GPa)
#
#
# Indices 1 2 3 4 5 6 
#
# 1 0.006477 0.000896 -0.004065 0.000000 0.000000 0.000000
# 2 0.000896 0.041907 -0.000308 0.000000 0.000000 0.000000
# 3 -0.004065 -0.000308 0.008532 0.000000 0.000000 0.000000
# 4 0.000000 0.000000 0.000000 0.048913 0.000000 0.000000
# 5 0.000000 0.000000 0.000000 0.000000 0.032242 0.000000
# 6 0.000000 0.000000 0.000000 0.000000 0.000000 0.149560
#
#
# Mechanical properties :
#
#
# Convention : Reuss Voigt Hill
#
# Bulk Modulus (GPa) = 20.01484 68.03798 44.02641
# Shear Modulus (GPa) = 16.06478 32.42559 24.24519
#
# Velocity S-wave (km/s) = 2.83468 4.02727 3.48241
# Velocity P-wave (km/s) = 4.55248 7.46037 6.17989
#
# Compressibility (1/GPa) = 0.04996293
#
# Stress axis : x y z
#
# Youngs Moduli (GPa) = 154.38451 23.86231 117.20367
#
# Poissons Ratio (x) = -0.02139 0.47645
# Poissons Ratio (y) = -0.13838 0.03610
# Poissons Ratio (z) = 0.62760 0.00735
#
# Static dielectric constant tensor:
#      x y z
#    x 1.886060 0.000000 0.000000 
#    y 0.000000 1.730670 0.000000 
#    z 0.000000 0.000000 1.682130 
# 
# From -- ./inp_files/18244.got.cif
#   From: 2010.05.17/outbox.cif.g08.bks.cpg/sg38_10_cif.got.tgz:18244.got - 2010.06.03 18:07:57.
