data_PCOD9356139
_publ_section_title
;
Structure prediction by ZEFSAII (Michael W. Deem and Ramdas Pophale) SiO2 
 PCOD9356139
Probable space group: A M M 2
;
_chemical_formula_sum "Si O2"
_cell_formula_units_Z 56
_cell_length_a 20.823208
_cell_length_b 7.749453
_cell_length_c 15.740073
_cell_angle_alpha 90.000000
_cell_angle_beta 90.000000
_cell_angle_gamma 90.000000
_cell_volume 2539.951525
_symmetry_space_group_name_H-M "A M M 2"
_symmetry_group_IT_number 38
_symmetry_cell_setting 'orthorhombic'
loop_
_space_group_symop_operation_xyz
x,y,z
-x,-y,z
-x,y,z
x,-y,z
x,1/2+y,1/2+z
-x,1/2-y,1/2+z
-x,1/2+y,1/2+z
x,1/2-y,1/2+z
loop_
_atom_site_type_symbol
_atom_site_label
_atom_site_fract_x
_atom_site_fract_y
_atom_site_fract_z
Si Si1 0.348296 0.198627 0.525820
Si Si2 0.794931 0.706291 0.781845
Si Si3 0.208488 0.699694 0.478340
Si Si4 0.069559 0.790177 0.960215
Si Si5 0.428091 0.297048 0.364272
Si Si6 0.342202 0.709528 0.210840
Si Si7 0.068699 0.797424 0.260325
O O1 0.271538 0.208444 0.512503
O O2 0.385641 0.282931 0.448545
O O3 0.362802 0.272848 0.618359
O O4 0.368133 0.000000 0.524349
O O5 0.801106 0.500000 0.794772
O O6 0.788580 0.788840 0.875382
O O7 0.730981 0.741392 0.730098
O O8 0.860715 0.769969 0.737224
O O9 0.213184 0.500000 0.504587
O O10 0.136930 0.765598 0.501382
O O11 0.069225 0.720986 0.863381
O O12 0.000000 0.743248 0.998551
O O13 0.072126 0.000000 0.955612
O O14 0.500000 0.225228 0.373709
O O15 0.434389 0.500000 0.346359
O O16 0.387462 0.223152 0.285903
O O17 0.344039 0.500000 0.209638
O O18 0.000000 0.721498 0.231798
O O19 0.067376 0.000000 0.237350
#
# Coordination Sequence:
#
# PCOD9356139 Si02
#       7
#     8   8   8   8   8   8   8
#     4  11  23  38  59  88 118 151 193 234 274 328
#     4  10  18  29  51  80 109 145 191 237 280 333
#     4  10  18  30  51  77 110 150 189 234 289 338
#     4   8  14  24  40  66  99 137 184 233 279 332
#     4  10  22  42  66  89 115 149 184 222 277 340
#     4  10  22  39  59  84 117 154 188 227 278 333
#     4   8  14  24  39  65 102 140 179 227 281 331
#
# _framework density 22.047664000000001
#
# number of rings (size 3 to 8) (size 9 to 14) (size 15 to 20)
#    0.000    2.429    1.429    1.286    0.000    3.143 
#    0.000    1.429    0.000    0.857    0.000    6.000 
#    0.000    0.000    0.000    0.000    0.000    0.000 
#
# Total GULP energy -156191.050490 kJ/mol
# GULP energy per Si atom -5578.251803 kJ/mol
# Density = 2.199748 g / cm^3
# Si number density = 22.047664 Si / 1000 Ang^3
#
#
#
# Elastic Constant Matrix: (Units=GPa)
#
#
# Indices 1 2 3 4 5 6 
#
# 1 175.5099 4.1085 63.6105 0.0000 0.0000 0.0000
# 2 4.1085 39.1698 -3.0247 0.0000 0.0000 0.0000
# 3 63.6105 -3.0247 91.9064 0.0000 0.0000 0.0000
# 4 0.0000 0.0000 0.0000 9.1310 0.0000 0.0000
# 5 0.0000 0.0000 0.0000 0.0000 -12.8979 0.0000
# 6 0.0000 0.0000 0.0000 0.0000 0.0000 5.2789
#
#
#
# Elastic Compliance Matrix: (Units=1/GPa)
#
#
# Indices 1 2 3 4 5 6 
#
# 1 0.007663 -0.001216 -0.005344 0.000000 0.000000 0.000000
# 2 -0.001216 0.025788 0.001691 0.000000 0.000000 0.000000
# 3 -0.005344 0.001691 0.014635 0.000000 0.000000 0.000000
# 4 0.000000 0.000000 0.000000 0.109517 0.000000 0.000000
# 5 0.000000 0.000000 0.000000 0.000000 -0.077532 0.000000
# 6 0.000000 0.000000 0.000000 0.000000 0.000000 0.189433
#
#
# Mechanical properties :
#
#
# Convention : Reuss Voigt Hill
#
# Bulk Modulus (GPa) = 26.07787 48.44164 37.25975
# Shear Modulus (GPa) = 17.12180 16.42852 16.77516
#
# Velocity S-wave (km/s) = 2.78974 2.73268 2.76136
# Velocity P-wave (km/s) = 4.71493 5.65471 5.20607
#
# Compressibility (1/GPa) = 0.03834669
#
# Stress axis : x y z
#
# Youngs Moduli (GPa) = 130.49910 38.77768 68.33044
#
# Poissons Ratio (x) = 0.04717 0.36514
# Poissons Ratio (y) = 0.15874 -0.11552
# Poissons Ratio (z) = 0.69735 -0.06556
#
# Static dielectric constant tensor:
#      x y z
#    x 1.847420 0.000000 0.000000 
#    y 0.000000 1.977240 0.000000 
#    z 0.000000 0.000000 1.799990 
# 
# From -- ./inp_files/15428.got.cif
#   From: 2010.05.17/outbox.cif.g08.bks.cpg/sg38_8_cif.got.tgz:15428.got - 2010.06.03 18:07:57.
