data_PCOD9356155
_publ_section_title
;
Structure prediction by ZEFSAII (Michael W. Deem and Ramdas Pophale) SiO2 
 PCOD9356155
Probable space group: A M M 2
;
_chemical_formula_sum "Si O2"
_cell_formula_units_Z 64
_cell_length_a 8.552522
_cell_length_b 24.052160
_cell_length_c 19.624619
_cell_angle_alpha 90.000000
_cell_angle_beta 90.000000
_cell_angle_gamma 90.000000
_cell_volume 4036.914191
_symmetry_space_group_name_H-M "A M M 2"
_symmetry_group_IT_number 38
_symmetry_cell_setting 'orthorhombic'
loop_
_space_group_symop_operation_xyz
x,y,z
-x,-y,z
-x,y,z
x,-y,z
x,1/2+y,1/2+z
-x,1/2-y,1/2+z
-x,1/2+y,1/2+z
x,1/2-y,1/2+z
loop_
_atom_site_type_symbol
_atom_site_label
_atom_site_fract_x
_atom_site_fract_y
_atom_site_fract_z
Si Si1 0.689018 0.377799 0.113420
Si Si2 0.687523 0.231326 0.255974
Si Si3 0.689002 0.935684 0.755777
Si Si4 0.185284 0.252048 0.110101
Si Si5 0.689863 0.665408 0.885508
Si Si6 0.309024 0.936939 0.472637
Si Si7 0.814484 0.663691 0.339481
Si Si8 0.687078 0.223717 0.966920
O O1 0.500000 0.372524 0.112881
O O2 0.734104 0.409593 0.182509
O O3 0.758018 0.316155 0.110709
O O4 0.734584 0.412593 0.046555
O O5 0.500000 0.230658 0.250424
O O6 0.760690 0.226592 0.181806
O O7 0.738824 0.184330 0.310197
O O8 0.736146 0.289936 0.290309
O O9 0.500000 0.933424 0.759654
O O10 0.759312 0.896166 0.813524
O O11 0.736580 0.000000 0.760447
O O12 0.000000 0.250557 0.104535
O O13 0.259229 0.222183 0.044591
O O14 0.500000 0.664172 0.885112
O O15 0.744502 0.606990 0.915626
O O16 0.733943 0.715703 0.936375
O O17 0.500000 0.937671 0.471209
O O18 0.255015 0.000000 0.463311
O O19 0.760835 0.679014 0.415732
O O20 0.000000 0.668826 0.333692
O O21 0.500000 0.219880 0.962582
#
# Coordination Sequence:
#
# PCOD9356155 Si02
#       8
#     8   8   8   8   8   8   8   8
#     4  10  18  30  47  68  99 137 173 203 237 288
#     4  10  19  32  49  67  95 133 170 204 245 302
#     4  10  20  33  50  72  99 138 183 213 240 291
#     4  12  22  31  47  74 101 128 163 209 258 300
#     4   8  15  27  45  70  93 121 160 199 237 283
#     4   9  15  25  45  73  99 125 163 206 239 274
#     4  11  21  33  49  74 102 128 163 210 260 301
#     4  10  19  34  53  70  95 130 166 202 247 307
#
# _framework density 15.853693
#
# number of rings (size 3 to 8) (size 9 to 14) (size 15 to 20)
#    0.000    2.000    2.500    4.125    0.000    1.750 
#    0.000    0.000    0.000    1.125    0.000    0.875 
#    0.000    5.000    0.000    0.000    0.000    0.000 
#
# Total GULP energy -178558.337735 kJ/mol
# GULP energy per Si atom -5579.948054 kJ/mol
# Density = 1.581761 g / cm^3
# Si number density = 15.853693 Si / 1000 Ang^3
#
#
#
# Elastic Constant Matrix: (Units=GPa)
#
#
# Indices 1 2 3 4 5 6 
#
# 1 26.8657 17.9967 10.8774 0.0000 0.0000 0.0000
# 2 17.9967 94.4583 60.2991 0.0000 0.0000 0.0000
# 3 10.8774 60.2991 115.1653 0.0000 0.0000 0.0000
# 4 0.0000 0.0000 0.0000 20.5666 0.0000 0.0000
# 5 0.0000 0.0000 0.0000 0.0000 13.7675 0.0000
# 6 0.0000 0.0000 0.0000 0.0000 0.0000 -2.5514
#
#
#
# Elastic Compliance Matrix: (Units=1/GPa)
#
#
# Indices 1 2 3 4 5 6 
#
# 1 0.042677 -0.008348 0.000340 0.000000 0.000000 0.000000
# 2 -0.008348 0.017535 -0.008392 0.000000 0.000000 0.000000
# 3 0.000340 -0.008392 0.013045 0.000000 0.000000 0.000000
# 4 0.000000 0.000000 0.000000 0.048623 0.000000 0.000000
# 5 0.000000 0.000000 0.000000 0.000000 0.072635 0.000000
# 6 0.000000 0.000000 0.000000 0.000000 0.000000 -0.391942
#
#
# Mechanical properties :
#
#
# Convention : Reuss Voigt Hill
#
# Bulk Modulus (GPa) = 24.71840 46.09286 35.40563
# Shear Modulus (GPa) = -33.08157 16.17761 -8.45198
#
# Velocity S-wave (km/s) = -4.57297 3.19789 -2.31145
# Velocity P-wave (km/s) = 3.50105 6.54005 3.90608
#
# Compressibility (1/GPa) = 0.04045569
#
# Stress axis : x y z
#
# Youngs Moduli (GPa) = 23.43204 57.02994 76.65649
#
# Poissons Ratio (x) = 0.47609 -0.02607
# Poissons Ratio (y) = 0.19561 0.64333
# Poissons Ratio (z) = -0.00797 0.47862
#
# Static dielectric constant tensor:
#      x y z
#    x 1.527330 0.000000 0.000000 
#    y 0.000000 1.514110 0.000000 
#    z 0.000000 0.000000 1.531810 
# 
# From -- ./inp_files/17294.got.cif
#   From: 2010.05.17/outbox.cif.g08.bks.cpg/sg38_9_cif.got.tgz:17294.got - 2010.06.03 18:07:57.
