data_PCOD9356048
_publ_section_title
;
Structure prediction by ZEFSAII (Michael W. Deem and Ramdas Pophale) SiO2 
 PCOD9356048
Probable space group: A M M 2
;
_chemical_formula_sum "Si O2"
_cell_formula_units_Z 64
_cell_length_a 18.306144
_cell_length_b 7.568997
_cell_length_c 21.676083
_cell_angle_alpha 90.000000
_cell_angle_beta 90.000000
_cell_angle_gamma 90.000000
_cell_volume 3003.419615
_symmetry_space_group_name_H-M "A M M 2"
_symmetry_group_IT_number 38
_symmetry_cell_setting 'orthorhombic'
loop_
_space_group_symop_operation_xyz
x,y,z
-x,-y,z
-x,y,z
x,-y,z
x,1/2+y,1/2+z
-x,1/2-y,1/2+z
-x,1/2+y,1/2+z
x,1/2-y,1/2+z
loop_
_atom_site_type_symbol
_atom_site_label
_atom_site_fract_x
_atom_site_fract_y
_atom_site_fract_z
Si Si1 0.692551 0.704254 0.608440
Si Si2 0.336734 0.792698 0.474616
Si Si3 0.161158 0.209296 0.456602
Si Si4 0.581394 0.716109 0.712284
Si Si5 0.814189 0.211265 0.326489
Si Si6 0.352571 0.716336 0.840539
Si Si7 0.919463 0.712725 0.215001
Si Si8 0.141260 0.204805 0.588202
O O1 0.708696 0.500000 0.622153
O O2 0.651623 0.713048 0.542215
O O3 0.642323 0.775667 0.663396
O O4 0.771510 0.793217 0.601184
O O5 0.249310 0.776576 0.462945
O O6 0.371393 0.725172 0.410443
O O7 0.353860 0.000000 0.480131
O O8 0.145846 0.280831 0.388419
O O9 0.129715 0.285296 0.520192
O O10 0.143499 0.000000 0.456772
O O11 0.500000 0.771538 0.694541
O O12 0.583123 0.500000 0.711138
O O13 0.598915 0.770014 0.782475
O O14 0.730502 0.273909 0.325305
O O15 0.858556 0.245135 0.265098
O O16 0.809108 0.000000 0.333999
O O17 0.353485 0.500000 0.842592
O O18 0.921195 0.500000 0.210973
O O19 0.898222 0.783106 0.147473
O O20 0.000000 0.774899 0.233556
O O21 0.118414 0.000000 0.584246
#
# Coordination Sequence:
#
# PCOD9356048 Si02
#       8
#     8   8   8   8   8   8   8   8
#     4  10  18  28  47  73  95 117 150 191 230 271
#     4   8  14  27  47  69  93 118 145 185 233 273
#     4   7  12  25  46  69  88 109 143 184 222 260
#     4   9  17  28  42  64  95 127 157 190 228 268
#     4   9  16  29  50  72  91 113 147 191 231 266
#     4   8  14  27  48  69  88 116 156 195 225 261
#     4  10  21  34  46  65  95 126 152 181 223 274
#     4   9  17  32  52  69  89 120 154 188 226 267
#
# _framework density 21.309045000000001
#
# number of rings (size 3 to 8) (size 9 to 14) (size 15 to 20)
#    0.000    3.250    0.000    3.375    0.000    1.750 
#    0.000    6.875    0.000    6.000    0.000    0.000 
#    0.000    0.000    0.000    0.000    0.000    0.000 
#
# Total GULP energy -178282.765512 kJ/mol
# GULP energy per Si atom -5571.336422 kJ/mol
# Density = 2.126054 g / cm^3
# Si number density = 21.309045 Si / 1000 Ang^3
#
#
#
# Elastic Constant Matrix: (Units=GPa)
#
#
# Indices 1 2 3 4 5 6 
#
# 1 13.7210 -9.4797 -2.1057 0.0000 0.0000 0.0000
# 2 -9.4797 43.7485 -0.4436 0.0000 0.0000 0.0000
# 3 -2.1057 -0.4436 74.8804 0.0000 0.0000 0.0000
# 4 0.0000 0.0000 0.0000 -149.1364 0.0000 0.0000
# 5 0.0000 0.0000 0.0000 0.0000 -0.9348 0.0000
# 6 0.0000 0.0000 0.0000 0.0000 0.0000 6.7961
#
#
#
# Elastic Compliance Matrix: (Units=1/GPa)
#
#
# Indices 1 2 3 4 5 6 
#
# 1 0.086191 0.018702 0.002535 0.000000 0.000000 0.000000
# 2 0.018702 0.026917 0.000685 0.000000 0.000000 0.000000
# 3 0.002535 0.000685 0.013430 0.000000 0.000000 0.000000
# 4 0.000000 0.000000 0.000000 -0.006705 0.000000 0.000000
# 5 0.000000 0.000000 0.000000 0.000000 -1.069698 0.000000
# 6 0.000000 0.000000 0.000000 0.000000 0.000000 0.147143
#
#
# Mechanical properties :
#
#
# Convention : Reuss Voigt Hill
#
# Bulk Modulus (GPa) = 5.86913 12.03242 8.95078
# Shear Modulus (GPa) = -6.33094 -19.02976 -12.68035
#
# Velocity S-wave (km/s) = -1.72553 -2.99161 -2.44205
# Velocity P-wave (km/s) = 1.09985 2.50482 1.93440
#
# Compressibility (1/GPa) = 0.17038290
#
# Stress axis : x y z
#
# Youngs Moduli (GPa) = 11.60210 37.15073 74.46035
#
# Poissons Ratio (x) = -0.69480 -0.18872
# Poissons Ratio (y) = -0.21698 -0.05103
# Poissons Ratio (z) = -0.02941 -0.02546
#
# Static dielectric constant tensor:
#      x y z
#    x 1.736000 0.000000 0.000000 
#    y 0.000000 1.818730 0.000000 
#    z 0.000000 0.000000 1.822760 
# 
# From -- ./inp_files/21507.got.cif
#   From: 2010.05.17/outbox.cif.g08.bks.cpg/sg38_11_cif.got.tgz:21507.got - 2010.06.03 18:07:57.
