data_PCOD9356235
_publ_section_title
;
Structure prediction by ZEFSAII (Michael W. Deem and Ramdas Pophale) SiO2 
 PCOD9356235
Probable space group: A M M 2
;
_chemical_formula_sum "Si O2"
_cell_formula_units_Z 52
_cell_length_a 7.890663
_cell_length_b 12.534076
_cell_length_c 25.757738
_cell_angle_alpha 90.000000
_cell_angle_beta 90.000000
_cell_angle_gamma 90.000000
_cell_volume 2547.496176
_symmetry_space_group_name_H-M "A M M 2"
_symmetry_group_IT_number 38
_symmetry_cell_setting 'orthorhombic'
loop_
_space_group_symop_operation_xyz
x,y,z
-x,-y,z
-x,y,z
x,-y,z
x,1/2+y,1/2+z
-x,1/2-y,1/2+z
-x,1/2+y,1/2+z
x,1/2-y,1/2+z
loop_
_atom_site_type_symbol
_atom_site_label
_atom_site_fract_x
_atom_site_fract_y
_atom_site_fract_z
Si Si1 0.206477 0.734083 0.570130
Si Si2 0.695980 0.000000 0.170949
Si Si3 0.800718 0.795862 0.892273
Si Si4 0.687979 0.000000 0.952545
Si Si5 0.299448 0.877402 0.784485
Si Si6 0.793719 0.120612 0.472520
Si Si7 0.247555 0.000000 0.059156
Si Si8 0.798010 0.232573 0.189421
O O1 0.251223 0.818618 0.525853
O O2 0.303969 0.623746 0.559535
O O3 0.242691 0.764022 0.629742
O O4 0.000000 0.713740 0.566307
O O5 0.728155 0.112416 0.198897
O O6 0.500000 0.000000 0.152618
O O7 0.813877 0.000000 0.119424
O O8 0.709639 0.896882 0.917606
O O9 0.775306 0.806116 0.830941
O O10 0.741439 0.690652 0.922700
O O11 0.000000 0.807455 0.903261
O O12 0.500000 0.000000 0.976788
O O13 0.818682 0.000000 0.000016
O O14 0.500000 0.882650 0.793073
O O15 0.266269 0.818828 0.730257
O O16 0.233456 0.000000 0.785809
O O17 0.000000 0.116406 0.471897
O O18 0.730144 0.000000 0.471199
O O19 0.000000 0.226842 0.193785
#
# Coordination Sequence:
#
# PCOD9356235 Si02
#       8
#     8   4   8   4   8   8   4   8
#     4   9  17  30  53  86 119 149 188 241 290 336
#     4  10  20  37  58  85 122 161 197 238 292 350
#     4  11  22  37  60  86 113 150 193 240 290 347
#     4  12  22  33  54  87 120 151 185 234 294 348
#     4  11  24  42  62  84 115 151 191 245 302 355
#     4   9  18  33  54  84 119 151 185 232 287 341
#     4  10  18  30  52  84 115 158 195 234 285 350
#     4  10  21  37  60  89 118 153 198 246 292 347
#
# _framework density 20.412198
#
# number of rings (size 3 to 8) (size 9 to 14) (size 15 to 20)
#    0.000    1.846    2.308    2.308    0.000    4.000 
#    1.385    1.538    0.000    1.385    0.000    0.000 
#    0.000    0.000    0.000    0.000    0.000    0.000 
#
# Total GULP energy -144862.673688 kJ/mol
# GULP energy per Si atom -5571.641296 kJ/mol
# Density = 2.036574 g / cm^3
# Si number density = 20.412198 Si / 1000 Ang^3
#
#
#
# Elastic Constant Matrix: (Units=GPa)
#
#
# Indices 1 2 3 4 5 6 
#
# 1 61.5775 17.6730 10.6363 0.0000 0.0000 0.0000
# 2 17.6730 176.6723 82.3978 0.0000 0.0000 0.0000
# 3 10.6363 82.3978 136.2434 0.0000 0.0000 0.0000
# 4 0.0000 0.0000 0.0000 23.9050 0.0000 0.0000
# 5 0.0000 0.0000 0.0000 0.0000 -0.5707 0.0000
# 6 0.0000 0.0000 0.0000 0.0000 0.0000 6.5295
#
#
#
# Elastic Compliance Matrix: (Units=1/GPa)
#
#
# Indices 1 2 3 4 5 6 
#
# 1 0.016736 -0.001483 -0.000410 0.000000 0.000000 0.000000
# 2 -0.001483 0.008015 -0.004732 0.000000 0.000000 0.000000
# 3 -0.000410 -0.004732 0.010234 0.000000 0.000000 0.000000
# 4 0.000000 0.000000 0.000000 0.041832 0.000000 0.000000
# 5 0.000000 0.000000 0.000000 0.000000 -1.752332 0.000000
# 6 0.000000 0.000000 0.000000 0.000000 0.000000 0.153151
#
#
# Mechanical properties :
#
#
# Convention : Reuss Voigt Hill
#
# Bulk Modulus (GPa) = 46.00669 66.21194 56.10932
# Shear Modulus (GPa) = -3.32918 23.55850 10.11466
#
# Velocity S-wave (km/s) = -1.27848 3.40095 2.22844
# Velocity P-wave (km/s) = 4.51757 6.92313 5.84543
#
# Compressibility (1/GPa) = 0.02173597
#
# Stress axis : x y z
#
# Youngs Moduli (GPa) = 59.75108 124.75952 97.71822
#
# Poissons Ratio (x) = 0.18503 0.04002
# Poissons Ratio (y) = 0.08862 0.46238
# Poissons Ratio (z) = 0.02447 0.59034
#
# Static dielectric constant tensor:
#      x y z
#    x 1.845390 0.000000 0.000000 
#    y 0.000000 1.707160 0.000000 
#    z 0.000000 0.000000 1.714660 
# 
# From -- ./inp_files/23431.got.cif
#   From: 2010.05.17/outbox.cif.g08.bks.cpg/sg38_12_cif.got.tgz:23431.got - 2010.06.03 18:07:57.
