data_PCOD9356026
_publ_section_title
;
Structure prediction by ZEFSAII (Michael W. Deem and Ramdas Pophale) SiO2 
 PCOD9356026
Probable space group: A M M 2
;
_chemical_formula_sum "Si O2"
_cell_formula_units_Z 56
_cell_length_a 9.109441
_cell_length_b 29.858623
_cell_length_c 13.655203
_cell_angle_alpha 90.000000
_cell_angle_beta 90.000000
_cell_angle_gamma 90.000000
_cell_volume 3714.151918
_symmetry_space_group_name_H-M "A M M 2"
_symmetry_group_IT_number 38
_symmetry_cell_setting 'orthorhombic'
loop_
_space_group_symop_operation_xyz
x,y,z
-x,-y,z
-x,y,z
x,-y,z
x,1/2+y,1/2+z
-x,1/2-y,1/2+z
-x,1/2+y,1/2+z
x,1/2-y,1/2+z
loop_
_atom_site_type_symbol
_atom_site_label
_atom_site_fract_x
_atom_site_fract_y
_atom_site_fract_z
Si Si1 0.675052 0.181361 0.721420
Si Si2 0.824815 0.407524 0.298513
Si Si3 0.174753 0.686287 0.613777
Si Si4 0.326042 0.729546 0.017019
Si Si5 0.670361 0.000000 0.797561
Si Si6 0.173948 0.266540 0.818112
Si Si7 0.174430 0.909106 0.031971
Si Si8 0.331908 0.000000 0.035645
O O1 0.500000 0.179796 0.738389
O O2 0.749232 0.134250 0.745757
O O3 0.700335 0.196817 0.609214
O O4 0.747797 0.220048 0.788046
O O5 0.753492 0.454729 0.267166
O O6 0.798358 0.402698 0.415687
O O7 0.000000 0.407798 0.283221
O O8 0.262333 0.722330 0.549790
O O9 0.196498 0.700011 0.726735
O O10 0.219705 0.635949 0.587726
O O11 0.000000 0.690651 0.592288
O O12 0.500000 0.732451 0.000650
O O13 0.243873 0.716050 0.918177
O O14 0.500000 0.000000 0.767099
O O15 0.672937 0.000000 0.916573
O O16 0.000000 0.258990 0.829452
O O17 0.000000 0.914991 0.043938
O O18 0.253334 0.954225 0.066158
O O19 0.500000 0.000000 0.066705
#
# Coordination Sequence:
#
# PCOD9356026 Si02
#       8
#     8   8   8   8   4   8   8   4
#     4  10  20  32  46  66  91 120 153 185 223 270
#     4  10  18  28  45  68  92 119 151 186 223 265
#     4   9  18  31  47  67  89 117 153 186 221 264
#     4  10  20  32  46  65  91 121 151 185 224 266
#     4   9  17  29  43  61  90 123 150 181 221 266
#     4  10  19  31  47  66  90 119 151 188 225 263
#     4   9  17  29  44  63  89 118 146 178 217 260
#     4   9  17  27  41  63  88 115 146 177 213 258
#
# _framework density 15.077465999999999
#
# number of rings (size 3 to 8) (size 9 to 14) (size 15 to 20)
#    0.000    2.429    0.000    3.000    0.000    6.286 
#    0.000    0.000    0.000    0.000    0.000    1.000 
#    0.000    3.429    0.000    0.000    0.000    0.000 
#
# Total GULP energy -156155.427095 kJ/mol
# GULP energy per Si atom -5576.979539 kJ/mol
# Density = 1.504315 g / cm^3
# Si number density = 15.077466 Si / 1000 Ang^3
#
#
#
# Elastic Constant Matrix: (Units=GPa)
#
#
# Indices 1 2 3 4 5 6 
#
# 1 85.6731 71.5257 48.3700 0.0000 0.0000 0.0000
# 2 71.5257 150.3433 39.0368 0.0000 0.0000 0.0000
# 3 48.3700 39.0368 54.6413 0.0000 0.0000 0.0000
# 4 0.0000 0.0000 0.0000 18.4675 0.0000 0.0000
# 5 0.0000 0.0000 0.0000 0.0000 22.6389 0.0000
# 6 0.0000 0.0000 0.0000 0.0000 0.0000 22.7647
#
#
#
# Elastic Compliance Matrix: (Units=1/GPa)
#
#
# Indices 1 2 3 4 5 6 
#
# 1 0.031552 -0.009526 -0.021125 0.000000 0.000000 0.000000
# 2 -0.009526 0.011042 0.000544 0.000000 0.000000 0.000000
# 3 -0.021125 0.000544 0.036614 0.000000 0.000000 0.000000
# 4 0.000000 0.000000 0.000000 0.054149 0.000000 0.000000
# 5 0.000000 0.000000 0.000000 0.000000 0.044172 0.000000
# 6 0.000000 0.000000 0.000000 0.000000 0.000000 0.043928
#
#
# Mechanical properties :
#
#
# Convention : Reuss Voigt Hill
#
# Bulk Modulus (GPa) = 52.65120 67.61362 60.13241
# Shear Modulus (GPa) = 17.36100 21.55593 19.45846
#
# Velocity S-wave (km/s) = 3.39699 3.78521 3.59634
# Velocity P-wave (km/s) = 7.09805 8.00283 7.56398
#
# Compressibility (1/GPa) = 0.01899292
#
# Stress axis : x y z
#
# Youngs Moduli (GPa) = 31.69365 90.56263 27.31226
#
# Poissons Ratio (x) = 0.86267 0.57698
# Poissons Ratio (y) = 0.30190 -0.01485
# Poissons Ratio (z) = 0.66954 -0.04924
#
# Static dielectric constant tensor:
#      x y z
#    x 1.501600 0.000000 0.000000 
#    y 0.000000 1.481680 0.000000 
#    z 0.000000 0.000000 1.490580 
# 
# From -- ./inp_files/13011.got.cif
#   From: 2010.05.17/outbox.cif.g08.bks.cpg/sg38_7_cif.got.tgz:13011.got - 2010.06.03 18:07:57.
