data_PCOD9356657
_publ_section_title
;
Structure prediction by ZEFSAII (Michael W. Deem and Ramdas Pophale) SiO2 
 PCOD9356657
Probable space group: A M M 2
;
_chemical_formula_sum "Si O2"
_cell_formula_units_Z 64
_cell_length_a 8.229663
_cell_length_b 14.806126
_cell_length_c 25.207298
_cell_angle_alpha 90.000000
_cell_angle_beta 90.000000
_cell_angle_gamma 90.000000
_cell_volume 3071.494825
_symmetry_space_group_name_H-M "A M M 2"
_symmetry_group_IT_number 38
_symmetry_cell_setting 'orthorhombic'
loop_
_space_group_symop_operation_xyz
x,y,z
-x,-y,z
-x,y,z
x,-y,z
x,1/2+y,1/2+z
-x,1/2-y,1/2+z
-x,1/2+y,1/2+z
x,1/2-y,1/2+z
loop_
_atom_site_type_symbol
_atom_site_label
_atom_site_fract_x
_atom_site_fract_y
_atom_site_fract_z
Si Si1 0.694102 0.195892 0.485720
Si Si2 0.186198 0.849646 0.865606
Si Si3 0.315298 0.160144 0.369106
Si Si4 0.185922 0.599239 0.248668
Si Si5 0.193373 0.898079 0.591452
Si Si6 0.682510 0.741648 0.178750
Si Si7 0.192703 0.901457 0.983458
Si Si8 0.301975 0.603191 0.753483
O O1 0.500000 0.195310 0.481475
O O2 0.758097 0.156919 0.428815
O O3 0.749825 0.133559 0.533636
O O4 0.742315 0.301014 0.497306
O O5 0.309774 0.767640 0.860845
O O6 0.194122 0.904025 0.811757
O O7 0.214682 0.901754 0.919733
O O8 0.000000 0.813024 0.869028
O O9 0.500000 0.124608 0.372072
O O10 0.242463 0.122228 0.313993
O O11 0.212258 0.500000 0.226259
O O12 0.311043 0.670471 0.226878
O O13 0.000000 0.627092 0.234729
O O14 0.241214 0.817844 0.631896
O O15 0.000000 0.903179 0.592512
O O16 0.257157 0.000000 0.603119
O O17 0.500000 0.764607 0.161942
O O18 0.758695 0.829648 0.207178
O O19 0.000000 0.899775 0.994850
O O20 0.255795 0.000000 0.003662
O O21 0.500000 0.615579 0.755361
O O22 0.267368 0.500000 0.740238
#
# Coordination Sequence:
#
# PCOD9356657 Si02
#       8
#     8   8   8   8   8   8   8   8
#     4  10  21  36  59  90 121 154 196 247 299 350
#     4   9  16  27  46  73 109 151 193 233 274 327
#     4   9  17  32  54  82 117 154 191 230 282 341
#     4  10  19  30  47  74 109 149 188 226 278 339
#     4  11  25  45  66  85 111 150 194 243 300 360
#     4  11  22  37  59  84 112 146 189 240 290 343
#     4   9  17  31  52  79 115 160 203 239 282 339
#     4   9  18  34  57  85 118 154 188 226 281 348
#
# _framework density 20.836760000000002
#
# number of rings (size 3 to 8) (size 9 to 14) (size 15 to 20)
#    0.000    2.250    1.250    1.875    0.000    5.500 
#    0.000    1.875    0.000    7.875    0.000    0.000 
#    0.000    0.000    0.000    0.000    0.000    0.000 
#
# Total GULP energy -178139.875889 kJ/mol
# GULP energy per Si atom -5566.871122 kJ/mol
# Density = 2.078933 g / cm^3
# Si number density = 20.836760 Si / 1000 Ang^3
#
#
#
# Elastic Constant Matrix: (Units=GPa)
#
#
# Indices 1 2 3 4 5 6 
#
# 1 19.2405 20.3435 12.3923 0.0000 0.0000 0.0000
# 2 20.3435 116.8986 62.5235 0.0000 0.0000 0.0000
# 3 12.3923 62.5235 113.7481 0.0000 0.0000 0.0000
# 4 0.0000 0.0000 0.0000 5.5742 0.0000 0.0000
# 5 0.0000 0.0000 0.0000 0.0000 20.2746 0.0000
# 6 0.0000 0.0000 0.0000 0.0000 0.0000 18.9254
#
#
#
# Elastic Compliance Matrix: (Units=1/GPa)
#
#
# Indices 1 2 3 4 5 6 
#
# 1 0.063809 -0.010462 -0.001201 0.000000 0.000000 0.000000
# 2 -0.010462 0.013832 -0.006463 0.000000 0.000000 0.000000
# 3 -0.001201 -0.006463 0.012475 0.000000 0.000000 0.000000
# 4 0.000000 0.000000 0.000000 0.179399 0.000000 0.000000
# 5 0.000000 0.000000 0.000000 0.000000 0.049323 0.000000
# 6 0.000000 0.000000 0.000000 0.000000 0.000000 0.052839
#
#
# Mechanical properties :
#
#
# Convention : Reuss Voigt Hill
#
# Bulk Modulus (GPa) = 18.56557 48.93397 33.74977
# Shear Modulus (GPa) = 11.74031 19.26337 15.50184
#
# Velocity S-wave (km/s) = 2.37627 3.04384 2.73053
# Velocity P-wave (km/s) = 4.05687 5.99072 5.11600
#
# Compressibility (1/GPa) = 0.05386315
#
# Stress axis : x y z
#
# Youngs Moduli (GPa) = 15.67178 72.29647 80.16180
#
# Poissons Ratio (x) = 0.75637 0.09627
# Poissons Ratio (y) = 0.16396 0.51810
# Poissons Ratio (z) = 0.01882 0.46726
#
# Static dielectric constant tensor:
#      x y z
#    x 1.798180 0.000000 0.000000 
#    y 0.000000 1.737380 0.000000 
#    z 0.000000 0.000000 1.791430 
# 
# From -- ./inp_files/22228.got.cif
#   From: 2010.05.17/outbox.cif.g08.bks.cpg/sg38_12_cif.got.tgz:22228.got - 2010.06.03 18:07:57.
