data_PCOD9356918
_publ_section_title
;
Structure prediction by ZEFSAII (Michael W. Deem and Ramdas Pophale) SiO2 
 PCOD9356918
Probable space group: A M M 2
;
_chemical_formula_sum "Si O2"
_cell_formula_units_Z 64
_cell_length_a 8.955806
_cell_length_b 28.307944
_cell_length_c 14.838335
_cell_angle_alpha 90.000000
_cell_angle_beta 90.000000
_cell_angle_gamma 90.000000
_cell_volume 3761.821437
_symmetry_space_group_name_H-M "A M M 2"
_symmetry_group_IT_number 38
_symmetry_cell_setting 'orthorhombic'
loop_
_space_group_symop_operation_xyz
x,y,z
-x,-y,z
-x,y,z
x,-y,z
x,1/2+y,1/2+z
-x,1/2-y,1/2+z
-x,1/2+y,1/2+z
x,1/2-y,1/2+z
loop_
_atom_site_type_symbol
_atom_site_label
_atom_site_fract_x
_atom_site_fract_y
_atom_site_fract_z
Si Si1 0.179298 0.641823 0.300050
Si Si2 0.668139 0.772545 0.433679
Si Si3 0.821220 0.945739 0.676346
Si Si4 0.178257 0.327844 0.671104
Si Si5 0.330068 0.266434 0.229317
Si Si6 0.320212 0.329805 0.488877
Si Si7 0.678222 0.445201 0.983423
Si Si8 0.822494 0.636203 0.870369
O O1 0.214875 0.591872 0.253700
O O2 0.249287 0.683360 0.238241
O O3 0.248992 0.647231 0.399713
O O4 0.000000 0.647680 0.305102
O O5 0.500000 0.785531 0.462318
O O6 0.659782 0.752677 0.331788
O O7 0.720745 0.726171 0.486132
O O8 0.769765 0.818513 0.428856
O O9 0.742035 0.933467 0.582396
O O10 0.000000 0.943765 0.662058
O O11 0.781860 0.000000 0.699596
O O12 0.235601 0.274033 0.681174
O O13 0.257250 0.349009 0.582923
O O14 0.217799 0.353258 0.765825
O O15 0.000000 0.328905 0.661136
O O16 0.500000 0.270087 0.194208
O O17 0.500000 0.332650 0.484326
O O18 0.500000 0.441173 0.984439
O O19 0.718227 0.500000 0.965356
O O20 0.745789 0.409887 0.910507
O O21 0.000000 0.632000 0.875600
#
# Coordination Sequence:
#
# PCOD9356918 Si02
#       8
#     8   8   8   8   8   8   8   8
#     4  10  19  32  52  76 102 133 170 211 253 299
#     4   8  16  30  46  66  94 128 165 202 239 284
#     4   9  19  36  56  77 101 129 162 203 253 305
#     4  10  20  33  50  74 103 136 175 213 249 293
#     4   9  17  30  47  68  97 132 168 204 245 291
#     4  10  20  33  50  73 103 140 175 208 251 297
#     4  10  21  36  55  78 101 127 161 203 252 304
#     4  10  20  33  52  76 101 132 168 207 252 299
#
# _framework density 17.013034999999999
#
# number of rings (size 3 to 8) (size 9 to 14) (size 15 to 20)
#    0.000    2.500    0.000    3.000    0.000    7.750 
#    0.000    0.000    0.000    0.750    0.000    1.750 
#    0.000    0.000    0.000    0.000    0.000    0.000 
#
# Total GULP energy -178413.787649 kJ/mol
# GULP energy per Si atom -5575.430864 kJ/mol
# Density = 1.697431 g / cm^3
# Si number density = 17.013035 Si / 1000 Ang^3
#
#
#
# Elastic Constant Matrix: (Units=GPa)
#
#
# Indices 1 2 3 4 5 6 
#
# 1 64.4780 52.4097 52.2450 0.0000 0.0000 0.0000
# 2 52.4097 96.0220 68.9633 0.0000 0.0000 0.0000
# 3 52.2450 68.9633 110.8456 0.0000 0.0000 0.0000
# 4 0.0000 0.0000 0.0000 22.6543 0.0000 0.0000
# 5 0.0000 0.0000 0.0000 0.0000 19.2147 0.0000
# 6 0.0000 0.0000 0.0000 0.0000 0.0000 25.0524
#
#
#
# Elastic Compliance Matrix: (Units=1/GPa)
#
#
# Indices 1 2 3 4 5 6 
#
# 1 0.030870 -0.011569 -0.007353 0.000000 0.000000 0.000000
# 2 -0.011569 0.023162 -0.008958 0.000000 0.000000 0.000000
# 3 -0.007353 -0.008958 0.018060 0.000000 0.000000 0.000000
# 4 0.000000 0.000000 0.000000 0.044142 0.000000 0.000000
# 5 0.000000 0.000000 0.000000 0.000000 0.052043 0.000000
# 6 0.000000 0.000000 0.000000 0.000000 0.000000 0.039916
#
#
# Mechanical properties :
#
#
# Convention : Reuss Voigt Hill
#
# Bulk Modulus (GPa) = 61.22025 68.73129 64.97577
# Shear Modulus (GPa) = 18.56001 19.89945 19.22973
#
# Velocity S-wave (km/s) = 3.30650 3.42374 3.36563
# Velocity P-wave (km/s) = 7.11616 7.49108 7.30602
#
# Compressibility (1/GPa) = 0.01633447
#
# Stress axis : x y z
#
# Youngs Moduli (GPa) = 32.39385 43.17416 55.37033
#
# Poissons Ratio (x) = 0.49946 0.40712
# Poissons Ratio (y) = 0.37475 0.49600
# Poissons Ratio (z) = 0.23818 0.38674
#
# Static dielectric constant tensor:
#      x y z
#    x 1.571880 0.000000 0.000000 
#    y 0.000000 1.563730 0.000000 
#    z 0.000000 0.000000 1.591830 
# 
# From -- ./inp_files/12726.got.cif
#   From: 2010.05.17/outbox.cif.g08.bks.cpg/sg38_7_cif.got.tgz:12726.got - 2010.06.03 18:07:57.
