data_PCOD9356922
_publ_section_title
;
Structure prediction by ZEFSAII (Michael W. Deem and Ramdas Pophale) SiO2 
 PCOD9356922
Probable space group: A M M 2
;
_chemical_formula_sum "Si O2"
_cell_formula_units_Z 56
_cell_length_a 20.063775
_cell_length_b 7.422356
_cell_length_c 16.546076
_cell_angle_alpha 90.000000
_cell_angle_beta 90.000000
_cell_angle_gamma 90.000000
_cell_volume 2464.049593
_symmetry_space_group_name_H-M "A M M 2"
_symmetry_group_IT_number 38
_symmetry_cell_setting 'orthorhombic'
loop_
_space_group_symop_operation_xyz
x,y,z
-x,-y,z
-x,y,z
x,-y,z
x,1/2+y,1/2+z
-x,1/2-y,1/2+z
-x,1/2+y,1/2+z
x,1/2-y,1/2+z
loop_
_atom_site_type_symbol
_atom_site_label
_atom_site_fract_x
_atom_site_fract_y
_atom_site_fract_z
Si Si1 0.857013 0.707106 0.400440
Si Si2 0.923453 0.217367 0.064671
Si Si3 0.283878 0.281624 0.962949
Si Si4 0.712136 0.719933 0.146497
Si Si5 0.156762 0.713450 0.228112
Si Si6 0.427710 0.782552 0.713769
Si Si7 0.427202 0.787696 0.404836
O O1 0.880462 0.500000 0.399828
O O2 0.887157 0.786066 0.483145
O O3 0.776868 0.712777 0.409330
O O4 0.872309 0.787303 0.312204
O O5 0.887068 0.266739 0.147871
O O6 0.000000 0.276650 0.065312
O O7 0.922098 0.000000 0.062522
O O8 0.283370 0.500000 0.957271
O O9 0.357814 0.216523 0.939659
O O10 0.270188 0.228945 0.055346
O O11 0.711581 0.500000 0.148636
O O12 0.769624 0.784406 0.206511
O O13 0.638285 0.782040 0.169260
O O14 0.164534 0.500000 0.241848
O O15 0.500000 0.720409 0.682635
O O16 0.423613 0.732472 0.808047
O O17 0.427529 0.000000 0.708933
O O18 0.500000 0.713748 0.430190
O O19 0.428263 0.000000 0.425135
#
# Coordination Sequence:
#
# PCOD9356922 Si02
#       7
#     8   8   8   8   8   8   8
#     4  10  21  37  59  85 113 145 181 224 274 324
#     4  10  22  40  59  83 116 146 175 218 271 327
#     4  10  19  32  52  76 106 143 183 227 272 322
#     4   9  17  30  49  75 105 134 175 228 268 308
#     4  10  20  36  59  84 111 146 186 226 267 318
#     4   9  17  30  49  71  97 134 179 226 273 320
#     4   9  18  31  46  68 100 137 177 223 274 324
#
# _framework density 22.726814999999998
#
# number of rings (size 3 to 8) (size 9 to 14) (size 15 to 20)
#    0.000    2.429    1.429    0.857    0.000    3.714 
#    0.000    5.714    0.000    0.000    0.000    4.000 
#    0.000    0.000    0.000    0.000    0.000    0.000 
#
# Total GULP energy -156334.896711 kJ/mol
# GULP energy per Si atom -5583.389168 kJ/mol
# Density = 2.267509 g / cm^3
# Si number density = 22.726815 Si / 1000 Ang^3
#
#
#
# Elastic Constant Matrix: (Units=GPa)
#
#
# Indices 1 2 3 4 5 6 
#
# 1 117.2369 -7.4440 61.0146 0.0000 0.0000 0.0000
# 2 -7.4440 74.3920 -3.0044 0.0000 0.0000 0.0000
# 3 61.0146 -3.0044 157.0597 0.0000 0.0000 0.0000
# 4 0.0000 0.0000 0.0000 12.9858 0.0000 0.0000
# 5 0.0000 0.0000 0.0000 0.0000 15.8371 0.0000
# 6 0.0000 0.0000 0.0000 0.0000 0.0000 14.3330
#
#
#
# Elastic Compliance Matrix: (Units=1/GPa)
#
#
# Indices 1 2 3 4 5 6 
#
# 1 0.010752 0.000908 -0.004160 0.000000 0.000000 0.000000
# 2 0.000908 0.013529 -0.000094 0.000000 0.000000 0.000000
# 3 -0.004160 -0.000094 0.007981 0.000000 0.000000 0.000000
# 4 0.000000 0.000000 0.000000 0.077007 0.000000 0.000000
# 5 0.000000 0.000000 0.000000 0.000000 0.063143 0.000000
# 6 0.000000 0.000000 0.000000 0.000000 0.000000 0.069769
#
#
# Mechanical properties :
#
#
# Convention : Reuss Voigt Hill
#
# Bulk Modulus (GPa) = 39.10610 49.98012 44.54311
# Shear Modulus (GPa) = 19.42525 28.50600 23.96563
#
# Velocity S-wave (km/s) = 2.92674 3.54544 3.25084
# Velocity P-wave (km/s) = 5.35402 6.22893 5.80797
#
# Compressibility (1/GPa) = 0.02557146
#
# Stress axis : x y z
#
# Youngs Moduli (GPa) = 93.00394 73.91330 125.29514
#
# Poissons Ratio (x) = -0.06711 0.52119
# Poissons Ratio (y) = -0.08444 0.01177
# Poissons Ratio (z) = 0.38686 0.00694
#
# Static dielectric constant tensor:
#      x y z
#    x 1.831430 0.000000 0.000000 
#    y 0.000000 1.853560 0.000000 
#    z 0.000000 0.000000 1.832250 
# 
# From -- ./inp_files/15456.got.cif
#   From: 2010.05.17/outbox.cif.g08.bks.cpg/sg38_8_cif.got.tgz:15456.got - 2010.06.03 18:07:57.
