data_PCOD9356130
_publ_section_title
;
Structure prediction by ZEFSAII (Michael W. Deem and Ramdas Pophale) SiO2 
 PCOD9356130
Probable space group: A M M 2
;
_chemical_formula_sum "Si O2"
_cell_formula_units_Z 64
_cell_length_a 20.053543
_cell_length_b 7.550716
_cell_length_c 21.049659
_cell_angle_alpha 90.000000
_cell_angle_beta 90.000000
_cell_angle_gamma 90.000000
_cell_volume 3187.310064
_symmetry_space_group_name_H-M "A M M 2"
_symmetry_group_IT_number 38
_symmetry_cell_setting 'orthorhombic'
loop_
_space_group_symop_operation_xyz
x,y,z
-x,-y,z
-x,y,z
x,-y,z
x,1/2+y,1/2+z
-x,1/2-y,1/2+z
-x,1/2+y,1/2+z
x,1/2-y,1/2+z
loop_
_atom_site_type_symbol
_atom_site_label
_atom_site_fract_x
_atom_site_fract_y
_atom_site_fract_z
Si Si1 0.188660 0.708477 0.463930
Si Si2 0.925441 0.714232 0.065246
Si Si3 0.332568 0.205679 0.517504
Si Si4 0.825529 0.202253 0.824839
Si Si5 0.423533 0.282916 0.903404
Si Si6 0.300991 0.713717 0.154877
Si Si7 0.150598 0.216780 0.688317
Si Si8 0.324404 0.291262 0.793837
O O1 0.202403 0.500000 0.455584
O O2 0.129931 0.730880 0.514463
O O3 0.257628 0.787919 0.489529
O O4 0.168050 0.782717 0.394823
O O5 0.925649 0.500000 0.065513
O O6 0.902269 0.771628 0.135526
O O7 0.000000 0.775837 0.050254
O O8 0.383170 0.280206 0.465430
O O9 0.329765 0.282634 0.588484
O O10 0.351418 0.000000 0.524683
O O11 0.857675 0.280386 0.760780
O O12 0.746259 0.201855 0.809818
O O13 0.850073 0.000000 0.829322
O O14 0.500000 0.225793 0.902652
O O15 0.423325 0.500000 0.903830
O O16 0.381901 0.229141 0.841149
O O17 0.299222 0.500000 0.151463
O O18 0.224097 0.771956 0.164064
O O19 0.338476 0.763662 0.219476
O O20 0.150942 0.000000 0.690554
O O21 0.314031 0.500000 0.804985
#
# Coordination Sequence:
#
# PCOD9356130 Si02
#       8
#     8   8   8   8   8   8   8   8
#     4  11  21  32  51  79 110 137 167 218 270 312
#     4  10  20  35  55  76 101 137 180 218 255 312
#     4  10  18  33  55  75 100 138 180 219 255 308
#     4   9  18  32  50  73 103 134 166 210 260 304
#     4   9  18  32  51  76 104 137 177 218 262 312
#     4   9  17  30  50  73 102 131 162 213 261 300
#     4   8  14  29  50  71  96 126 165 207 247 294
#     4  10  18  29  50  76 101 130 168 214 256 306
#
# _framework density 20.079629000000001
#
# number of rings (size 3 to 8) (size 9 to 14) (size 15 to 20)
#    0.000    2.500    2.500    1.500    0.000    1.250 
#    0.000    1.250    0.000    6.375    0.000    0.000 
#    0.000    0.000    0.000    0.000    0.000    0.000 
#
# Total GULP energy -178499.523621 kJ/mol
# GULP energy per Si atom -5578.110113 kJ/mol
# Density = 2.003393 g / cm^3
# Si number density = 20.079629 Si / 1000 Ang^3
#
#
#
# Elastic Constant Matrix: (Units=GPa)
#
#
# Indices 1 2 3 4 5 6 
#
# 1 64.2620 -13.3064 34.8291 0.0000 0.0000 0.0000
# 2 -13.3064 49.7586 -8.2490 0.0000 0.0000 0.0000
# 3 34.8291 -8.2490 160.4451 0.0000 0.0000 0.0000
# 4 0.0000 0.0000 0.0000 10.2552 0.0000 0.0000
# 5 0.0000 0.0000 0.0000 0.0000 26.3192 0.0000
# 6 0.0000 0.0000 0.0000 0.0000 0.0000 5.5899
#
#
#
# Elastic Compliance Matrix: (Units=1/GPa)
#
#
# Indices 1 2 3 4 5 6 
#
# 1 0.018514 0.004322 -0.003797 0.000000 0.000000 0.000000
# 2 0.004322 0.021279 0.000156 0.000000 0.000000 0.000000
# 3 -0.003797 0.000156 0.007065 0.000000 0.000000 0.000000
# 4 0.000000 0.000000 0.000000 0.097512 0.000000 0.000000
# 5 0.000000 0.000000 0.000000 0.000000 0.037995 0.000000
# 6 0.000000 0.000000 0.000000 0.000000 0.000000 0.178894
#
#
# Mechanical properties :
#
#
# Convention : Reuss Voigt Hill
#
# Bulk Modulus (GPa) = 20.73886 33.44590 27.09238
# Shear Modulus (GPa) = 13.29893 25.84565 19.57229
#
# Velocity S-wave (km/s) = 2.57633 3.59159 3.12546
# Velocity P-wave (km/s) = 4.38186 5.82170 5.15232
#
# Compressibility (1/GPa) = 0.04821867
#
# Stress axis : x y z
#
# Youngs Moduli (GPa) = 54.01333 46.99569 141.54536
#
# Poissons Ratio (x) = -0.20309 0.53742
# Poissons Ratio (y) = -0.23342 -0.02207
# Poissons Ratio (z) = 0.20508 -0.00733
#
# Static dielectric constant tensor:
#      x y z
#    x 1.654430 0.000000 0.000000 
#    y 0.000000 1.772360 0.000000 
#    z 0.000000 0.000000 1.746030 
# 
# From -- ./inp_files/21442.got.cif
#   From: 2010.05.17/outbox.cif.g08.bks.cpg/sg38_11_cif.got.tgz:21442.got - 2010.06.03 18:07:57.
