data_PCOD9356254
_publ_section_title
;
Structure prediction by ZEFSAII (Michael W. Deem and Ramdas Pophale) SiO2 
 PCOD9356254
Probable space group: A M M 2
;
_chemical_formula_sum "Si O2"
_cell_formula_units_Z 56
_cell_length_a 9.067732
_cell_length_b 19.372471
_cell_length_c 18.108643
_cell_angle_alpha 90.000000
_cell_angle_beta 90.000000
_cell_angle_gamma 90.000000
_cell_volume 3181.043458
_symmetry_space_group_name_H-M "A M M 2"
_symmetry_group_IT_number 38
_symmetry_cell_setting 'orthorhombic'
loop_
_space_group_symop_operation_xyz
x,y,z
-x,-y,z
-x,y,z
x,-y,z
x,1/2+y,1/2+z
-x,1/2-y,1/2+z
-x,1/2+y,1/2+z
x,1/2-y,1/2+z
loop_
_atom_site_type_symbol
_atom_site_label
_atom_site_fract_x
_atom_site_fract_y
_atom_site_fract_z
Si Si1 0.823724 0.787567 0.785480
Si Si2 0.332749 0.290848 0.916078
Si Si3 0.177677 0.078802 0.877669
Si Si4 0.669245 0.347446 0.511423
Si Si5 0.325193 0.806433 0.173358
Si Si6 0.167202 0.921627 0.259446
Si Si7 0.829036 0.923489 0.437601
O O1 0.770525 0.733881 0.848776
O O2 0.778034 0.863062 0.816972
O O3 0.751251 0.760382 0.710006
O O4 0.000000 0.785770 0.779505
O O5 0.500000 0.302721 0.889109
O O6 0.334201 0.226363 0.970894
O O7 0.270992 0.358486 0.956369
O O8 0.241843 0.102627 0.956751
O O9 0.000000 0.081087 0.881530
O O10 0.222228 0.000000 0.860520
O O11 0.500000 0.372721 0.517891
O O12 0.728812 0.331395 0.592901
O O13 0.500000 0.794737 0.168949
O O14 0.284946 0.870029 0.226518
O O15 0.175028 0.924325 0.348105
O O16 0.000000 0.898712 0.240230
O O17 0.187340 0.000000 0.232460
O O18 0.000000 0.913146 0.459126
O O19 0.782325 0.000000 0.463014
#
# Coordination Sequence:
#
# PCOD9356254 Si02
#       7
#     8   8   8   8   8   8   8
#     4  10  19  32  52  75 100 130 166 211 257 299
#     4  10  18  31  50  71  95 126 165 206 244 292
#     4   9  19  36  57  80 103 131 171 216 260 308
#     4   9  21  36  49  71 104 136 165 203 254 303
#     4  11  21  33  49  72 103 137 171 207 246 297
#     4   9  18  31  46  67  98 131 159 192 236 284
#     4   9  17  29  46  69  97 125 153 192 240 285
#
# _framework density 17.604285999999998
#
# number of rings (size 3 to 8) (size 9 to 14) (size 15 to 20)
#    0.000    2.429    1.429    2.143    0.000    3.714 
#    0.000    4.286    0.000    0.857    0.000    4.000 
#    0.000    0.000    0.000    0.000    0.000    0.000 
#
# Total GULP energy -155983.968107 kJ/mol
# GULP energy per Si atom -5570.856004 kJ/mol
# Density = 1.756422 g / cm^3
# Si number density = 17.604286 Si / 1000 Ang^3
#
#
#
# Elastic Constant Matrix: (Units=GPa)
#
#
# Indices 1 2 3 4 5 6 
#
# 1 36.3588 23.8382 3.1368 0.0000 0.0000 0.0000
# 2 23.8382 107.9356 4.5554 0.0000 0.0000 0.0000
# 3 3.1368 4.5554 32.0687 0.0000 0.0000 0.0000
# 4 0.0000 0.0000 0.0000 10.3750 0.0000 0.0000
# 5 0.0000 0.0000 0.0000 0.0000 11.6331 0.0000
# 6 0.0000 0.0000 0.0000 0.0000 0.0000 20.6894
#
#
#
# Elastic Compliance Matrix: (Units=1/GPa)
#
#
# Indices 1 2 3 4 5 6 
#
# 1 0.032309 -0.007044 -0.002160 0.000000 0.000000 0.000000
# 2 -0.007044 0.010857 -0.000853 0.000000 0.000000 0.000000
# 3 -0.002160 -0.000853 0.031516 0.000000 0.000000 0.000000
# 4 0.000000 0.000000 0.000000 0.096386 0.000000 0.000000
# 5 0.000000 0.000000 0.000000 0.000000 0.085962 0.000000
# 6 0.000000 0.000000 0.000000 0.000000 0.000000 0.048334
#
#
# Mechanical properties :
#
#
# Convention : Reuss Voigt Hill
#
# Bulk Modulus (GPa) = 18.32629 26.60265 22.46447
# Shear Modulus (GPa) = 14.54904 18.19500 16.37202
#
# Velocity S-wave (km/s) = 2.87792 3.21838 3.05290
# Velocity P-wave (km/s) = 4.63422 5.38098 5.02150
#
# Compressibility (1/GPa) = 0.05456640
#
# Stress axis : x y z
#
# Youngs Moduli (GPa) = 30.95153 92.10993 31.73039
#
# Poissons Ratio (x) = 0.64886 0.06852
# Poissons Ratio (y) = 0.21803 0.02707
# Poissons Ratio (z) = 0.06684 0.07858
#
# Static dielectric constant tensor:
#      x y z
#    x 1.613210 0.000000 0.000000 
#    y 0.000000 1.630740 0.000000 
#    z 0.000000 0.000000 1.602320 
# 
# From -- ./inp_files/17074.got.cif
#   From: 2010.05.17/outbox.cif.g08.bks.cpg/sg38_9_cif.got.tgz:17074.got - 2010.06.03 18:07:57.
