data_PCOD9356633
_publ_section_title
;
Structure prediction by ZEFSAII (Michael W. Deem and Ramdas Pophale) SiO2 
 PCOD9356633
Probable space group: A M M 2
;
_chemical_formula_sum "Si O2"
_cell_formula_units_Z 56
_cell_length_a 7.515653
_cell_length_b 21.487320
_cell_length_c 14.477272
_cell_angle_alpha 90.000000
_cell_angle_beta 90.000000
_cell_angle_gamma 90.000000
_cell_volume 2337.952622
_symmetry_space_group_name_H-M "A M M 2"
_symmetry_group_IT_number 38
_symmetry_cell_setting 'orthorhombic'
loop_
_space_group_symop_operation_xyz
x,y,z
-x,-y,z
-x,y,z
x,-y,z
x,1/2+y,1/2+z
-x,1/2-y,1/2+z
-x,1/2+y,1/2+z
x,1/2-y,1/2+z
loop_
_atom_site_type_symbol
_atom_site_label
_atom_site_fract_x
_atom_site_fract_y
_atom_site_fract_z
Si Si1 0.718456 0.253975 0.454350
Si Si2 0.282267 0.568133 0.254784
Si Si3 0.214566 0.428052 0.945970
Si Si4 0.296965 0.839019 0.608481
Si Si5 0.303867 0.169231 0.292932
Si Si6 0.714959 0.898405 0.959544
Si Si7 0.799060 0.067045 0.161074
O O1 0.500000 0.248038 0.454552
O O2 0.781047 0.216457 0.545735
O O3 0.784607 0.221158 0.359234
O O4 0.763617 0.325729 0.458070
O O5 0.500000 0.569936 0.249937
O O6 0.226561 0.500000 0.217961
O O7 0.217107 0.628929 0.199272
O O8 0.232386 0.572942 0.361787
O O9 0.256609 0.500000 0.940802
O O10 0.294041 0.390275 0.860773
O O11 0.000000 0.420454 0.946138
O O12 0.292616 0.396462 0.036892
O O13 0.500000 0.820897 0.630612
O O14 0.500000 0.194333 0.277308
O O15 0.257674 0.134967 0.197855
O O16 0.500000 0.903009 0.966265
O O17 0.790139 0.929469 0.050862
O O18 0.000000 0.063134 0.195480
O O19 0.713110 0.000000 0.188548
#
# Coordination Sequence:
#
# PCOD9356633 Si02
#       7
#     8   8   8   8   8   8   8
#     4   8  17  33  54  83 110 134 170 218 269 318
#     4   9  17  29  49  77 102 128 169 219 263 303
#     4  10  19  30  46  73 109 143 174 215 269 325
#     4   9  17  31  51  74 103 138 176 218 265 320
#     4  10  20  35  57  82 107 139 181 226 275 332
#     4  10  20  36  58  80 106 141 183 229 273 325
#     4  11  24  40  56  79 113 149 187 234 284 329
#
# _framework density 23.952583000000001
#
# number of rings (size 3 to 8) (size 9 to 14) (size 15 to 20)
#    0.000    2.429    0.000    3.429    0.000    6.286 
#    0.000    8.571    0.000    2.571    0.000    0.000 
#    0.000    0.000    0.000    0.000    0.000    0.000 
#
# Total GULP energy -156180.716151 kJ/mol
# GULP energy per Si atom -5577.882720 kJ/mol
# Density = 2.389807 g / cm^3
# Si number density = 23.952583 Si / 1000 Ang^3
#
#
#
# Elastic Constant Matrix: (Units=GPa)
#
#
# Indices 1 2 3 4 5 6 
#
# 1 59.1643 0.9689 -5.1396 0.0000 0.0000 0.0000
# 2 0.9689 124.4557 17.9771 0.0000 0.0000 0.0000
# 3 -5.1396 17.9771 86.9668 0.0000 0.0000 0.0000
# 4 0.0000 0.0000 0.0000 26.8565 0.0000 0.0000
# 5 0.0000 0.0000 0.0000 0.0000 51.5219 0.0000
# 6 0.0000 0.0000 0.0000 0.0000 0.0000 -22.0939
#
#
#
# Elastic Compliance Matrix: (Units=1/GPa)
#
#
# Indices 1 2 3 4 5 6 
#
# 1 0.016999 -0.000286 0.001064 0.000000 0.000000 0.000000
# 2 -0.000286 0.008287 -0.001730 0.000000 0.000000 0.000000
# 3 0.001064 -0.001730 0.011919 0.000000 0.000000 0.000000
# 4 0.000000 0.000000 0.000000 0.037235 0.000000 0.000000
# 5 0.000000 0.000000 0.000000 0.000000 0.019409 0.000000
# 6 0.000000 0.000000 0.000000 0.000000 0.000000 -0.045261
#
#
# Mechanical properties :
#
#
# Convention : Reuss Voigt Hill
#
# Bulk Modulus (GPa) = 28.32782 33.13328 30.73055
# Shear Modulus (GPa) = 80.30901 28.37559 54.34230
#
# Velocity S-wave (km/s) = 5.79665 3.44562 4.76830
# Velocity P-wave (km/s) = 7.52687 5.44909 6.57063
#
# Compressibility (1/GPa) = 0.03530099
#
# Stress axis : x y z
#
# Youngs Moduli (GPa) = 58.82643 120.66950 83.89888
#
# Poissons Ratio (x) = 0.03451 -0.08925
# Poissons Ratio (y) = 0.01682 0.14514
# Poissons Ratio (z) = -0.06258 0.20875
#
# Static dielectric constant tensor:
#      x y z
#    x 1.914720 0.000000 0.000000 
#    y 0.000000 1.897790 0.000000 
#    z 0.000000 0.000000 1.961500 
# 
# From -- ./inp_files/12390.got.cif
#   From: 2010.05.17/outbox.cif.g08.bks.cpg/sg38_7_cif.got.tgz:12390.got - 2010.06.03 18:07:57.
