data_PCOD9356539
_publ_section_title
;
Structure prediction by ZEFSAII (Michael W. Deem and Ramdas Pophale) SiO2 
 PCOD9356539
Probable space group: A M M 2
;
_chemical_formula_sum "Si O2"
_cell_formula_units_Z 56
_cell_length_a 7.703024
_cell_length_b 14.238935
_cell_length_c 30.543961
_cell_angle_alpha 90.000000
_cell_angle_beta 90.000000
_cell_angle_gamma 90.000000
_cell_volume 3350.148938
_symmetry_space_group_name_H-M "A M M 2"
_symmetry_group_IT_number 38
_symmetry_cell_setting 'orthorhombic'
loop_
_space_group_symop_operation_xyz
x,y,z
-x,-y,z
-x,y,z
x,-y,z
x,1/2+y,1/2+z
-x,1/2-y,1/2+z
-x,1/2+y,1/2+z
x,1/2-y,1/2+z
loop_
_atom_site_type_symbol
_atom_site_label
_atom_site_fract_x
_atom_site_fract_y
_atom_site_fract_z
Si Si1 0.206386 0.794743 0.456630
Si Si2 0.290879 0.894938 0.911452
Si Si3 0.294810 0.604482 0.867019
Si Si4 0.207654 0.392295 0.044141
Si Si5 0.712947 0.208427 0.823074
Si Si6 0.708531 0.391516 0.139309
Si Si7 0.711913 0.890164 0.734866
O O1 0.243568 0.686292 0.445676
O O2 0.276581 0.856645 0.416375
O O3 0.273578 0.832020 0.503183
O O4 0.000000 0.806878 0.455959
O O5 0.500000 0.898140 0.910203
O O6 0.233993 0.858610 0.863437
O O7 0.226631 0.000000 0.920603
O O8 0.500000 0.598329 0.858071
O O9 0.219926 0.500000 0.862763
O O10 0.226106 0.687003 0.835643
O O11 0.276031 0.500000 0.042222
O O12 0.242305 0.350434 0.092318
O O13 0.000000 0.398025 0.040012
O O14 0.500000 0.208881 0.822937
O O15 0.771537 0.169012 0.776502
O O16 0.500000 0.392805 0.140560
O O17 0.770243 0.500000 0.137949
O O18 0.767493 0.354364 0.186681
O O19 0.500000 0.888741 0.735532
O O20 0.761369 0.000000 0.739185
#
# Coordination Sequence:
#
# PCOD9356539 Si02
#       7
#     8   8   8   8   8   8   8
#     4  10  19  29  42  60  81 107 139 169 200 241
#     4   9  17  29  44  62  84 109 136 165 197 234
#     4   9  17  28  41  59  83 109 138 171 203 236
#     4   9  17  28  40  55  78 107 135 163 198 239
#     4   8  13  22  38  59  81 106 134 160 191 233
#     4   8  14  23  36  56  78  99 127 163 200 237
#     4   8  12  19  34  57  81 101 125 160 198 236
#
# _framework density 16.715675000000001
#
# number of rings (size 3 to 8) (size 9 to 14) (size 15 to 20)
#    0.000    3.286    0.000    3.000    0.000    4.000 
#    0.000    1.429    0.000    3.429    0.000    5.000 
#    0.000    3.429    0.000    0.000    0.000    0.000 
#
# Total GULP energy -155876.608350 kJ/mol
# GULP energy per Si atom -5567.021727 kJ/mol
# Density = 1.667763 g / cm^3
# Si number density = 16.715675 Si / 1000 Ang^3
#
#
#
# Elastic Constant Matrix: (Units=GPa)
#
#
# Indices 1 2 3 4 5 6 
#
# 1 24.6171 1.6863 0.8227 0.0000 0.0000 0.0000
# 2 1.6863 103.9759 74.1817 0.0000 0.0000 0.0000
# 3 0.8227 74.1817 170.7112 0.0000 0.0000 0.0000
# 4 0.0000 0.0000 0.0000 10.3543 0.0000 0.0000
# 5 0.0000 0.0000 0.0000 0.0000 36.9968 0.0000
# 6 0.0000 0.0000 0.0000 0.0000 0.0000 7.5272
#
#
#
# Elastic Compliance Matrix: (Units=1/GPa)
#
#
# Indices 1 2 3 4 5 6 
#
# 1 0.040669 -0.000753 0.000131 0.000000 0.000000 0.000000
# 2 -0.000753 0.013953 -0.006060 0.000000 0.000000 0.000000
# 3 0.000131 -0.006060 0.008490 0.000000 0.000000 0.000000
# 4 0.000000 0.000000 0.000000 0.096578 0.000000 0.000000
# 5 0.000000 0.000000 0.000000 0.000000 0.027029 0.000000
# 6 0.000000 0.000000 0.000000 0.000000 0.000000 0.132851
#
#
# Mechanical properties :
#
#
# Convention : Reuss Voigt Hill
#
# Bulk Modulus (GPa) = 20.10058 50.29839 35.19948
# Shear Modulus (GPa) = 14.30544 25.81656 20.06100
#
# Velocity S-wave (km/s) = 2.92860 3.93422 3.46805
# Velocity P-wave (km/s) = 4.84630 7.12694 6.09426
#
# Compressibility (1/GPa) = 0.04974981
#
# Stress axis : x y z
#
# Youngs Moduli (GPa) = 24.58849 71.66888 117.78027
#
# Poissons Ratio (x) = 0.05399 -0.01547
# Poissons Ratio (y) = 0.01852 0.71370
# Poissons Ratio (z) = -0.00323 0.43428
#
# Static dielectric constant tensor:
#      x y z
#    x 1.617890 0.000000 0.000000 
#    y 0.000000 1.847510 0.000000 
#    z 0.000000 0.000000 1.584980 
# 
# From -- ./inp_files/24626.got.cif
#   From: 2010.05.17/outbox.cif.g08.bks.cpg/sg38_13_cif.got.tgz:24626.got - 2010.06.03 18:07:57.
