data_PCOD9356937
_publ_section_title
;
Structure prediction by ZEFSAII (Michael W. Deem and Ramdas Pophale) SiO2 
 PCOD9356937
Probable space group: A M M 2
;
_chemical_formula_sum "Si O2"
_cell_formula_units_Z 40
_cell_length_a 12.186601
_cell_length_b 19.375959
_cell_length_c 9.056063
_cell_angle_alpha 90.000000
_cell_angle_beta 90.000000
_cell_angle_gamma 90.000000
_cell_volume 2138.381724
_symmetry_space_group_name_H-M "A M M 2"
_symmetry_group_IT_number 38
_symmetry_cell_setting 'orthorhombic'
loop_
_space_group_symop_operation_xyz
x,y,z
-x,-y,z
-x,y,z
x,-y,z
x,1/2+y,1/2+z
-x,1/2-y,1/2+z
-x,1/2+y,1/2+z
x,1/2-y,1/2+z
loop_
_atom_site_type_symbol
_atom_site_label
_atom_site_fract_x
_atom_site_fract_y
_atom_site_fract_z
Si Si1 0.869782 0.079907 0.927230
Si Si2 0.292127 0.079968 0.663010
Si Si3 0.710817 0.177772 0.106509
Si Si4 0.621094 0.212479 0.796322
Si Si5 0.624358 0.418877 0.855027
O O1 0.817041 0.086207 0.763035
O O2 0.000000 0.088799 0.924234
O O3 0.846096 0.000000 0.974948
O O4 0.812287 0.136607 0.032656
O O5 0.372285 0.134921 0.736457
O O6 0.292117 0.097215 0.489028
O O7 0.328521 0.000000 0.673230
O O8 0.716243 0.242809 0.217659
O O9 0.649714 0.121902 0.207247
O O10 0.642574 0.207508 0.969500
O O11 0.500000 0.241802 0.766923
O O12 0.500000 0.403626 0.906309
O O13 0.631385 0.500000 0.825259
#
# Coordination Sequence:
#
# PCOD9356937 Si02
#       5
#     8   8   8   8   8
#     4   9  19  39  64  86 112 148 191 241 290 334
#     4   9  19  35  56  83 113 147 189 233 280 337
#     4  11  22  36  53  81 114 150 193 235 282 338
#     4  11  21  33  52  78 113 154 191 231 281 339
#     4  10  19  32  52  80 116 153 187 229 280 337
#
# _framework density 18.705732999999999
#
# number of rings (size 3 to 8) (size 9 to 14) (size 15 to 20)
#    0.000    2.000    0.000    4.200    0.000    2.000 
#    0.000    5.000    0.000    3.600    0.000    0.000 
#    0.000    0.000    0.000    0.000    0.000    0.000 
#
# Total GULP energy -111398.977592 kJ/mol
# GULP energy per Si atom -5569.948880 kJ/mol
# Density = 1.866316 g / cm^3
# Si number density = 18.705733 Si / 1000 Ang^3
#
#
#
# Elastic Constant Matrix: (Units=GPa)
#
#
# Indices 1 2 3 4 5 6 
#
# 1 86.2682 41.4442 35.2825 0.0000 0.0000 0.0000
# 2 41.4442 71.7232 51.0898 0.0000 0.0000 0.0000
# 3 35.2825 51.0898 128.8273 0.0000 0.0000 0.0000
# 4 0.0000 0.0000 0.0000 42.0996 0.0000 0.0000
# 5 0.0000 0.0000 0.0000 0.0000 16.5794 0.0000
# 6 0.0000 0.0000 0.0000 0.0000 0.0000 21.5895
#
#
#
# Elastic Compliance Matrix: (Units=1/GPa)
#
#
# Indices 1 2 3 4 5 6 
#
# 1 0.016139 -0.008609 -0.001006 0.000000 0.000000 0.000000
# 2 -0.008609 0.024024 -0.007170 0.000000 0.000000 0.000000
# 3 -0.001006 -0.007170 0.010881 0.000000 0.000000 0.000000
# 4 0.000000 0.000000 0.000000 0.023753 0.000000 0.000000
# 5 0.000000 0.000000 0.000000 0.000000 0.060316 0.000000
# 6 0.000000 0.000000 0.000000 0.000000 0.000000 0.046319
#
#
# Mechanical properties :
#
#
# Convention : Reuss Voigt Hill
#
# Bulk Modulus (GPa) = 57.22443 60.27241 58.74842
# Shear Modulus (GPa) = 22.64218 26.65384 24.64801
#
# Velocity S-wave (km/s) = 3.48291 3.77888 3.63391
# Velocity P-wave (km/s) = 6.84343 7.16458 7.00585
#
# Compressibility (1/GPa) = 0.01747505
#
# Stress axis : x y z
#
# Youngs Moduli (GPa) = 61.96124 41.62463 91.90248
#
# Poissons Ratio (x) = 0.35836 0.09244
# Poissons Ratio (y) = 0.53344 0.65890
# Poissons Ratio (z) = 0.06233 0.29843
#
# Static dielectric constant tensor:
#      x y z
#    x 1.606650 0.000000 0.000000 
#    y 0.000000 1.704040 0.000000 
#    z 0.000000 0.000000 1.659250 
# 
# From -- ./inp_files/4279.got.cif
#   From: 2010.05.17/outbox.cif.g08.bks.cpg/sg38_3_cif.got.tgz:4279.got - 2010.06.03 18:07:57.
