data_PCOD9356410
_publ_section_title
;
Structure prediction by ZEFSAII (Michael W. Deem and Ramdas Pophale) SiO2 
 PCOD9356410
Probable space group: A M M 2
;
_chemical_formula_sum "Si O2"
_cell_formula_units_Z 58
_cell_length_a 23.760647
_cell_length_b 7.591372
_cell_length_c 14.828837
_cell_angle_alpha 90.000000
_cell_angle_beta 90.000000
_cell_angle_gamma 90.000000
_cell_volume 2674.764973
_symmetry_space_group_name_H-M "A M M 2"
_symmetry_group_IT_number 38
_symmetry_cell_setting 'orthorhombic'
loop_
_space_group_symop_operation_xyz
x,y,z
-x,-y,z
-x,y,z
x,-y,z
x,1/2+y,1/2+z
-x,1/2-y,1/2+z
-x,1/2+y,1/2+z
x,1/2-y,1/2+z
loop_
_atom_site_type_symbol
_atom_site_label
_atom_site_fract_x
_atom_site_fract_y
_atom_site_fract_z
Si Si1 0.000000 0.000000 0.814520
Si Si2 0.340221 0.705284 0.968265
Si Si3 0.363062 0.788145 0.172566
Si Si4 0.563377 0.715924 0.833931
Si Si5 0.214973 0.215886 0.422378
Si Si6 0.850286 0.801107 0.586110
Si Si7 0.760941 0.287753 0.723967
Si Si8 0.061150 0.689464 0.732739
O O1 0.950676 0.845496 0.802379
O O2 0.335002 0.500000 0.942363
O O3 0.358590 0.717970 0.071816
O O4 0.277182 0.777757 0.954026
O O5 0.389761 0.778080 0.905231
O O6 0.414699 0.731656 0.234850
O O7 0.304876 0.743407 0.223781
O O8 0.364865 0.000000 0.165562
O O9 0.500000 0.774822 0.852585
O O10 0.562924 0.500000 0.836509
O O11 0.166204 0.278231 0.489666
O O12 0.210076 0.263479 0.317761
O O13 0.213958 0.000000 0.427834
O O14 0.791241 0.799640 0.639826
O O15 0.892616 0.713368 0.656183
O O16 0.871063 0.000000 0.573721
O O17 0.765636 0.500000 0.714436
O O18 0.070225 0.500000 0.777730
O O19 0.000000 0.687208 0.683725
#
# Coordination Sequence:
#
# PCOD9356410 Si02
#       8
#     2   8   8   8   8   8   8   8
#     4   8  14  32  52  82 112 148 198 234 274 326
#     4  10  18  33  53  73  98 132 174 216 264 325
#     4  10  19  32  51  74 102 132 169 218 270 326
#     4   9  18  33  54  74  97 135 178 216 261 327
#     4   9  18  31  50  73 102 139 176 216 270 327
#     4  11  19  32  53  79 108 142 181 225 275 329
#     4  10  19  32  49  74 102 137 177 219 270 331
#     4   9  17  31  53  81 112 152 191 233 281 330
#
# _framework density 21.684148
#
# number of rings (size 3 to 8) (size 9 to 14) (size 15 to 20)
#    0.414    1.931    3.448    0.414    0.000    0.552 
#    0.000    2.759    0.000    1.655    0.000    1.931 
#    0.000    0.000    0.000    0.000    0.000    0.000 
#
# Total GULP energy -161434.766244 kJ/mol
# GULP energy per Si atom -5566.716077 kJ/mol
# Density = 2.163479 g / cm^3
# Si number density = 21.684148 Si / 1000 Ang^3
#
#
#
# Elastic Constant Matrix: (Units=GPa)
#
#
# Indices 1 2 3 4 5 6 
#
# 1 35.2004 -2.1792 -20.9299 0.0000 0.0000 0.0000
# 2 -2.1792 70.8278 -9.3294 0.0000 0.0000 0.0000
# 3 -20.9299 -9.3294 60.1061 0.0000 0.0000 0.0000
# 4 0.0000 0.0000 0.0000 8.6164 0.0000 0.0000
# 5 0.0000 0.0000 0.0000 0.0000 -17.2415 0.0000
# 6 0.0000 0.0000 0.0000 0.0000 0.0000 11.6238
#
#
#
# Elastic Compliance Matrix: (Units=1/GPa)
#
#
# Indices 1 2 3 4 5 6 
#
# 1 0.036380 0.002846 0.013110 0.000000 0.000000 0.000000
# 2 0.002846 0.014636 0.003263 0.000000 0.000000 0.000000
# 3 0.013110 0.003263 0.021709 0.000000 0.000000 0.000000
# 4 0.000000 0.000000 0.000000 0.116058 0.000000 0.000000
# 5 0.000000 0.000000 0.000000 0.000000 -0.058000 0.000000
# 6 0.000000 0.000000 0.000000 0.000000 0.000000 0.086030
#
#
# Mechanical properties :
#
#
# Convention : Reuss Voigt Hill
#
# Bulk Modulus (GPa) = 8.99586 11.25083 10.12334
# Shear Modulus (GPa) = 23.20935 13.83792 18.52363
#
# Velocity S-wave (km/s) = 3.27515 2.52892 2.92592
# Velocity P-wave (km/s) = 4.29648 3.70500 4.01166
#
# Compressibility (1/GPa) = 0.11116229
#
# Stress axis : x y z
#
# Youngs Moduli (GPa) = 27.48767 68.32428 46.06441
#
# Poissons Ratio (x) = -0.19446 -0.60390
# Poissons Ratio (y) = -0.07823 -0.15030
# Poissons Ratio (z) = -0.36036 -0.22293
#
# Static dielectric constant tensor:
#      x y z
#    x 1.816130 0.000000 0.000000 
#    y 0.000000 1.910710 0.000000 
#    z 0.000000 0.000000 1.759660 
# 
# From -- ./inp_files/15651.got.cif
#   From: 2010.05.17/outbox.cif.g08.bks.cpg/sg38_8_cif.got.tgz:15651.got - 2010.06.03 18:07:57.
