data_PCOD9356479
_publ_section_title
;
Structure prediction by ZEFSAII (Michael W. Deem and Ramdas Pophale) SiO2 
 PCOD9356479
Probable space group: A M M 2
;
_chemical_formula_sum "Si O2"
_cell_formula_units_Z 38
_cell_length_a 13.449952
_cell_length_b 21.828758
_cell_length_c 5.180758
_cell_angle_alpha 90.000000
_cell_angle_beta 90.000000
_cell_angle_gamma 90.000000
_cell_volume 1521.048517
_symmetry_space_group_name_H-M "A M M 2"
_symmetry_group_IT_number 38
_symmetry_cell_setting 'orthorhombic'
loop_
_space_group_symop_operation_xyz
x,y,z
-x,-y,z
-x,y,z
x,-y,z
x,1/2+y,1/2+z
-x,1/2-y,1/2+z
-x,1/2+y,1/2+z
x,1/2-y,1/2+z
loop_
_atom_site_type_symbol
_atom_site_label
_atom_site_fract_x
_atom_site_fract_y
_atom_site_fract_z
Si Si1 0.745365 0.428193 0.173040
Si Si2 0.500000 0.289339 0.714106
Si Si3 0.891975 0.622801 0.813798
Si Si4 0.000000 0.000000 0.167085
Si Si5 0.724490 0.789804 0.096094
Si Si6 0.384769 0.925813 0.162755
O O1 0.769597 0.500000 0.188927
O O2 0.844666 0.393060 0.091843
O O3 0.685305 0.408661 0.422584
O O4 0.670328 0.417956 0.934715
O O5 0.500000 0.268954 0.013669
O O6 0.611996 0.313759 0.657066
O O7 0.815716 0.666671 0.670855
O O8 0.000000 0.652235 0.838790
O O9 0.914430 0.555588 0.686749
O O10 0.730817 0.766175 0.803633
O O11 0.500000 0.906398 0.162766
O O12 0.390401 0.000000 0.131666
#
# Coordination Sequence:
#
# PCOD9356479 Si02
#       6
#     8   4   8   2   8   8
#     4  10  18  35  56  81 119 167 215 261 319 398
#     4   8  16  36  64  95 132 171 220 276 346 410
#     4  10  21  41  70  95 141 181 234 279 339 412
#     4   8  20  44  68 100 136 198 224 284 342 406
#     4  10  22  42  71 102 134 176 226 290 347 405
#     4   9  18  31  52  79 116 159 206 266 324 383
#
# _framework density 24.982766999999999
#
# number of rings (size 3 to 8) (size 9 to 14) (size 15 to 20)
#    0.632    1.895    1.053    0.632    0.000    5.053 
#    3.789    3.158    4.632    9.474    0.000    0.000 
#    0.000    0.000    0.000    0.000    0.000    0.000 
#
# Total GULP energy -105997.058633 kJ/mol
# GULP energy per Si atom -5578.792560 kJ/mol
# Density = 2.492591 g / cm^3
# Si number density = 24.982767 Si / 1000 Ang^3
#
#
#
# Elastic Constant Matrix: (Units=GPa)
#
#
# Indices 1 2 3 4 5 6 
#
# 1 227.0348 73.9072 44.1569 0.0000 0.0000 0.0000
# 2 73.9072 56.8949 6.3674 0.0000 0.0000 0.0000
# 3 44.1569 6.3674 107.5005 0.0000 0.0000 0.0000
# 4 0.0000 0.0000 0.0000 44.7600 0.0000 0.0000
# 5 0.0000 0.0000 0.0000 0.0000 131.3008 0.0000
# 6 0.0000 0.0000 0.0000 0.0000 0.0000 71.4250
#
#
#
# Elastic Compliance Matrix: (Units=1/GPa)
#
#
# Indices 1 2 3 4 5 6 
#
# 1 0.008406 -0.010603 -0.002825 0.000000 0.000000 0.000000
# 2 -0.010603 0.031068 0.002515 0.000000 0.000000 0.000000
# 3 -0.002825 0.002515 0.010314 0.000000 0.000000 0.000000
# 4 0.000000 0.000000 0.000000 0.022341 0.000000 0.000000
# 5 0.000000 0.000000 0.000000 0.000000 0.007616 0.000000
# 6 0.000000 0.000000 0.000000 0.000000 0.000000 0.014001
#
#
# Mechanical properties :
#
#
# Convention : Reuss Voigt Hill
#
# Bulk Modulus (GPa) = 35.76252 71.14368 53.45310
# Shear Modulus (GPa) = 40.03494 67.29708 53.66601
#
# Velocity S-wave (km/s) = 4.00747 5.19576 4.63981
# Velocity P-wave (km/s) = 5.97989 8.03327 7.08140
#
# Compressibility (1/GPa) = 0.02796224
#
# Stress axis : x y z
#
# Youngs Moduli (GPa) = 118.96913 32.18746 96.95967
#
# Poissons Ratio (x) = 0.34128 0.27388
# Poissons Ratio (y) = 1.26141 -0.24385
# Poissons Ratio (z) = 0.33605 -0.08095
#
# Static dielectric constant tensor:
#      x y z
#    x 1.857590 0.000000 0.000000 
#    y 0.000000 2.168810 0.000000 
#    z 0.000000 0.000000 1.931410 
# 
# From -- ./inp_files/913.got.cif
#   From: 2010.05.17/outbox.cif.g08.bks.cpg/sg38_1_cif.got.tgz:913.got - 2010.06.03 18:07:57.
