data_PCOD9356560
_publ_section_title
;
Structure prediction by ZEFSAII (Michael W. Deem and Ramdas Pophale) SiO2 
 PCOD9356560
Probable space group: A M M 2
;
_chemical_formula_sum "Si O2"
_cell_formula_units_Z 64
_cell_length_a 9.156064
_cell_length_b 21.853854
_cell_length_c 15.872645
_cell_angle_alpha 90.000000
_cell_angle_beta 90.000000
_cell_angle_gamma 90.000000
_cell_volume 3176.041439
_symmetry_space_group_name_H-M "A M M 2"
_symmetry_group_IT_number 38
_symmetry_cell_setting 'orthorhombic'
loop_
_space_group_symop_operation_xyz
x,y,z
-x,-y,z
-x,y,z
x,-y,z
x,1/2+y,1/2+z
-x,1/2-y,1/2+z
-x,1/2+y,1/2+z
x,1/2-y,1/2+z
loop_
_atom_site_type_symbol
_atom_site_label
_atom_site_fract_x
_atom_site_fract_y
_atom_site_fract_z
Si Si1 0.174558 0.701518 0.750000
Si Si2 0.667585 0.425504 0.313023
Si Si3 0.824496 0.565980 0.809640
Si Si4 0.666925 0.740874 0.912385
Si Si5 0.832973 0.925709 0.646490
Si Si6 0.322271 0.931010 0.001366
Si Si7 0.333430 0.601239 0.975979
Si Si8 0.323960 0.690258 0.581404
O O1 0.219748 0.629958 0.766403
O O2 0.236949 0.739857 0.828487
O O3 0.245406 0.719181 0.661283
O O4 0.000000 0.705017 0.747395
O O5 0.500000 0.404756 0.303033
O O6 0.664740 0.500000 0.311514
O O7 0.764327 0.404605 0.234958
O O8 0.722089 0.410542 0.406919
O O9 0.780127 0.500000 0.771177
O O10 0.759973 0.568460 0.903792
O O11 0.000000 0.567266 0.813752
O O12 0.500000 0.758987 0.891579
O O13 0.664355 0.671755 0.947571
O O14 0.716980 0.780020 0.992142
O O15 0.738491 0.905355 0.566954
O O16 0.000000 0.905320 0.637903
O O17 0.831638 0.000000 0.647102
O O18 0.500000 0.932540 0.998186
O O19 0.281887 0.880996 0.070068
O O20 0.270663 0.000000 0.017459
O O21 0.500000 0.578599 0.977559
O O22 0.500000 0.695388 0.590553
#
# Coordination Sequence:
#
# PCOD9356560 Si02
#       8
#     8   8   8   8   8   8   8   8
#     4  10  21  37  58  83 113 147 181 225 275 323
#     4   8  14  27  46  67  96 133 171 213 258 307
#     4   9  18  33  52  75 107 145 179 213 264 327
#     4   9  20  39  58  77 105 144 187 230 272 317
#     4  10  19  29  43  67 101 139 176 216 270 331
#     4   8  15  30  54  83 110 136 171 218 270 320
#     4  10  19  31  48  71  99 134 181 231 272 313
#     4  10  20  37  61  85 110 144 183 224 271 325
#
# _framework density 20.150870999999999
#
# number of rings (size 3 to 8) (size 9 to 14) (size 15 to 20)
#    0.000    2.750    0.000    2.250    0.000    4.500 
#    2.250    0.625    0.000    0.750    0.000    0.000 
#    0.000    0.000    0.000    0.000    0.000    0.000 
#
# Total GULP energy -178503.369550 kJ/mol
# GULP energy per Si atom -5578.230298 kJ/mol
# Density = 2.010501 g / cm^3
# Si number density = 20.150871 Si / 1000 Ang^3
#
#
#
# Elastic Constant Matrix: (Units=GPa)
#
#
# Indices 1 2 3 4 5 6 
#
# 1 35.0499 10.1769 44.1489 0.0000 0.0000 0.0000
# 2 10.1769 37.6987 24.7739 0.0000 0.0000 0.0000
# 3 44.1489 24.7739 135.3536 0.0000 0.0000 0.0000
# 4 0.0000 0.0000 0.0000 17.9309 0.0000 0.0000
# 5 0.0000 0.0000 0.0000 0.0000 -20.0380 0.0000
# 6 0.0000 0.0000 0.0000 0.0000 0.0000 12.3145
#
#
#
# Elastic Compliance Matrix: (Units=1/GPa)
#
#
# Indices 1 2 3 4 5 6 
#
# 1 0.048740 -0.003081 -0.015334 0.000000 0.000000 0.000000
# 2 -0.003081 0.030348 -0.004550 0.000000 0.000000 0.000000
# 3 -0.015334 -0.004550 0.013222 0.000000 0.000000 0.000000
# 4 0.000000 0.000000 0.000000 0.055770 0.000000 0.000000
# 5 0.000000 0.000000 0.000000 0.000000 -0.049905 0.000000
# 6 0.000000 0.000000 0.000000 0.000000 0.000000 0.081205
#
#
# Mechanical properties :
#
#
# Convention : Reuss Voigt Hill
#
# Bulk Modulus (GPa) = 21.56048 40.70017 31.13033
# Shear Modulus (GPa) = 20.76689 10.64164 15.70426
#
# Velocity S-wave (km/s) = 3.21373 2.30053 2.79468
# Velocity P-wave (km/s) = 4.94909 5.22476 5.08880
#
# Compressibility (1/GPa) = 0.04638115
#
# Stress axis : x y z
#
# Youngs Moduli (GPa) = 20.51716 32.95148 75.62992
#
# Poissons Ratio (x) = 0.10152 1.15969
# Poissons Ratio (y) = 0.06321 0.34409
# Poissons Ratio (z) = 0.31461 0.14992
#
# Static dielectric constant tensor:
#      x y z
#    x 1.677040 0.000000 0.000000 
#    y 0.000000 1.778390 0.000000 
#    z 0.000000 0.000000 1.682850 
# 
# From -- ./inp_files/12859.got.cif
#   From: 2010.05.17/outbox.cif.g08.bks.cpg/sg38_7_cif.got.tgz:12859.got - 2010.06.03 18:07:57.
