data_PCOD9356008
_publ_section_title
;
Structure prediction by ZEFSAII (Michael W. Deem and Ramdas Pophale) SiO2 
 PCOD9356008
Probable space group: A M M 2
;
_chemical_formula_sum "Si O2"
_cell_formula_units_Z 56
_cell_length_a 8.834698
_cell_length_b 30.303125
_cell_length_c 13.959213
_cell_angle_alpha 90.000000
_cell_angle_beta 90.000000
_cell_angle_gamma 90.000000
_cell_volume 3737.145957
_symmetry_space_group_name_H-M "A M M 2"
_symmetry_group_IT_number 38
_symmetry_cell_setting 'orthorhombic'
loop_
_space_group_symop_operation_xyz
x,y,z
-x,-y,z
-x,y,z
x,-y,z
x,1/2+y,1/2+z
-x,1/2-y,1/2+z
-x,1/2+y,1/2+z
x,1/2-y,1/2+z
loop_
_atom_site_type_symbol
_atom_site_label
_atom_site_fract_x
_atom_site_fract_y
_atom_site_fract_z
Si Si1 0.317800 0.683492 0.818230
Si Si2 0.819315 0.267650 0.217328
Si Si3 0.184076 0.595264 0.509472
Si Si4 0.318527 0.592416 0.721601
Si Si5 0.181903 0.686478 0.413830
Si Si6 0.174487 0.500000 0.495232
Si Si7 0.680769 0.229494 0.514030
Si Si8 0.174591 0.500000 0.728454
O O1 0.500000 0.687718 0.810073
O O2 0.243761 0.719796 0.748747
O O3 0.276308 0.634124 0.787361
O O4 0.275523 0.696927 0.926693
O O5 0.779190 0.300340 0.304987
O O6 0.000000 0.265270 0.210143
O O7 0.751005 0.281663 0.116235
O O8 0.251063 0.600671 0.615695
O O9 0.223326 0.637211 0.445068
O O10 0.239261 0.547850 0.468972
O O11 0.000000 0.593059 0.517734
O O12 0.500000 0.589958 0.715271
O O13 0.255109 0.545439 0.757251
O O14 0.260430 0.722398 0.481700
O O15 0.000000 0.691133 0.424249
O O16 0.176450 0.500000 0.611658
O O17 0.000000 0.500000 0.462672
O O18 0.500000 0.230103 0.521211
O O19 0.000000 0.500000 0.758346
#
# Coordination Sequence:
#
# PCOD9356008 Si02
#       8
#     8   8   8   8   8   4   8   4
#     4   9  19  32  45  63  86 114 147 179 215 259
#     4  10  19  30  44  63  87 114 146 183 220 257
#     4   9  16  27  42  61  86 114 142 171 209 258
#     4  10  18  28  43  64  88 112 141 177 212 248
#     4   9  18  30  44  63  86 113 146 181 216 256
#     4   7  12  23  39  57  78 105 134 162 195 242
#     4  10  19  31  45  61  85 115 146 179 215 258
#     4   9  17  29  43  61  86 115 142 168 207 256
#
# _framework density 14.984696
#
# number of rings (size 3 to 8) (size 9 to 14) (size 15 to 20)
#    0.000    2.714    0.000    3.214    0.000    5.143 
#    0.000    0.000    0.000    0.000    0.000    1.000 
#    0.000    1.143    0.000    0.000    0.000    0.000 
#
# Total GULP energy -155990.954812 kJ/mol
# GULP energy per Si atom -5571.105529 kJ/mol
# Density = 1.495059 g / cm^3
# Si number density = 14.984696 Si / 1000 Ang^3
#
#
#
# Elastic Constant Matrix: (Units=GPa)
#
#
# Indices 1 2 3 4 5 6 
#
# 1 26.0728 36.6127 26.0350 0.0000 0.0000 0.0000
# 2 36.6127 153.1670 55.4125 0.0000 0.0000 0.0000
# 3 26.0350 55.4125 75.7472 0.0000 0.0000 0.0000
# 4 0.0000 0.0000 0.0000 20.2291 0.0000 0.0000
# 5 0.0000 0.0000 0.0000 0.0000 21.9745 0.0000
# 6 0.0000 0.0000 0.0000 0.0000 0.0000 20.7899
#
#
#
# Elastic Compliance Matrix: (Units=1/GPa)
#
#
# Indices 1 2 3 4 5 6 
#
# 1 0.069520 -0.010843 -0.015962 0.000000 0.000000 0.000000
# 2 -0.010843 0.010570 -0.004005 0.000000 0.000000 0.000000
# 3 -0.015962 -0.004005 0.021618 0.000000 0.000000 0.000000
# 4 0.000000 0.000000 0.000000 0.049434 0.000000 0.000000
# 5 0.000000 0.000000 0.000000 0.000000 0.045507 0.000000
# 6 0.000000 0.000000 0.000000 0.000000 0.000000 0.048100
#
#
# Mechanical properties :
#
#
# Convention : Reuss Voigt Hill
#
# Bulk Modulus (GPa) = 24.94628 54.56749 39.75689
# Shear Modulus (GPa) = 15.63807 21.72715 18.68261
#
# Velocity S-wave (km/s) = 3.23399 3.81196 3.53481
# Velocity P-wave (km/s) = 5.53434 7.47457 6.57640
#
# Compressibility (1/GPa) = 0.04008613
#
# Stress axis : x y z
#
# Youngs Moduli (GPa) = 14.38445 94.60925 46.25691
#
# Poissons Ratio (x) = 1.02585 0.73837
# Poissons Ratio (y) = 0.15597 0.18528
# Poissons Ratio (z) = 0.22961 0.37895
#
# Static dielectric constant tensor:
#      x y z
#    x 1.503320 0.000000 0.000000 
#    y 0.000000 1.511760 0.000000 
#    z 0.000000 0.000000 1.478920 
# 
# From -- ./inp_files/13023.got.cif
#   From: 2010.05.17/outbox.cif.g08.bks.cpg/sg38_7_cif.got.tgz:13023.got - 2010.06.03 18:07:57.
