data_PCOD9356975
_publ_section_title
;
Structure prediction by ZEFSAII (Michael W. Deem and Ramdas Pophale) SiO2 
 PCOD9356975
Probable space group: A M M 2
;
_chemical_formula_sum "Si O2"
_cell_formula_units_Z 40
_cell_length_a 7.924386
_cell_length_b 9.183980
_cell_length_c 29.934141
_cell_angle_alpha 90.000000
_cell_angle_beta 90.000000
_cell_angle_gamma 90.000000
_cell_volume 2178.529029
_symmetry_space_group_name_H-M "A M M 2"
_symmetry_group_IT_number 38
_symmetry_cell_setting 'orthorhombic'
loop_
_space_group_symop_operation_xyz
x,y,z
-x,-y,z
-x,y,z
x,-y,z
x,1/2+y,1/2+z
-x,1/2-y,1/2+z
-x,1/2+y,1/2+z
x,1/2-y,1/2+z
loop_
_atom_site_type_symbol
_atom_site_label
_atom_site_fract_x
_atom_site_fract_y
_atom_site_fract_z
Si Si1 0.185848 0.322847 0.998590
Si Si2 0.699220 0.832934 0.594714
Si Si3 0.500000 0.175466 0.841688
Si Si4 0.500000 0.323304 0.937751
Si Si5 0.803681 0.674836 0.275580
Si Si6 0.796477 0.333543 0.683756
O O1 0.192771 0.500000 0.000259
O O2 0.335501 0.277338 0.966013
O O3 0.000000 0.279358 0.982987
O O4 0.214080 0.274887 0.049749
O O5 0.500000 0.836423 0.585145
O O6 0.731400 0.742068 0.639033
O O7 0.756349 0.000000 0.602442
O O8 0.500000 0.253989 0.889079
O O9 0.667892 0.214445 0.813362
O O10 0.500000 0.000000 0.847418
O O11 0.500000 0.500000 0.934584
O O12 0.799003 0.500000 0.270455
O O13 0.751723 0.747268 0.228734
O O14 0.000000 0.715458 0.285465
O O15 0.738417 0.500000 0.686498
O O16 0.000000 0.332380 0.681387
#
# Coordination Sequence:
#
# PCOD9356975 Si02
#       6
#     8   8   4   4   8   8
#     4   9  17  32  55  80 107 139 176 220 263 306
#     4  10  19  32  53  80 109 143 185 224 258 310
#     4  10  22  38  57  80 105 135 174 221 273 324
#     4  10  20  36  55  80 107 133 174 221 267 322
#     4   9  19  37  58  78 104 140 181 222 262 313
#     4  10  21  35  51  77 113 146 178 219 267 319
#
# _framework density 18.361013
#
# number of rings (size 3 to 8) (size 9 to 14) (size 15 to 20)
#    0.000    2.400    1.000    1.200    1.400    4.000 
#    0.000    1.000    0.000    1.200    0.000    0.000 
#    0.000    0.000    0.000    0.000    0.000    0.000 
#
# Total GULP energy -111588.728695 kJ/mol
# GULP energy per Si atom -5579.436435 kJ/mol
# Density = 1.831922 g / cm^3
# Si number density = 18.361013 Si / 1000 Ang^3
#
#
#
# Elastic Constant Matrix: (Units=GPa)
#
#
# Indices 1 2 3 4 5 6 
#
# 1 119.7571 30.3384 88.0613 0.0000 0.0000 0.0000
# 2 30.3384 26.6338 42.1248 0.0000 0.0000 0.0000
# 3 88.0613 42.1248 161.9542 0.0000 0.0000 0.0000
# 4 0.0000 0.0000 0.0000 32.3399 0.0000 0.0000
# 5 0.0000 0.0000 0.0000 0.0000 -3.4156 0.0000
# 6 0.0000 0.0000 0.0000 0.0000 0.0000 12.7345
#
#
#
# Elastic Compliance Matrix: (Units=1/GPa)
#
#
# Indices 1 2 3 4 5 6 
#
# 1 0.014631 -0.006937 -0.006151 0.000000 0.000000 0.000000
# 2 -0.006937 0.067077 -0.013675 0.000000 0.000000 0.000000
# 3 -0.006151 -0.013675 0.013076 0.000000 0.000000 0.000000
# 4 0.000000 0.000000 0.000000 0.030922 0.000000 0.000000
# 5 0.000000 0.000000 0.000000 0.000000 -0.292775 0.000000
# 6 0.000000 0.000000 0.000000 0.000000 0.000000 0.078527
#
#
# Mechanical properties :
#
#
# Convention : Reuss Voigt Hill
#
# Bulk Modulus (GPa) = 24.23791 69.93268 47.08529
# Shear Modulus (GPa) = -235.14041 18.18646 -108.47697
#
# Velocity S-wave (km/s) = -11.32886 3.15062 -7.69469
# Velocity P-wave (km/s) = 12.56562 7.16976 7.29689
#
# Compressibility (1/GPa) = 0.04125769
#
# Stress axis : x y z
#
# Youngs Moduli (GPa) = 68.34989 14.90820 76.47614
#
# Poissons Ratio (x) = 0.10342 0.47040
# Poissons Ratio (y) = 0.47416 1.04581
# Poissons Ratio (z) = 0.42041 0.20387
#
# Static dielectric constant tensor:
#      x y z
#    x 1.657180 0.000000 0.000000 
#    y 0.000000 1.622000 0.000000 
#    z 0.000000 0.000000 1.589690 
# 
# From -- ./inp_files/23193.got.cif
#   From: 2010.05.17/outbox.cif.g08.bks.cpg/sg38_12_cif.got.tgz:23193.got - 2010.06.03 18:07:57.
