data_PCOD9356997
_publ_section_title
;
Structure prediction by ZEFSAII (Michael W. Deem and Ramdas Pophale) SiO2 
 PCOD9356997
Probable space group: A M M 2
;
_chemical_formula_sum "Si O2"
_cell_formula_units_Z 64
_cell_length_a 9.031825
_cell_length_b 15.303585
_cell_length_c 23.568220
_cell_angle_alpha 90.000000
_cell_angle_beta 90.000000
_cell_angle_gamma 90.000000
_cell_volume 3257.582908
_symmetry_space_group_name_H-M "A M M 2"
_symmetry_group_IT_number 38
_symmetry_cell_setting 'orthorhombic'
loop_
_space_group_symop_operation_xyz
x,y,z
-x,-y,z
-x,y,z
x,-y,z
x,1/2+y,1/2+z
-x,1/2-y,1/2+z
-x,1/2+y,1/2+z
x,1/2-y,1/2+z
loop_
_atom_site_type_symbol
_atom_site_label
_atom_site_fract_x
_atom_site_fract_y
_atom_site_fract_z
Si Si1 0.178048 0.715141 0.243500
Si Si2 0.177549 0.907258 0.206922
Si Si3 0.836752 0.602415 0.024464
Si Si4 0.330137 0.638298 0.592885
Si Si5 0.678041 0.101919 0.963471
Si Si6 0.823326 0.772726 0.870553
Si Si7 0.331298 0.160090 0.632013
Si Si8 0.675816 0.897092 0.411150
O O1 0.225694 0.816873 0.235571
O O2 0.210108 0.689499 0.307989
O O3 0.261578 0.662501 0.194504
O O4 0.000000 0.710103 0.234315
O O5 0.230901 0.903032 0.141879
O O6 0.000000 0.906886 0.208919
O O7 0.230516 0.000000 0.231963
O O8 0.853044 0.500000 0.014282
O O9 0.770713 0.612481 0.086639
O O10 0.000000 0.644198 0.019215
O O11 0.724356 0.630297 0.975193
O O12 0.500000 0.606111 0.597169
O O13 0.278696 0.622386 0.528733
O O14 0.332348 0.740734 0.608045
O O15 0.500000 0.113562 0.960196
O O16 0.753918 0.166994 0.919250
O O17 0.711684 0.000000 0.951641
O O18 0.759864 0.674165 0.873624
O O19 0.000000 0.768457 0.877007
O O20 0.500000 0.127678 0.632396
O O21 0.500000 0.888698 0.405146
O O22 0.713680 0.000000 0.401277
#
# Coordination Sequence:
#
# PCOD9356997 Si02
#       8
#     8   8   8   8   8   8   8   8
#     4   9  20  37  53  72 102 141 183 224 267 318
#     4   9  17  30  50  76 104 133 165 205 254 309
#     4  10  20  34  54  81 111 140 173 218 272 330
#     4   9  18  32  51  77 106 134 165 204 256 318
#     4  10  21  37  57  80 109 146 184 226 279 335
#     4  11  23  38  58  81 108 147 191 237 285 330
#     4  10  19  32  54  81 107 138 174 216 268 324
#     4  10  21  37  58  85 117 150 184 226 277 337
#
# _framework density 19.646467999999999
#
# number of rings (size 3 to 8) (size 9 to 14) (size 15 to 20)
#    0.000    2.250    0.000    2.625    0.000    6.000 
#    0.000    1.875    0.000    0.750    0.000    0.000 
#    0.000    0.000    0.000    0.000    0.000    0.000 
#
# Total GULP energy -178496.881984 kJ/mol
# GULP energy per Si atom -5578.027562 kJ/mol
# Density = 1.960175 g / cm^3
# Si number density = 19.646468 Si / 1000 Ang^3
#
#
#
# Elastic Constant Matrix: (Units=GPa)
#
#
# Indices 1 2 3 4 5 6 
#
# 1 39.6105 16.7971 17.1407 0.0000 0.0000 0.0000
# 2 16.7971 30.1468 16.1736 0.0000 0.0000 0.0000
# 3 17.1407 16.1736 88.3627 0.0000 0.0000 0.0000
# 4 0.0000 0.0000 0.0000 13.8645 0.0000 0.0000
# 5 0.0000 0.0000 0.0000 0.0000 32.7397 0.0000
# 6 0.0000 0.0000 0.0000 0.0000 0.0000 19.9875
#
#
#
# Elastic Compliance Matrix: (Units=1/GPa)
#
#
# Indices 1 2 3 4 5 6 
#
# 1 0.033988 -0.017077 -0.003467 0.000000 0.000000 0.000000
# 2 -0.017077 0.045364 -0.004991 0.000000 0.000000 0.000000
# 3 -0.003467 -0.004991 0.012903 0.000000 0.000000 0.000000
# 4 0.000000 0.000000 0.000000 0.072127 0.000000 0.000000
# 5 0.000000 0.000000 0.000000 0.000000 0.030544 0.000000
# 6 0.000000 0.000000 0.000000 0.000000 0.000000 0.050031
#
#
# Mechanical properties :
#
#
# Convention : Reuss Voigt Hill
#
# Bulk Modulus (GPa) = 24.28097 28.70475 26.49286
# Shear Modulus (GPa) = 16.14181 20.51891 18.33036
#
# Velocity S-wave (km/s) = 2.86949 3.23524 3.05784
# Velocity P-wave (km/s) = 4.83368 5.34771 5.09718
#
# Compressibility (1/GPa) = 0.04118451
#
# Stress axis : x y z
#
# Youngs Moduli (GPa) = 29.42217 22.04414 77.50126
#
# Poissons Ratio (x) = 0.37645 0.26872
# Poissons Ratio (y) = 0.50245 0.38677
# Poissons Ratio (z) = 0.10201 0.11001
#
# Static dielectric constant tensor:
#      x y z
#    x 1.676680 0.000000 0.000000 
#    y 0.000000 1.735870 0.000000 
#    z 0.000000 0.000000 1.674130 
# 
# From -- ./inp_files/22170.got.cif
#   From: 2010.05.17/outbox.cif.g08.bks.cpg/sg38_12_cif.got.tgz:22170.got - 2010.06.03 18:07:57.
