data_PCOD9356151
_publ_section_title
;
Structure prediction by ZEFSAII (Michael W. Deem and Ramdas Pophale) SiO2 
 PCOD9356151
Probable space group: A M M 2
;
_chemical_formula_sum "Si O2"
_cell_formula_units_Z 64
_cell_length_a 24.713550
_cell_length_b 25.755030
_cell_length_c 5.355549
_cell_angle_alpha 90.000000
_cell_angle_beta 90.000000
_cell_angle_gamma 90.000000
_cell_volume 3408.797414
_symmetry_space_group_name_H-M "A M M 2"
_symmetry_group_IT_number 38
_symmetry_cell_setting 'orthorhombic'
loop_
_space_group_symop_operation_xyz
x,y,z
-x,-y,z
-x,y,z
x,-y,z
x,1/2+y,1/2+z
-x,1/2-y,1/2+z
-x,1/2+y,1/2+z
x,1/2-y,1/2+z
loop_
_atom_site_type_symbol
_atom_site_label
_atom_site_fract_x
_atom_site_fract_y
_atom_site_fract_z
Si Si1 0.199938 0.100471 0.013020
Si Si2 0.329753 0.282061 0.568395
Si Si3 0.205030 0.716058 0.521483
Si Si4 0.934625 0.278514 0.853387
Si Si5 0.558945 0.284835 0.446664
Si Si6 0.912534 0.606634 0.005192
Si Si7 0.790341 0.062067 0.514331
Si Si8 0.080306 0.940869 0.002994
O O1 0.178277 0.159445 0.007149
O O2 0.232070 0.087237 0.263231
O O3 0.232930 0.085304 0.768151
O O4 0.146026 0.064297 0.017701
O O5 0.332713 0.263933 0.857302
O O6 0.268714 0.300762 0.526418
O O7 0.384032 0.313706 0.497051
O O8 0.195338 0.751468 0.276342
O O9 0.919236 0.261653 0.573584
O O10 0.911603 0.333335 0.938510
O O11 0.000000 0.282624 0.857187
O O12 0.500000 0.311321 0.469126
O O13 0.559917 0.257956 0.172715
O O14 0.939316 0.577711 0.771757
O O15 0.852102 0.583523 0.020577
O O16 0.937502 0.595001 0.274007
O O17 0.789366 0.000000 0.509624
O O18 0.066253 0.000000 0.950676
#
# Coordination Sequence:
#
# PCOD9356151 Si02
#       8
#     8   8   8   8   8   8   8   8
#     4  10  18  30  46  65  84 115 148 171 210 254
#     4   8  14  23  34  46  66 100 134 165 203 239
#     4  10  19  30  40  55  84 117 147 176 203 241
#     4  10  21  37  54  72  96 124 150 174 201 238
#     4   8  12  18  29  45  62  83 121 169 205 235
#     4  10  18  32  53  73  90 117 147 173 207 250
#     4  10  19  33  50  68  89 110 138 177 220 258
#     4  10  19  33  51  70  92 114 140 177 220 258
#
# _framework density 18.774947999999998
#
# number of rings (size 3 to 8) (size 9 to 14) (size 15 to 20)
#    0.000    2.500    0.000    5.250    0.000    0.000 
#    0.000   15.000    0.000    4.125    0.000    0.000 
#    0.000    0.000    0.000    0.000    0.000    6.875 
#
# Total GULP energy -178308.204960 kJ/mol
# GULP energy per Si atom -5572.131405 kJ/mol
# Density = 1.873222 g / cm^3
# Si number density = 18.774948 Si / 1000 Ang^3
#
#
#
# Elastic Constant Matrix: (Units=GPa)
#
#
# Indices 1 2 3 4 5 6 
#
# 1 48.7975 -7.3622 -2.0835 0.0000 0.0000 0.0000
# 2 -7.3622 94.6348 19.6568 0.0000 0.0000 0.0000
# 3 -2.0835 19.6568 144.7576 0.0000 0.0000 0.0000
# 4 0.0000 0.0000 0.0000 28.2803 0.0000 0.0000
# 5 0.0000 0.0000 0.0000 0.0000 23.0414 0.0000
# 6 0.0000 0.0000 0.0000 0.0000 0.0000 3.1310
#
#
#
# Elastic Compliance Matrix: (Units=1/GPa)
#
#
# Indices 1 2 3 4 5 6 
#
# 1 0.020737 0.001596 0.000082 0.000000 0.000000 0.000000
# 2 0.001596 0.010997 -0.001470 0.000000 0.000000 0.000000
# 3 0.000082 -0.001470 0.007109 0.000000 0.000000 0.000000
# 4 0.000000 0.000000 0.000000 0.035360 0.000000 0.000000
# 5 0.000000 0.000000 0.000000 0.000000 0.043400 0.000000
# 6 0.000000 0.000000 0.000000 0.000000 0.000000 0.319383
#
#
# Mechanical properties :
#
#
# Convention : Reuss Voigt Hill
#
# Bulk Modulus (GPa) = 25.47246 34.29024 29.88135
# Shear Modulus (GPa) = 11.11961 29.42246 20.27103
#
# Velocity S-wave (km/s) = 2.43627 3.96297 3.28942
# Velocity P-wave (km/s) = 4.63795 6.26448 5.51155
#
# Compressibility (1/GPa) = 0.03925809
#
# Stress axis : x y z
#
# Youngs Moduli (GPa) = 48.22260 90.93794 140.66827
#
# Poissons Ratio (x) = -0.14516 -0.01149
# Poissons Ratio (y) = -0.07698 0.20682
# Poissons Ratio (z) = -0.00394 0.13370
#
# Static dielectric constant tensor:
#      x y z
#    x 1.747440 0.000000 0.000000 
#    y 0.000000 1.611250 0.000000 
#    z 0.000000 0.000000 1.801760 
# 
# From -- ./inp_files/2248.got.cif
#   From: 2010.05.17/outbox.cif.g08.bks.cpg/sg38_2_cif.got.tgz:2248.got - 2010.06.03 18:07:57.
