data_PCOD9356314
_publ_section_title
;
Structure prediction by ZEFSAII (Michael W. Deem and Ramdas Pophale) SiO2 
 PCOD9356314
Probable space group: A M M 2
;
_chemical_formula_sum "Si O2"
_cell_formula_units_Z 48
_cell_length_a 17.585538
_cell_length_b 9.460382
_cell_length_c 15.274387
_cell_angle_alpha 90.000000
_cell_angle_beta 90.000000
_cell_angle_gamma 90.000000
_cell_volume 2541.137249
_symmetry_space_group_name_H-M "A M M 2"
_symmetry_group_IT_number 38
_symmetry_cell_setting 'orthorhombic'
loop_
_space_group_symop_operation_xyz
x,y,z
-x,-y,z
-x,y,z
x,-y,z
x,1/2+y,1/2+z
-x,1/2-y,1/2+z
-x,1/2+y,1/2+z
x,1/2-y,1/2+z
loop_
_atom_site_type_symbol
_atom_site_label
_atom_site_fract_x
_atom_site_fract_y
_atom_site_fract_z
Si Si1 0.000000 0.161542 0.595940
Si Si2 0.000000 0.337078 0.310313
Si Si3 0.853046 0.337144 0.597254
Si Si4 0.412067 0.330668 0.191071
Si Si5 0.317124 0.666887 0.548906
Si Si6 0.300075 0.333624 0.350068
Si Si7 0.851370 0.836507 0.309696
O O1 0.000000 0.162134 0.703129
O O2 0.076248 0.242603 0.568314
O O3 0.000000 0.000000 0.566671
O O4 0.924789 0.252897 0.338090
O O5 0.000000 0.500000 0.339108
O O6 0.864337 0.500000 0.569375
O O7 0.770600 0.288383 0.564546
O O8 0.850704 0.335123 0.703238
O O9 0.500000 0.289855 0.201922
O O10 0.409050 0.500000 0.178811
O O11 0.373257 0.253379 0.109776
O O12 0.361331 0.297349 0.276100
O O13 0.320793 0.500000 0.571450
O O14 0.333905 0.683529 0.446662
O O15 0.279038 0.500000 0.339946
O O16 0.225360 0.239049 0.340114
O O17 0.855802 0.000000 0.337397
#
# Coordination Sequence:
#
# PCOD9356314 Si02
#       7
#     4   4   8   8   8   8   8
#     4   9  17  27  46  77 108 144 190 232 278 328
#     4   9  17  29  48  77 112 150 196 240 284 334
#     4   9  17  31  51  76 109 146 187 233 280 325
#     4  10  22  40  61  86 116 148 182 229 289 345
#     4  10  21  38  60  87 114 150 194 234 279 337
#     4  10  21  37  59  85 116 151 190 233 282 341
#     4  10  18  31  53  80 113 150 193 240 286 333
#
# _framework density 18.889181000000001
#
# number of rings (size 3 to 8) (size 9 to 14) (size 15 to 20)
#    0.000    2.333    1.667    1.000    0.000    5.000 
#    0.000    2.500    0.000    2.000    0.000    0.000 
#    0.000    0.000    0.000    0.000    0.000    0.000 
#
# Total GULP energy -134038.738729 kJ/mol
# GULP energy per Si atom -5584.947447 kJ/mol
# Density = 1.884619 g / cm^3
# Si number density = 18.889181 Si / 1000 Ang^3
#
#
#
# Elastic Constant Matrix: (Units=GPa)
#
#
# Indices 1 2 3 4 5 6 
#
# 1 167.0121 87.9685 53.3558 0.0000 0.0000 0.0000
# 2 87.9685 96.1266 44.7560 0.0000 0.0000 0.0000
# 3 53.3558 44.7560 57.0936 0.0000 0.0000 0.0000
# 4 0.0000 0.0000 0.0000 18.9298 0.0000 0.0000
# 5 0.0000 0.0000 0.0000 0.0000 -10.6460 0.0000
# 6 0.0000 0.0000 0.0000 0.0000 0.0000 35.0473
#
#
#
# Elastic Compliance Matrix: (Units=1/GPa)
#
#
# Indices 1 2 3 4 5 6 
#
# 1 0.012155 -0.009188 -0.004157 0.000000 0.000000 0.000000
# 2 -0.009188 0.023328 -0.009700 0.000000 0.000000 0.000000
# 3 -0.004157 -0.009700 0.029003 0.000000 0.000000 0.000000
# 4 0.000000 0.000000 0.000000 0.052827 0.000000 0.000000
# 5 0.000000 0.000000 0.000000 0.000000 -0.093932 0.000000
# 6 0.000000 0.000000 0.000000 0.000000 0.000000 0.028533
#
#
# Mechanical properties :
#
#
# Convention : Reuss Voigt Hill
#
# Bulk Modulus (GPa) = 54.35805 76.93256 65.64531
# Shear Modulus (GPa) = 48.01421 17.60969 32.81195
#
# Velocity S-wave (km/s) = 5.04718 3.05661 4.17235
# Velocity P-wave (km/s) = 7.92498 7.29890 7.61837
#
# Compressibility (1/GPa) = 0.01839654
#
# Stress axis : x y z
#
# Youngs Moduli (GPa) = 82.26964 42.86760 34.47862
#
# Poissons Ratio (x) = 0.39388 0.14332
# Poissons Ratio (y) = 0.75591 0.33444
# Poissons Ratio (z) = 0.34197 0.41581
#
# Static dielectric constant tensor:
#      x y z
#    x 1.619060 0.000000 0.000000 
#    y 0.000000 1.638950 0.000000 
#    z 0.000000 0.000000 1.667330 
# 
# From -- ./inp_files/15051.got.cif
#   From: 2010.05.17/outbox.cif.g08.bks.cpg/sg38_8_cif.got.tgz:15051.got - 2010.06.03 18:07:57.
