data_PCOD9356162
_publ_section_title
;
Structure prediction by ZEFSAII (Michael W. Deem and Ramdas Pophale) SiO2 
 PCOD9356162
Probable space group: A M M 2
;
_chemical_formula_sum "Si O2"
_cell_formula_units_Z 64
_cell_length_a 14.830781
_cell_length_b 8.667187
_cell_length_c 31.984189
_cell_angle_alpha 90.000000
_cell_angle_beta 90.000000
_cell_angle_gamma 90.000000
_cell_volume 4111.284509
_symmetry_space_group_name_H-M "A M M 2"
_symmetry_group_IT_number 38
_symmetry_cell_setting 'orthorhombic'
loop_
_space_group_symop_operation_xyz
x,y,z
-x,-y,z
-x,y,z
x,-y,z
x,1/2+y,1/2+z
-x,1/2-y,1/2+z
-x,1/2+y,1/2+z
x,1/2-y,1/2+z
loop_
_atom_site_type_symbol
_atom_site_label
_atom_site_fract_x
_atom_site_fract_y
_atom_site_fract_z
Si Si1 0.899968 0.187602 0.778240
Si Si2 0.099974 0.187602 0.680741
Si Si3 0.394290 0.314891 0.729741
Si Si4 0.609327 0.821776 0.977656
Si Si5 0.394806 0.315852 0.889270
Si Si6 0.604950 0.814013 0.566073
Si Si7 0.290482 0.314638 0.310335
Si Si8 0.290656 0.312776 0.149078
O O1 0.887212 0.231467 0.729481
O O2 0.813369 0.237864 0.804415
O O3 0.000000 0.239781 0.791561
O O4 0.900827 0.000000 0.779014
O O5 0.186745 0.237596 0.654615
O O6 0.000000 0.239848 0.667398
O O7 0.099071 0.000000 0.679881
O O8 0.500000 0.273353 0.729745
O O9 0.387031 0.500000 0.730263
O O10 0.346210 0.247789 0.770740
O O11 0.346468 0.249523 0.688458
O O12 0.500000 0.813173 0.978454
O O13 0.636644 0.734947 0.935410
O O14 0.635661 0.000000 0.975051
O O15 0.638569 0.749795 0.021681
O O16 0.500000 0.266698 0.884298
O O17 0.392391 0.500000 0.886128
O O18 0.335491 0.243539 0.852759
O O19 0.500000 0.767084 0.572080
O O20 0.663743 0.763607 0.605688
O O21 0.606449 0.000000 0.564188
O O22 0.292432 0.500000 0.309299
O O23 0.293241 0.500000 0.150618
#
# Coordination Sequence:
#
# PCOD9356162 Si02
#       8
#     8   8   8   8   8   8   8   8
#     4   8  14  26  45  68  91 115 148 192 235 270
#     4   8  13  24  44  68  91 115 149 194 236 270
#     4  11  23  34  42  58  91 130 160 188 227 270
#     4   9  17  30  48  68  89 116 153 192 227 269
#     4  10  20  33  48  67  95 126 152 185 232 277
#     4   9  17  28  43  65  93 121 149 186 231 274
#     4  11  20  31  49  70  90 119 158 193 225 269
#     4  10  18  30  48  69  90 120 160 194 226 270
#
# _framework density 15.566912
#
# number of rings (size 3 to 8) (size 9 to 14) (size 15 to 20)
#    0.000    2.500    1.250    3.000    0.000    5.750 
#    0.000    1.250    0.000    2.625    0.000    0.875 
#    0.000    3.000    0.000    0.000    0.000    0.000 
#
# Total GULP energy -178360.086634 kJ/mol
# GULP energy per Si atom -5573.752707 kJ/mol
# Density = 1.553148 g / cm^3
# Si number density = 15.566912 Si / 1000 Ang^3
#
#
#
# Elastic Constant Matrix: (Units=GPa)
#
#
# Indices 1 2 3 4 5 6 
#
# 1 126.5274 27.2979 80.2874 0.0000 0.0000 0.0000
# 2 27.2979 20.4318 28.7916 0.0000 0.0000 0.0000
# 3 80.2874 28.7916 134.6132 0.0000 0.0000 0.0000
# 4 0.0000 0.0000 0.0000 25.6749 0.0000 0.0000
# 5 0.0000 0.0000 0.0000 0.0000 6.4009 0.0000
# 6 0.0000 0.0000 0.0000 0.0000 0.0000 6.8980
#
#
#
# Elastic Compliance Matrix: (Units=1/GPa)
#
#
# Indices 1 2 3 4 5 6 
#
# 1 0.013994 -0.009927 -0.006223 0.000000 0.000000 0.000000
# 2 -0.009927 0.077101 -0.010570 0.000000 0.000000 0.000000
# 3 -0.006223 -0.010570 0.013401 0.000000 0.000000 0.000000
# 4 0.000000 0.000000 0.000000 0.038949 0.000000 0.000000
# 5 0.000000 0.000000 0.000000 0.000000 0.156229 0.000000
# 6 0.000000 0.000000 0.000000 0.000000 0.000000 0.144970
#
#
# Mechanical properties :
#
#
# Convention : Reuss Voigt Hill
#
# Bulk Modulus (GPa) = 19.58649 61.59180 40.58914
# Shear Modulus (GPa) = 9.70681 17.47446 13.59063
#
# Velocity S-wave (km/s) = 2.49981 3.35407 2.95794
# Velocity P-wave (km/s) = 4.57619 7.39266 6.14788
#
# Compressibility (1/GPa) = 0.05105561
#
# Stress axis : x y z
#
# Youngs Moduli (GPa) = 71.45847 12.97004 74.62079
#
# Poissons Ratio (x) = 0.12876 0.46438
# Poissons Ratio (y) = 0.70939 0.78871
# Poissons Ratio (z) = 0.44470 0.13709
#
# Static dielectric constant tensor:
#      x y z
#    x 1.529010 0.000000 0.000000 
#    y 0.000000 1.528130 0.000000 
#    z 0.000000 0.000000 1.494750 
# 
# From -- ./inp_files/25026.got.cif
#   From: 2010.05.17/outbox.cif.g08.bks.cpg/sg38_13_cif.got.tgz:25026.got - 2010.06.03 18:07:57.
