data_PCOD9356531
_publ_section_title
;
Structure prediction by ZEFSAII (Michael W. Deem and Ramdas Pophale) SiO2 
 PCOD9356531
Probable space group: A M M 2
;
_chemical_formula_sum "Si O2"
_cell_formula_units_Z 64
_cell_length_a 8.968159
_cell_length_b 14.027649
_cell_length_c 35.289392
_cell_angle_alpha 90.000000
_cell_angle_beta 90.000000
_cell_angle_gamma 90.000000
_cell_volume 4439.482678
_symmetry_space_group_name_H-M "A M M 2"
_symmetry_group_IT_number 38
_symmetry_cell_setting 'orthorhombic'
loop_
_space_group_symop_operation_xyz
x,y,z
-x,-y,z
-x,y,z
x,-y,z
x,1/2+y,1/2+z
-x,1/2-y,1/2+z
-x,1/2+y,1/2+z
x,1/2-y,1/2+z
loop_
_atom_site_type_symbol
_atom_site_label
_atom_site_fract_x
_atom_site_fract_y
_atom_site_fract_z
Si Si1 0.172341 0.884101 0.662100
Si Si2 0.319474 0.393501 0.929774
Si Si3 0.823486 0.386263 0.316674
Si Si4 0.821748 0.110734 0.964144
Si Si5 0.180290 0.387846 0.077226
Si Si6 0.329577 0.884081 0.738600
Si Si7 0.320604 0.798136 0.890251
Si Si8 0.679179 0.216217 0.506299
O O1 0.224476 0.857226 0.619932
O O2 0.265630 0.851096 0.698238
O O3 0.000000 0.855290 0.666709
O O4 0.173975 0.000000 0.662158
O O5 0.500000 0.397309 0.928718
O O6 0.262136 0.500000 0.922812
O O7 0.275757 0.310611 0.900527
O O8 0.280114 0.355440 0.971678
O O9 0.794529 0.500000 0.320603
O O10 0.767419 0.356601 0.275021
O O11 0.737857 0.332167 0.349887
O O12 0.000000 0.371607 0.320155
O O13 0.750975 0.137890 0.923501
O O14 0.000000 0.125321 0.962630
O O15 0.792839 0.000000 0.972573
O O16 0.748913 0.182752 0.994245
O O17 0.218815 0.500000 0.072293
O O18 0.256090 0.325607 0.044936
O O19 0.000000 0.381106 0.075047
O O20 0.500000 0.854132 0.743752
O O21 0.326834 0.000000 0.737463
O O22 0.500000 0.805330 0.892303
O O23 0.500000 0.222979 0.507645
#
# Coordination Sequence:
#
# PCOD9356531 Si02
#       8
#     8   8   8   8   8   8   8   8
#     4   8  14  25  39  55  79 112 144 170 202 246
#     4   8  15  28  43  59  81 108 136 167 206 248
#     4  10  19  29  41  57  81 114 145 172 206 249
#     4  10  20  33  47  61  81 111 143 175 214 259
#     4   9  17  28  42  61  87 118 148 177 208 246
#     4   9  16  25  38  57  80 106 138 175 210 244
#     4  10  19  29  44  65  85 107 138 176 212 246
#     4  10  19  29  44  65  86 110 142 180 216 250
#
# _framework density 14.416093999999999
#
# number of rings (size 3 to 8) (size 9 to 14) (size 15 to 20)
#    0.000    2.750    0.000    4.125    0.000    6.000 
#    0.000    1.250    0.000    7.500    0.000    0.000 
#    0.000    1.000    0.000    6.500    0.000    3.875 
#
# Total GULP energy -178269.865592 kJ/mol
# GULP energy per Si atom -5570.933300 kJ/mol
# Density = 1.438328 g / cm^3
# Si number density = 14.416094 Si / 1000 Ang^3
#
#
#
# Elastic Constant Matrix: (Units=GPa)
#
#
# Indices 1 2 3 4 5 6 
#
# 1 54.0041 37.9412 49.7732 0.0000 0.0000 0.0000
# 2 37.9412 72.8779 49.7172 0.0000 0.0000 0.0000
# 3 49.7732 49.7172 124.1026 0.0000 0.0000 0.0000
# 4 0.0000 0.0000 0.0000 18.5795 0.0000 0.0000
# 5 0.0000 0.0000 0.0000 0.0000 25.5811 0.0000
# 6 0.0000 0.0000 0.0000 0.0000 0.0000 15.4572
#
#
#
# Elastic Compliance Matrix: (Units=1/GPa)
#
#
# Indices 1 2 3 4 5 6 
#
# 1 0.035813 -0.012173 -0.009487 0.000000 0.000000 0.000000
# 2 -0.012173 0.023020 -0.004340 0.000000 0.000000 0.000000
# 3 -0.009487 -0.004340 0.013601 0.000000 0.000000 0.000000
# 4 0.000000 0.000000 0.000000 0.053823 0.000000 0.000000
# 5 0.000000 0.000000 0.000000 0.000000 0.039091 0.000000
# 6 0.000000 0.000000 0.000000 0.000000 0.000000 0.064695
#
#
# Mechanical properties :
#
#
# Convention : Reuss Voigt Hill
#
# Bulk Modulus (GPa) = 48.93599 58.42754 53.68177
# Shear Modulus (GPa) = 17.30988 19.49376 18.40182
#
# Velocity S-wave (km/s) = 3.46892 3.68125 3.57666
# Velocity P-wave (km/s) = 7.07556 7.66069 7.37393
#
# Compressibility (1/GPa) = 0.02043486
#
# Stress axis : x y z
#
# Youngs Moduli (GPa) = 27.92316 43.44132 73.52301
#
# Poissons Ratio (x) = 0.52880 0.69748
# Poissons Ratio (y) = 0.33990 0.31908
# Poissons Ratio (z) = 0.26489 0.18853
#
# Static dielectric constant tensor:
#      x y z
#    x 1.481980 0.000000 0.000000 
#    y 0.000000 1.460730 0.000000 
#    z 0.000000 0.000000 1.470900 
# 
# From -- ./inp_files/24817.got.cif
#   From: 2010.05.17/outbox.cif.g08.bks.cpg/sg38_13_cif.got.tgz:24817.got - 2010.06.03 18:07:57.
