data_PCOD9356631
_publ_section_title
;
Structure prediction by ZEFSAII (Michael W. Deem and Ramdas Pophale) SiO2 
 PCOD9356631
Probable space group: A M M 2
;
_chemical_formula_sum "Si O2"
_cell_formula_units_Z 48
_cell_length_a 7.525686
_cell_length_b 33.048651
_cell_length_c 9.338288
_cell_angle_alpha 90.000000
_cell_angle_beta 90.000000
_cell_angle_gamma 90.000000
_cell_volume 2322.560815
_symmetry_space_group_name_H-M "A M M 2"
_symmetry_group_IT_number 38
_symmetry_cell_setting 'orthorhombic'
loop_
_space_group_symop_operation_xyz
x,y,z
-x,-y,z
-x,y,z
x,-y,z
x,1/2+y,1/2+z
-x,1/2-y,1/2+z
-x,1/2+y,1/2+z
x,1/2-y,1/2+z
loop_
_atom_site_type_symbol
_atom_site_label
_atom_site_fract_x
_atom_site_fract_y
_atom_site_fract_z
Si Si1 0.786238 0.456624 0.943320
Si Si2 0.218896 0.790117 0.269314
Si Si3 0.712306 0.456471 0.284574
Si Si4 0.212852 0.131234 0.439914
Si Si5 0.711672 0.368406 0.278432
Si Si6 0.208211 0.787237 0.945492
O O1 0.719943 0.500000 0.885469
O O2 0.719087 0.413045 0.890718
O O3 0.000000 0.456687 0.927791
O O4 0.744910 0.456610 0.113238
O O5 0.278750 0.830363 0.352074
O O6 0.279577 0.749800 0.351420
O O7 0.000000 0.790600 0.269076
O O8 0.281139 0.789656 0.105672
O O9 0.500000 0.456642 0.307764
O O10 0.782130 0.500000 0.339404
O O11 0.781225 0.412398 0.331588
O O12 0.247324 0.135895 0.609511
O O13 0.000000 0.130410 0.423066
O O14 0.500000 0.369254 0.292450
O O15 0.776989 0.329766 0.364596
O O16 0.000000 0.778151 0.962396
#
# Coordination Sequence:
#
# PCOD9356631 Si02
#       6
#     8   8   8   8   8   8
#     4   8  13  21  37  64  94 120 147 182 222 260
#     4   9  18  32  52  72  88 116 158 194 224 269
#     4   8  14  25  41  61  87 119 152 184 217 258
#     4   9  16  29  49  71  95 123 155 189 225 267
#     4  10  19  30  46  71  98 122 151 187 230 274
#     4  10  19  33  51  68  88 117 155 194 230 270
#
# _framework density 20.666844000000001
#
# number of rings (size 3 to 8) (size 9 to 14) (size 15 to 20)
#    0.000    3.000    0.000    1.500    0.000    3.333 
#    0.000    4.167    0.000    1.000    0.000    2.333 
#    0.000    5.333    0.000    0.000    0.000    0.000 
#
# Total GULP energy -133709.531172 kJ/mol
# GULP energy per Si atom -5571.230465 kJ/mol
# Density = 2.061981 g / cm^3
# Si number density = 20.666844 Si / 1000 Ang^3
#
#
#
# Elastic Constant Matrix: (Units=GPa)
#
#
# Indices 1 2 3 4 5 6 
#
# 1 52.9758 -3.3061 -2.0550 0.0000 0.0000 0.0000
# 2 -3.3061 277.0861 97.2060 0.0000 0.0000 0.0000
# 3 -2.0550 97.2060 88.5864 0.0000 0.0000 0.0000
# 4 0.0000 0.0000 0.0000 22.3134 0.0000 0.0000
# 5 0.0000 0.0000 0.0000 0.0000 86.6681 0.0000
# 6 0.0000 0.0000 0.0000 0.0000 0.0000 4.9903
#
#
#
# Elastic Compliance Matrix: (Units=1/GPa)
#
#
# Indices 1 2 3 4 5 6 
#
# 1 0.018896 0.000117 0.000310 0.000000 0.000000 0.000000
# 2 0.000117 0.005869 -0.006437 0.000000 0.000000 0.000000
# 3 0.000310 -0.006437 0.018359 0.000000 0.000000 0.000000
# 4 0.000000 0.000000 0.000000 0.044816 0.000000 0.000000
# 5 0.000000 0.000000 0.000000 0.000000 0.011538 0.000000
# 6 0.000000 0.000000 0.000000 0.000000 0.000000 0.200390
#
#
# Mechanical properties :
#
#
# Convention : Reuss Voigt Hill
#
# Bulk Modulus (GPa) = 32.15076 66.92645 49.53861
# Shear Modulus (GPa) = 15.51567 44.58124 30.04845
#
# Velocity S-wave (km/s) = 2.74296 4.64954 3.81720
# Velocity P-wave (km/s) = 5.06184 7.82803 6.59167
#
# Compressibility (1/GPa) = 0.03110346
#
# Stress axis : x y z
#
# Youngs Moduli (GPa) = 52.92168 170.40091 54.46995
#
# Poissons Ratio (x) = -0.01986 -0.01691
# Poissons Ratio (y) = -0.00617 0.35061
# Poissons Ratio (z) = -0.01643 1.09684
#
# Static dielectric constant tensor:
#      x y z
#    x 1.759860 0.000000 0.000000 
#    y 0.000000 1.814040 0.000000 
#    z 0.000000 0.000000 1.673730 
# 
# From -- ./inp_files/3764.got.cif
#   From: 2010.05.17/outbox.cif.g08.bks.cpg/sg38_2_cif.got.tgz:3764.got - 2010.06.03 18:07:57.
