data_PCOD9356024
_publ_section_title
;
Structure prediction by ZEFSAII (Michael W. Deem and Ramdas Pophale) SiO2 
 PCOD9356024
Probable space group: A M M 2
;
_chemical_formula_sum "Si O2"
_cell_formula_units_Z 64
_cell_length_a 7.655224
_cell_length_b 23.906311
_cell_length_c 20.028723
_cell_angle_alpha 90.000000
_cell_angle_beta 90.000000
_cell_angle_gamma 90.000000
_cell_volume 3665.419858
_symmetry_space_group_name_H-M "A M M 2"
_symmetry_group_IT_number 38
_symmetry_cell_setting 'orthorhombic'
loop_
_space_group_symop_operation_xyz
x,y,z
-x,-y,z
-x,y,z
x,-y,z
x,1/2+y,1/2+z
-x,1/2-y,1/2+z
-x,1/2+y,1/2+z
x,1/2-y,1/2+z
loop_
_atom_site_type_symbol
_atom_site_label
_atom_site_fract_x
_atom_site_fract_y
_atom_site_fract_z
Si Si1 0.289760 0.337675 0.884090
Si Si2 0.289367 0.229102 0.803309
Si Si3 0.707718 0.745875 0.156943
Si Si4 0.704973 0.219684 0.513499
Si Si5 0.213446 0.063783 0.018779
Si Si6 0.211598 0.622927 0.656442
Si Si7 0.207428 0.331777 0.435144
Si Si8 0.209257 0.062930 0.291154
O O1 0.500000 0.333024 0.886102
O O2 0.226953 0.288315 0.834393
O O3 0.245887 0.397163 0.853477
O O4 0.221712 0.322458 0.957768
O O5 0.500000 0.231765 0.800411
O O6 0.222773 0.223560 0.727788
O O7 0.244128 0.182404 0.858043
O O8 0.500000 0.735016 0.156712
O O9 0.782179 0.721881 0.087664
O O10 0.730922 0.812841 0.155181
O O11 0.500000 0.206587 0.520579
O O12 0.716943 0.281126 0.479651
O O13 0.266702 0.089413 0.090337
O O14 0.000000 0.062429 0.018473
O O15 0.273174 0.000000 0.010090
O O16 0.269147 0.108456 0.962632
O O17 0.275120 0.592836 0.723749
O O18 0.000000 0.623029 0.656777
O O19 0.000000 0.329333 0.445332
O O20 0.000000 0.059704 0.284170
O O21 0.277037 0.000000 0.297933
#
# Coordination Sequence:
#
# PCOD9356024 Si02
#       8
#     8   8   8   8   8   8   8   8
#     4   9  17  30  45  64  87 115 149 184 222 267
#     4   9  18  31  46  64  90 120 148 182 227 271
#     4  10  18  30  48  67  90 122 151 180 224 273
#     4   9  18  31  47  65  90 118 146 184 229 272
#     4   9  17  29  44  63  90 123 155 185 220 262
#     4  10  18  29  44  64  91 122 155 188 215 253
#     4  10  18  28  45  68  89 116 153 188 221 261
#     4  10  20  31  44  64  90 122 156 187 222 260
#
# _framework density 17.460481999999999
#
# number of rings (size 3 to 8) (size 9 to 14) (size 15 to 20)
#    0.000    2.500    2.500    1.500    0.000    4.250 
#    0.000    0.000    0.000    4.125    0.000    0.875 
#    0.000    5.000    0.000    0.000    0.000    0.000 
#
# Total GULP energy -178438.472778 kJ/mol
# GULP energy per Si atom -5576.202274 kJ/mol
# Density = 1.742074 g / cm^3
# Si number density = 17.460482 Si / 1000 Ang^3
#
#
#
# Elastic Constant Matrix: (Units=GPa)
#
#
# Indices 1 2 3 4 5 6 
#
# 1 31.5575 -5.3209 4.6929 0.0000 0.0000 0.0000
# 2 -5.3209 77.6405 75.1530 0.0000 0.0000 0.0000
# 3 4.6929 75.1530 171.5847 0.0000 0.0000 0.0000
# 4 0.0000 0.0000 0.0000 18.1598 0.0000 0.0000
# 5 0.0000 0.0000 0.0000 0.0000 44.4294 0.0000
# 6 0.0000 0.0000 0.0000 0.0000 0.0000 19.2527
#
#
#
# Elastic Compliance Matrix: (Units=1/GPa)
#
#
# Indices 1 2 3 4 5 6 
#
# 1 0.033099 0.005459 -0.003296 0.000000 0.000000 0.000000
# 2 0.005459 0.023260 -0.010337 0.000000 0.000000 0.000000
# 3 -0.003296 -0.010337 0.010446 0.000000 0.000000 0.000000
# 4 0.000000 0.000000 0.000000 0.055067 0.000000 0.000000
# 5 0.000000 0.000000 0.000000 0.000000 0.022508 0.000000
# 6 0.000000 0.000000 0.000000 0.000000 0.000000 0.051941
#
#
# Mechanical properties :
#
#
# Convention : Reuss Voigt Hill
#
# Bulk Modulus (GPa) = 19.81929 47.75917 33.78923
# Shear Modulus (GPa) = 21.78780 30.11890 25.95335
#
# Velocity S-wave (km/s) = 3.53630 4.15779 3.85958
# Velocity P-wave (km/s) = 5.29618 7.10364 6.26543
#
# Compressibility (1/GPa) = 0.05045588
#
# Stress axis : x y z
#
# Youngs Moduli (GPa) = 30.21257 42.99279 95.73337
#
# Poissons Ratio (x) = -0.23470 0.31556
# Poissons Ratio (y) = -0.16493 0.98959
# Poissons Ratio (z) = 0.09959 0.44441
#
# Static dielectric constant tensor:
#      x y z
#    x 1.643290 0.000000 0.000000 
#    y 0.000000 1.566140 0.000000 
#    z 0.000000 0.000000 1.630870 
# 
# From -- ./inp_files/17293.got.cif
#   From: 2010.05.17/outbox.cif.g08.bks.cpg/sg38_9_cif.got.tgz:17293.got - 2010.06.03 18:07:57.
