data_PCOD9356960
_publ_section_title
;
Structure prediction by ZEFSAII (Michael W. Deem and Ramdas Pophale) SiO2 
 PCOD9356960
Probable space group: A M M 2
;
_chemical_formula_sum "Si O2"
_cell_formula_units_Z 64
_cell_length_a 8.152281
_cell_length_b 20.394793
_cell_length_c 21.335699
_cell_angle_alpha 90.000000
_cell_angle_beta 90.000000
_cell_angle_gamma 90.000000
_cell_volume 3547.360439
_symmetry_space_group_name_H-M "A M M 2"
_symmetry_group_IT_number 38
_symmetry_cell_setting 'orthorhombic'
loop_
_space_group_symop_operation_xyz
x,y,z
-x,-y,z
-x,y,z
x,-y,z
x,1/2+y,1/2+z
-x,1/2-y,1/2+z
-x,1/2+y,1/2+z
x,1/2-y,1/2+z
loop_
_atom_site_type_symbol
_atom_site_label
_atom_site_fract_x
_atom_site_fract_y
_atom_site_fract_z
Si Si1 0.802973 0.572291 0.673170
Si Si2 0.198317 0.208968 0.971821
Si Si3 0.699532 0.572281 0.140867
Si Si4 0.693701 0.790373 0.213493
Si Si5 0.301238 0.789701 0.592279
Si Si6 0.193293 0.711114 0.334139
Si Si7 0.799993 0.427211 0.527724
Si Si8 0.698047 0.573443 0.288218
O O1 0.744736 0.500000 0.693814
O O2 0.752148 0.634814 0.712991
O O3 0.749831 0.581558 0.600565
O O4 0.000000 0.570685 0.672222
O O5 0.257805 0.229512 0.903035
O O6 0.000000 0.206632 0.969672
O O7 0.247608 0.256680 0.027921
O O8 0.257000 0.135317 0.988686
O O9 0.500000 0.571635 0.138593
O O10 0.756661 0.500000 0.120464
O O11 0.755682 0.635475 0.102533
O O12 0.741214 0.580498 0.214424
O O13 0.500000 0.791387 0.206091
O O14 0.760718 0.752809 0.151804
O O15 0.732589 0.750443 0.276093
O O16 0.500000 0.789943 0.593991
O O17 0.224963 0.633740 0.324672
O O18 0.000000 0.723365 0.332384
O O19 0.746728 0.500000 0.506934
O O20 0.000000 0.427129 0.526735
O O21 0.500000 0.577844 0.292390
O O22 0.747155 0.500000 0.308412
#
# Coordination Sequence:
#
# PCOD9356960 Si02
#       8
#     8   8   8   8   8   8   8   8
#     4   9  17  31  54  81 106 135 171 212 263 316
#     4  10  21  35  51  73 103 140 176 213 260 308
#     4   8  14  28  51  76 101 129 164 206 254 309
#     4  11  21  34  54  79 106 137 176 221 265 310
#     4  10  19  32  53  79 101 130 173 217 262 309
#     4  11  23  35  50  75 107 143 182 221 261 308
#     4   8  14  27  48  72  99 133 170 204 244 300
#     4   9  17  32  53  75 105 143 176 210 258 313
#
# _framework density 18.041585000000001
#
# number of rings (size 3 to 8) (size 9 to 14) (size 15 to 20)
#    0.000    2.500    2.500    2.250    0.000    2.500 
#    0.000    1.250    0.000    1.500    0.000    3.500 
#    0.000    0.000    0.000    0.000    0.000    0.000 
#
# Total GULP energy -178440.422169 kJ/mol
# GULP energy per Si atom -5576.263193 kJ/mol
# Density = 1.800052 g / cm^3
# Si number density = 18.041585 Si / 1000 Ang^3
#
#
#
# Elastic Constant Matrix: (Units=GPa)
#
#
# Indices 1 2 3 4 5 6 
#
# 1 5.5154 4.5845 -0.0537 0.0000 0.0000 0.0000
# 2 4.5845 122.9630 58.8344 0.0000 0.0000 0.0000
# 3 -0.0537 58.8344 92.4051 0.0000 0.0000 0.0000
# 4 0.0000 0.0000 0.0000 19.3932 0.0000 0.0000
# 5 0.0000 0.0000 0.0000 0.0000 14.8068 0.0000
# 6 0.0000 0.0000 0.0000 0.0000 0.0000 23.1642
#
#
#
# Elastic Compliance Matrix: (Units=1/GPa)
#
#
# Indices 1 2 3 4 5 6 
#
# 1 0.189901 -0.010258 0.006641 0.000000 0.000000 0.000000
# 2 -0.010258 0.012250 -0.007805 0.000000 0.000000 0.000000
# 3 0.006641 -0.007805 0.015795 0.000000 0.000000 0.000000
# 4 0.000000 0.000000 0.000000 0.051565 0.000000 0.000000
# 5 0.000000 0.000000 0.000000 0.000000 0.067537 0.000000
# 6 0.000000 0.000000 0.000000 0.000000 0.000000 0.043170
#
#
# Mechanical properties :
#
#
# Convention : Reuss Voigt Hill
#
# Bulk Modulus (GPa) = 5.12551 38.62375 21.87463
# Shear Modulus (GPa) = 10.68160 21.97406 16.32783
#
# Velocity S-wave (km/s) = 2.43586 3.49372 3.01160
# Velocity P-wave (km/s) = 3.27999 6.14243 4.92381
#
# Compressibility (1/GPa) = 0.19510261
#
# Stress axis : x y z
#
# Youngs Moduli (GPa) = 5.26590 81.63545 63.30963
#
# Poissons Ratio (x) = 0.83741 -0.42047
# Poissons Ratio (y) = 0.05402 0.49415
# Poissons Ratio (z) = -0.03497 0.63719
#
# Static dielectric constant tensor:
#      x y z
#    x 1.640160 0.000000 0.000000 
#    y 0.000000 1.638180 0.000000 
#    z 0.000000 0.000000 1.607200 
# 
# From -- ./inp_files/20247.got.cif
#   From: 2010.05.17/outbox.cif.g08.bks.cpg/sg38_11_cif.got.tgz:20247.got - 2010.06.03 18:07:57.
