data_PCOD9356106
_publ_section_title
;
Structure prediction by ZEFSAII (Michael W. Deem and Ramdas Pophale) SiO2 
 PCOD9356106
Probable space group: A M M 2
;
_chemical_formula_sum "Si O2"
_cell_formula_units_Z 56
_cell_length_a 20.103617
_cell_length_b 19.688066
_cell_length_c 8.254592
_cell_angle_alpha 90.000000
_cell_angle_beta 90.000000
_cell_angle_gamma 90.000000
_cell_volume 3267.178561
_symmetry_space_group_name_H-M "A M M 2"
_symmetry_group_IT_number 38
_symmetry_cell_setting 'orthorhombic'
loop_
_space_group_symop_operation_xyz
x,y,z
-x,-y,z
-x,y,z
x,-y,z
x,1/2+y,1/2+z
-x,1/2-y,1/2+z
-x,1/2+y,1/2+z
x,1/2-y,1/2+z
loop_
_atom_site_type_symbol
_atom_site_label
_atom_site_fract_x
_atom_site_fract_y
_atom_site_fract_z
Si Si1 0.658291 0.582124 0.803440
Si Si2 0.205100 0.152513 0.372806
Si Si3 0.161729 0.718523 0.173866
Si Si4 0.577600 0.417394 0.485442
Si Si5 0.074601 0.919122 0.255359
Si Si6 0.422449 0.917457 0.622226
Si Si7 0.076441 0.819460 0.960939
O O1 0.658225 0.500000 0.802575
O O2 0.733090 0.608870 0.814345
O O3 0.621531 0.605087 0.638256
O O4 0.619521 0.604914 0.966453
O O5 0.199010 0.220587 0.265551
O O6 0.209157 0.175818 0.558422
O O7 0.135406 0.112558 0.354047
O O8 0.122811 0.674249 0.305215
O O9 0.106670 0.756289 0.061944
O O10 0.500000 0.398255 0.507257
O O11 0.579240 0.500000 0.485723
O O12 0.599236 0.395617 0.303800
O O13 0.000000 0.902170 0.318096
O O14 0.080297 0.000000 0.246393
O O15 0.079251 0.884038 0.079093
O O16 0.500000 0.898578 0.602682
O O17 0.420111 0.000000 0.622380
O O18 0.000000 0.806386 0.916651
#
# Coordination Sequence:
#
# PCOD9356106 Si02
#       7
#     8   8   8   8   8   8   8
#     4  10  18  29  48  76 105 133 161 196 255 313
#     4  10  20  35  50  69  96 129 169 212 246 293
#     4   9  19  33  48  68  93 122 167 212 248 280
#     4   8  14  26  45  72 104 133 161 195 241 299
#     4   9  18  33  51  72 100 132 159 192 249 308
#     4   8  14  26  44  71 105 132 159 197 240 296
#     4   9  16  29  52  74  91 116 156 208 252 293
#
# _framework density 17.140170999999999
#
# number of rings (size 3 to 8) (size 9 to 14) (size 15 to 20)
#    0.000    3.000    0.000    2.143    0.000    5.714 
#    7.714    1.429    0.000    1.714    0.000    4.000 
#    0.000    0.000    0.000    0.000    0.000    0.000 
#
# Total GULP energy -155906.247768 kJ/mol
# GULP energy per Si atom -5568.080277 kJ/mol
# Density = 1.710116 g / cm^3
# Si number density = 17.140171 Si / 1000 Ang^3
#
#
#
# Elastic Constant Matrix: (Units=GPa)
#
#
# Indices 1 2 3 4 5 6 
#
# 1 75.3031 10.5299 50.2287 0.0000 0.0000 0.0000
# 2 10.5299 22.9144 11.6127 0.0000 0.0000 0.0000
# 3 50.2287 11.6127 100.1031 0.0000 0.0000 0.0000
# 4 0.0000 0.0000 0.0000 7.2343 0.0000 0.0000
# 5 0.0000 0.0000 0.0000 0.0000 16.7275 0.0000
# 6 0.0000 0.0000 0.0000 0.0000 0.0000 3.4454
#
#
#
# Elastic Compliance Matrix: (Units=1/GPa)
#
#
# Indices 1 2 3 4 5 6 
#
# 1 0.020377 -0.004444 -0.009709 0.000000 0.000000 0.000000
# 2 -0.004444 0.047336 -0.003262 0.000000 0.000000 0.000000
# 3 -0.009709 -0.003262 0.015240 0.000000 0.000000 0.000000
# 4 0.000000 0.000000 0.000000 0.138230 0.000000 0.000000
# 5 0.000000 0.000000 0.000000 0.000000 0.059782 0.000000
# 6 0.000000 0.000000 0.000000 0.000000 0.000000 0.290241
#
#
# Mechanical properties :
#
#
# Convention : Reuss Voigt Hill
#
# Bulk Modulus (GPa) = 20.77968 38.11813 29.44890
# Shear Modulus (GPa) = 8.03761 13.87807 10.95784
#
# Velocity S-wave (km/s) = 2.16784 2.84858 2.53120
# Velocity P-wave (km/s) = 4.29135 5.75383 5.07554
#
# Compressibility (1/GPa) = 0.04812395
#
# Stress axis : x y z
#
# Youngs Moduli (GPa) = 49.07433 21.12574 65.61743
#
# Poissons Ratio (x) = 0.09387 0.63709
# Poissons Ratio (y) = 0.21806 0.21402
# Poissons Ratio (z) = 0.47647 0.06891
#
# Static dielectric constant tensor:
#      x y z
#    x 1.574870 0.000000 0.000000 
#    y 0.000000 1.556980 0.000000 
#    z 0.000000 0.000000 1.607140 
# 
# From -- ./inp_files/5682.got.cif
#   From: 2010.05.17/outbox.cif.g08.bks.cpg/sg38_3_cif.got.tgz:5682.got - 2010.06.03 18:07:57.
