data_PCOD9356538
_publ_section_title
;
Structure prediction by ZEFSAII (Michael W. Deem and Ramdas Pophale) SiO2 
 PCOD9356538
Probable space group: A M M 2
;
_chemical_formula_sum "Si O2"
_cell_formula_units_Z 64
_cell_length_a 9.063608
_cell_length_b 26.670484
_cell_length_c 19.006175
_cell_angle_alpha 90.000000
_cell_angle_beta 90.000000
_cell_angle_gamma 90.000000
_cell_volume 4594.378119
_symmetry_space_group_name_H-M "A M M 2"
_symmetry_group_IT_number 38
_symmetry_cell_setting 'orthorhombic'
loop_
_space_group_symop_operation_xyz
x,y,z
-x,-y,z
-x,y,z
x,-y,z
x,1/2+y,1/2+z
-x,1/2-y,1/2+z
-x,1/2+y,1/2+z
x,1/2-y,1/2+z
loop_
_atom_site_type_symbol
_atom_site_label
_atom_site_fract_x
_atom_site_fract_y
_atom_site_fract_z
Si Si1 0.824928 0.558757 0.118450
Si Si2 0.674719 0.059363 0.767518
Si Si3 0.323458 0.255035 0.109434
Si Si4 0.674608 0.292599 0.904297
Si Si5 0.822913 0.643850 0.354536
Si Si6 0.674913 0.140868 0.527510
Si Si7 0.323757 0.264311 0.270415
Si Si8 0.175099 0.202630 0.987455
O O1 0.794852 0.500000 0.103977
O O2 0.743091 0.572116 0.191295
O O3 0.765541 0.594786 0.057749
O O4 0.000000 0.564818 0.127774
O O5 0.500000 0.069285 0.766634
O O6 0.753473 0.092963 0.825772
O O7 0.698085 0.000000 0.778767
O O8 0.500000 0.249192 0.107049
O O9 0.290633 0.309102 0.073563
O O10 0.275572 0.255674 0.190507
O O11 0.251749 0.211587 0.062153
O O12 0.500000 0.281646 0.918027
O O13 0.698181 0.283715 0.821640
O O14 0.772169 0.250561 0.942119
O O15 0.704754 0.343695 0.946360
O O16 0.757593 0.688708 0.306278
O O17 0.784642 0.656677 0.435846
O O18 0.000000 0.643426 0.348363
O O19 0.500000 0.131007 0.535262
O O20 0.500000 0.275119 0.269624
O O21 0.000000 0.203033 0.996310
#
# Coordination Sequence:
#
# PCOD9356538 Si02
#       8
#     8   8   8   8   8   8   8   8
#     4  10  20  31  42  58  80 105 134 169 205 237
#     4  10  20  32  45  60  78 103 135 168 201 237
#     4   9  17  27  40  59  81 106 135 163 194 233
#     4   8  15  27  41  57  78 104 133 165 198 232
#     4  10  19  29  42  60  81 107 137 166 199 236
#     4   9  16  26  40  58  80 107 138 166 195 235
#     4   9  16  27  43  61  82 108 137 167 198 235
#     4   9  17  27  39  57  80 105 133 163 194 231
#
# _framework density 13.930068
#
# number of rings (size 3 to 8) (size 9 to 14) (size 15 to 20)
#    0.000    2.750    0.000    3.000    0.000    6.500 
#    0.000    0.000    0.000    0.000    0.000    0.000 
#    0.000    1.000    0.000    5.000    0.000    3.500 
#
# Total GULP energy -178158.556159 kJ/mol
# GULP energy per Si atom -5567.454880 kJ/mol
# Density = 1.389836 g / cm^3
# Si number density = 13.930068 Si / 1000 Ang^3
#
#
#
# Elastic Constant Matrix: (Units=GPa)
#
#
# Indices 1 2 3 4 5 6 
#
# 1 34.4615 28.6352 28.5610 0.0000 0.0000 0.0000
# 2 28.6352 45.6236 29.7469 0.0000 0.0000 0.0000
# 3 28.5610 29.7469 87.8332 0.0000 0.0000 0.0000
# 4 0.0000 0.0000 0.0000 26.3542 0.0000 0.0000
# 5 0.0000 0.0000 0.0000 0.0000 19.4073 0.0000
# 6 0.0000 0.0000 0.0000 0.0000 0.0000 20.0934
#
#
#
# Elastic Compliance Matrix: (Units=1/GPa)
#
#
# Indices 1 2 3 4 5 6 
#
# 1 0.066403 -0.035420 -0.009597 0.000000 0.000000 0.000000
# 2 -0.035420 0.047024 -0.004408 0.000000 0.000000 0.000000
# 3 -0.009597 -0.004408 0.015999 0.000000 0.000000 0.000000
# 4 0.000000 0.000000 0.000000 0.037945 0.000000 0.000000
# 5 0.000000 0.000000 0.000000 0.000000 0.051527 0.000000
# 6 0.000000 0.000000 0.000000 0.000000 0.000000 0.049768
#
#
# Mechanical properties :
#
#
# Convention : Reuss Voigt Hill
#
# Bulk Modulus (GPa) = 32.70560 37.97827 35.34194
# Shear Modulus (GPa) = 13.23779 18.56932 15.90356
#
# Velocity S-wave (km/s) = 3.08604 3.65504 3.38253
# Velocity P-wave (km/s) = 6.01894 6.71827 6.37820
#
# Compressibility (1/GPa) = 0.03057580
#
# Stress axis : x y z
#
# Youngs Moduli (GPa) = 15.05954 21.26583 62.50526
#
# Poissons Ratio (x) = 0.75324 0.59983
# Poissons Ratio (y) = 0.53341 0.27553
# Poissons Ratio (z) = 0.14452 0.09374
#
# Static dielectric constant tensor:
#      x y z
#    x 1.463790 0.000000 0.000000 
#    y 0.000000 1.446450 0.000000 
#    z 0.000000 0.000000 1.478860 
# 
# From -- ./inp_files/17319.got.cif
#   From: 2010.05.17/outbox.cif.g08.bks.cpg/sg38_9_cif.got.tgz:17319.got - 2010.06.03 18:07:57.
