data_PCOD9356623
_publ_section_title
;
Structure prediction by ZEFSAII (Michael W. Deem and Ramdas Pophale) SiO2 
 PCOD9356623
Probable space group: A M M 2
;
_chemical_formula_sum "Si O2"
_cell_formula_units_Z 64
_cell_length_a 14.298041
_cell_length_b 26.017827
_cell_length_c 10.684352
_cell_angle_alpha 90.000000
_cell_angle_beta 90.000000
_cell_angle_gamma 90.000000
_cell_volume 3974.621224
_symmetry_space_group_name_H-M "A M M 2"
_symmetry_group_IT_number 38
_symmetry_cell_setting 'orthorhombic'
loop_
_space_group_symop_operation_xyz
x,y,z
-x,-y,z
-x,y,z
x,-y,z
x,1/2+y,1/2+z
-x,1/2-y,1/2+z
-x,1/2+y,1/2+z
x,1/2-y,1/2+z
loop_
_atom_site_type_symbol
_atom_site_label
_atom_site_fract_x
_atom_site_fract_y
_atom_site_fract_z
Si Si1 0.200747 0.900327 0.427980
Si Si2 0.788441 0.060097 0.922070
Si Si3 0.886408 0.212812 0.423935
Si Si4 0.391839 0.061762 0.341722
Si Si5 0.893964 0.061620 0.678637
Si Si6 0.604086 0.062508 0.047884
Si Si7 0.888070 0.905995 0.166468
Si Si8 0.112323 0.713213 0.645341
O O1 0.165428 0.841609 0.434609
O O2 0.311647 0.909029 0.417393
O O3 0.159189 0.926777 0.550624
O O4 0.157461 0.922411 0.298027
O O5 0.839556 0.082499 0.800552
O O6 0.772876 0.000000 0.894645
O O7 0.687974 0.082294 0.962082
O O8 0.852536 0.063969 0.045483
O O9 0.854879 0.251433 0.532217
O O10 0.866491 0.233576 0.284367
O O11 0.000000 0.204422 0.431820
O O12 0.500000 0.072812 0.375608
O O13 0.380296 0.074867 0.194194
O O14 0.378341 0.000000 0.354560
O O15 0.000000 0.082240 0.673956
O O16 0.900278 0.000000 0.692092
O O17 0.500000 0.079533 0.011501
O O18 0.604842 0.000000 0.043159
O O19 0.859012 0.846479 0.142479
O O20 0.000000 0.908678 0.177886
O O21 0.000000 0.712268 0.633954
#
# Coordination Sequence:
#
# PCOD9356623 Si02
#       8
#     8   8   8   8   8   8   8   8
#     4  11  19  31  49  71  94 124 161 200 242 286
#     4  10  19  31  45  65  93 129 166 201 239 282
#     4   9  17  30  48  69  93 120 157 199 239 289
#     4   9  17  30  49  73  98 124 160 207 251 285
#     4  10  21  33  42  60  98 137 161 186 230 290
#     4   8  14  27  47  68  89 117 157 205 247 276
#     4  10  19  30  46  68  93 122 163 205 236 283
#     4   8  16  29  43  63  90 118 150 195 240 280
#
# _framework density 16.102163000000001
#
# number of rings (size 3 to 8) (size 9 to 14) (size 15 to 20)
#    0.000    2.625    1.250    3.375    0.000    2.250 
#    0.000    3.125    0.000    2.250    0.000    4.375 
#    0.000    0.000    0.000    0.000    0.000    0.000 
#
# Total GULP energy -178197.585602 kJ/mol
# GULP energy per Si atom -5568.674550 kJ/mol
# Density = 1.606551 g / cm^3
# Si number density = 16.102163 Si / 1000 Ang^3
#
#
#
# Elastic Constant Matrix: (Units=GPa)
#
#
# Indices 1 2 3 4 5 6 
#
# 1 116.7720 13.2575 53.4887 0.0000 0.0000 0.0000
# 2 13.2575 10.4723 9.0398 0.0000 0.0000 0.0000
# 3 53.4887 9.0398 90.5932 0.0000 0.0000 0.0000
# 4 0.0000 0.0000 0.0000 17.2238 0.0000 0.0000
# 5 0.0000 0.0000 0.0000 0.0000 23.6744 0.0000
# 6 0.0000 0.0000 0.0000 0.0000 0.0000 13.2249
#
#
#
# Elastic Compliance Matrix: (Units=1/GPa)
#
#
# Indices 1 2 3 4 5 6 
#
# 1 0.012717 -0.010524 -0.006458 0.000000 0.000000 0.000000
# 2 -0.010524 0.113199 -0.005082 0.000000 0.000000 0.000000
# 3 -0.006458 -0.005082 0.015359 0.000000 0.000000 0.000000
# 4 0.000000 0.000000 0.000000 0.058059 0.000000 0.000000
# 5 0.000000 0.000000 0.000000 0.000000 0.042240 0.000000
# 6 0.000000 0.000000 0.000000 0.000000 0.000000 0.075615
#
#
# Mechanical properties :
#
#
# Convention : Reuss Voigt Hill
#
# Bulk Modulus (GPa) = 10.29373 41.04549 25.66961
# Shear Modulus (GPa) = 12.70006 20.29471 16.49738
#
# Velocity S-wave (km/s) = 2.81146 3.55402 3.20432
# Velocity P-wave (km/s) = 4.11652 6.51056 5.44670
#
# Compressibility (1/GPa) = 0.09714647
#
# Stress axis : x y z
#
# Youngs Moduli (GPa) = 78.63618 8.83397 65.11036
#
# Poissons Ratio (x) = 0.09297 0.42050
# Poissons Ratio (y) = 0.82758 0.33087
# Poissons Ratio (z) = 0.50785 0.04489
#
# Static dielectric constant tensor:
#      x y z
#    x 1.555110 0.000000 0.000000 
#    y 0.000000 1.539010 0.000000 
#    z 0.000000 0.000000 1.554810 
# 
# From -- ./inp_files/5991.got.cif
#   From: 2010.05.17/outbox.cif.g08.bks.cpg/sg38_3_cif.got.tgz:5991.got - 2010.06.03 18:07:57.
