data_PCOD9356357
_publ_section_title
;
Structure prediction by ZEFSAII (Michael W. Deem and Ramdas Pophale) SiO2 
 PCOD9356357
Probable space group: A M M 2
;
_chemical_formula_sum "Si O2"
_cell_formula_units_Z 64
_cell_length_a 14.265889
_cell_length_b 13.909709
_cell_length_c 12.955839
_cell_angle_alpha 90.000000
_cell_angle_beta 90.000000
_cell_angle_gamma 90.000000
_cell_volume 2570.883680
_symmetry_space_group_name_H-M "A M M 2"
_symmetry_group_IT_number 38
_symmetry_cell_setting 'orthorhombic'
loop_
_space_group_symop_operation_xyz
x,y,z
-x,-y,z
-x,y,z
x,-y,z
x,1/2+y,1/2+z
-x,1/2-y,1/2+z
-x,1/2+y,1/2+z
x,1/2-y,1/2+z
loop_
_atom_site_type_symbol
_atom_site_label
_atom_site_fract_x
_atom_site_fract_y
_atom_site_fract_z
Si Si1 0.862422 0.311679 0.267510
Si Si2 0.309558 0.391921 0.550020
Si Si3 0.603602 0.198391 0.565875
Si Si4 0.656336 0.106439 0.807628
Si Si5 0.193173 0.112377 0.570084
Si Si6 0.399617 0.816336 0.315684
Si Si7 0.193719 0.109791 0.325463
Si Si8 0.899596 0.384010 0.492611
O O1 0.763208 0.366683 0.283345
O O2 0.880425 0.340268 0.149171
O O3 0.858549 0.196778 0.270736
O O4 0.906266 0.345451 0.375241
O O5 0.312532 0.500000 0.593162
O O6 0.344909 0.399358 0.432033
O O7 0.303162 0.373095 0.796460
O O8 0.201029 0.355300 0.542106
O O9 0.500000 0.164297 0.595710
O O10 0.698129 0.140954 0.591361
O O11 0.602009 0.193861 0.440692
O O12 0.625745 0.309058 0.597023
O O13 0.604346 0.204893 0.778712
O O14 0.628539 0.000000 0.769428
O O15 0.179727 0.129549 0.447902
O O16 0.184081 0.000000 0.585893
O O17 0.500000 0.860613 0.287549
O O18 0.166747 0.000000 0.302623
O O19 0.892399 0.500000 0.487310
O O20 0.000000 0.360469 0.543745
#
# Coordination Sequence:
#
# PCOD9356357 Si02
#       8
#     8   8   8   8   8   8   8   8
#     4  10  18  32  53  74 104 141 182 231 285 339
#     4   8  14  26  45  70 104 146 185 225 278 338
#     4   9  17  29  45  69 103 143 189 238 286 340
#     4   8  13  22  38  63  94 127 164 208 262 320
#     4  10  19  32  53  78 104 141 187 233 282 336
#     4   8  14  24  40  63  90 125 172 219 260 312
#     4   9  19  34  52  74 102 141 185 225 275 339
#     4   9  16  27  49  83 117 149 189 239 299 364
#
# _framework density 24.894162999999999
#
# number of rings (size 3 to 8) (size 9 to 14) (size 15 to 20)
#    0.000    3.125    0.000    4.125    0.000    1.000 
#    0.000    8.125    0.000   11.625    0.000    5.250 
#    0.000    0.000    0.000    0.000    0.000    0.000 
#
# Total GULP energy -178565.134646 kJ/mol
# GULP energy per Si atom -5580.160458 kJ/mol
# Density = 2.483750 g / cm^3
# Si number density = 24.894163 Si / 1000 Ang^3
#
#
#
# Elastic Constant Matrix: (Units=GPa)
#
#
# Indices 1 2 3 4 5 6 
#
# 1 70.6992 12.1037 -2.2375 0.0000 0.0000 0.0000
# 2 12.1037 123.9054 42.2546 0.0000 0.0000 0.0000
# 3 -2.2375 42.2546 68.8110 0.0000 0.0000 0.0000
# 4 0.0000 0.0000 0.0000 40.3468 0.0000 0.0000
# 5 0.0000 0.0000 0.0000 0.0000 1.8294 0.0000
# 6 0.0000 0.0000 0.0000 0.0000 0.0000 6.9505
#
#
#
# Elastic Compliance Matrix: (Units=1/GPa)
#
#
# Indices 1 2 3 4 5 6 
#
# 1 0.014541 -0.002001 0.001701 0.000000 0.000000 0.000000
# 2 -0.002001 0.010484 -0.006503 0.000000 0.000000 0.000000
# 3 0.001701 -0.006503 0.018581 0.000000 0.000000 0.000000
# 4 0.000000 0.000000 0.000000 0.024785 0.000000 0.000000
# 5 0.000000 0.000000 0.000000 0.000000 0.546633 0.000000
# 6 0.000000 0.000000 0.000000 0.000000 0.000000 0.143875
#
#
# Mechanical properties :
#
#
# Convention : Reuss Voigt Hill
#
# Bulk Modulus (GPa) = 33.33175 40.85080 37.09127
# Shear Modulus (GPa) = 6.38975 23.91166 15.15070
#
# Velocity S-wave (km/s) = 1.60385 3.10261 2.46967
# Velocity P-wave (km/s) = 4.10466 5.41113 4.80253
#
# Compressibility (1/GPa) = 0.03000142
#
# Stress axis : x y z
#
# Youngs Moduli (GPa) = 68.77206 95.38630 53.81843
#
# Poissons Ratio (x) = 0.19083 -0.09156
# Poissons Ratio (y) = 0.13759 0.34997
# Poissons Ratio (z) = -0.11700 0.62027
#
# Static dielectric constant tensor:
#      x y z
#    x 1.992860 0.000000 0.000000 
#    y 0.000000 1.914670 0.000000 
#    z 0.000000 0.000000 2.117090 
# 
# From -- ./inp_files/10623.got.cif
#   From: 2010.05.17/outbox.cif.g08.bks.cpg/sg38_6_cif.got.tgz:10623.got - 2010.06.03 18:07:57.
