data_PCOD9356173
_publ_section_title
;
Structure prediction by ZEFSAII (Michael W. Deem and Ramdas Pophale) SiO2 
 PCOD9356173
Probable space group: A M M 2
;
_chemical_formula_sum "Si O2"
_cell_formula_units_Z 64
_cell_length_a 7.772822
_cell_length_b 28.022530
_cell_length_c 15.429865
_cell_angle_alpha 90.000000
_cell_angle_beta 90.000000
_cell_angle_gamma 90.000000
_cell_volume 3360.842739
_symmetry_space_group_name_H-M "A M M 2"
_symmetry_group_IT_number 38
_symmetry_cell_setting 'orthorhombic'
loop_
_space_group_symop_operation_xyz
x,y,z
-x,-y,z
-x,y,z
x,-y,z
x,1/2+y,1/2+z
-x,1/2-y,1/2+z
-x,1/2+y,1/2+z
x,1/2-y,1/2+z
loop_
_atom_site_type_symbol
_atom_site_label
_atom_site_fract_x
_atom_site_fract_y
_atom_site_fract_z
Si Si1 0.710896 0.827553 0.334740
Si Si2 0.295218 0.135267 0.514080
Si Si3 0.299642 0.167146 0.142838
Si Si4 0.292905 0.554539 0.142955
Si Si5 0.708521 0.282380 0.326835
Si Si6 0.200859 0.224061 0.631730
Si Si7 0.794734 0.945806 0.837845
Si Si8 0.704578 0.861099 0.960892
O O1 0.500000 0.828619 0.333686
O O2 0.771654 0.858145 0.416458
O O3 0.773892 0.841717 0.238822
O O4 0.758545 0.772014 0.347706
O O5 0.500000 0.127763 0.507035
O O6 0.225242 0.091853 0.572118
O O7 0.268372 0.184646 0.565584
O O8 0.500000 0.153418 0.148840
O O9 0.289656 0.224217 0.126400
O O10 0.223175 0.142081 0.058059
O O11 0.500000 0.553119 0.135777
O O12 0.228646 0.500000 0.132911
O O13 0.252951 0.570755 0.240883
O O14 0.500000 0.284274 0.324187
O O15 0.771478 0.293786 0.230162
O O16 0.773012 0.319293 0.398413
O O17 0.000000 0.231484 0.616130
O O18 0.729361 0.910384 0.911031
O O19 0.000000 0.946884 0.843077
O O20 0.728367 0.000000 0.847236
O O21 0.500000 0.852307 0.968610
#
# Coordination Sequence:
#
# PCOD9356173 Si02
#       8
#     8   8   8   8   8   8   8   8
#     4   8  15  29  49  68  89 122 159 190 222 271
#     4  10  18  30  49  69  92 125 160 192 233 283
#     4   9  18  34  51  67  92 126 161 193 230 276
#     4   9  18  32  50  72  96 122 155 195 237 283
#     4   9  17  30  46  66  93 124 157 191 231 280
#     4  11  21  30  43  68  99 127 157 194 233 273
#     4  10  21  35  50  70  98 128 154 187 236 288
#     4  10  19  31  52  75  93 121 161 200 236 279
#
# _framework density 19.042843999999999
#
# number of rings (size 3 to 8) (size 9 to 14) (size 15 to 20)
#    0.000    2.500    0.000    3.750    0.000    7.250 
#    0.000    5.000    0.000    0.750    0.000    3.500 
#    0.000    2.000    0.000    0.000    0.000    0.000 
#
# Total GULP energy -178547.427988 kJ/mol
# GULP energy per Si atom -5579.607125 kJ/mol
# Density = 1.899950 g / cm^3
# Si number density = 19.042844 Si / 1000 Ang^3
#
#
#
# Elastic Constant Matrix: (Units=GPa)
#
#
# Indices 1 2 3 4 5 6 
#
# 1 24.2385 -6.8110 -4.4733 0.0000 0.0000 0.0000
# 2 -6.8110 62.2176 87.2739 0.0000 0.0000 0.0000
# 3 -4.4733 87.2739 184.0790 0.0000 0.0000 0.0000
# 4 0.0000 0.0000 0.0000 23.5162 0.0000 0.0000
# 5 0.0000 0.0000 0.0000 0.0000 -36.1346 0.0000
# 6 0.0000 0.0000 0.0000 0.0000 0.0000 -1.7822
#
#
#
# Elastic Compliance Matrix: (Units=1/GPa)
#
#
# Indices 1 2 3 4 5 6 
#
# 1 0.043338 0.009754 -0.003571 0.000000 0.000000 0.000000
# 2 0.009754 0.050179 -0.023554 0.000000 0.000000 0.000000
# 3 -0.003571 -0.023554 0.016513 0.000000 0.000000 0.000000
# 4 0.000000 0.000000 0.000000 0.042524 0.000000 0.000000
# 5 0.000000 0.000000 0.000000 0.000000 -0.027674 0.000000
# 6 0.000000 0.000000 0.000000 0.000000 0.000000 -0.561114
#
#
# Mechanical properties :
#
#
# Convention : Reuss Voigt Hill
#
# Bulk Modulus (GPa) = 13.28231 46.94604 30.11418
# Shear Modulus (GPa) = -13.28389 10.08959 -1.59715
#
# Velocity S-wave (km/s) = -2.64404 2.30431 -0.91681
# Velocity P-wave (km/s) = 1.52681 5.63792 3.83765
#
# Compressibility (1/GPa) = 0.07528812
#
# Stress axis : x y z
#
# Youngs Moduli (GPa) = 23.07427 19.92848 60.55949
#
# Poissons Ratio (x) = -0.19437 0.21626
# Poissons Ratio (y) = -0.22506 1.42639
# Poissons Ratio (z) = 0.08240 0.46939
#
# Static dielectric constant tensor:
#      x y z
#    x 1.689360 0.000000 0.000000 
#    y 0.000000 1.650020 0.000000 
#    z 0.000000 0.000000 1.690400 
# 
# From -- ./inp_files/12823.got.cif
#   From: 2010.05.17/outbox.cif.g08.bks.cpg/sg38_7_cif.got.tgz:12823.got - 2010.06.03 18:07:57.
