data_PCOD9356901
_publ_section_title
;
Structure prediction by ZEFSAII (Michael W. Deem and Ramdas Pophale) SiO2 
 PCOD9356901
Probable space group: A M M 2
;
_chemical_formula_sum "Si O2"
_cell_formula_units_Z 56
_cell_length_a 8.574712
_cell_length_b 23.329206
_cell_length_c 14.755975
_cell_angle_alpha 90.000000
_cell_angle_beta 90.000000
_cell_angle_gamma 90.000000
_cell_volume 2951.803280
_symmetry_space_group_name_H-M "A M M 2"
_symmetry_group_IT_number 38
_symmetry_cell_setting 'orthorhombic'
loop_
_space_group_symop_operation_xyz
x,y,z
-x,-y,z
-x,y,z
x,-y,z
x,1/2+y,1/2+z
-x,1/2-y,1/2+z
-x,1/2+y,1/2+z
x,1/2-y,1/2+z
loop_
_atom_site_type_symbol
_atom_site_label
_atom_site_fract_x
_atom_site_fract_y
_atom_site_fract_z
Si Si1 0.686988 0.152211 0.084740
Si Si2 0.184966 0.778059 0.590684
Si Si3 0.184239 0.221473 0.377759
Si Si4 0.690468 0.500000 0.883493
Si Si5 0.313432 0.848202 0.880276
Si Si6 0.313007 0.500000 0.092841
Si Si7 0.813227 0.390250 0.198921
Si Si8 0.311184 0.611863 0.773157
O O1 0.500000 0.149011 0.080782
O O2 0.732799 0.217624 0.107706
O O3 0.740154 0.112895 0.168056
O O4 0.744222 0.139334 0.982923
O O5 0.206779 0.792006 0.484402
O O6 0.240281 0.831043 0.650967
O O7 0.000000 0.770107 0.606409
O O8 0.265459 0.282384 0.360449
O O9 0.251741 0.169835 0.319608
O O10 0.000000 0.228006 0.360432
O O11 0.500000 0.500000 0.883561
O O12 0.741672 0.443198 0.830006
O O13 0.741193 0.500000 0.988061
O O14 0.500000 0.853104 0.877825
O O15 0.240792 0.887464 0.802720
O O16 0.500000 0.500000 0.092728
O O17 0.253699 0.556101 0.144747
O O18 0.000000 0.391861 0.194336
O O19 0.500000 0.612360 0.774613
#
# Coordination Sequence:
#
# PCOD9356901 Si02
#       8
#     8   8   8   4   8   4   8   8
#     4   9  19  33  52  78 108 139 175 217 264 313
#     4   9  19  33  51  76 108 141 174 213 266 323
#     4  10  19  32  51  79 110 141 175 217 268 322
#     4   9  20  37  58  81 106 136 177 223 266 313
#     4  10  20  35  53  78 109 141 177 219 264 318
#     4  11  23  39  58  81 106 138 177 219 264 317
#     4  11  22  37  56  79 107 143 181 222 269 316
#     4  10  19  34  54  77 105 141 180 221 267 317
#
# _framework density 18.971456
#
# number of rings (size 3 to 8) (size 9 to 14) (size 15 to 20)
#    0.000    2.143    0.000    3.214    0.000    5.143 
#    0.000    1.786    0.000    2.571    0.000    0.000 
#    0.000    0.000    0.000    0.000    0.000    0.000 
#
# Total GULP energy -156347.195759 kJ/mol
# GULP energy per Si atom -5583.828420 kJ/mol
# Density = 1.892828 g / cm^3
# Si number density = 18.971456 Si / 1000 Ang^3
#
#
#
# Elastic Constant Matrix: (Units=GPa)
#
#
# Indices 1 2 3 4 5 6 
#
# 1 26.5189 15.8621 31.6184 0.0000 0.0000 0.0000
# 2 15.8621 68.9662 93.5579 0.0000 0.0000 0.0000
# 3 31.6184 93.5579 163.0373 0.0000 0.0000 0.0000
# 4 0.0000 0.0000 0.0000 32.2541 0.0000 0.0000
# 5 0.0000 0.0000 0.0000 0.0000 18.8540 0.0000
# 6 0.0000 0.0000 0.0000 0.0000 0.0000 -8.4399
#
#
#
# Elastic Compliance Matrix: (Units=1/GPa)
#
#
# Indices 1 2 3 4 5 6 
#
# 1 0.049885 0.007450 -0.013950 0.000000 0.000000 0.000000
# 2 0.007450 0.066564 -0.039642 0.000000 0.000000 0.000000
# 3 -0.013950 -0.039642 0.031587 0.000000 0.000000 0.000000
# 4 0.000000 0.000000 0.000000 0.031004 0.000000 0.000000
# 5 0.000000 0.000000 0.000000 0.000000 0.053039 0.000000
# 6 0.000000 0.000000 0.000000 0.000000 0.000000 -0.118484
#
#
# Mechanical properties :
#
#
# Convention : Reuss Voigt Hill
#
# Bulk Modulus (GPa) = 17.93622 60.06659 39.00141
# Shear Modulus (GPa) = 22.27547 16.36589 19.32068
#
# Velocity S-wave (km/s) = 3.43031 2.94029 3.19471
# Velocity P-wave (km/s) = 5.01640 6.57703 5.84900
#
# Compressibility (1/GPa) = 0.05575310
#
# Stress axis : x y z
#
# Youngs Moduli (GPa) = 20.04618 15.02315 31.65831
#
# Poissons Ratio (x) = -0.11193 0.44162
# Poissons Ratio (y) = -0.14935 1.25500
# Poissons Ratio (z) = 0.27964 0.59555
#
# Static dielectric constant tensor:
#      x y z
#    x 1.637690 0.000000 0.000000 
#    y 0.000000 1.617300 0.000000 
#    z 0.000000 0.000000 1.691670 
# 
# From -- ./inp_files/12455.got.cif
#   From: 2010.05.17/outbox.cif.g08.bks.cpg/sg38_7_cif.got.tgz:12455.got - 2010.06.03 18:07:57.
