data_PCOD9356209
_publ_section_title
;
Structure prediction by ZEFSAII (Michael W. Deem and Ramdas Pophale) SiO2 
 PCOD9356209
Probable space group: A M M 2
;
_chemical_formula_sum "Si O2"
_cell_formula_units_Z 64
_cell_length_a 8.867943
_cell_length_b 21.196064
_cell_length_c 20.076061
_cell_angle_alpha 90.000000
_cell_angle_beta 90.000000
_cell_angle_gamma 90.000000
_cell_volume 3773.606590
_symmetry_space_group_name_H-M "A M M 2"
_symmetry_group_IT_number 38
_symmetry_cell_setting 'orthorhombic'
loop_
_space_group_symop_operation_xyz
x,y,z
-x,-y,z
-x,y,z
x,-y,z
x,1/2+y,1/2+z
-x,1/2-y,1/2+z
-x,1/2+y,1/2+z
x,1/2-y,1/2+z
loop_
_atom_site_type_symbol
_atom_site_label
_atom_site_fract_x
_atom_site_fract_y
_atom_site_fract_z
Si Si1 0.679669 0.687428 0.689930
Si Si2 0.183452 0.930623 0.693012
Si Si3 0.180107 0.428751 0.612707
Si Si4 0.680326 0.757491 0.331087
Si Si5 0.180310 0.119477 0.836031
Si Si6 0.678479 0.116116 0.976607
Si Si7 0.677994 0.732344 0.979829
Si Si8 0.819663 0.306914 0.113411
O O1 0.500000 0.686335 0.680006
O O2 0.749288 0.624197 0.659969
O O3 0.711365 0.698569 0.768057
O O4 0.746176 0.747530 0.650947
O O5 0.225651 0.918285 0.769897
O O6 0.232717 0.871856 0.647952
O O7 0.000000 0.930295 0.691205
O O8 0.235001 0.000000 0.671406
O O9 0.219142 0.500000 0.633380
O O10 0.241020 0.416950 0.538199
O O11 0.000000 0.422060 0.612428
O O12 0.500000 0.742994 0.331712
O O13 0.768594 0.691788 0.324187
O O14 0.716177 0.785391 0.403763
O O15 0.256213 0.097715 0.904671
O O16 0.000000 0.116496 0.843046
O O17 0.500000 0.104651 0.978835
O O18 0.702658 0.191870 0.984183
O O19 0.500000 0.721422 0.991039
O O20 0.771772 0.698214 0.036665
O O21 0.000000 0.302490 0.119752
#
# Coordination Sequence:
#
# PCOD9356209 Si02
#       8
#     8   8   8   8   8   8   8   8
#     4  11  21  35  57  81 106 140 177 222 275 325
#     4   9  19  34  50  73 107 144 180 219 267 316
#     4  11  24  39  55  78 108 142 181 225 269 321
#     4   9  19  34  53  77 107 139 175 218 268 323
#     4  10  18  30  51  77 106 144 183 222 264 311
#     4  10  20  34  52  76 108 146 180 216 263 319
#     4   9  18  33  52  77 107 138 171 217 267 315
#     4  11  20  32  54  81 105 137 180 225 267 314
#
# _framework density 16.959902
#
# number of rings (size 3 to 8) (size 9 to 14) (size 15 to 20)
#    0.000    2.000    2.500    2.625    0.000    4.000 
#    0.000    1.250    0.000    6.375    0.000    3.500 
#    0.000    0.000    0.000    0.000    0.000    0.000 
#
# Total GULP energy -178606.319842 kJ/mol
# GULP energy per Si atom -5581.447495 kJ/mol
# Density = 1.692130 g / cm^3
# Si number density = 16.959902 Si / 1000 Ang^3
#
#
#
# Elastic Constant Matrix: (Units=GPa)
#
#
# Indices 1 2 3 4 5 6 
#
# 1 44.4363 44.7593 41.9899 0.0000 0.0000 0.0000
# 2 44.7593 115.8907 70.1189 0.0000 0.0000 0.0000
# 3 41.9899 70.1189 114.5916 0.0000 0.0000 0.0000
# 4 0.0000 0.0000 0.0000 19.2331 0.0000 0.0000
# 5 0.0000 0.0000 0.0000 0.0000 28.6709 0.0000
# 6 0.0000 0.0000 0.0000 0.0000 0.0000 0.9652
#
#
#
# Elastic Compliance Matrix: (Units=1/GPa)
#
#
# Indices 1 2 3 4 5 6 
#
# 1 0.041546 -0.010853 -0.008583 0.000000 0.000000 0.000000
# 2 -0.010853 0.016537 -0.006142 0.000000 0.000000 0.000000
# 3 -0.008583 -0.006142 0.015630 0.000000 0.000000 0.000000
# 4 0.000000 0.000000 0.000000 0.051994 0.000000 0.000000
# 5 0.000000 0.000000 0.000000 0.000000 0.034879 0.000000
# 6 0.000000 0.000000 0.000000 0.000000 0.000000 1.036048
#
#
# Mechanical properties :
#
#
# Convention : Reuss Voigt Hill
#
# Bulk Modulus (GPa) = 44.33154 65.40609 54.86882
# Shear Modulus (GPa) = 3.98309 17.64388 10.81348
#
# Velocity S-wave (km/s) = 1.53415 3.22891 2.52780
# Velocity P-wave (km/s) = 5.41608 7.24914 6.39859
#
# Compressibility (1/GPa) = 0.02255730
#
# Stress axis : x y z
#
# Youngs Moduli (GPa) = 24.06943 60.47189 63.97992
#
# Poissons Ratio (x) = 0.65631 0.54913
# Poissons Ratio (y) = 0.26123 0.39296
# Poissons Ratio (z) = 0.20658 0.37141
#
# Static dielectric constant tensor:
#      x y z
#    x 1.568300 0.000000 0.000000 
#    y 0.000000 1.561990 0.000000 
#    z 0.000000 0.000000 1.580000 
# 
# From -- ./inp_files/20009.got.cif
#   From: 2010.05.17/outbox.cif.g08.bks.cpg/sg38_11_cif.got.tgz:20009.got - 2010.06.03 18:07:57.
