data_PCOD9356675
_publ_section_title
;
Structure prediction by ZEFSAII (Michael W. Deem and Ramdas Pophale) SiO2 
 PCOD9356675
Probable space group: A M M 2
;
_chemical_formula_sum "Si O2"
_cell_formula_units_Z 64
_cell_length_a 20.332922
_cell_length_b 7.529142
_cell_length_c 21.008127
_cell_angle_alpha 90.000000
_cell_angle_beta 90.000000
_cell_angle_gamma 90.000000
_cell_volume 3216.122755
_symmetry_space_group_name_H-M "A M M 2"
_symmetry_group_IT_number 38
_symmetry_cell_setting 'orthorhombic'
loop_
_space_group_symop_operation_xyz
x,y,z
-x,-y,z
-x,y,z
x,-y,z
x,1/2+y,1/2+z
-x,1/2-y,1/2+z
-x,1/2+y,1/2+z
x,1/2-y,1/2+z
loop_
_atom_site_type_symbol
_atom_site_label
_atom_site_fract_x
_atom_site_fract_y
_atom_site_fract_z
Si Si1 0.315380 0.704374 0.655100
Si Si2 0.830794 0.711058 0.189016
Si Si3 0.925558 0.713697 0.575636
Si Si4 0.669206 0.711058 0.794853
Si Si5 0.677239 0.717840 0.514741
Si Si6 0.574442 0.786303 0.908233
Si Si7 0.184620 0.795626 0.828769
Si Si8 0.177239 0.782160 0.969129
O O1 0.337714 0.500000 0.654264
O O2 0.235802 0.708650 0.659500
O O3 0.338875 0.781002 0.722717
O O4 0.334597 0.781347 0.586874
O O5 0.818678 0.500000 0.193322
O O6 0.891272 0.742987 0.142582
O O7 0.838875 0.781002 0.261152
O O8 0.927555 0.500000 0.570802
O O9 0.877571 0.776764 0.519289
O O10 0.000000 0.780378 0.571242
O O11 0.681322 0.500000 0.790548
O O12 0.608728 0.742987 0.841288
O O13 0.735802 0.791350 0.824369
O O14 0.677397 0.500000 0.515715
O O15 0.622428 0.776764 0.464580
O O16 0.750000 0.771637 0.491935
O O17 0.500000 0.719623 0.912628
O O18 0.572445 0.000000 0.913067
O O19 0.165403 0.718653 0.896995
O O20 0.162286 0.000000 0.829605
O O21 0.177397 0.000000 0.968155
#
# Coordination Sequence:
#
# PCOD9356675 Si02
#       8
#     8   8   8   8   8   8   8   8
#     4   9  17  31  51  74  99 127 163 204 245 288
#     4  10  19  30  48  75 104 130 158 199 250 297
#     4  10  20  34  52  72  96 131 170 205 247 300
#     4  10  19  30  48  75 104 130 158 199 250 297
#     4   9  15  28  52  75  95 123 164 211 245 278
#     4  10  20  34  52  72  96 131 170 205 247 300
#     4   9  17  31  51  74  99 127 163 204 245 288
#     4   9  15  28  52  75  95 123 164 211 245 278
#
# _framework density 19.899736999999998
#
# number of rings (size 3 to 8) (size 9 to 14) (size 15 to 20)
#    0.000    2.500    2.500    0.750    0.000    1.500 
#    0.000    3.750    0.000    4.500    0.000    0.000 
#    0.000    0.000    0.000    0.000    0.000    0.000 
#
# Total GULP energy -178522.851628 kJ/mol
# GULP energy per Si atom -5578.839113 kJ/mol
# Density = 1.985444 g / cm^3
# Si number density = 19.899737 Si / 1000 Ang^3
#
#
#
# Elastic Constant Matrix: (Units=GPa)
#
#
# Indices 1 2 3 4 5 6 
#
# 1 130.2514 -3.5093 98.7637 0.0000 0.0000 0.0000
# 2 -3.5093 54.5132 0.5974 0.0000 0.0000 0.0000
# 3 98.7637 0.5974 195.9717 0.0000 0.0000 0.0000
# 4 0.0000 0.0000 0.0000 10.5941 0.0000 0.0000
# 5 0.0000 0.0000 0.0000 0.0000 26.9274 0.0000
# 6 0.0000 0.0000 0.0000 0.0000 0.0000 10.0995
#
#
#
# Elastic Compliance Matrix: (Units=1/GPa)
#
#
# Indices 1 2 3 4 5 6 
#
# 1 0.012467 0.000871 -0.006286 0.000000 0.000000 0.000000
# 2 0.000871 0.018406 -0.000495 0.000000 0.000000 0.000000
# 3 -0.006286 -0.000495 0.008272 0.000000 0.000000 0.000000
# 4 0.000000 0.000000 0.000000 0.094393 0.000000 0.000000
# 5 0.000000 0.000000 0.000000 0.000000 0.037137 0.000000
# 6 0.000000 0.000000 0.000000 0.000000 0.000000 0.099015
#
#
# Mechanical properties :
#
#
# Convention : Reuss Voigt Hill
#
# Bulk Modulus (GPa) = 36.59540 63.60444 50.09992
# Shear Modulus (GPa) = 17.20477 28.51648 22.86063
#
# Velocity S-wave (km/s) = 2.94355 3.78962 3.39306
# Velocity P-wave (km/s) = 5.47563 7.15403 6.37034
#
# Compressibility (1/GPa) = 0.02732584
#
# Stress axis : x y z
#
# Youngs Moduli (GPa) = 80.21112 54.33094 120.88849
#
# Poissons Ratio (x) = -0.04735 0.75987
# Poissons Ratio (y) = -0.06990 0.05988
# Poissons Ratio (z) = 0.50418 0.02691
#
# Static dielectric constant tensor:
#      x y z
#    x 1.648440 0.000000 0.000000 
#    y 0.000000 1.804750 0.000000 
#    z 0.000000 0.000000 1.730500 
# 
# From -- ./inp_files/21394.got.cif
#   From: 2010.05.17/outbox.cif.g08.bks.cpg/sg38_11_cif.got.tgz:21394.got - 2010.06.03 18:07:57.
