data_PCOD9356386
_publ_section_title
;
Structure prediction by ZEFSAII (Michael W. Deem and Ramdas Pophale) SiO2 
 PCOD9356386
Probable space group: A M M 2
;
_chemical_formula_sum "Si O2"
_cell_formula_units_Z 40
_cell_length_a 7.666119
_cell_length_b 12.132136
_cell_length_c 20.629467
_cell_angle_alpha 90.000000
_cell_angle_beta 90.000000
_cell_angle_gamma 90.000000
_cell_volume 1918.672425
_symmetry_space_group_name_H-M "A M M 2"
_symmetry_group_IT_number 38
_symmetry_cell_setting 'orthorhombic'
loop_
_space_group_symop_operation_xyz
x,y,z
-x,-y,z
-x,y,z
x,-y,z
x,1/2+y,1/2+z
-x,1/2-y,1/2+z
-x,1/2+y,1/2+z
x,1/2-y,1/2+z
loop_
_atom_site_type_symbol
_atom_site_label
_atom_site_fract_x
_atom_site_fract_y
_atom_site_fract_z
Si Si1 0.709835 0.281646 0.657510
Si Si2 0.290049 0.624081 0.267594
Si Si3 0.789486 0.743305 0.897684
Si Si4 0.797498 0.000000 0.383605
Si Si5 0.208237 0.624562 0.521696
Si Si6 0.287989 0.500000 0.734053
O O1 0.500000 0.279781 0.659382
O O2 0.773078 0.179122 0.700515
O O3 0.759682 0.297253 0.583119
O O4 0.767250 0.391968 0.695048
O O5 0.500000 0.618280 0.263881
O O6 0.223170 0.500000 0.277816
O O7 0.250240 0.703189 0.328136
O O8 0.721123 0.618114 0.904143
O O9 0.000000 0.737778 0.901999
O O10 0.724114 0.821276 0.955513
O O11 0.787195 0.000000 0.305720
O O12 0.000000 0.000000 0.404137
O O13 0.277113 0.500000 0.532896
O O14 0.000000 0.615379 0.514880
O O15 0.500000 0.500000 0.739085
#
# Coordination Sequence:
#
# PCOD9356386 Si02
#       6
#     8   8   8   4   8   4
#     4  10  20  35  55  79 107 137 174 221 268 316
#     4  10  21  37  57  81 109 141 178 221 268 318
#     4  10  21  37  56  80 110 142 178 221 267 316
#     4  10  20  34  56  82 108 139 176 219 266 317
#     4  10  21  36  54  77 107 142 179 220 265 314
#     4  10  18  32  56  82 106 133 172 221 268 317
#
# _framework density 20.847749
#
# number of rings (size 3 to 8) (size 9 to 14) (size 15 to 20)
#    0.000    2.000    3.000    0.600    0.000    3.600 
#    1.800    0.000    0.000    0.000    0.000    0.000 
#    0.000    0.000    0.000    0.000    0.000    0.000 
#
# Total GULP energy -111654.219710 kJ/mol
# GULP energy per Si atom -5582.710986 kJ/mol
# Density = 2.080030 g / cm^3
# Si number density = 20.847749 Si / 1000 Ang^3
#
#
#
# Elastic Constant Matrix: (Units=GPa)
#
#
# Indices 1 2 3 4 5 6 
#
# 1 37.2177 10.6128 -2.8517 0.0000 0.0000 0.0000
# 2 10.6128 146.2308 54.6331 0.0000 0.0000 0.0000
# 3 -2.8517 54.6331 125.2359 0.0000 0.0000 0.0000
# 4 0.0000 0.0000 0.0000 36.5898 0.0000 0.0000
# 5 0.0000 0.0000 0.0000 0.0000 26.5964 0.0000
# 6 0.0000 0.0000 0.0000 0.0000 0.0000 7.8086
#
#
#
# Elastic Compliance Matrix: (Units=1/GPa)
#
#
# Indices 1 2 3 4 5 6 
#
# 1 0.027775 -0.002691 0.001806 0.000000 0.000000 0.000000
# 2 -0.002691 0.008431 -0.003739 0.000000 0.000000 0.000000
# 3 0.001806 -0.003739 0.009657 0.000000 0.000000 0.000000
# 4 0.000000 0.000000 0.000000 0.027330 0.000000 0.000000
# 5 0.000000 0.000000 0.000000 0.000000 0.037599 0.000000
# 6 0.000000 0.000000 0.000000 0.000000 0.000000 0.128064
#
#
# Mechanical properties :
#
#
# Convention : Reuss Voigt Hill
#
# Bulk Modulus (GPa) = 27.31083 48.16365 37.73724
# Shear Modulus (GPa) = 19.20803 30.61830 24.91317
#
# Velocity S-wave (km/s) = 3.03866 3.83647 3.46063
# Velocity P-wave (km/s) = 5.04380 6.54044 5.84026
#
# Compressibility (1/GPa) = 0.03661551
#
# Stress axis : x y z
#
# Youngs Moduli (GPa) = 36.00419 118.61368 103.54963
#
# Poissons Ratio (x) = 0.31914 -0.18703
# Poissons Ratio (y) = 0.09687 0.38718
# Poissons Ratio (z) = -0.06503 0.44351
#
# Static dielectric constant tensor:
#      x y z
#    x 1.777600 0.000000 0.000000 
#    y 0.000000 1.766540 0.000000 
#    z 0.000000 0.000000 1.700610 
# 
# From -- ./inp_files/19478.got.cif
#   From: 2010.05.17/outbox.cif.g08.bks.cpg/sg38_10_cif.got.tgz:19478.got - 2010.06.03 18:07:57.
