data_PCOD9356967
_publ_section_title
;
Structure prediction by ZEFSAII (Michael W. Deem and Ramdas Pophale) SiO2 
 PCOD9356967
Probable space group: A M M 2
;
_chemical_formula_sum "Si O2"
_cell_formula_units_Z 56
_cell_length_a 20.660754
_cell_length_b 8.853787
_cell_length_c 15.631839
_cell_angle_alpha 90.000000
_cell_angle_beta 90.000000
_cell_angle_gamma 90.000000
_cell_volume 2859.468455
_symmetry_space_group_name_H-M "A M M 2"
_symmetry_group_IT_number 38
_symmetry_cell_setting 'orthorhombic'
loop_
_space_group_symop_operation_xyz
x,y,z
-x,-y,z
-x,y,z
x,-y,z
x,1/2+y,1/2+z
-x,1/2-y,1/2+z
-x,1/2+y,1/2+z
x,1/2-y,1/2+z
loop_
_atom_site_type_symbol
_atom_site_label
_atom_site_fract_x
_atom_site_fract_y
_atom_site_fract_z
Si Si1 0.838021 0.680442 0.602670
Si Si2 0.074180 0.815805 0.261411
Si Si3 0.295592 0.323355 0.158494
Si Si4 0.289620 0.323271 0.365926
Si Si5 0.570920 0.319570 0.663758
Si Si6 0.570049 0.681330 0.353608
Si Si7 0.157817 0.820172 0.424229
O O1 0.837803 0.500000 0.601405
O O2 0.884239 0.733043 0.679631
O O3 0.765411 0.737836 0.619628
O O4 0.861304 0.744193 0.512732
O O5 0.112018 0.768848 0.346641
O O6 0.000000 0.764874 0.259148
O O7 0.073772 0.000000 0.260929
O O8 0.291638 0.500000 0.138456
O O9 0.291387 0.307708 0.262322
O O10 0.364493 0.257602 0.128699
O O11 0.278001 0.500000 0.385927
O O12 0.361861 0.280613 0.397631
O O13 0.231329 0.226417 0.402305
O O14 0.500000 0.276419 0.627710
O O15 0.577094 0.500000 0.657963
O O16 0.569171 0.268448 0.763384
O O17 0.500000 0.708509 0.396185
O O18 0.573855 0.500000 0.335737
O O19 0.153682 0.000000 0.431501
#
# Coordination Sequence:
#
# PCOD9356967 Si02
#       7
#     8   8   8   8   8   8   8
#     4  11  22  38  61  88 118 154 194 239 289 343
#     4   9  20  40  64  89 119 154 189 229 284 348
#     4  10  19  32  53  79 111 150 194 244 293 344
#     4   9  17  30  51  78 110 148 190 239 287 339
#     4   9  16  25  41  70 107 146 191 240 289 344
#     4   8  14  25  42  68 103 144 189 238 291 340
#     4  11  22  37  59  87 118 154 193 235 283 343
#
# _framework density 19.584059
#
# number of rings (size 3 to 8) (size 9 to 14) (size 15 to 20)
#    0.000    2.429    1.429    2.571    0.000    3.714 
#    0.000    0.000    0.000    6.857    0.000    2.000 
#    0.000    0.000    0.000    0.000    0.000    0.000 
#
# Total GULP energy -156220.109349 kJ/mol
# GULP energy per Si atom -5579.289620 kJ/mol
# Density = 1.953948 g / cm^3
# Si number density = 19.584059 Si / 1000 Ang^3
#
#
#
# Elastic Constant Matrix: (Units=GPa)
#
#
# Indices 1 2 3 4 5 6 
#
# 1 171.0984 42.0185 72.1072 0.0000 0.0000 0.0000
# 2 42.0185 51.6739 37.3630 0.0000 0.0000 0.0000
# 3 72.1072 37.3630 99.5315 0.0000 0.0000 0.0000
# 4 0.0000 0.0000 0.0000 20.5849 0.0000 0.0000
# 5 0.0000 0.0000 0.0000 0.0000 -9.9147 0.0000
# 6 0.0000 0.0000 0.0000 0.0000 0.0000 16.1608
#
#
#
# Elastic Compliance Matrix: (Units=1/GPa)
#
#
# Indices 1 2 3 4 5 6 
#
# 1 0.008856 -0.003517 -0.005096 0.000000 0.000000 0.000000
# 2 -0.003517 0.027958 -0.007947 0.000000 0.000000 0.000000
# 3 -0.005096 -0.007947 0.016722 0.000000 0.000000 0.000000
# 4 0.000000 0.000000 0.000000 0.048579 0.000000 0.000000
# 5 0.000000 0.000000 0.000000 0.000000 -0.100860 0.000000
# 6 0.000000 0.000000 0.000000 0.000000 0.000000 0.061878
#
#
# Mechanical properties :
#
#
# Convention : Reuss Voigt Hill
#
# Bulk Modulus (GPa) = 48.97998 69.47568 59.22783
# Shear Modulus (GPa) = 48.51626 16.75385 32.63505
#
# Velocity S-wave (km/s) = 4.98268 2.92804 4.08660
# Velocity P-wave (km/s) = 7.62675 6.85448 7.25090
#
# Compressibility (1/GPa) = 0.02041650
#
# Stress axis : x y z
#
# Youngs Moduli (GPa) = 112.92232 35.76786 59.80142
#
# Poissons Ratio (x) = 0.12578 0.30472
# Poissons Ratio (y) = 0.39710 0.47527
# Poissons Ratio (z) = 0.57540 0.28426
#
# Static dielectric constant tensor:
#      x y z
#    x 1.702850 0.000000 0.000000 
#    y 0.000000 1.658290 0.000000 
#    z 0.000000 0.000000 1.707890 
# 
# From -- ./inp_files/15425.got.cif
#   From: 2010.05.17/outbox.cif.g08.bks.cpg/sg38_8_cif.got.tgz:15425.got - 2010.06.03 18:07:57.
