data_PCOD9356969
_publ_section_title
;
Structure prediction by ZEFSAII (Michael W. Deem and Ramdas Pophale) SiO2 
 PCOD9356969
Probable space group: A M M 2
;
_chemical_formula_sum "Si O2"
_cell_formula_units_Z 58
_cell_length_a 25.551536
_cell_length_b 7.543985
_cell_length_c 14.507311
_cell_angle_alpha 90.000000
_cell_angle_beta 90.000000
_cell_angle_gamma 90.000000
_cell_volume 2796.435134
_symmetry_space_group_name_H-M "A M M 2"
_symmetry_group_IT_number 38
_symmetry_cell_setting 'orthorhombic'
loop_
_space_group_symop_operation_xyz
x,y,z
-x,-y,z
-x,y,z
x,-y,z
x,1/2+y,1/2+z
-x,1/2-y,1/2+z
-x,1/2+y,1/2+z
x,1/2-y,1/2+z
loop_
_atom_site_type_symbol
_atom_site_label
_atom_site_fract_x
_atom_site_fract_y
_atom_site_fract_z
Si Si1 0.648589 0.790338 0.699930
Si Si2 0.153584 0.211983 0.032321
Si Si3 0.000000 0.000000 0.434903
Si Si4 0.559143 0.713397 0.555638
Si Si5 0.730779 0.292832 0.547565
Si Si6 0.357214 0.282342 0.408654
Si Si7 0.081745 0.703825 0.376898
Si Si8 0.940151 0.785082 0.164182
O O1 0.595628 0.757400 0.642634
O O2 0.696991 0.717942 0.640644
O O3 0.644499 0.721913 0.803708
O O4 0.656693 0.000000 0.704831
O O5 0.211043 0.284460 0.053631
O O6 0.105362 0.277505 0.095471
O O7 0.154576 0.000000 0.050612
O O8 0.137792 0.234024 0.925208
O O9 0.955591 0.844880 0.423766
O O10 0.500000 0.781135 0.561316
O O11 0.556739 0.500000 0.551120
O O12 0.591416 0.773529 0.465606
O O13 0.737759 0.500000 0.525140
O O14 0.692979 0.220632 0.467467
O O15 0.357244 0.500000 0.409318
O O16 0.067076 0.500000 0.398481
O O17 0.075779 0.731064 0.267751
O O18 0.000000 0.721359 0.144213
O O19 0.942497 0.000000 0.161838
#
# Coordination Sequence:
#
# PCOD9356969 Si02
#       8
#     8   8   2   8   8   8   8   8
#     4  10  19  32  53  80 106 140 182 229 273 310
#     4   9  21  37  60  84 111 145 183 231 286 337
#     4  12  22  40  60  86 116 150 182 240 282 338
#     4   9  18  34  54  77 107 144 182 219 266 332
#     4   9  18  38  57  76 106 145 185 223 270 326
#     4   8  16  31  54  76 104 145 184 218 261 324
#     4  11  22  40  61  85 113 151 190 228 283 347
#     4  10  19  36  56  81 114 147 178 226 281 338
#
# _framework density 20.740691000000002
#
# number of rings (size 3 to 8) (size 9 to 14) (size 15 to 20)
#    0.000    2.483    1.379    1.448    0.966    1.931 
#    2.483    8.276    0.000    0.000    0.000    0.000 
#    0.000    0.000    0.000    0.000    0.000    0.000 
#
# Total GULP energy -161528.414782 kJ/mol
# GULP energy per Si atom -5569.945337 kJ/mol
# Density = 2.069348 g / cm^3
# Si number density = 20.740691 Si / 1000 Ang^3
#
#
#
# Elastic Constant Matrix: (Units=GPa)
#
#
# Indices 1 2 3 4 5 6 
#
# 1 189.4797 9.9047 91.9914 0.0000 0.0000 0.0000
# 2 9.9047 69.6920 -6.7714 0.0000 0.0000 0.0000
# 3 91.9914 -6.7714 143.3119 0.0000 0.0000 0.0000
# 4 0.0000 0.0000 0.0000 17.7999 0.0000 0.0000
# 5 0.0000 0.0000 0.0000 0.0000 6.8254 0.0000
# 6 0.0000 0.0000 0.0000 0.0000 0.0000 16.8143
#
#
#
# Elastic Compliance Matrix: (Units=1/GPa)
#
#
# Indices 1 2 3 4 5 6 
#
# 1 0.007843 -0.001611 -0.005110 0.000000 0.000000 0.000000
# 2 -0.001611 0.014746 0.001731 0.000000 0.000000 0.000000
# 3 -0.005110 0.001731 0.010340 0.000000 0.000000 0.000000
# 4 0.000000 0.000000 0.000000 0.056180 0.000000 0.000000
# 5 0.000000 0.000000 0.000000 0.000000 0.146511 0.000000
# 6 0.000000 0.000000 0.000000 0.000000 0.000000 0.059473
#
#
# Mechanical properties :
#
#
# Convention : Reuss Voigt Hill
#
# Bulk Modulus (GPa) = 43.57773 65.85923 54.71848
# Shear Modulus (GPa) = 15.98857 28.77852 22.38354
#
# Velocity S-wave (km/s) = 2.77948 3.72901 3.28870
# Velocity P-wave (km/s) = 5.59974 7.09671 6.39219
#
# Compressibility (1/GPa) = 0.02294750
#
# Stress axis : x y z
#
# Youngs Moduli (GPa) = 127.50305 67.81491 96.71196
#
# Poissons Ratio (x) = 0.10926 0.49425
# Poissons Ratio (y) = 0.20543 -0.16740
# Poissons Ratio (z) = 0.65160 -0.11738
#
# Static dielectric constant tensor:
#      x y z
#    x 1.708190 0.000000 0.000000 
#    y 0.000000 1.779720 0.000000 
#    z 0.000000 0.000000 1.741050 
# 
# From -- ./inp_files/15906.got.cif
#   From: 2010.05.17/outbox.cif.g08.bks.cpg/sg38_8_cif.got.tgz:15906.got - 2010.06.03 18:07:57.
