data_PCOD9356296
_publ_section_title
;
Structure prediction by ZEFSAII (Michael W. Deem and Ramdas Pophale) SiO2 
 PCOD9356296
Probable space group: A M M 2
;
_chemical_formula_sum "Si O2"
_cell_formula_units_Z 56
_cell_length_a 9.243332
_cell_length_b 20.253749
_cell_length_c 15.529858
_cell_angle_alpha 90.000000
_cell_angle_beta 90.000000
_cell_angle_gamma 90.000000
_cell_volume 2907.377737
_symmetry_space_group_name_H-M "A M M 2"
_symmetry_group_IT_number 38
_symmetry_cell_setting 'orthorhombic'
loop_
_space_group_symop_operation_xyz
x,y,z
-x,-y,z
-x,y,z
x,-y,z
x,1/2+y,1/2+z
-x,1/2-y,1/2+z
-x,1/2+y,1/2+z
x,1/2-y,1/2+z
loop_
_atom_site_type_symbol
_atom_site_label
_atom_site_fract_x
_atom_site_fract_y
_atom_site_fract_z
Si Si1 0.670987 0.308954 0.058410
Si Si2 0.658091 0.423646 0.297388
Si Si3 0.164215 0.420773 0.138401
Si Si4 0.826886 0.573085 0.658601
Si Si5 0.174811 0.280498 0.704569
Si Si6 0.162558 0.898095 0.957994
Si Si7 0.164328 0.753512 0.401924
O O1 0.500000 0.302236 0.066262
O O2 0.724753 0.382841 0.078262
O O3 0.748471 0.261451 0.129331
O O4 0.726483 0.291461 0.963423
O O5 0.500000 0.391408 0.287160
O O6 0.642353 0.500000 0.272863
O O7 0.783704 0.399671 0.234015
O O8 0.715212 0.422537 0.393798
O O9 0.167112 0.500000 0.129453
O O10 0.000000 0.398511 0.123625
O O11 0.769281 0.500000 0.683450
O O12 0.777609 0.642234 0.700245
O O13 0.807420 0.583048 0.556005
O O14 0.000000 0.570998 0.673530
O O15 0.203732 0.254083 0.801035
O O16 0.000000 0.277770 0.689999
O O17 0.160554 0.819938 0.941167
O O18 0.000000 0.922551 0.936164
O O19 0.000000 0.780697 0.408259
#
# Coordination Sequence:
#
# PCOD9356296 Si02
#       7
#     8   8   8   8   8   8   8
#     4  12  24  38  60  88 121 154 188 243 305 366
#     4  10  20  32  48  77 117 152 183 226 287 356
#     4  10  21  38  60  83 110 149 196 241 287 347
#     4   9  17  31  54  83 114 151 198 253 304 347
#     4  10  20  38  62  87 118 157 205 255 298 353
#     4  10  18  31  52  78 108 148 199 249 293 349
#     4  10  21  37  59  84 112 151 199 247 295 353
#
# _framework density 19.261343
#
# number of rings (size 3 to 8) (size 9 to 14) (size 15 to 20)
#    0.000    1.857    1.429    3.429    0.000    4.571 
#    0.000    0.714    0.000    3.000    0.000    0.000 
#    0.000    0.000    0.000    0.000    0.000    0.000 
#
# Total GULP energy -156135.183951 kJ/mol
# GULP energy per Si atom -5576.256570 kJ/mol
# Density = 1.921750 g / cm^3
# Si number density = 19.261343 Si / 1000 Ang^3
#
#
#
# Elastic Constant Matrix: (Units=GPa)
#
#
# Indices 1 2 3 4 5 6 
#
# 1 85.0623 16.3749 39.5632 0.0000 0.0000 0.0000
# 2 16.3749 80.2792 17.5807 0.0000 0.0000 0.0000
# 3 39.5632 17.5807 61.3391 0.0000 0.0000 0.0000
# 4 0.0000 0.0000 0.0000 59.5061 0.0000 0.0000
# 5 0.0000 0.0000 0.0000 0.0000 -28.2384 0.0000
# 6 0.0000 0.0000 0.0000 0.0000 0.0000 14.0125
#
#
#
# Elastic Compliance Matrix: (Units=1/GPa)
#
#
# Indices 1 2 3 4 5 6 
#
# 1 0.016890 -0.001130 -0.010570 0.000000 0.000000 0.000000
# 2 -0.001130 0.013366 -0.003102 0.000000 0.000000 0.000000
# 3 -0.010570 -0.003102 0.024009 0.000000 0.000000 0.000000
# 4 0.000000 0.000000 0.000000 0.016805 0.000000 0.000000
# 5 0.000000 0.000000 0.000000 0.000000 -0.035413 0.000000
# 6 0.000000 0.000000 0.000000 0.000000 0.000000 0.071365
#
#
# Mechanical properties :
#
#
# Convention : Reuss Voigt Hill
#
# Bulk Modulus (GPa) = 40.54935 41.52424 41.03679
# Shear Modulus (GPa) = 34.51913 19.26682 26.89298
#
# Velocity S-wave (km/s) = 4.23797 3.16616 3.74065
# Velocity P-wave (km/s) = 6.71156 5.91365 6.32520
#
# Compressibility (1/GPa) = 0.02466131
#
# Stress axis : x y z
#
# Youngs Moduli (GPa) = 59.20729 74.81444 41.65048
#
# Poissons Ratio (x) = 0.08457 0.44024
# Poissons Ratio (y) = 0.06692 0.12920
# Poissons Ratio (z) = 0.62581 0.23207
#
# Static dielectric constant tensor:
#      x y z
#    x 1.680390 0.000000 0.000000 
#    y 0.000000 1.088980 0.000000 
#    z 0.000000 0.000000 1.662150 
# 
# From -- ./inp_files/12369.got.cif
#   From: 2010.05.17/outbox.cif.g08.bks.cpg/sg38_7_cif.got.tgz:12369.got - 2010.06.03 18:07:57.
