data_PCOD9356585
_publ_section_title
;
Structure prediction by ZEFSAII (Michael W. Deem and Ramdas Pophale) SiO2 
 PCOD9356585
Probable space group: A M M 2
;
_chemical_formula_sum "Si O2"
_cell_formula_units_Z 64
_cell_length_a 11.096038
_cell_length_b 19.239522
_cell_length_c 15.583411
_cell_angle_alpha 90.000000
_cell_angle_beta 90.000000
_cell_angle_gamma 90.000000
_cell_volume 3326.785028
_symmetry_space_group_name_H-M "A M M 2"
_symmetry_group_IT_number 38
_symmetry_cell_setting 'orthorhombic'
loop_
_space_group_symop_operation_xyz
x,y,z
-x,-y,z
-x,y,z
x,-y,z
x,1/2+y,1/2+z
-x,1/2-y,1/2+z
-x,1/2+y,1/2+z
x,1/2-y,1/2+z
loop_
_atom_site_type_symbol
_atom_site_label
_atom_site_fract_x
_atom_site_fract_y
_atom_site_fract_z
Si Si1 0.360392 0.141642 0.268360
Si Si2 0.866157 0.721106 0.982525
Si Si3 0.357143 0.917846 0.092490
Si Si4 0.364468 0.081356 0.613589
Si Si5 0.644839 0.577667 0.399144
Si Si6 0.138239 0.325518 0.164834
Si Si7 0.240747 0.079501 0.435916
Si Si8 0.265470 0.716058 0.325145
O O1 0.500000 0.120179 0.270668
O O2 0.309691 0.124031 0.174057
O O3 0.291946 0.100386 0.343317
O O4 0.349895 0.223417 0.288202
O O5 0.854466 0.638649 0.961930
O O6 0.775432 0.758196 0.918682
O O7 0.000000 0.746034 0.963585
O O8 0.844004 0.726253 0.084023
O O9 0.500000 0.901728 0.087252
O O10 0.345401 0.000000 0.110729
O O11 0.309354 0.906956 0.996214
O O12 0.500000 0.107781 0.634523
O O13 0.248864 0.120415 0.652969
O O14 0.342597 0.085617 0.510455
O O15 0.360516 0.000000 0.637286
O O16 0.500000 0.574890 0.402937
O O17 0.686554 0.500000 0.374120
O O18 0.679751 0.640142 0.337835
O O19 0.157780 0.290315 0.256708
O O20 0.000000 0.352341 0.157748
O O21 0.197386 0.000000 0.437271
#
# Coordination Sequence:
#
# PCOD9356585 Si02
#       8
#     8   8   8   8   8   8   8   8
#     4  10  19  29  46  79 116 147 183 234 292 342
#     4   9  20  38  56  77 108 144 185 237 290 340
#     4   8  15  29  49  72 103 147 192 231 281 345
#     4   9  18  33  54  81 113 147 182 225 279 336
#     4   9  19  36  55  77 111 154 194 236 291 350
#     4  10  22  39  57  79 108 147 191 231 281 343
#     4   9  17  30  51  80 113 150 186 222 273 340
#     4  11  22  34  56  80 108 141 195 240 291 342
#
# _framework density 19.237791999999999
#
# number of rings (size 3 to 8) (size 9 to 14) (size 15 to 20)
#    0.000    2.625    0.000    2.250    1.750    3.250 
#    0.000    4.375    0.000    1.125    0.000    0.000 
#    0.000    0.000    0.000    0.000    0.000    0.000 
#
# Total GULP energy -178223.405797 kJ/mol
# GULP energy per Si atom -5569.481431 kJ/mol
# Density = 1.919401 g / cm^3
# Si number density = 19.237792 Si / 1000 Ang^3
#
#
#
# Elastic Constant Matrix: (Units=GPa)
#
#
# Indices 1 2 3 4 5 6 
#
# 1 51.3791 -13.4122 6.5014 0.0000 0.0000 0.0000
# 2 -13.4122 38.8400 24.1590 0.0000 0.0000 0.0000
# 3 6.5014 24.1590 84.8170 0.0000 0.0000 0.0000
# 4 0.0000 0.0000 0.0000 22.6598 0.0000 0.0000
# 5 0.0000 0.0000 0.0000 0.0000 17.6868 0.0000
# 6 0.0000 0.0000 0.0000 0.0000 0.0000 7.2348
#
#
#
# Elastic Compliance Matrix: (Units=1/GPa)
#
#
# Indices 1 2 3 4 5 6 
#
# 1 0.022941 0.010957 -0.004879 0.000000 0.000000 0.000000
# 2 0.010957 0.036524 -0.011243 0.000000 0.000000 0.000000
# 3 -0.004879 -0.011243 0.015367 0.000000 0.000000 0.000000
# 4 0.000000 0.000000 0.000000 0.044131 0.000000 0.000000
# 5 0.000000 0.000000 0.000000 0.000000 0.056539 0.000000
# 6 0.000000 0.000000 0.000000 0.000000 0.000000 0.138220
#
#
# Mechanical properties :
#
#
# Convention : Reuss Voigt Hill
#
# Bulk Modulus (GPa) = 15.50390 23.28140 19.39265
# Shear Modulus (GPa) = 14.46957 20.03549 17.25253
#
# Velocity S-wave (km/s) = 2.74550 3.23067 2.99792
# Velocity P-wave (km/s) = 4.25757 5.10338 4.69955
#
# Compressibility (1/GPa) = 0.06449989
#
# Stress axis : x y z
#
# Youngs Moduli (GPa) = 43.59037 27.37947 65.07624
#
# Poissons Ratio (x) = -0.30000 0.31753
# Poissons Ratio (y) = -0.47762 0.73166
# Poissons Ratio (z) = 0.21270 0.30783
#
# Static dielectric constant tensor:
#      x y z
#    x 1.651250 0.000000 0.000000 
#    y 0.000000 1.676810 0.000000 
#    z 0.000000 0.000000 1.724220 
# 
# From -- ./inp_files/13958.got.cif
#   From: 2010.05.17/outbox.cif.g08.bks.cpg/sg38_7_cif.got.tgz:13958.got - 2010.06.03 18:07:57.
