data_PCOD9356584
_publ_section_title
;
Structure prediction by ZEFSAII (Michael W. Deem and Ramdas Pophale) SiO2 
 PCOD9356584
Probable space group: A M M 2
;
_chemical_formula_sum "Si O2"
_cell_formula_units_Z 64
_cell_length_a 8.891102
_cell_length_b 34.179089
_cell_length_c 11.892209
_cell_angle_alpha 90.000000
_cell_angle_beta 90.000000
_cell_angle_gamma 90.000000
_cell_volume 3613.920617
_symmetry_space_group_name_H-M "A M M 2"
_symmetry_group_IT_number 38
_symmetry_cell_setting 'orthorhombic'
loop_
_space_group_symop_operation_xyz
x,y,z
-x,-y,z
-x,y,z
x,-y,z
x,1/2+y,1/2+z
-x,1/2-y,1/2+z
-x,1/2+y,1/2+z
x,1/2-y,1/2+z
loop_
_atom_site_type_symbol
_atom_site_label
_atom_site_fract_x
_atom_site_fract_y
_atom_site_fract_z
Si Si1 0.320739 0.685836 0.743670
Si Si2 0.321093 0.455052 0.974557
Si Si3 0.678430 0.680688 0.479054
Si Si4 0.675062 0.168436 0.626216
Si Si5 0.820222 0.625651 0.910776
Si Si6 0.820902 0.268723 0.284424
Si Si7 0.169952 0.045041 0.712583
Si Si8 0.671556 0.108598 0.836938
O O1 0.500000 0.684905 0.763252
O O2 0.294030 0.686038 0.609954
O O3 0.244128 0.649254 0.804664
O O4 0.250515 0.725895 0.789493
O O5 0.500000 0.451562 0.959927
O O6 0.276290 0.500000 0.944397
O O7 0.239459 0.418980 0.914305
O O8 0.279428 0.450114 0.106247
O O9 0.500000 0.687502 0.455569
O O10 0.772783 0.708395 0.397317
O O11 0.709654 0.636218 0.441177
O O12 0.500000 0.176426 0.599024
O O13 0.756871 0.148955 0.520197
O O14 0.752615 0.206875 0.678876
O O15 0.678488 0.137078 0.728073
O O16 0.000000 0.626113 0.912862
O O17 0.000000 0.266961 0.274414
O O18 0.218473 0.073381 0.811527
O O19 0.000000 0.054059 0.674264
O O20 0.175828 0.000000 0.747267
O O21 0.500000 0.094573 0.847546
#
# Coordination Sequence:
#
# PCOD9356584 Si02
#       8
#     8   8   8   8   8   8   8   8
#     4  11  24  42  62  81 110 152 197 239 285 344
#     4  10  20  35  56  82 115 155 194 234 286 350
#     4   9  21  41  61  80 105 146 195 234 279 339
#     4  10  20  36  57  81 112 151 192 228 276 343
#     4  12  24  37  57  87 120 151 190 242 299 347
#     4  11  23  38  59  86 117 147 185 239 292 337
#     4  10  19  29  46  78 116 148 180 223 279 339
#     4   9  17  32  55  79 105 139 184 230 272 328
#
# _framework density 17.709299999999999
#
# number of rings (size 3 to 8) (size 9 to 14) (size 15 to 20)
#    0.000    1.750    1.250    4.500    1.750    4.500 
#    0.000    0.000    0.000    0.750    0.000    1.750 
#    0.000    0.000    0.000    0.000    0.000    0.000 
#
# Total GULP energy -178682.486385 kJ/mol
# GULP energy per Si atom -5583.827700 kJ/mol
# Density = 1.766899 g / cm^3
# Si number density = 17.709300 Si / 1000 Ang^3
#
#
#
# Elastic Constant Matrix: (Units=GPa)
#
#
# Indices 1 2 3 4 5 6 
#
# 1 117.5799 65.6423 45.1896 0.0000 0.0000 0.0000
# 2 65.6423 115.0288 36.5917 0.0000 0.0000 0.0000
# 3 45.1896 36.5917 54.0453 0.0000 0.0000 0.0000
# 4 0.0000 0.0000 0.0000 24.0022 0.0000 0.0000
# 5 0.0000 0.0000 0.0000 0.0000 16.1912 0.0000
# 6 0.0000 0.0000 0.0000 0.0000 0.0000 23.1177
#
#
#
# Elastic Compliance Matrix: (Units=1/GPa)
#
#
# Indices 1 2 3 4 5 6 
#
# 1 0.015109 -0.005867 -0.008661 0.000000 0.000000 0.000000
# 2 -0.005867 0.013358 -0.004139 0.000000 0.000000 0.000000
# 3 -0.008661 -0.004139 0.028547 0.000000 0.000000 0.000000
# 4 0.000000 0.000000 0.000000 0.041663 0.000000 0.000000
# 5 0.000000 0.000000 0.000000 0.000000 0.061762 0.000000
# 6 0.000000 0.000000 0.000000 0.000000 0.000000 0.043257
#
#
# Mechanical properties :
#
#
# Convention : Reuss Voigt Hill
#
# Bulk Modulus (GPa) = 50.81075 64.61125 57.71100
# Shear Modulus (GPa) = 20.19482 21.94426 21.06954
#
# Velocity S-wave (km/s) = 3.38057 3.52396 3.45301
# Velocity P-wave (km/s) = 6.63261 7.28843 6.96824
#
# Compressibility (1/GPa) = 0.01968087
#
# Stress axis : x y z
#
# Youngs Moduli (GPa) = 66.18619 74.86153 35.03023
#
# Poissons Ratio (x) = 0.43921 0.30339
# Poissons Ratio (y) = 0.38831 0.14497
# Poissons Ratio (z) = 0.57324 0.30982
#
# Static dielectric constant tensor:
#      x y z
#    x 1.598420 0.000000 0.000000 
#    y 0.000000 1.614570 0.000000 
#    z 0.000000 0.000000 1.586300 
# 
# From -- ./inp_files/8516.got.cif
#   From: 2010.05.17/outbox.cif.g08.bks.cpg/sg38_5_cif.got.tgz:8516.got - 2010.06.03 18:07:57.
