data_PCOD9356691
_publ_section_title
;
Structure prediction by ZEFSAII (Michael W. Deem and Ramdas Pophale) SiO2 
 PCOD9356691
Probable space group: A M M 2
;
_chemical_formula_sum "Si O2"
_cell_formula_units_Z 64
_cell_length_a 17.116870
_cell_length_b 9.057080
_cell_length_c 19.685261
_cell_angle_alpha 90.000000
_cell_angle_beta 90.000000
_cell_angle_gamma 90.000000
_cell_volume 3051.783590
_symmetry_space_group_name_H-M "A M M 2"
_symmetry_group_IT_number 38
_symmetry_cell_setting 'orthorhombic'
loop_
_space_group_symop_operation_xyz
x,y,z
-x,-y,z
-x,y,z
x,-y,z
x,1/2+y,1/2+z
-x,1/2-y,1/2+z
-x,1/2+y,1/2+z
x,1/2-y,1/2+z
loop_
_atom_site_type_symbol
_atom_site_label
_atom_site_fract_x
_atom_site_fract_y
_atom_site_fract_z
Si Si1 0.408586 0.662066 0.066330
Si Si2 0.753681 0.171727 0.736852
Si Si3 0.089866 0.822895 0.211607
Si Si4 0.799351 0.663605 0.471539
Si Si5 0.663900 0.166567 0.416281
Si Si6 0.588158 0.676411 0.779918
Si Si7 0.285417 0.659198 0.616426
Si Si8 0.091312 0.832536 0.565482
O O1 0.500000 0.668869 0.062177
O O2 0.386820 0.500000 0.095221
O O3 0.375458 0.798582 0.108367
O O4 0.373327 0.668954 0.990914
O O5 0.837670 0.248928 0.752809
O O6 0.670406 0.247632 0.757197
O O7 0.749660 0.203783 0.656162
O O8 0.754083 0.000000 0.754365
O O9 0.097490 0.772012 0.132303
O O10 0.000000 0.781624 0.231921
O O11 0.096366 0.000000 0.215192
O O12 0.827271 0.500000 0.453334
O O13 0.738799 0.726902 0.416646
O O14 0.749792 0.651704 0.541649
O O15 0.865821 0.771920 0.498521
O O16 0.597708 0.198145 0.361187
O O17 0.692412 0.000000 0.403067
O O18 0.500000 0.727829 0.758718
O O19 0.591811 0.500000 0.766025
O O20 0.271715 0.500000 0.649602
O O21 0.000000 0.837219 0.550422
O O22 0.117271 0.000000 0.581723
#
# Coordination Sequence:
#
# PCOD9356691 Si02
#       8
#     8   8   8   8   8   8   8   8
#     4   9  17  30  50  76 104 133 169 217 272 330
#     4  12  24  37  57  82 114 153 191 237 290 343
#     4  10  20  35  57  85 117 152 190 233 282 341
#     4  10  19  31  51  78 110 146 180 221 274 331
#     4   9  18  34  57  80 103 135 179 230 282 335
#     4  10  22  41  63  84 108 145 195 247 296 348
#     4  10  20  33  49  72 104 141 179 218 266 329
#     4  10  19  30  49  80 116 151 186 225 272 331
#
# _framework density 20.971343000000001
#
# number of rings (size 3 to 8) (size 9 to 14) (size 15 to 20)
#    0.000    2.000    1.250    3.000    0.000    5.500 
#    0.000    0.000    0.000    3.000    0.000    5.250 
#    0.000    0.000    0.000    0.000    0.000    0.000 
#
# Total GULP energy -178145.966547 kJ/mol
# GULP energy per Si atom -5567.061455 kJ/mol
# Density = 2.092361 g / cm^3
# Si number density = 20.971343 Si / 1000 Ang^3
#
#
#
# Elastic Constant Matrix: (Units=GPa)
#
#
# Indices 1 2 3 4 5 6 
#
# 1 159.7447 66.7522 14.5963 0.0000 0.0000 0.0000
# 2 66.7522 81.5496 7.4795 0.0000 0.0000 0.0000
# 3 14.5963 7.4795 7.6136 0.0000 0.0000 0.0000
# 4 0.0000 0.0000 0.0000 16.3063 0.0000 0.0000
# 5 0.0000 0.0000 0.0000 0.0000 31.2607 0.0000
# 6 0.0000 0.0000 0.0000 0.0000 0.0000 29.9333
#
#
#
# Elastic Compliance Matrix: (Units=1/GPa)
#
#
# Indices 1 2 3 4 5 6 
#
# 1 0.010555 -0.007456 -0.012911 0.000000 0.000000 0.000000
# 2 -0.007456 0.018743 -0.004119 0.000000 0.000000 0.000000
# 3 -0.012911 -0.004119 0.160144 0.000000 0.000000 0.000000
# 4 0.000000 0.000000 0.000000 0.061326 0.000000 0.000000
# 5 0.000000 0.000000 0.000000 0.000000 0.031989 0.000000
# 6 0.000000 0.000000 0.000000 0.000000 0.000000 0.033408
#
#
# Mechanical properties :
#
#
# Convention : Reuss Voigt Hill
#
# Bulk Modulus (GPa) = 7.11897 47.39596 27.25747
# Shear Modulus (GPa) = 12.13704 26.17206 19.15455
#
# Velocity S-wave (km/s) = 2.40832 3.53652 3.02548
# Velocity P-wave (km/s) = 3.33696 6.27100 5.02298
#
# Compressibility (1/GPa) = 0.14046979
#
# Stress axis : x y z
#
# Youngs Moduli (GPa) = 94.73934 53.35265 6.24436
#
# Poissons Ratio (x) = 0.39779 0.08062
# Poissons Ratio (y) = 0.70636 0.02572
# Poissons Ratio (z) = 1.22322 0.21978
#
# Static dielectric constant tensor:
#      x y z
#    x 1.800590 0.000000 0.000000 
#    y 0.000000 1.785020 0.000000 
#    z 0.000000 0.000000 1.795990 
# 
# From -- ./inp_files/21339.got.cif
#   From: 2010.05.17/outbox.cif.g08.bks.cpg/sg38_11_cif.got.tgz:21339.got - 2010.06.03 18:07:57.
