data_PCOD9356080
_publ_section_title
;
Structure prediction by ZEFSAII (Michael W. Deem and Ramdas Pophale) SiO2 
 PCOD9356080
Probable space group: A M M 2
;
_chemical_formula_sum "Si O2"
_cell_formula_units_Z 64
_cell_length_a 14.636520
_cell_length_b 8.999388
_cell_length_c 31.918858
_cell_angle_alpha 90.000000
_cell_angle_beta 90.000000
_cell_angle_gamma 90.000000
_cell_volume 4204.343117
_symmetry_space_group_name_H-M "A M M 2"
_symmetry_group_IT_number 38
_symmetry_cell_setting 'orthorhombic'
loop_
_space_group_symop_operation_xyz
x,y,z
-x,-y,z
-x,y,z
x,-y,z
x,1/2+y,1/2+z
-x,1/2-y,1/2+z
-x,1/2+y,1/2+z
x,1/2-y,1/2+z
loop_
_atom_site_type_symbol
_atom_site_label
_atom_site_fract_x
_atom_site_fract_y
_atom_site_fract_z
Si Si1 0.395242 0.319315 0.615740
Si Si2 0.896222 0.177714 0.072074
Si Si3 0.393022 0.678620 0.779663
Si Si4 0.289854 0.679007 0.530810
Si Si5 0.720089 0.320443 0.697353
Si Si6 0.104686 0.677396 0.163160
Si Si7 0.392518 0.822414 0.453156
Si Si8 0.389099 0.670820 0.366269
O O1 0.500000 0.268130 0.616933
O O2 0.396393 0.500000 0.616383
O O3 0.345477 0.276520 0.572727
O O4 0.338926 0.272913 0.656701
O O5 0.815920 0.216722 0.039956
O O6 0.881084 0.258875 0.116272
O O7 0.000000 0.209502 0.058009
O O8 0.889031 0.000000 0.079797
O O9 0.500000 0.717332 0.772475
O O10 0.389061 0.500000 0.784117
O O11 0.332895 0.721507 0.739637
O O12 0.360989 0.752864 0.822839
O O13 0.297281 0.500000 0.526404
O O14 0.333406 0.755301 0.490614
O O15 0.726967 0.500000 0.696250
O O16 0.819605 0.250193 0.692582
O O17 0.114333 0.500000 0.162568
O O18 0.000000 0.714038 0.174964
O O19 0.500000 0.782262 0.459394
O O20 0.362357 0.757372 0.408282
O O21 0.386398 0.000000 0.452545
O O22 0.500000 0.673496 0.365758
O O23 0.359472 0.500000 0.368155
#
# Coordination Sequence:
#
# PCOD9356080 Si02
#       8
#     8   8   8   8   8   8   8   8
#     4   9  16  26  41  63  92 124 157 188 217 259
#     4   9  17  31  50  69  89 116 154 197 235 275
#     4   9  17  29  47  71  98 125 154 190 230 273
#     4  10  18  29  46  68  92 122 157 191 230 275
#     4  10  18  30  47  68  92 124 161 191 225 272
#     4  10  20  32  46  65  90 120 154 197 244 279
#     4  10  20  32  46  66  94 125 157 194 233 272
#     4   9  17  30  48  68  91 121 157 194 231 272
#
# _framework density 15.222355
#
# number of rings (size 3 to 8) (size 9 to 14) (size 15 to 20)
#    0.000    2.500    1.250    1.875    0.000    6.000 
#    0.000    0.000    0.000    1.125    0.000    0.875 
#    0.000    5.000    0.000    0.000    0.000    0.000 
#
# Total GULP energy -178389.916649 kJ/mol
# GULP energy per Si atom -5574.684895 kJ/mol
# Density = 1.518771 g / cm^3
# Si number density = 15.222355 Si / 1000 Ang^3
#
#
#
# Elastic Constant Matrix: (Units=GPa)
#
#
# Indices 1 2 3 4 5 6 
#
# 1 107.4034 40.7235 75.6308 0.0000 0.0000 0.0000
# 2 40.7235 32.0734 48.8534 0.0000 0.0000 0.0000
# 3 75.6308 48.8534 146.1711 0.0000 0.0000 0.0000
# 4 0.0000 0.0000 0.0000 25.0635 0.0000 0.0000
# 5 0.0000 0.0000 0.0000 0.0000 10.2157 0.0000
# 6 0.0000 0.0000 0.0000 0.0000 0.0000 17.2186
#
#
#
# Elastic Compliance Matrix: (Units=1/GPa)
#
#
# Indices 1 2 3 4 5 6 
#
# 1 0.018826 -0.018468 -0.003568 0.000000 0.000000 0.000000
# 2 -0.018468 0.081626 -0.017726 0.000000 0.000000 0.000000
# 3 -0.003568 -0.017726 0.014612 0.000000 0.000000 0.000000
# 4 0.000000 0.000000 0.000000 0.039899 0.000000 0.000000
# 5 0.000000 0.000000 0.000000 0.000000 0.097889 0.000000
# 6 0.000000 0.000000 0.000000 0.000000 0.000000 0.058077
#
#
# Mechanical properties :
#
#
# Convention : Reuss Voigt Hill
#
# Bulk Modulus (GPa) = 28.13712 68.45148 48.29430
# Shear Modulus (GPa) = 12.42859 18.52891 15.47875
#
# Velocity S-wave (km/s) = 2.86049 3.49265 3.19226
# Velocity P-wave (km/s) = 5.42532 7.83136 6.73663
#
# Compressibility (1/GPa) = 0.03554023
#
# Stress axis : x y z
#
# Youngs Moduli (GPa) = 53.11866 12.25096 68.43713
#
# Poissons Ratio (x) = 0.22625 0.24421
# Poissons Ratio (y) = 0.98098 1.21310
# Poissons Ratio (z) = 0.18955 0.21716
#
# Static dielectric constant tensor:
#      x y z
#    x 1.506880 0.000000 0.000000 
#    y 0.000000 1.511590 0.000000 
#    z 0.000000 0.000000 1.481250 
# 
# From -- ./inp_files/25030.got.cif
#   From: 2010.05.17/outbox.cif.g08.bks.cpg/sg38_13_cif.got.tgz:25030.got - 2010.06.03 18:07:57.
