data_PCOD9356216
_publ_section_title
;
Structure prediction by ZEFSAII (Michael W. Deem and Ramdas Pophale) SiO2 
 PCOD9356216
Probable space group: A M M 2
;
_chemical_formula_sum "Si O2"
_cell_formula_units_Z 64
_cell_length_a 20.434393
_cell_length_b 8.093209
_cell_length_c 20.812670
_cell_angle_alpha 90.000000
_cell_angle_beta 90.000000
_cell_angle_gamma 90.000000
_cell_volume 3441.995480
_symmetry_space_group_name_H-M "A M M 2"
_symmetry_group_IT_number 38
_symmetry_cell_setting 'orthorhombic'
loop_
_space_group_symop_operation_xyz
x,y,z
-x,-y,z
-x,y,z
x,-y,z
x,1/2+y,1/2+z
-x,1/2-y,1/2+z
-x,1/2+y,1/2+z
x,1/2-y,1/2+z
loop_
_atom_site_type_symbol
_atom_site_label
_atom_site_fract_x
_atom_site_fract_y
_atom_site_fract_z
Si Si1 0.326560 0.299506 0.138360
Si Si2 0.328739 0.309070 0.919826
Si Si3 0.158753 0.298779 0.314442
Si Si4 0.817035 0.195587 0.595445
Si Si5 0.074312 0.297375 0.195345
Si Si6 0.574611 0.302972 0.528375
Si Si7 0.186570 0.691993 0.453621
Si Si8 0.307524 0.800481 0.782038
O O1 0.326410 0.500000 0.136288
O O2 0.255244 0.239732 0.113633
O O3 0.382752 0.239748 0.090944
O O4 0.333964 0.248770 0.212660
O O5 0.310285 0.500000 0.926930
O O6 0.264605 0.207019 0.940981
O O7 0.341948 0.269769 0.845332
O O8 0.388160 0.270475 0.966880
O O9 0.158193 0.500000 0.316581
O O10 0.103810 0.246627 0.264276
O O11 0.154138 0.240846 0.388060
O O12 0.230722 0.252919 0.287889
O O13 0.874858 0.260254 0.640825
O O14 0.829644 0.222584 0.520427
O O15 0.813825 0.000000 0.608119
O O16 0.073851 0.500000 0.194428
O O17 0.000000 0.242312 0.185670
O O18 0.500000 0.243319 0.533693
O O19 0.573873 0.500000 0.520969
O O20 0.169604 0.500000 0.460216
O O21 0.310307 0.000000 0.785345
#
# Coordination Sequence:
#
# PCOD9356216 Si02
#       8
#     8   8   8   8   8   8   8   8
#     4  10  19  33  56  82 109 142 182 228 271 319
#     4  11  21  34  54  81 109 138 176 224 272 324
#     4   8  14  27  46  70  99 132 175 219 258 305
#     4  10  18  30  51  80 109 138 179 228 268 314
#     4   9  16  28  49  76 106 142 183 224 268 320
#     4  11  24  40  57  79 110 146 183 223 270 328
#     4  10  19  31  51  76 104 138 176 224 276 322
#     4   9  17  32  54  79 108 140 177 223 269 317
#
# _framework density 18.593865000000001
#
# number of rings (size 3 to 8) (size 9 to 14) (size 15 to 20)
#    0.000    2.250    2.500    2.625    0.000    1.500 
#    0.000    1.250    0.000    1.875    0.000    0.000 
#    0.000    0.000    0.000    0.000    0.000    0.000 
#
# Total GULP energy -178514.113882 kJ/mol
# GULP energy per Si atom -5578.566059 kJ/mol
# Density = 1.855154 g / cm^3
# Si number density = 18.593865 Si / 1000 Ang^3
#
#
#
# Elastic Constant Matrix: (Units=GPa)
#
#
# Indices 1 2 3 4 5 6 
#
# 1 99.7445 -4.0447 67.2456 0.0000 0.0000 0.0000
# 2 -4.0447 12.5214 -4.5374 0.0000 0.0000 0.0000
# 3 67.2456 -4.5374 146.8143 0.0000 0.0000 0.0000
# 4 0.0000 0.0000 0.0000 26.6209 0.0000 0.0000
# 5 0.0000 0.0000 0.0000 0.0000 25.5042 0.0000
# 6 0.0000 0.0000 0.0000 0.0000 0.0000 9.7189
#
#
#
# Elastic Compliance Matrix: (Units=1/GPa)
#
#
# Indices 1 2 3 4 5 6 
#
# 1 0.014571 0.002314 -0.006602 0.000000 0.000000 0.000000
# 2 0.002314 0.081135 0.001448 0.000000 0.000000 0.000000
# 3 -0.006602 0.001448 0.009880 0.000000 0.000000 0.000000
# 4 0.000000 0.000000 0.000000 0.037564 0.000000 0.000000
# 5 0.000000 0.000000 0.000000 0.000000 0.039209 0.000000
# 6 0.000000 0.000000 0.000000 0.000000 0.000000 0.102893
#
#
# Mechanical properties :
#
#
# Convention : Reuss Voigt Hill
#
# Bulk Modulus (GPa) = 10.00951 41.82304 25.91627
# Shear Modulus (GPa) = 15.42091 25.72990 20.57540
#
# Velocity S-wave (km/s) = 2.88298 3.72396 3.33012
# Velocity P-wave (km/s) = 4.05919 6.40564 5.36233
#
# Compressibility (1/GPa) = 0.09990496
#
# Stress axis : x y z
#
# Youngs Moduli (GPa) = 68.63154 12.32509 101.21350
#
# Poissons Ratio (x) = -0.02852 0.66824
# Poissons Ratio (y) = -0.15883 -0.14651
# Poissons Ratio (z) = 0.45312 -0.01784
#
# Static dielectric constant tensor:
#      x y z
#    x 1.618080 0.000000 0.000000 
#    y 0.000000 1.668710 0.000000 
#    z 0.000000 0.000000 1.648640 
# 
# From -- ./inp_files/21512.got.cif
#   From: 2010.05.17/outbox.cif.g08.bks.cpg/sg38_11_cif.got.tgz:21512.got - 2010.06.03 18:07:57.
