data_PCOD9356168
_publ_section_title
;
Structure prediction by ZEFSAII (Michael W. Deem and Ramdas Pophale) SiO2 
 PCOD9356168
Probable space group: A M M 2
;
_chemical_formula_sum "Si O2"
_cell_formula_units_Z 56
_cell_length_a 17.884559
_cell_length_b 9.794585
_cell_length_c 19.300861
_cell_angle_alpha 90.000000
_cell_angle_beta 90.000000
_cell_angle_gamma 90.000000
_cell_volume 3380.967206
_symmetry_space_group_name_H-M "A M M 2"
_symmetry_group_IT_number 38
_symmetry_cell_setting 'orthorhombic'
loop_
_space_group_symop_operation_xyz
x,y,z
-x,-y,z
-x,y,z
x,-y,z
x,1/2+y,1/2+z
-x,1/2-y,1/2+z
-x,1/2+y,1/2+z
x,1/2-y,1/2+z
loop_
_atom_site_type_symbol
_atom_site_label
_atom_site_fract_x
_atom_site_fract_y
_atom_site_fract_z
Si Si1 0.912975 0.662425 0.569520
Si Si2 0.413114 0.339147 0.791277
Si Si3 0.309472 0.846289 0.547349
Si Si4 0.816082 0.155869 0.667129
Si Si5 0.412839 0.648824 0.625130
Si Si6 0.267759 0.662478 0.307859
Si Si7 0.210440 0.839871 0.955996
O O1 0.906190 0.500000 0.582676
O O2 0.877949 0.746213 0.633487
O O3 0.864540 0.691548 0.499889
O O4 0.000000 0.695309 0.559761
O O5 0.500000 0.301694 0.809130
O O6 0.403463 0.500000 0.809165
O O7 0.406401 0.329052 0.707541
O O8 0.345025 0.245907 0.818126
O O9 0.248046 0.849690 0.608626
O O10 0.378009 0.768438 0.581174
O O11 0.274272 0.755608 0.487318
O O12 0.326030 0.000000 0.525335
O O13 0.776168 0.203516 0.737855
O O14 0.843689 0.000000 0.677768
O O15 0.500000 0.641483 0.609906
O O16 0.377704 0.500000 0.609322
O O17 0.285090 0.500000 0.301444
O O18 0.213184 0.680396 0.373685
O O19 0.226932 0.000000 0.968558
#
# Coordination Sequence:
#
# PCOD9356168 Si02
#       7
#     8   8   8   8   8   8   8
#     4   9  18  34  55  77  99 128 168 207 244 296
#     4   9  18  31  48  72 101 134 171 212 258 302
#     4  10  18  30  48  71  98 126 162 207 248 294
#     4   9  18  31  49  75 102 126 157 200 251 299
#     4   9  17  29  46  69  96 127 166 210 256 302
#     4  10  19  33  51  75 104 134 170 211 252 299
#     4   9  19  34  52  72 100 135 168 202 246 300
#
# _framework density 16.563306999999998
#
# number of rings (size 3 to 8) (size 9 to 14) (size 15 to 20)
#    0.000    2.714    1.429    1.286    0.000    2.571 
#    0.000    2.857    0.000    3.429    0.000    0.000 
#    0.000    0.000    0.000    0.000    0.000    0.000 
#
# Total GULP energy -155870.593321 kJ/mol
# GULP energy per Si atom -5566.806904 kJ/mol
# Density = 1.652561 g / cm^3
# Si number density = 16.563307 Si / 1000 Ang^3
#
#
#
# Elastic Constant Matrix: (Units=GPa)
#
#
# Indices 1 2 3 4 5 6 
#
# 1 91.5035 48.5143 31.1600 0.0000 0.0000 0.0000
# 2 48.5143 60.6522 31.3988 0.0000 0.0000 0.0000
# 3 31.1600 31.3988 68.7517 0.0000 0.0000 0.0000
# 4 0.0000 0.0000 0.0000 17.1475 0.0000 0.0000
# 5 0.0000 0.0000 0.0000 0.0000 17.5828 0.0000
# 6 0.0000 0.0000 0.0000 0.0000 0.0000 27.1045
#
#
#
# Elastic Compliance Matrix: (Units=1/GPa)
#
#
# Indices 1 2 3 4 5 6 
#
# 1 0.019230 -0.014235 -0.002214 0.000000 0.000000 0.000000
# 2 -0.014235 0.032130 -0.008222 0.000000 0.000000 0.000000
# 3 -0.002214 -0.008222 0.019304 0.000000 0.000000 0.000000
# 4 0.000000 0.000000 0.000000 0.058318 0.000000 0.000000
# 5 0.000000 0.000000 0.000000 0.000000 0.056874 0.000000
# 6 0.000000 0.000000 0.000000 0.000000 0.000000 0.036894
#
#
# Mechanical properties :
#
#
# Convention : Reuss Voigt Hill
#
# Bulk Modulus (GPa) = 46.90280 49.22818 48.06549
# Shear Modulus (GPa) = 17.90831 19.68925 18.79878
#
# Velocity S-wave (km/s) = 3.29173 3.45153 3.37258
# Velocity P-wave (km/s) = 6.54417 6.75795 6.65192
#
# Compressibility (1/GPa) = 0.02132069
#
# Stress axis : x y z
#
# Youngs Moduli (GPa) = 52.00201 31.12314 51.80358
#
# Poissons Ratio (x) = 0.44305 0.11471
# Poissons Ratio (y) = 0.74027 0.42593
# Poissons Ratio (z) = 0.11515 0.25590
#
# Static dielectric constant tensor:
#      x y z
#    x 1.544290 0.000000 0.000000 
#    y 0.000000 1.579180 0.000000 
#    z 0.000000 0.000000 1.549850 
# 
# From -- ./inp_files/21287.got.cif
#   From: 2010.05.17/outbox.cif.g08.bks.cpg/sg38_11_cif.got.tgz:21287.got - 2010.06.03 18:07:57.
