data_PCOD9356614
_publ_section_title
;
Structure prediction by ZEFSAII (Michael W. Deem and Ramdas Pophale) SiO2 
 PCOD9356614
Probable space group: A M M 2
;
_chemical_formula_sum "Si O2"
_cell_formula_units_Z 64
_cell_length_a 7.454267
_cell_length_b 15.522927
_cell_length_c 28.043696
_cell_angle_alpha 90.000000
_cell_angle_beta 90.000000
_cell_angle_gamma 90.000000
_cell_volume 3244.993343
_symmetry_space_group_name_H-M "A M M 2"
_symmetry_group_IT_number 38
_symmetry_cell_setting 'orthorhombic'
loop_
_space_group_symop_operation_xyz
x,y,z
-x,-y,z
-x,y,z
x,-y,z
x,1/2+y,1/2+z
-x,1/2-y,1/2+z
-x,1/2+y,1/2+z
x,1/2-y,1/2+z
loop_
_atom_site_type_symbol
_atom_site_label
_atom_site_fract_x
_atom_site_fract_y
_atom_site_fract_z
Si Si1 0.283335 0.097543 0.793310
Si Si2 0.279930 0.278870 0.208209
Si Si3 0.783121 0.903152 0.348085
Si Si4 0.718622 0.097704 0.623616
Si Si5 0.212444 0.776402 0.429315
Si Si6 0.288932 0.595636 0.736918
Si Si7 0.209723 0.595301 0.404095
Si Si8 0.715913 0.903374 0.514833
O O1 0.500000 0.099138 0.793993
O O2 0.223375 0.167968 0.755179
O O3 0.221267 0.112687 0.847278
O O4 0.228989 0.000000 0.779531
O O5 0.500000 0.277923 0.208594
O O6 0.222502 0.332153 0.161861
O O7 0.216874 0.180334 0.210929
O O8 0.714955 0.832872 0.385292
O O9 0.727549 0.888060 0.293657
O O10 0.000000 0.902465 0.349015
O O11 0.724863 0.000000 0.361687
O O12 0.500000 0.098404 0.623949
O O13 0.775617 0.113882 0.569112
O O14 0.772185 0.000000 0.636743
O O15 0.286892 0.679544 0.429722
O O16 0.232647 0.831380 0.477087
O O17 0.000000 0.767587 0.420392
O O18 0.500000 0.591247 0.725739
O O19 0.212367 0.500000 0.727492
O O20 0.289047 0.500000 0.412451
O O21 0.000000 0.589244 0.416855
O O22 0.500000 0.905937 0.515725
O O23 0.778253 0.000000 0.501036
#
# Coordination Sequence:
#
# PCOD9356614 Si02
#       8
#     8   8   8   8   8   8   8   8
#     4   9  16  25  40  64  88 109 139 177 212 247
#     4   9  15  24  41  62  84 111 140 170 205 246
#     4   9  17  28  41  59  84 113 143 172 205 250
#     4   8  14  26  44  65  87 109 134 166 207 255
#     4  10  19  30  46  65  85 114 149 180 213 256
#     4   9  17  27  39  59  86 113 141 172 204 238
#     4   9  18  31  44  60  86 119 150 178 211 252
#     4   9  18  31  47  68  90 110 136 174 219 263
#
# _framework density 19.722691000000001
#
# number of rings (size 3 to 8) (size 9 to 14) (size 15 to 20)
#    0.000    3.000    0.000    2.250    0.000    3.250 
#    0.000    1.250    0.000    2.250    0.000    3.500 
#    0.000    0.000    0.000    0.000    0.000    0.000 
#
# Total GULP energy -178514.468132 kJ/mol
# GULP energy per Si atom -5578.577129 kJ/mol
# Density = 1.967780 g / cm^3
# Si number density = 19.722691 Si / 1000 Ang^3
#
#
#
# Elastic Constant Matrix: (Units=GPa)
#
#
# Indices 1 2 3 4 5 6 
#
# 1 58.3651 7.5098 -6.2103 0.0000 0.0000 0.0000
# 2 7.5098 212.0869 101.3555 0.0000 0.0000 0.0000
# 3 -6.2103 101.3555 72.2092 0.0000 0.0000 0.0000
# 4 0.0000 0.0000 0.0000 26.5523 0.0000 0.0000
# 5 0.0000 0.0000 0.0000 0.0000 23.4933 0.0000
# 6 0.0000 0.0000 0.0000 0.0000 0.0000 -0.7695
#
#
#
# Elastic Compliance Matrix: (Units=1/GPa)
#
#
# Indices 1 2 3 4 5 6 
#
# 1 0.018498 -0.004299 0.007625 0.000000 0.000000 0.000000
# 2 -0.004299 0.015322 -0.021876 0.000000 0.000000 0.000000
# 3 0.007625 -0.021876 0.045210 0.000000 0.000000 0.000000
# 4 0.000000 0.000000 0.000000 0.037661 0.000000 0.000000
# 5 0.000000 0.000000 0.000000 0.000000 0.042565 0.000000
# 6 0.000000 0.000000 0.000000 0.000000 0.000000 -1.299600
#
#
# Mechanical properties :
#
#
# Convention : Reuss Voigt Hill
#
# Bulk Modulus (GPa) = 23.84890 60.88568 42.36729
# Shear Modulus (GPa) = -4.59024 25.85565 10.63270
#
# Velocity S-wave (km/s) = -1.52723 3.62465 2.32439
# Velocity P-wave (km/s) = 3.00141 6.96098 5.36021
#
# Compressibility (1/GPa) = 0.04193065
#
# Stress axis : x y z
#
# Youngs Moduli (GPa) = 54.05974 65.26746 22.11902
#
# Poissons Ratio (x) = 0.28059 -0.16866
# Poissons Ratio (y) = 0.23241 0.48387
# Poissons Ratio (z) = -0.41222 1.42777
#
# Static dielectric constant tensor:
#      x y z
#    x 1.742110 0.000000 0.000000 
#    y 0.000000 1.735090 0.000000 
#    z 0.000000 0.000000 1.645380 
# 
# From -- ./inp_files/24703.got.cif
#   From: 2010.05.17/outbox.cif.g08.bks.cpg/sg38_13_cif.got.tgz:24703.got - 2010.06.03 18:07:57.
