data_PCOD9356731
_publ_section_title
;
Structure prediction by ZEFSAII (Michael W. Deem and Ramdas Pophale) SiO2 
 PCOD9356731
Probable space group: A M M 2
;
_chemical_formula_sum "Si O2"
_cell_formula_units_Z 64
_cell_length_a 14.475205
_cell_length_b 9.074330
_cell_length_c 31.893989
_cell_angle_alpha 90.000000
_cell_angle_beta 90.000000
_cell_angle_gamma 90.000000
_cell_volume 4189.364343
_symmetry_space_group_name_H-M "A M M 2"
_symmetry_group_IT_number 38
_symmetry_cell_setting 'orthorhombic'
loop_
_space_group_symop_operation_xyz
x,y,z
-x,-y,z
-x,y,z
x,-y,z
x,1/2+y,1/2+z
-x,1/2-y,1/2+z
-x,1/2+y,1/2+z
x,1/2-y,1/2+z
loop_
_atom_site_type_symbol
_atom_site_label
_atom_site_fract_x
_atom_site_fract_y
_atom_site_fract_z
Si Si1 0.892020 0.822911 0.920850
Si Si2 0.220979 0.177074 0.003572
Si Si3 0.217593 0.176811 0.664984
Si Si4 0.606323 0.825038 0.540522
Si Si5 0.112255 0.169946 0.334882
Si Si6 0.107921 0.323263 0.249014
Si Si7 0.606685 0.824783 0.131544
Si Si8 0.891079 0.676275 0.588399
O O1 0.858983 0.750312 0.877605
O O2 0.000000 0.783088 0.927637
O O3 0.888461 0.000000 0.916628
O O4 0.832182 0.780647 0.961205
O O5 0.318010 0.258044 0.009653
O O6 0.158118 0.211419 0.044283
O O7 0.234531 0.000000 0.003170
O O8 0.167113 0.217042 0.708340
O O9 0.318486 0.248261 0.660976
O O10 0.158142 0.238414 0.626074
O O11 0.223244 0.000000 0.662285
O O12 0.500000 0.800160 0.527320
O O13 0.618832 0.744869 0.585314
O O14 0.619909 0.000000 0.545873
O O15 0.141226 0.248691 0.291938
O O16 0.000000 0.176261 0.334804
O O17 0.140303 0.000000 0.335136
O O18 0.111374 0.500000 0.254012
O O19 0.000000 0.282927 0.242098
O O20 0.500000 0.799877 0.143995
O O21 0.622893 0.000000 0.129224
O O22 0.880772 0.500000 0.595188
O O23 0.000000 0.709519 0.586620
#
# Coordination Sequence:
#
# PCOD9356731 Si02
#       8
#     8   8   8   8   8   8   8   8
#     4   9  17  30  48  69  96 129 161 193 232 280
#     4  10  19  31  48  70  95 127 164 197 233 281
#     4  11  21  32  48  71  97 126 161 199 240 285
#     4  10  20  33  49  69  93 122 157 200 247 287
#     4   9  17  29  46  69  94 121 158 201 239 274
#     4   9  18  32  48  67  95 129 161 193 232 281
#     4  10  20  34  51  69  91 122 160 201 243 287
#     4  10  20  32  45  64  95 133 167 196 228 272
#
# _framework density 15.276781
#
# number of rings (size 3 to 8) (size 9 to 14) (size 15 to 20)
#    0.000    2.250    1.250    2.250    0.000    6.750 
#    0.000    1.250    0.000    2.250    0.000    0.875 
#    0.000    7.000    0.000    0.000    0.000    0.000 
#
# Total GULP energy -178494.716233 kJ/mol
# GULP energy per Si atom -5577.959882 kJ/mol
# Density = 1.524201 g / cm^3
# Si number density = 15.276781 Si / 1000 Ang^3
#
#
#
# Elastic Constant Matrix: (Units=GPa)
#
#
# Indices 1 2 3 4 5 6 
#
# 1 98.1836 50.5538 71.3913 0.0000 0.0000 0.0000
# 2 50.5538 51.1880 61.9331 0.0000 0.0000 0.0000
# 3 71.3913 61.9331 146.7428 0.0000 0.0000 0.0000
# 4 0.0000 0.0000 0.0000 25.1951 0.0000 0.0000
# 5 0.0000 0.0000 0.0000 0.0000 9.6733 0.0000
# 6 0.0000 0.0000 0.0000 0.0000 0.0000 23.8294
#
#
#
# Elastic Compliance Matrix: (Units=1/GPa)
#
#
# Indices 1 2 3 4 5 6 
#
# 1 0.021368 -0.017421 -0.003043 0.000000 0.000000 0.000000
# 2 -0.017421 0.054126 -0.014368 0.000000 0.000000 0.000000
# 3 -0.003043 -0.014368 0.014359 0.000000 0.000000 0.000000
# 4 0.000000 0.000000 0.000000 0.039690 0.000000 0.000000
# 5 0.000000 0.000000 0.000000 0.000000 0.103378 0.000000
# 6 0.000000 0.000000 0.000000 0.000000 0.000000 0.041965
#
#
# Mechanical properties :
#
#
# Convention : Reuss Voigt Hill
#
# Bulk Modulus (GPa) = 49.53523 73.76343 61.64933
# Shear Modulus (GPa) = 14.23370 19.22198 16.72784
#
# Velocity S-wave (km/s) = 3.05572 3.55103 3.31265
# Velocity P-wave (km/s) = 6.70414 8.07481 7.42119
#
# Compressibility (1/GPa) = 0.02018765
#
# Stress axis : x y z
#
# Youngs Moduli (GPa) = 46.80005 18.47550 69.64233
#
# Poissons Ratio (x) = 0.32187 0.21190
# Poissons Ratio (y) = 0.81532 1.00064
# Poissons Ratio (z) = 0.14240 0.26546
#
# Static dielectric constant tensor:
#      x y z
#    x 1.504320 0.000000 0.000000 
#    y 0.000000 1.511160 0.000000 
#    z 0.000000 0.000000 1.484850 
# 
# From -- ./inp_files/25029.got.cif
#   From: 2010.05.17/outbox.cif.g08.bks.cpg/sg38_13_cif.got.tgz:25029.got - 2010.06.03 18:07:57.
