data_PCOD9356260
_publ_section_title
;
Structure prediction by ZEFSAII (Michael W. Deem and Ramdas Pophale) SiO2 
 PCOD9356260
Probable space group: A M M 2
;
_chemical_formula_sum "Si O2"
_cell_formula_units_Z 48
_cell_length_a 12.966002
_cell_length_b 7.443178
_cell_length_c 24.560096
_cell_angle_alpha 90.000000
_cell_angle_beta 90.000000
_cell_angle_gamma 90.000000
_cell_volume 2370.252151
_symmetry_space_group_name_H-M "A M M 2"
_symmetry_group_IT_number 38
_symmetry_cell_setting 'orthorhombic'
loop_
_space_group_symop_operation_xyz
x,y,z
-x,-y,z
-x,y,z
x,-y,z
x,1/2+y,1/2+z
-x,1/2-y,1/2+z
-x,1/2+y,1/2+z
x,1/2-y,1/2+z
loop_
_atom_site_type_symbol
_atom_site_label
_atom_site_fract_x
_atom_site_fract_y
_atom_site_fract_z
Si Si1 0.681327 0.211248 0.447010
Si Si2 0.380120 0.220015 0.327944
Si Si3 0.500000 0.280003 0.025512
Si Si4 0.500000 0.284152 0.150453
Si Si5 0.118391 0.719314 0.635122
Si Si6 0.707687 0.210086 0.215935
Si Si7 0.883358 0.716274 0.511790
O O1 0.661755 0.282250 0.386386
O O2 0.600223 0.281082 0.491709
O O3 0.796377 0.231332 0.469201
O O4 0.658232 0.000000 0.443080
O O5 0.500000 0.271358 0.322229
O O6 0.315610 0.284488 0.275880
O O7 0.377961 0.000000 0.326819
O O8 0.500000 0.500000 0.027396
O O9 0.500000 0.220562 0.087971
O O10 0.500000 0.500000 0.150631
O O11 0.602101 0.223083 0.181831
O O12 0.121630 0.500000 0.634800
O O13 0.199896 0.785872 0.679344
O O14 0.144201 0.776610 0.573275
O O15 0.000000 0.770411 0.646362
O O16 0.732188 0.000000 0.223571
O O17 0.885820 0.500000 0.512943
O O18 0.000000 0.777961 0.499574
#
# Coordination Sequence:
#
# PCOD9356260 Si02
#       7
#     8   8   4   4   8   8   8
#     4  10  18  31  51  71  94 127 164 197 233 284
#     4   9  16  29  49  71  96 126 158 191 235 283
#     4   9  18  30  45  67  97 129 154 191 248 292
#     4  11  21  30  43  69 101 125 154 199 244 284
#     4   8  15  29  50  74  97 123 158 199 242 285
#     4  10  18  31  52  73  94 125 162 196 237 287
#     4   9  18  33  50  69  98 131 158 194 244 287
#
# _framework density 20.251010999999998
#
# number of rings (size 3 to 8) (size 9 to 14) (size 15 to 20)
#    0.000    2.667    1.667    2.250    0.000    0.333 
#    0.000    2.917    0.000    4.500    0.000    0.000 
#    0.000    0.000    0.000    0.000    0.000    0.000 
#
# Total GULP energy -133969.162584 kJ/mol
# GULP energy per Si atom -5582.048441 kJ/mol
# Density = 2.020492 g / cm^3
# Si number density = 20.251011 Si / 1000 Ang^3
#
#
#
# Elastic Constant Matrix: (Units=GPa)
#
#
# Indices 1 2 3 4 5 6 
#
# 1 93.8505 -14.9835 64.7382 0.0000 0.0000 0.0000
# 2 -14.9835 57.9177 -6.0141 0.0000 0.0000 0.0000
# 3 64.7382 -6.0141 155.0913 0.0000 0.0000 0.0000
# 4 0.0000 0.0000 0.0000 8.1623 0.0000 0.0000
# 5 0.0000 0.0000 0.0000 0.0000 21.1730 0.0000
# 6 0.0000 0.0000 0.0000 0.0000 0.0000 3.7668
#
#
#
# Elastic Compliance Matrix: (Units=1/GPa)
#
#
# Indices 1 2 3 4 5 6 
#
# 1 0.015593 0.003372 -0.006378 0.000000 0.000000 0.000000
# 2 0.003372 0.018065 -0.000707 0.000000 0.000000 0.000000
# 3 -0.006378 -0.000707 0.009083 0.000000 0.000000 0.000000
# 4 0.000000 0.000000 0.000000 0.122515 0.000000 0.000000
# 5 0.000000 0.000000 0.000000 0.000000 0.047230 0.000000
# 6 0.000000 0.000000 0.000000 0.000000 0.000000 0.265478
#
#
# Mechanical properties :
#
#
# Convention : Reuss Voigt Hill
#
# Bulk Modulus (GPa) = 28.31735 43.81563 36.06649
# Shear Modulus (GPa) = 10.05708 24.16167 17.10937
#
# Velocity S-wave (km/s) = 2.23092 3.45789 2.90981
# Velocity P-wave (km/s) = 4.54417 6.13400 5.39794
#
# Compressibility (1/GPa) = 0.03531404
#
# Stress axis : x y z
#
# Youngs Moduli (GPa) = 64.13039 55.35640 110.09845
#
# Poissons Ratio (x) = -0.18665 0.70223
# Poissons Ratio (y) = -0.21623 0.07783
# Poissons Ratio (z) = 0.40904 0.03913
#
# Static dielectric constant tensor:
#      x y z
#    x 1.682400 0.000000 0.000000 
#    y 0.000000 1.811580 0.000000 
#    z 0.000000 0.000000 1.707940 
# 
# From -- ./inp_files/20619.got.cif
#   From: 2010.05.17/outbox.cif.g08.bks.cpg/sg38_11_cif.got.tgz:20619.got - 2010.06.03 18:07:57.
