data_PCOD9356230
_publ_section_title
;
Structure prediction by ZEFSAII (Michael W. Deem and Ramdas Pophale) SiO2 
 PCOD9356230
Probable space group: A M M 2
;
_chemical_formula_sum "Si O2"
_cell_formula_units_Z 64
_cell_length_a 7.691092
_cell_length_b 25.282103
_cell_length_c 14.433209
_cell_angle_alpha 90.000000
_cell_angle_beta 90.000000
_cell_angle_gamma 90.000000
_cell_volume 2806.493904
_symmetry_space_group_name_H-M "A M M 2"
_symmetry_group_IT_number 38
_symmetry_cell_setting 'orthorhombic'
loop_
_space_group_symop_operation_xyz
x,y,z
-x,-y,z
-x,y,z
x,-y,z
x,1/2+y,1/2+z
-x,1/2-y,1/2+z
-x,1/2+y,1/2+z
x,1/2-y,1/2+z
loop_
_atom_site_type_symbol
_atom_site_label
_atom_site_fract_x
_atom_site_fract_y
_atom_site_fract_z
Si Si1 0.212916 0.888675 0.858520
Si Si2 0.295449 0.225393 0.051314
Si Si3 0.209990 0.839357 0.567810
Si Si4 0.299597 0.057666 0.252411
Si Si5 0.794380 0.391075 0.569179
Si Si6 0.794383 0.662948 0.856912
Si Si7 0.198249 0.726285 0.337817
Si Si8 0.787803 0.557554 0.177357
O O1 0.276051 0.831524 0.820777
O O2 0.259189 0.932790 0.784472
O O3 0.000000 0.885534 0.862033
O O4 0.270905 0.896998 0.963815
O O5 0.500000 0.221697 0.033177
O O6 0.259662 0.280704 0.102625
O O7 0.236357 0.170411 0.096275
O O8 0.199418 0.228211 0.951346
O O9 0.273625 0.842862 0.461509
O O10 0.272664 0.890989 0.621693
O O11 0.000000 0.841154 0.568895
O O12 0.500000 0.056072 0.280172
O O13 0.288323 0.070315 0.143508
O O14 0.223294 0.108695 0.302628
O O15 0.220656 0.000000 0.272515
O O16 0.000000 0.400835 0.570376
O O17 0.720231 0.717097 0.812135
O O18 0.000000 0.673506 0.864891
O O19 0.000000 0.723924 0.302221
O O20 0.728487 0.500000 0.144295
O O21 0.000000 0.557702 0.172477
#
# Coordination Sequence:
#
# PCOD9356230 Si02
#       8
#     8   8   8   8   8   8   8   8
#     4   8  15  29  51  79 109 137 167 210 263 313
#     4  10  18  30  52  81 111 141 174 216 268 323
#     4   9  18  33  54  80 110 144 180 220 265 315
#     4  11  25  41  54  74 106 142 183 229 276 329
#     4  10  20  36  58  81 107 140 177 220 269 322
#     4   9  18  33  54  78 103 135 180 228 270 317
#     4   8  15  30  51  78 109 139 175 217 263 319
#     4   9  17  29  48  78 111 140 176 221 262 301
#
# _framework density 22.804254
#
# number of rings (size 3 to 8) (size 9 to 14) (size 15 to 20)
#    0.000    2.750    0.000    3.375    0.000    5.000 
#    0.000    5.000    0.000    4.125    0.000    0.000 
#    0.000    0.000    0.000    0.000    0.000    0.000 
#
# Total GULP energy -178577.757164 kJ/mol
# GULP energy per Si atom -5580.554911 kJ/mol
# Density = 2.275235 g / cm^3
# Si number density = 22.804254 Si / 1000 Ang^3
#
#
#
# Elastic Constant Matrix: (Units=GPa)
#
#
# Indices 1 2 3 4 5 6 
#
# 1 51.8750 -8.4024 -6.9148 0.0000 0.0000 0.0000
# 2 -8.4024 106.2726 10.2453 0.0000 0.0000 0.0000
# 3 -6.9148 10.2453 39.0200 0.0000 0.0000 0.0000
# 4 0.0000 0.0000 0.0000 27.0197 0.0000 0.0000
# 5 0.0000 0.0000 0.0000 0.0000 205.1466 0.0000
# 6 0.0000 0.0000 0.0000 0.0000 0.0000 35.4189
#
#
#
# Elastic Compliance Matrix: (Units=1/GPa)
#
#
# Indices 1 2 3 4 5 6 
#
# 1 0.019908 0.001266 0.003196 0.000000 0.000000 0.000000
# 2 0.001266 0.009735 -0.002332 0.000000 0.000000 0.000000
# 3 0.003196 -0.002332 0.026806 0.000000 0.000000 0.000000
# 4 0.000000 0.000000 0.000000 0.037010 0.000000 0.000000
# 5 0.000000 0.000000 0.000000 0.000000 0.004875 0.000000
# 6 0.000000 0.000000 0.000000 0.000000 0.000000 0.028234
#
#
# Mechanical properties :
#
#
# Convention : Reuss Voigt Hill
#
# Bulk Modulus (GPa) = 16.47207 20.78044 18.62626
# Shear Modulus (GPa) = 35.07693 66.99967 51.03830
#
# Velocity S-wave (km/s) = 3.92621 5.42624 4.73599
# Velocity P-wave (km/s) = 5.27185 6.95637 6.17185
#
# Compressibility (1/GPa) = 0.06070882
#
# Stress axis : x y z
#
# Youngs Moduli (GPa) = 50.23079 102.72592 37.30453
#
# Poissons Ratio (x) = -0.13005 -0.11921
# Poissons Ratio (y) = -0.06359 0.08698
# Poissons Ratio (z) = -0.16051 0.23952
#
# Static dielectric constant tensor:
#      x y z
#    x 1.792260 0.000000 0.000000 
#    y 0.000000 1.887940 0.000000 
#    z 0.000000 0.000000 1.861510 
# 
# From -- ./inp_files/12733.got.cif
#   From: 2010.05.17/outbox.cif.g08.bks.cpg/sg38_7_cif.got.tgz:12733.got - 2010.06.03 18:07:57.
