data_PCOD9356287
_publ_section_title
;
Structure prediction by ZEFSAII (Michael W. Deem and Ramdas Pophale) SiO2 
 PCOD9356287
Probable space group: A M M 2
;
_chemical_formula_sum "Si O2"
_cell_formula_units_Z 40
_cell_length_a 8.369249
_cell_length_b 26.628420
_cell_length_c 10.021126
_cell_angle_alpha 90.000000
_cell_angle_beta 90.000000
_cell_angle_gamma 90.000000
_cell_volume 2233.306912
_symmetry_space_group_name_H-M "A M M 2"
_symmetry_group_IT_number 38
_symmetry_cell_setting 'orthorhombic'
loop_
_space_group_symop_operation_xyz
x,y,z
-x,-y,z
-x,y,z
x,-y,z
x,1/2+y,1/2+z
-x,1/2-y,1/2+z
-x,1/2+y,1/2+z
x,1/2-y,1/2+z
loop_
_atom_site_type_symbol
_atom_site_label
_atom_site_fract_x
_atom_site_fract_y
_atom_site_fract_z
Si Si1 0.310559 0.637905 0.029430
Si Si2 0.193592 0.333749 0.743833
Si Si3 0.194645 0.363249 0.453342
Si Si4 0.192966 0.218026 0.737461
Si Si5 0.193140 0.057207 0.737505
O O1 0.500000 0.637140 0.035018
O O2 0.249313 0.687268 0.108353
O O3 0.244675 0.590258 0.111025
O O4 0.253266 0.640234 0.877678
O O5 0.247654 0.359092 0.605619
O O6 0.246715 0.275425 0.742395
O O7 0.000000 0.333911 0.746003
O O8 0.243112 0.314461 0.366612
O O9 0.246378 0.411712 0.368605
O O10 0.000000 0.363316 0.454661
O O11 0.000000 0.218190 0.734651
O O12 0.000000 0.056476 0.739551
O O13 0.250737 0.000000 0.734307
#
# Coordination Sequence:
#
# PCOD9356287 Si02
#       5
#     8   8   8   8   8
#     4  11  22  33  48  75 110 140 167 204 252 309
#     4  10  18  31  52  76 105 138 170 206 247 295
#     4   8  15  28  49  76  98 121 165 218 255 286
#     4   9  17  32  53  74  99 137 180 210 237 286
#     4   9  18  36  59  76  93 125 173 223 263 303
#
# _framework density 17.910658999999999
#
# number of rings (size 3 to 8) (size 9 to 14) (size 15 to 20)
#    0.000    2.600    0.000    4.200    0.000    4.400 
#    0.000    5.000    0.000    3.600    0.000    0.000 
#    0.000    0.000    0.000    0.000    0.000    0.000 
#
# Total GULP energy -111567.544399 kJ/mol
# GULP energy per Si atom -5578.377220 kJ/mol
# Density = 1.786989 g / cm^3
# Si number density = 17.910659 Si / 1000 Ang^3
#
#
#
# Elastic Constant Matrix: (Units=GPa)
#
#
# Indices 1 2 3 4 5 6 
#
# 1 11.7285 18.6013 15.7088 0.0000 0.0000 0.0000
# 2 18.6013 147.6471 88.4417 0.0000 0.0000 0.0000
# 3 15.7088 88.4417 189.4421 0.0000 0.0000 0.0000
# 4 0.0000 0.0000 0.0000 5.3770 0.0000 0.0000
# 5 0.0000 0.0000 0.0000 0.0000 -9.9089 0.0000
# 6 0.0000 0.0000 0.0000 0.0000 0.0000 -6.6040
#
#
#
# Elastic Compliance Matrix: (Units=1/GPa)
#
#
# Indices 1 2 3 4 5 6 
#
# 1 0.108317 -0.011475 -0.003625 0.000000 0.000000 0.000000
# 2 -0.011475 0.010618 -0.004005 0.000000 0.000000 0.000000
# 3 -0.003625 -0.004005 0.007449 0.000000 0.000000 0.000000
# 4 0.000000 0.000000 0.000000 0.185977 0.000000 0.000000
# 5 0.000000 0.000000 0.000000 0.000000 -0.100919 0.000000
# 6 0.000000 0.000000 0.000000 0.000000 0.000000 -0.151424
#
#
# Mechanical properties :
#
#
# Convention : Reuss Voigt Hill
#
# Bulk Modulus (GPa) = 11.34126 66.03570 38.68848
# Shear Modulus (GPa) = 39.17889 12.84388 26.01138
#
# Velocity S-wave (km/s) = 4.68210 2.68079 3.81502
# Velocity P-wave (km/s) = 5.96451 6.82142 6.40730
#
# Compressibility (1/GPa) = 0.08817359
#
# Stress axis : x y z
#
# Youngs Moduli (GPa) = 9.23217 94.18042 134.24304
#
# Poissons Ratio (x) = 1.08074 0.48657
# Poissons Ratio (y) = 0.10594 0.53771
# Poissons Ratio (z) = 0.03346 0.37724
#
# Static dielectric constant tensor:
#      x y z
#    x 1.606880 0.000000 0.000000 
#    y 0.000000 1.604100 0.000000 
#    z 0.000000 0.000000 1.605680 
# 
# From -- ./inp_files/3306.got.cif
#   From: 2010.05.17/outbox.cif.g08.bks.cpg/sg38_2_cif.got.tgz:3306.got - 2010.06.03 18:07:57.
