data_PCOD9356176
_publ_section_title
;
Structure prediction by ZEFSAII (Michael W. Deem and Ramdas Pophale) SiO2 
 PCOD9356176
Probable space group: A M M 2
;
_chemical_formula_sum "Si O2"
_cell_formula_units_Z 48
_cell_length_a 7.542392
_cell_length_b 17.083738
_cell_length_c 19.292709
_cell_angle_alpha 90.000000
_cell_angle_beta 90.000000
_cell_angle_gamma 90.000000
_cell_volume 2485.908941
_symmetry_space_group_name_H-M "A M M 2"
_symmetry_group_IT_number 38
_symmetry_cell_setting 'orthorhombic'
loop_
_space_group_symop_operation_xyz
x,y,z
-x,-y,z
-x,y,z
x,-y,z
x,1/2+y,1/2+z
-x,1/2-y,1/2+z
-x,1/2+y,1/2+z
x,1/2-y,1/2+z
loop_
_atom_site_type_symbol
_atom_site_label
_atom_site_fract_x
_atom_site_fract_y
_atom_site_fract_z
Si Si1 0.283730 0.588408 0.223210
Si Si2 0.791168 0.000000 0.195413
Si Si3 0.709934 0.160849 0.430763
Si Si4 0.710694 0.171690 0.167965
Si Si5 0.283009 0.259924 0.304711
Si Si6 0.283098 0.679514 0.085950
Si Si7 0.787749 0.500000 0.852703
O O1 0.500000 0.587955 0.223623
O O2 0.223606 0.500000 0.235678
O O3 0.229151 0.653802 0.279325
O O4 0.229630 0.620174 0.147248
O O5 0.744649 0.080628 0.157892
O O6 0.715053 0.000000 0.273906
O O7 0.000000 0.000000 0.203225
O O8 0.500000 0.175530 0.437168
O O9 0.780334 0.226955 0.378078
O O10 0.781241 0.160959 0.508891
O O11 0.731925 0.077656 0.393374
O O12 0.500000 0.181682 0.170101
O O13 0.775572 0.200494 0.243536
O O14 0.774092 0.234076 0.111312
O O15 0.500000 0.259055 0.305925
O O16 0.500000 0.676936 0.085207
O O17 0.000000 0.500000 0.849975
#
# Coordination Sequence:
#
# PCOD9356176 Si02
#       7
#     8   4   8   8   8   8   4
#     4   8  13  22  37  61  92 119 142 180 230 270
#     4  11  21  31  47  71  95 120 163 206 232 272
#     4  10  18  30  49  70  94 124 157 188 227 283
#     4   9  16  30  48  68  94 124 154 189 237 279
#     4   8  14  24  41  63  88 120 153 179 217 277
#     4   8  16  27  44  70  95 118 151 192 231 277
#     4  11  23  33  43  69 103 126 153 196 242 278
#
# _framework density 19.308833
#
# number of rings (size 3 to 8) (size 9 to 14) (size 15 to 20)
#    0.000    3.000    1.667    2.500    1.167    0.667 
#    0.000    0.833    1.833    0.000    0.000    0.000 
#    0.000    0.000    0.000    0.000    0.000    0.000 
#
# Total GULP energy -133794.238210 kJ/mol
# GULP energy per Si atom -5574.759925 kJ/mol
# Density = 1.926489 g / cm^3
# Si number density = 19.308833 Si / 1000 Ang^3
#
#
#
# Elastic Constant Matrix: (Units=GPa)
#
#
# Indices 1 2 3 4 5 6 
#
# 1 42.3846 -9.6181 1.3086 0.0000 0.0000 0.0000
# 2 -9.6181 155.2998 49.3944 0.0000 0.0000 0.0000
# 3 1.3086 49.3944 87.9954 0.0000 0.0000 0.0000
# 4 0.0000 0.0000 0.0000 16.3078 0.0000 0.0000
# 5 0.0000 0.0000 0.0000 0.0000 -1.8885 0.0000
# 6 0.0000 0.0000 0.0000 0.0000 0.0000 -61.6640
#
#
#
# Elastic Compliance Matrix: (Units=1/GPa)
#
#
# Indices 1 2 3 4 5 6 
#
# 1 0.024082 0.001954 -0.001455 0.000000 0.000000 0.000000
# 2 0.001954 0.007997 -0.004518 0.000000 0.000000 0.000000
# 3 -0.001455 -0.004518 0.013922 0.000000 0.000000 0.000000
# 4 0.000000 0.000000 0.000000 0.061320 0.000000 0.000000
# 5 0.000000 0.000000 0.000000 0.000000 -0.529529 0.000000
# 6 0.000000 0.000000 0.000000 0.000000 0.000000 -0.016217
#
#
# Mechanical properties :
#
#
# Convention : Reuss Voigt Hill
#
# Bulk Modulus (GPa) = 26.34131 40.87216 33.60674
# Shear Modulus (GPa) = -11.96939 6.85738 -2.55600
#
# Velocity S-wave (km/s) = -2.49246 1.88657 -1.15179
# Velocity P-wave (km/s) = 2.32133 5.09500 3.95902
#
# Compressibility (1/GPa) = 0.03796318
#
# Stress axis : x y z
#
# Youngs Moduli (GPa) = 41.52499 125.04336 71.82860
#
# Poissons Ratio (x) = -0.24437 0.10452
# Poissons Ratio (y) = -0.08115 0.32453
# Poissons Ratio (z) = 0.06042 0.56496
#
# Static dielectric constant tensor:
#      x y z
#    x 1.728390 0.000000 0.000000 
#    y 0.000000 1.705560 0.000000 
#    z 0.000000 0.000000 1.670440 
# 
# From -- ./inp_files/19926.got.cif
#   From: 2010.05.17/outbox.cif.g08.bks.cpg/sg38_10_cif.got.tgz:19926.got - 2010.06.03 18:07:57.
