data_PCOD9356453
_publ_section_title
;
Structure prediction by ZEFSAII (Michael W. Deem and Ramdas Pophale) SiO2 
 PCOD9356453
Probable space group: A M M 2
;
_chemical_formula_sum "Si O2"
_cell_formula_units_Z 56
_cell_length_a 8.901511
_cell_length_b 20.215160
_cell_length_c 15.659912
_cell_angle_alpha 90.000000
_cell_angle_beta 90.000000
_cell_angle_gamma 90.000000
_cell_volume 2817.930211
_symmetry_space_group_name_H-M "A M M 2"
_symmetry_group_IT_number 38
_symmetry_cell_setting 'orthorhombic'
loop_
_space_group_symop_operation_xyz
x,y,z
-x,-y,z
-x,y,z
x,-y,z
x,1/2+y,1/2+z
-x,1/2-y,1/2+z
-x,1/2+y,1/2+z
x,1/2-y,1/2+z
loop_
_atom_site_type_symbol
_atom_site_label
_atom_site_fract_x
_atom_site_fract_y
_atom_site_fract_z
Si Si1 0.818776 0.371117 0.868950
Si Si2 0.826842 0.500000 0.456993
Si Si3 0.318152 0.274064 0.368732
Si Si4 0.320198 0.366721 0.525752
Si Si5 0.180743 0.076037 0.184319
Si Si6 0.819461 0.075161 0.552551
Si Si7 0.329157 0.641335 0.205117
Si Si8 0.337059 0.000000 0.795327
O O1 0.746366 0.299022 0.867542
O O2 0.778581 0.409235 0.782169
O O3 0.000000 0.365225 0.870048
O O4 0.774054 0.408170 0.955749
O O5 0.742627 0.565119 0.487607
O O6 0.806012 0.500000 0.355722
O O7 0.000000 0.500000 0.483617
O O8 0.500000 0.273998 0.367234
O O9 0.273510 0.311228 0.456777
O O10 0.269479 0.313385 0.282690
O O11 0.500000 0.366629 0.530387
O O12 0.252937 0.369938 0.621039
O O13 0.000000 0.079673 0.176310
O O14 0.225276 0.000000 0.162967
O O15 0.760004 0.130674 0.617704
O O16 0.000000 0.075218 0.556952
O O17 0.768836 0.000000 0.573646
O O18 0.500000 0.663005 0.185863
O O19 0.335242 0.567218 0.242994
O O20 0.500000 0.000000 0.843336
#
# Coordination Sequence:
#
# PCOD9356453 Si02
#       8
#     8   4   8   8   8   8   8   4
#     4  10  23  42  61  82 117 159 198 245 296 349
#     4  12  22  32  54  89 122 153 192 241 296 354
#     4  10  23  41  59  83 119 161 198 234 287 356
#     4  11  22  38  60  87 121 157 194 242 296 351
#     4  10  21  39  63  90 116 149 197 250 303 353
#     4  10  21  38  61  89 117 150 194 244 296 347
#     4  10  20  36  59  86 117 152 190 237 292 346
#     4  10  18  34  56  81 118 157 190 231 294 352
#
# _framework density 19.872743
#
# number of rings (size 3 to 8) (size 9 to 14) (size 15 to 20)
#    0.000    1.714    2.857    1.500    0.000    6.286 
#    0.000    5.714    0.000    2.571    0.000    0.000 
#    0.000    0.000    0.000    0.000    0.000    0.000 
#
# Total GULP energy -156226.156840 kJ/mol
# GULP energy per Si atom -5579.505601 kJ/mol
# Density = 1.982751 g / cm^3
# Si number density = 19.872743 Si / 1000 Ang^3
#
#
#
# Elastic Constant Matrix: (Units=GPa)
#
#
# Indices 1 2 3 4 5 6 
#
# 1 18.3602 13.3393 35.9660 0.0000 0.0000 0.0000
# 2 13.3393 66.8715 28.7038 0.0000 0.0000 0.0000
# 3 35.9660 28.7038 140.5196 0.0000 0.0000 0.0000
# 4 0.0000 0.0000 0.0000 23.2363 0.0000 0.0000
# 5 0.0000 0.0000 0.0000 0.0000 41.6780 0.0000
# 6 0.0000 0.0000 0.0000 0.0000 0.0000 -10.0890
#
#
#
# Elastic Compliance Matrix: (Units=1/GPa)
#
#
# Indices 1 2 3 4 5 6 
#
# 1 0.116739 -0.011467 -0.027537 0.000000 0.000000 0.000000
# 2 -0.011467 0.017518 -0.000643 0.000000 0.000000 0.000000
# 3 -0.027537 -0.000643 0.014296 0.000000 0.000000 0.000000
# 4 0.000000 0.000000 0.000000 0.043036 0.000000 0.000000
# 5 0.000000 0.000000 0.000000 0.000000 0.023993 0.000000
# 6 0.000000 0.000000 0.000000 0.000000 0.000000 -0.099118
#
#
# Mechanical properties :
#
#
# Convention : Reuss Voigt Hill
#
# Bulk Modulus (GPa) = 14.43870 42.41883 28.42877
# Shear Modulus (GPa) = 22.84718 20.81454 21.83086
#
# Velocity S-wave (km/s) = 3.39436 3.23985 3.31801
# Velocity P-wave (km/s) = 4.75853 5.94871 5.38659
#
# Compressibility (1/GPa) = 0.06925831
#
# Stress axis : x y z
#
# Youngs Moduli (GPa) = 8.56610 57.08554 69.94965
#
# Poissons Ratio (x) = 0.65459 1.92621
# Poissons Ratio (y) = 0.09823 0.04500
# Poissons Ratio (z) = 0.23589 0.03673
#
# Static dielectric constant tensor:
#      x y z
#    x 1.692820 0.000000 0.000000 
#    y 0.000000 1.698110 0.000000 
#    z 0.000000 0.000000 1.760950 
# 
# From -- ./inp_files/12496.got.cif
#   From: 2010.05.17/outbox.cif.g08.bks.cpg/sg38_7_cif.got.tgz:12496.got - 2010.06.03 18:07:57.
