data_PCOD9356285
_publ_section_title
;
Structure prediction by ZEFSAII (Michael W. Deem and Ramdas Pophale) SiO2 
 PCOD9356285
Probable space group: A M M 2
;
_chemical_formula_sum "Si O2"
_cell_formula_units_Z 64
_cell_length_a 19.948066
_cell_length_b 14.789386
_cell_length_c 10.425381
_cell_angle_alpha 90.000000
_cell_angle_beta 90.000000
_cell_angle_gamma 90.000000
_cell_volume 3075.692233
_symmetry_space_group_name_H-M "A M M 2"
_symmetry_group_IT_number 38
_symmetry_cell_setting 'orthorhombic'
loop_
_space_group_symop_operation_xyz
x,y,z
-x,-y,z
-x,y,z
x,-y,z
x,1/2+y,1/2+z
-x,1/2-y,1/2+z
-x,1/2+y,1/2+z
x,1/2-y,1/2+z
loop_
_atom_site_type_symbol
_atom_site_label
_atom_site_fract_x
_atom_site_fract_y
_atom_site_fract_z
Si Si1 0.574169 0.889990 0.291540
Si Si2 0.218142 0.103375 0.389563
Si Si3 0.212616 0.892430 0.915775
Si Si4 0.723453 0.388949 0.156745
Si Si5 0.073426 0.159317 0.328146
Si Si6 0.074061 0.174956 0.026710
Si Si7 0.299070 0.889228 0.146543
Si Si8 0.576590 0.110147 0.588685
O O1 0.500000 0.858986 0.259609
O O2 0.627247 0.860168 0.186714
O O3 0.588889 0.864639 0.438990
O O4 0.574811 0.000000 0.291736
O O5 0.242571 0.142725 0.524050
O O6 0.139008 0.104393 0.366337
O O7 0.252564 0.142384 0.263620
O O8 0.242110 0.000000 0.393489
O O9 0.230796 0.857554 0.775040
O O10 0.139332 0.875702 0.974303
O O11 0.219810 0.000000 0.909116
O O12 0.268165 0.856987 0.014575
O O13 0.724407 0.500000 0.157010
O O14 0.644643 0.362700 0.163031
O O15 0.072202 0.238092 0.434392
O O16 0.000000 0.114005 0.333622
O O17 0.081266 0.192189 0.179831
O O18 0.000000 0.130308 0.011756
O O19 0.297970 0.000000 0.141695
O O20 0.500000 0.139139 0.624221
O O21 0.574987 0.000000 0.593677
#
# Coordination Sequence:
#
# PCOD9356285 Si02
#       8
#     8   8   8   8   8   8   8   8
#     4   8  12  19  35  60  91 129 167 200 239 288
#     4  10  18  31  52  75  99 129 166 206 246 289
#     4  10  20  33  50  74 103 134 166 204 251 297
#     4   9  17  28  43  69 102 134 166 203 248 290
#     4  10  22  38  55  75 100 130 162 202 250 298
#     4  10  22  39  56  74  99 130 163 202 249 299
#     4   9  15  26  43  66  97 127 160 204 247 285
#     4   8  12  20  36  59  91 131 168 197 234 290
#
# _framework density 20.808323999999999
#
# number of rings (size 3 to 8) (size 9 to 14) (size 15 to 20)
#    0.000    2.750    2.500    0.750    1.750    0.500 
#    0.000    1.875    0.000    6.000    0.000    0.000 
#    0.000    6.000    0.000    0.000    0.000    0.000 
#
# Total GULP energy -178251.154990 kJ/mol
# GULP energy per Si atom -5570.348593 kJ/mol
# Density = 2.076096 g / cm^3
# Si number density = 20.808324 Si / 1000 Ang^3
#
#
#
# Elastic Constant Matrix: (Units=GPa)
#
#
# Indices 1 2 3 4 5 6 
#
# 1 119.5911 -7.8094 36.5629 0.0000 0.0000 0.0000
# 2 -7.8094 39.3622 10.2931 0.0000 0.0000 0.0000
# 3 36.5629 10.2931 101.0252 0.0000 0.0000 0.0000
# 4 0.0000 0.0000 0.0000 3.5090 0.0000 0.0000
# 5 0.0000 0.0000 0.0000 0.0000 29.1132 0.0000
# 6 0.0000 0.0000 0.0000 0.0000 0.0000 77.9824
#
#
#
# Elastic Compliance Matrix: (Units=1/GPa)
#
#
# Indices 1 2 3 4 5 6 
#
# 1 0.009720 0.002926 -0.003816 0.000000 0.000000 0.000000
# 2 0.002926 0.026981 -0.003808 0.000000 0.000000 0.000000
# 3 -0.003816 -0.003808 0.011668 0.000000 0.000000 0.000000
# 4 0.000000 0.000000 0.000000 0.284984 0.000000 0.000000
# 5 0.000000 0.000000 0.000000 0.000000 0.034349 0.000000
# 6 0.000000 0.000000 0.000000 0.000000 0.000000 0.012823
#
#
# Mechanical properties :
#
#
# Convention : Reuss Voigt Hill
#
# Bulk Modulus (GPa) = 25.65877 37.56352 31.61115
# Shear Modulus (GPa) = 12.40970 36.84970 24.62970
#
# Velocity S-wave (km/s) = 2.44474 4.21279 3.44415
# Velocity P-wave (km/s) = 4.50853 6.46179 5.57143
#
# Compressibility (1/GPa) = 0.03897302
#
# Stress axis : x y z
#
# Youngs Moduli (GPa) = 102.88569 37.06252 85.70799
#
# Poissons Ratio (x) = -0.10845 0.32705
# Poissons Ratio (y) = -0.30106 0.32638
# Poissons Ratio (z) = 0.39259 0.14114
#
# Static dielectric constant tensor:
#      x y z
#    x 1.778740 0.000000 0.000000 
#    y 0.000000 1.797840 0.000000 
#    z 0.000000 0.000000 1.728580 
# 
# From -- ./inp_files/10655.got.cif
#   From: 2010.05.17/outbox.cif.g08.bks.cpg/sg38_6_cif.got.tgz:10655.got - 2010.06.03 18:07:57.
