data_PCOD9356025
_publ_section_title
;
Structure prediction by ZEFSAII (Michael W. Deem and Ramdas Pophale) SiO2 
 PCOD9356025
Probable space group: A M M 2
;
_chemical_formula_sum "Si O2"
_cell_formula_units_Z 64
_cell_length_a 14.777669
_cell_length_b 8.372839
_cell_length_c 32.397306
_cell_angle_alpha 90.000000
_cell_angle_beta 90.000000
_cell_angle_gamma 90.000000
_cell_volume 4008.552473
_symmetry_space_group_name_H-M "A M M 2"
_symmetry_group_IT_number 38
_symmetry_cell_setting 'orthorhombic'
loop_
_space_group_symop_operation_xyz
x,y,z
-x,-y,z
-x,y,z
x,-y,z
x,1/2+y,1/2+z
-x,1/2-y,1/2+z
-x,1/2+y,1/2+z
x,1/2-y,1/2+z
loop_
_atom_site_type_symbol
_atom_site_label
_atom_site_fract_x
_atom_site_fract_y
_atom_site_fract_z
Si Si1 0.895653 0.808793 0.907280
Si Si2 0.601920 0.808657 0.857833
Si Si3 0.894876 0.195829 0.567719
Si Si4 0.787898 0.192746 0.487406
Si Si5 0.787749 0.810891 0.327147
Si Si6 0.600995 0.193266 0.451821
Si Si7 0.109969 0.314966 0.157827
Si Si8 0.104941 0.806236 0.747996
O O1 0.847112 0.741301 0.947866
O O2 0.841277 0.759827 0.866417
O O3 0.000000 0.753950 0.904894
O O4 0.895141 0.000000 0.909924
O O5 0.500000 0.758489 0.845641
O O6 0.683329 0.739870 0.831125
O O7 0.615469 0.752756 0.905107
O O8 0.606171 0.000000 0.856814
O O9 0.833713 0.250025 0.529689
O O10 0.864311 0.253878 0.613187
O O11 0.000000 0.240794 0.561080
O O12 0.893417 0.000000 0.568897
O O13 0.685078 0.247982 0.479457
O O14 0.786788 0.000000 0.489097
O O15 0.833533 0.750885 0.285231
O O16 0.794423 0.000000 0.329503
O O17 0.500000 0.244378 0.464900
O O18 0.602163 0.000000 0.450910
O O19 0.140077 0.500000 0.157867
O O20 0.135243 0.246198 0.202506
O O21 0.000000 0.316708 0.157719
O O22 0.000000 0.758117 0.754756
O O23 0.105757 0.000000 0.746829
#
# Coordination Sequence:
#
# PCOD9356025 Si02
#       8
#     8   8   8   8   8   8   8   8
#     4  11  23  35  45  60  89 127 161 191 224 267
#     4  10  20  34  52  70  88 115 152 193 233 273
#     4   8  13  22  39  65  93 117 149 192 231 272
#     4  10  18  28  45  68  91 121 156 191 231 274
#     4  12  23  33  47  68  93 122 153 188 232 279
#     4   9  17  29  44  64  91 121 153 191 233 271
#     4   7  11  22  41  64  88 115 149 192 236 271
#     4   9  17  30  48  68  91 121 158 197 235 275
#
# _framework density 15.965863000000001
#
# number of rings (size 3 to 8) (size 9 to 14) (size 15 to 20)
#    0.000    2.500    1.250    4.125    0.000    4.000 
#    0.000    0.000    0.000    0.750    0.000    2.625 
#    0.000    5.000    0.000    0.000    0.000    1.125 
#
# Total GULP energy -178331.112306 kJ/mol
# GULP energy per Si atom -5572.847260 kJ/mol
# Density = 1.592952 g / cm^3
# Si number density = 15.965863 Si / 1000 Ang^3
#
#
#
# Elastic Constant Matrix: (Units=GPa)
#
#
# Indices 1 2 3 4 5 6 
#
# 1 112.7252 12.5121 73.6850 0.0000 0.0000 0.0000
# 2 12.5121 8.7510 7.3759 0.0000 0.0000 0.0000
# 3 73.6850 7.3759 144.4009 0.0000 0.0000 0.0000
# 4 0.0000 0.0000 0.0000 14.3323 0.0000 0.0000
# 5 0.0000 0.0000 0.0000 0.0000 6.7801 0.0000
# 6 0.0000 0.0000 0.0000 0.0000 0.0000 15.2762
#
#
#
# Elastic Compliance Matrix: (Units=1/GPa)
#
#
# Indices 1 2 3 4 5 6 
#
# 1 0.015155 -0.015832 -0.006924 0.000000 0.000000 0.000000
# 2 -0.015832 0.135952 0.001134 0.000000 0.000000 0.000000
# 3 -0.006924 0.001134 0.010401 0.000000 0.000000 0.000000
# 4 0.000000 0.000000 0.000000 0.069773 0.000000 0.000000
# 5 0.000000 0.000000 0.000000 0.000000 0.147490 0.000000
# 6 0.000000 0.000000 0.000000 0.000000 0.000000 0.065461
#
#
# Mechanical properties :
#
#
# Convention : Reuss Voigt Hill
#
# Bulk Modulus (GPa) = 8.45566 50.33590 29.39578
# Shear Modulus (GPa) = 9.48952 18.76465 14.12708
#
# Velocity S-wave (km/s) = 2.44060 3.43198 2.97784
# Velocity P-wave (km/s) = 3.64000 6.87752 5.50227
#
# Compressibility (1/GPa) = 0.11826391
#
# Stress axis : x y z
#
# Youngs Moduli (GPa) = 65.98611 7.35552 96.14762
#
# Poissons Ratio (x) = 0.11645 0.66577
# Poissons Ratio (y) = 1.04466 -0.10905
# Poissons Ratio (z) = 0.45692 -0.00834
#
# Static dielectric constant tensor:
#      x y z
#    x 1.538120 0.000000 0.000000 
#    y 0.000000 1.559380 0.000000 
#    z 0.000000 0.000000 1.542330 
# 
# From -- ./inp_files/25129.got.cif
#   From: 2010.05.17/outbox.cif.g08.bks.cpg/sg38_13_cif.got.tgz:25129.got - 2010.06.03 18:07:57.
