data_PCOD9356091
_publ_section_title
;
Structure prediction by ZEFSAII (Michael W. Deem and Ramdas Pophale) SiO2 
 PCOD9356091
Probable space group: A M M 2
;
_chemical_formula_sum "Si O2"
_cell_formula_units_Z 64
_cell_length_a 14.560949
_cell_length_b 7.413934
_cell_length_c 29.062468
_cell_angle_alpha 90.000000
_cell_angle_beta 90.000000
_cell_angle_gamma 90.000000
_cell_volume 3137.407196
_symmetry_space_group_name_H-M "A M M 2"
_symmetry_group_IT_number 38
_symmetry_cell_setting 'orthorhombic'
loop_
_space_group_symop_operation_xyz
x,y,z
-x,-y,z
-x,y,z
x,-y,z
x,1/2+y,1/2+z
-x,1/2-y,1/2+z
-x,1/2+y,1/2+z
x,1/2-y,1/2+z
loop_
_atom_site_type_symbol
_atom_site_label
_atom_site_fract_x
_atom_site_fract_y
_atom_site_fract_z
Si Si1 0.257398 0.781556 0.814710
Si Si2 0.246671 0.300124 0.065068
Si Si3 0.604245 0.706424 0.633290
Si Si4 0.893411 0.719853 0.244510
Si Si5 0.892188 0.280461 0.140744
Si Si6 0.396474 0.716920 0.234786
Si Si7 0.602533 0.216246 0.889037
Si Si8 0.397185 0.784507 0.497696
O O1 0.164728 0.719024 0.788928
O O2 0.332779 0.735557 0.776454
O O3 0.307588 0.717679 0.861365
O O4 0.248257 0.000000 0.818803
O O5 0.214671 0.500000 0.050094
O O6 0.327652 0.314885 0.102330
O O7 0.166294 0.215221 0.096632
O O8 0.305609 0.214136 0.023369
O O9 0.500000 0.774655 0.632117
O O10 0.604939 0.500000 0.617342
O O11 0.635029 0.712039 0.685883
O O12 0.887903 0.500000 0.243803
O O13 0.862587 0.776625 0.192670
O O14 0.000000 0.769231 0.248891
O O15 0.884035 0.500000 0.140202
O O16 0.000000 0.236345 0.136223
O O17 0.500000 0.778771 0.242467
O O18 0.396428 0.500000 0.231490
O O19 0.500000 0.281831 0.874046
O O20 0.609704 0.252987 0.943244
O O21 0.600290 0.000000 0.882264
O O22 0.500000 0.718144 0.512480
O O23 0.397665 0.000000 0.505863
#
# Coordination Sequence:
#
# PCOD9356091 Si02
#       8
#     8   8   8   8   8   8   8   8
#     4   9  15  24  41  63  84 108 142 181 215 250
#     4  10  18  29  48  68  85 112 150 187 221 260
#     4  10  20  30  39  58  91 123 147 175 214 261
#     4   8  13  21  35  59  90 116 136 166 211 256
#     4   8  14  25  43  69  95 114 139 180 224 261
#     4   9  16  26  41  60  83 112 144 176 211 254
#     4   9  17  29  45  64  85 110 142 180 221 262
#     4   9  18  31  45  63  87 113 144 182 221 263
#
# _framework density 20.399010000000001
#
# number of rings (size 3 to 8) (size 9 to 14) (size 15 to 20)
#    0.000    3.000    0.000    2.625    0.000    5.250 
#    0.000    1.875    0.000    4.125    0.000    0.000 
#    0.000    1.000    0.000    0.000    0.000    0.000 
#
# Total GULP energy -178249.496298 kJ/mol
# GULP energy per Si atom -5570.296759 kJ/mol
# Density = 2.035258 g / cm^3
# Si number density = 20.399010 Si / 1000 Ang^3
#
#
#
# Elastic Constant Matrix: (Units=GPa)
#
#
# Indices 1 2 3 4 5 6 
#
# 1 114.2391 5.1101 67.9095 0.0000 0.0000 0.0000
# 2 5.1101 60.8081 0.4804 0.0000 0.0000 0.0000
# 3 67.9095 0.4804 93.4037 0.0000 0.0000 0.0000
# 4 0.0000 0.0000 0.0000 23.0393 0.0000 0.0000
# 5 0.0000 0.0000 0.0000 0.0000 41.1663 0.0000
# 6 0.0000 0.0000 0.0000 0.0000 0.0000 -5.6540
#
#
#
# Elastic Compliance Matrix: (Units=1/GPa)
#
#
# Indices 1 2 3 4 5 6 
#
# 1 0.015506 -0.001214 -0.011267 0.000000 0.000000 0.000000
# 2 -0.001214 0.016541 0.000798 0.000000 0.000000 0.000000
# 3 -0.011267 0.000798 0.018894 0.000000 0.000000 0.000000
# 4 0.000000 0.000000 0.000000 0.043404 0.000000 0.000000
# 5 0.000000 0.000000 0.000000 0.000000 0.024292 0.000000
# 6 0.000000 0.000000 0.000000 0.000000 0.000000 -0.176866
#
#
# Mechanical properties :
#
#
# Convention : Reuss Voigt Hill
#
# Bulk Modulus (GPa) = 36.26704 46.16122 41.21413
# Shear Modulus (GPa) = -194.77110 24.70704 -85.03203
#
# Velocity S-wave (km/s) = -9.78202 3.48399 -6.46335
# Velocity P-wave (km/s) = 10.47695 6.23398 5.95416
#
# Compressibility (1/GPa) = 0.02757324
#
# Stress axis : x y z
#
# Youngs Moduli (GPa) = 64.49242 60.45619 52.92682
#
# Poissons Ratio (x) = 0.07340 0.59634
# Poissons Ratio (y) = 0.07830 -0.04221
# Poissons Ratio (z) = 0.72665 -0.04822
#
# Static dielectric constant tensor:
#      x y z
#    x 1.749170 0.000000 0.000000 
#    y 0.000000 1.752140 0.000000 
#    z 0.000000 0.000000 1.731430 
# 
# From -- ./inp_files/25119.got.cif
#   From: 2010.05.17/outbox.cif.g08.bks.cpg/sg38_13_cif.got.tgz:25119.got - 2010.06.03 18:07:57.
