data_PCOD9356743
_publ_section_title
;
Structure prediction by ZEFSAII (Michael W. Deem and Ramdas Pophale) SiO2 
 PCOD9356743
Probable space group: A M M 2
;
_chemical_formula_sum "Si O2"
_cell_formula_units_Z 64
_cell_length_a 18.290002
_cell_length_b 18.757109
_cell_length_c 10.140842
_cell_angle_alpha 90.000000
_cell_angle_beta 90.000000
_cell_angle_gamma 90.000000
_cell_volume 3478.993933
_symmetry_space_group_name_H-M "A M M 2"
_symmetry_group_IT_number 38
_symmetry_cell_setting 'orthorhombic'
loop_
_space_group_symop_operation_xyz
x,y,z
-x,-y,z
-x,y,z
x,-y,z
x,1/2+y,1/2+z
-x,1/2-y,1/2+z
-x,1/2+y,1/2+z
x,1/2-y,1/2+z
loop_
_atom_site_type_symbol
_atom_site_label
_atom_site_fract_x
_atom_site_fract_y
_atom_site_fract_z
Si Si1 0.083156 0.668131 0.571280
Si Si2 0.579337 0.816580 0.101937
Si Si3 0.833834 0.582643 0.377673
Si Si4 0.842757 0.583815 0.810656
Si Si5 0.286234 0.420643 0.609011
Si Si6 0.201409 0.282920 0.972977
Si Si7 0.579842 0.684562 0.298752
Si Si8 0.262068 0.317264 0.239693
O O1 0.095507 0.616036 0.446273
O O2 0.105663 0.622761 0.701353
O O3 0.138456 0.732698 0.537135
O O4 0.000000 0.692195 0.582848
O O5 0.500000 0.853152 0.120531
O O6 0.648136 0.866754 0.119945
O O7 0.581936 0.751895 0.202749
O O8 0.581068 0.791657 0.950501
O O9 0.842512 0.500000 0.352977
O O10 0.769930 0.593574 0.488813
O O11 0.802819 0.625491 0.254814
O O12 0.863183 0.500000 0.837192
O O13 0.764343 0.580833 0.737610
O O14 0.831913 0.641236 0.927143
O O15 0.315555 0.500000 0.588606
O O16 0.238456 0.243679 0.846145
O O17 0.259854 0.290257 0.090282
O O18 0.500000 0.648033 0.278027
O O19 0.658738 0.649142 0.272922
#
# Coordination Sequence:
#
# PCOD9356743 Si02
#       8
#     8   8   8   8   8   8   8   8
#     4  10  21  38  60  86 119 153 188 235 292 352
#     4  10  19  31  48  75 106 140 184 235 289 339
#     4   9  19  34  54  82 108 143 191 232 282 346
#     4  10  21  38  60  87 119 153 196 242 290 350
#     4   9  17  33  53  75 107 142 183 232 279 340
#     4  11  22  37  58  91 113 154 201 239 292 350
#     4  10  20  31  48  77 111 146 187 238 292 340
#     4  11  20  35  59  79 118 154 193 248 290 341
#
# _framework density 18.396124
#
# number of rings (size 3 to 8) (size 9 to 14) (size 15 to 20)
#    0.000    2.000    2.500    2.625    1.750    2.250 
#    0.000    0.000    0.000    0.375    0.000    1.750 
#    0.000    5.000    0.000    0.000    0.000    0.000 
#
# Total GULP energy -178240.943606 kJ/mol
# GULP energy per Si atom -5570.029488 kJ/mol
# Density = 1.835425 g / cm^3
# Si number density = 18.396124 Si / 1000 Ang^3
#
#
#
# Elastic Constant Matrix: (Units=GPa)
#
#
# Indices 1 2 3 4 5 6 
#
# 1 72.9398 5.9193 18.2123 0.0000 0.0000 0.0000
# 2 5.9193 67.7131 25.3405 0.0000 0.0000 0.0000
# 3 18.2123 25.3405 57.3173 0.0000 0.0000 0.0000
# 4 0.0000 0.0000 0.0000 20.2864 0.0000 0.0000
# 5 0.0000 0.0000 0.0000 0.0000 12.3580 0.0000
# 6 0.0000 0.0000 0.0000 0.0000 0.0000 16.5287
#
#
#
# Elastic Compliance Matrix: (Units=1/GPa)
#
#
# Indices 1 2 3 4 5 6 
#
# 1 0.014909 0.000563 -0.004986 0.000000 0.000000 0.000000
# 2 0.000563 0.017717 -0.008012 0.000000 0.000000 0.000000
# 3 -0.004986 -0.008012 0.022573 0.000000 0.000000 0.000000
# 4 0.000000 0.000000 0.000000 0.049294 0.000000 0.000000
# 5 0.000000 0.000000 0.000000 0.000000 0.080920 0.000000
# 6 0.000000 0.000000 0.000000 0.000000 0.000000 0.060501
#
#
# Mechanical properties :
#
#
# Convention : Reuss Voigt Hill
#
# Bulk Modulus (GPa) = 32.97149 32.99050 32.98100
# Shear Modulus (GPa) = 17.80029 19.73448 18.76739
#
# Velocity S-wave (km/s) = 3.11402 3.27884 3.19749
# Velocity P-wave (km/s) = 5.55801 5.68390 5.62131
#
# Compressibility (1/GPa) = 0.03032923
#
# Stress axis : x y z
#
# Youngs Moduli (GPa) = 67.07237 56.44203 44.30046
#
# Poissons Ratio (x) = -0.03176 0.22089
# Poissons Ratio (y) = -0.03774 0.35492
# Poissons Ratio (z) = 0.33443 0.45220
#
# Static dielectric constant tensor:
#      x y z
#    x 1.666910 0.000000 0.000000 
#    y 0.000000 1.650980 0.000000 
#    z 0.000000 0.000000 1.652500 
# 
# From -- ./inp_files/6511.got.cif
#   From: 2010.05.17/outbox.cif.g08.bks.cpg/sg38_4_cif.got.tgz:6511.got - 2010.06.03 18:07:57.
