data_PCOD9356380
_publ_section_title
;
Structure prediction by ZEFSAII (Michael W. Deem and Ramdas Pophale) SiO2 
 PCOD9356380
Probable space group: A M M 2
;
_chemical_formula_sum "Si O2"
_cell_formula_units_Z 64
_cell_length_a 7.471789
_cell_length_b 31.974314
_cell_length_c 12.338996
_cell_angle_alpha 90.000000
_cell_angle_beta 90.000000
_cell_angle_gamma 90.000000
_cell_volume 2947.851882
_symmetry_space_group_name_H-M "A M M 2"
_symmetry_group_IT_number 38
_symmetry_cell_setting 'orthorhombic'
loop_
_space_group_symop_operation_xyz
x,y,z
-x,-y,z
-x,y,z
x,-y,z
x,1/2+y,1/2+z
-x,1/2-y,1/2+z
-x,1/2+y,1/2+z
x,1/2-y,1/2+z
loop_
_atom_site_type_symbol
_atom_site_label
_atom_site_fract_x
_atom_site_fract_y
_atom_site_fract_z
Si Si1 0.283995 0.453951 0.472520
Si Si2 0.782960 0.836206 0.733336
Si Si3 0.781683 0.295479 0.008075
Si Si4 0.705491 0.566479 0.232683
Si Si5 0.788440 0.372945 0.617205
Si Si6 0.780929 0.201235 0.962876
Si Si7 0.219636 0.126563 0.363734
Si Si8 0.207450 0.045280 0.491446
O O1 0.500000 0.453364 0.467981
O O2 0.227384 0.500000 0.511596
O O3 0.218725 0.447658 0.348730
O O4 0.232935 0.415345 0.548415
O O5 0.726963 0.811605 0.626280
O O6 0.714862 0.883401 0.731621
O O7 0.727603 0.813668 0.843480
O O8 0.000000 0.838663 0.732354
O O9 0.722016 0.248347 0.986148
O O10 0.725339 0.330174 0.920620
O O11 0.000000 0.294859 0.006615
O O12 0.500000 0.552514 0.228856
O O13 0.789355 0.550883 0.121188
O O14 0.718117 0.333408 0.549133
O O15 0.719452 0.376373 0.739549
O O16 0.000000 0.365632 0.628183
O O17 0.000000 0.201145 0.964899
O O18 0.282208 0.086530 0.433459
O O19 0.000000 0.126426 0.366313
O O20 0.000000 0.043808 0.458155
O O21 0.288263 0.000000 0.464091
#
# Coordination Sequence:
#
# PCOD9356380 Si02
#       8
#     8   8   8   8   8   8   8   8
#     4  10  22  39  56  75 103 140 177 214 265 323
#     4  10  18  32  55  80 109 141 178 219 268 321
#     4   9  17  29  50  79 110 140 171 215 267 312
#     4  11  21  35  56  80 109 139 176 221 269 317
#     4  10  20  34  54  81 109 135 174 222 263 309
#     4   9  18  29  48  82 112 135 172 221 262 307
#     4   9  18  32  51  78 110 141 173 215 266 315
#     4  10  20  35  55  79 107 140 178 219 267 322
#
# _framework density 21.710725
#
# number of rings (size 3 to 8) (size 9 to 14) (size 15 to 20)
#    0.000    2.250    2.500    0.750    1.750    2.000 
#    0.000    1.875    0.000    1.500    0.000    0.000 
#    0.000    0.000    0.000    0.000    0.000    0.000 
#
# Total GULP energy -178775.943596 kJ/mol
# GULP energy per Si atom -5586.748237 kJ/mol
# Density = 2.166131 g / cm^3
# Si number density = 21.710725 Si / 1000 Ang^3
#
#
#
# Elastic Constant Matrix: (Units=GPa)
#
#
# Indices 1 2 3 4 5 6 
#
# 1 60.2758 -2.0779 0.8723 0.0000 0.0000 0.0000
# 2 -2.0779 222.1574 100.1844 0.0000 0.0000 0.0000
# 3 0.8723 100.1844 167.8641 0.0000 0.0000 0.0000
# 4 0.0000 0.0000 0.0000 38.8666 0.0000 0.0000
# 5 0.0000 0.0000 0.0000 0.0000 -26.0118 0.0000
# 6 0.0000 0.0000 0.0000 0.0000 0.0000 18.0581
#
#
#
# Elastic Compliance Matrix: (Units=1/GPa)
#
#
# Indices 1 2 3 4 5 6 
#
# 1 0.016603 0.000266 -0.000245 0.000000 0.000000 0.000000
# 2 0.000266 0.006163 -0.003680 0.000000 0.000000 0.000000
# 3 -0.000245 -0.003680 0.008155 0.000000 0.000000 0.000000
# 4 0.000000 0.000000 0.000000 0.025729 0.000000 0.000000
# 5 0.000000 0.000000 0.000000 0.000000 -0.038444 0.000000
# 6 0.000000 0.000000 0.000000 0.000000 0.000000 0.055377
#
#
# Mechanical properties :
#
#
# Convention : Reuss Voigt Hill
#
# Bulk Modulus (GPa) = 42.36710 72.02833 57.19772
# Shear Modulus (GPa) = 56.32658 29.60382 42.96520
#
# Velocity S-wave (km/s) = 5.09906 3.69664 4.45340
# Velocity P-wave (km/s) = 7.36369 7.17416 7.26955
#
# Compressibility (1/GPa) = 0.02360322
#
# Stress axis : x y z
#
# Youngs Moduli (GPa) = 60.22964 162.25350 122.63051
#
# Poissons Ratio (x) = -0.04311 0.03003
# Poissons Ratio (y) = -0.01600 0.45124
# Poissons Ratio (z) = 0.01475 0.59704
#
# Static dielectric constant tensor:
#      x y z
#    x 1.836940 0.000000 0.000000 
#    y 0.000000 1.752530 0.000000 
#    z 0.000000 0.000000 1.748010 
# 
# From -- ./inp_files/8572.got.cif
#   From: 2010.05.17/outbox.cif.g08.bks.cpg/sg38_5_cif.got.tgz:8572.got - 2010.06.03 18:07:57.
