data_PCOD9356403
_publ_section_title
;
Structure prediction by ZEFSAII (Michael W. Deem and Ramdas Pophale) SiO2 
 PCOD9356403
Probable space group: A M M 2
;
_chemical_formula_sum "Si O2"
_cell_formula_units_Z 64
_cell_length_a 15.984257
_cell_length_b 8.396605
_cell_length_c 24.534934
_cell_angle_alpha 90.000000
_cell_angle_beta 90.000000
_cell_angle_gamma 90.000000
_cell_volume 3292.919174
_symmetry_space_group_name_H-M "A M M 2"
_symmetry_group_IT_number 38
_symmetry_cell_setting 'orthorhombic'
loop_
_space_group_symop_operation_xyz
x,y,z
-x,-y,z
-x,y,z
x,-y,z
x,1/2+y,1/2+z
-x,1/2-y,1/2+z
-x,1/2+y,1/2+z
x,1/2-y,1/2+z
loop_
_atom_site_type_symbol
_atom_site_label
_atom_site_fract_x
_atom_site_fract_y
_atom_site_fract_z
Si Si1 0.406766 0.807531 0.778940
Si Si2 0.352246 0.310192 0.158507
Si Si3 0.837757 0.192898 0.160606
Si Si4 0.906573 0.694131 0.778379
Si Si5 0.750329 0.809937 0.474168
Si Si6 0.907065 0.192103 0.043388
Si Si7 0.748959 0.807496 0.349641
Si Si8 0.592565 0.689637 0.542379
O O1 0.500000 0.757113 0.795956
O O2 0.390586 0.758077 0.716272
O O3 0.333034 0.744086 0.816733
O O4 0.403652 0.000000 0.779975
O O5 0.362890 0.500000 0.153683
O O6 0.254313 0.267025 0.159359
O O7 0.392644 0.230994 0.105662
O O8 0.884084 0.238860 0.216292
O O9 0.886300 0.238745 0.105733
O O10 0.829337 0.000000 0.160677
O O11 0.906904 0.500000 0.779963
O O12 0.832265 0.748565 0.817962
O O13 0.000000 0.748201 0.793029
O O14 0.832904 0.750219 0.504951
O O15 0.747132 0.750555 0.411941
O O16 0.668096 0.760075 0.507409
O O17 0.753583 0.000000 0.472984
O O18 0.000000 0.248460 0.027932
O O19 0.907084 0.000000 0.042038
O O20 0.751098 0.000000 0.349936
O O21 0.500000 0.747566 0.525954
O O22 0.595112 0.500000 0.536140
#
# Coordination Sequence:
#
# PCOD9356403 Si02
#       8
#     8   8   8   8   8   8   8   8
#     4  10  22  39  59  85 118 154 188 228 286 350
#     4  11  21  35  59  89 122 154 184 228 292 353
#     4  10  18  32  58  87 117 151 189 233 285 344
#     4   9  17  32  57  86 115 149 188 231 281 336
#     4  11  24  40  59  85 118 155 196 248 301 342
#     4  10  21  37  59  88 120 155 196 240 289 348
#     4  10  22  39  59  85 114 149 197 245 286 333
#     4  11  24  41  62  87 114 150 196 243 292 352
#
# _framework density 19.435642000000001
#
# number of rings (size 3 to 8) (size 9 to 14) (size 15 to 20)
#    0.000    1.750    2.500    1.875    0.000    6.000 
#    0.000    3.750    0.000    2.250    0.000    0.000 
#    0.000    0.000    0.000    0.000    0.000    0.000 
#
# Total GULP energy -178773.006792 kJ/mol
# GULP energy per Si atom -5586.656462 kJ/mol
# Density = 1.939141 g / cm^3
# Si number density = 19.435642 Si / 1000 Ang^3
#
#
#
# Elastic Constant Matrix: (Units=GPa)
#
#
# Indices 1 2 3 4 5 6 
#
# 1 201.7515 19.2962 92.3822 0.0000 0.0000 0.0000
# 2 19.2962 10.7267 18.2211 0.0000 0.0000 0.0000
# 3 92.3822 18.2211 158.3042 0.0000 0.0000 0.0000
# 4 0.0000 0.0000 0.0000 14.5982 0.0000 0.0000
# 5 0.0000 0.0000 0.0000 0.0000 2.8199 0.0000
# 6 0.0000 0.0000 0.0000 0.0000 0.0000 8.7974
#
#
#
# Elastic Compliance Matrix: (Units=1/GPa)
#
#
# Indices 1 2 3 4 5 6 
#
# 1 0.007187 -0.007215 -0.003364 0.000000 0.000000 0.000000
# 2 -0.007215 0.123126 -0.009962 0.000000 0.000000 0.000000
# 3 -0.003364 -0.009962 0.009426 0.000000 0.000000 0.000000
# 4 0.000000 0.000000 0.000000 0.068502 0.000000 0.000000
# 5 0.000000 0.000000 0.000000 0.000000 0.354620 0.000000
# 6 0.000000 0.000000 0.000000 0.000000 0.000000 0.113669
#
#
# Mechanical properties :
#
#
# Convention : Reuss Voigt Hill
#
# Bulk Modulus (GPa) = 10.13594 70.06460 40.10027
# Shear Modulus (GPa) = 6.66225 21.30196 13.98211
#
# Velocity S-wave (km/s) = 1.85345 3.31422 2.68508
# Velocity P-wave (km/s) = 3.13159 7.12553 5.50364
#
# Compressibility (1/GPa) = 0.09865886
#
# Stress axis : x y z
#
# Youngs Moduli (GPa) = 139.14329 8.12179 106.08409
#
# Poissons Ratio (x) = 0.05860 0.35683
# Poissons Ratio (y) = 1.00388 1.05678
# Poissons Ratio (z) = 0.46803 0.08091
#
# Static dielectric constant tensor:
#      x y z
#    x 1.669120 0.000000 0.000000 
#    y 0.000000 1.670000 0.000000 
#    z 0.000000 0.000000 1.663000 
# 
# From -- ./inp_files/22894.got.cif
#   From: 2010.05.17/outbox.cif.g08.bks.cpg/sg38_12_cif.got.tgz:22894.got - 2010.06.03 18:07:57.
