data_PCOD9356101
_publ_section_title
;
Structure prediction by ZEFSAII (Michael W. Deem and Ramdas Pophale) SiO2 
 PCOD9356101
Probable space group: A M M 2
;
_chemical_formula_sum "Si O2"
_cell_formula_units_Z 64
_cell_length_a 8.550702
_cell_length_b 28.211753
_cell_length_c 15.209946
_cell_angle_alpha 90.000000
_cell_angle_beta 90.000000
_cell_angle_gamma 90.000000
_cell_volume 3669.099727
_symmetry_space_group_name_H-M "A M M 2"
_symmetry_group_IT_number 38
_symmetry_cell_setting 'orthorhombic'
loop_
_space_group_symop_operation_xyz
x,y,z
-x,-y,z
-x,y,z
x,-y,z
x,1/2+y,1/2+z
-x,1/2-y,1/2+z
-x,1/2+y,1/2+z
x,1/2-y,1/2+z
loop_
_atom_site_type_symbol
_atom_site_label
_atom_site_fract_x
_atom_site_fract_y
_atom_site_fract_z
Si Si1 0.686757 0.136796 0.559380
Si Si2 0.688691 0.780863 0.690049
Si Si3 0.186895 0.171059 0.380784
Si Si4 0.809412 0.554128 0.382790
Si Si5 0.313100 0.328362 0.689965
Si Si6 0.811349 0.780036 0.881652
Si Si7 0.188442 0.444677 0.182821
Si Si8 0.810874 0.137283 0.011368
O O1 0.500000 0.138836 0.554170
O O2 0.742646 0.182577 0.615782
O O3 0.755202 0.140106 0.461942
O O4 0.737494 0.090564 0.613051
O O5 0.500000 0.781393 0.691723
O O6 0.740248 0.726475 0.675056
O O7 0.750253 0.795324 0.786055
O O8 0.251380 0.156814 0.285534
O O9 0.240253 0.225774 0.396427
O O10 0.000000 0.170837 0.377760
O O11 0.759916 0.500000 0.400126
O O12 0.762275 0.567286 0.283145
O O13 0.758189 0.591792 0.455233
O O14 0.000000 0.554311 0.382593
O O15 0.500000 0.328640 0.690989
O O16 0.251686 0.359390 0.609657
O O17 0.000000 0.780756 0.879247
O O18 0.759569 0.816027 0.957102
O O19 0.227162 0.500000 0.167800
O O20 0.000000 0.440349 0.178738
O O21 0.000000 0.137104 0.013857
#
# Coordination Sequence:
#
# PCOD9356101 Si02
#       8
#     8   8   8   8   8   8   8   8
#     4  11  21  32  49  74 102 132 165 200 244 296
#     4   9  19  32  46  68 100 135 165 195 237 293
#     4  10  20  34  50  69  95 128 167 208 247 287
#     4   8  15  29  50  75 101 128 158 194 237 285
#     4  10  20  34  49  67  96 132 167 203 244 289
#     4   9  18  30  47  72  99 128 164 206 245 283
#     4   9  18  34  55  77 101 130 163 199 242 291
#     4  10  18  29  48  73  98 125 161 201 240 285
#
# _framework density 17.442969999999999
#
# number of rings (size 3 to 8) (size 9 to 14) (size 15 to 20)
#    0.000    2.500    0.000    3.375    0.000    3.750 
#    0.000    0.625    0.000    1.875    0.000    1.750 
#    0.000    0.000    0.000    0.000    0.000    0.000 
#
# Total GULP energy -178563.839824 kJ/mol
# GULP energy per Si atom -5580.119994 kJ/mol
# Density = 1.740327 g / cm^3
# Si number density = 17.442970 Si / 1000 Ang^3
#
#
#
# Elastic Constant Matrix: (Units=GPa)
#
#
# Indices 1 2 3 4 5 6 
#
# 1 18.4682 22.4151 31.3773 0.0000 0.0000 0.0000
# 2 22.4151 70.4371 83.4450 0.0000 0.0000 0.0000
# 3 31.3773 83.4450 169.7458 0.0000 0.0000 0.0000
# 4 0.0000 0.0000 0.0000 28.3098 0.0000 0.0000
# 5 0.0000 0.0000 0.0000 0.0000 9.8056 0.0000
# 6 0.0000 0.0000 0.0000 0.0000 0.0000 16.6496
#
#
#
# Elastic Compliance Matrix: (Units=1/GPa)
#
#
# Indices 1 2 3 4 5 6 
#
# 1 0.090851 -0.021589 -0.006181 0.000000 0.000000 0.000000
# 2 -0.021589 0.039125 -0.015243 0.000000 0.000000 0.000000
# 3 -0.006181 -0.015243 0.014527 0.000000 0.000000 0.000000
# 4 0.000000 0.000000 0.000000 0.035323 0.000000 0.000000
# 5 0.000000 0.000000 0.000000 0.000000 0.101982 0.000000
# 6 0.000000 0.000000 0.000000 0.000000 0.000000 0.060061
#
#
# Mechanical properties :
#
#
# Convention : Reuss Voigt Hill
#
# Bulk Modulus (GPa) = 17.10058 59.23622 38.16840
# Shear Modulus (GPa) = 11.17600 19.04727 15.11164
#
# Velocity S-wave (km/s) = 2.53398 3.30809 2.94657
# Velocity P-wave (km/s) = 4.28794 6.97316 5.78841
#
# Compressibility (1/GPa) = 0.05847756
#
# Stress axis : x y z
#
# Youngs Moduli (GPa) = 11.00704 25.55919 68.83864
#
# Poissons Ratio (x) = 0.55180 0.42547
# Poissons Ratio (y) = 0.23763 1.04928
# Poissons Ratio (z) = 0.06803 0.38959
#
# Static dielectric constant tensor:
#      x y z
#    x 1.585990 0.000000 0.000000 
#    y 0.000000 1.594470 0.000000 
#    z 0.000000 0.000000 1.574400 
# 
# From -- ./inp_files/8620.got.cif
#   From: 2010.05.17/outbox.cif.g08.bks.cpg/sg38_5_cif.got.tgz:8620.got - 2010.06.03 18:07:57.
