data_PCOD9356083
_publ_section_title
;
Structure prediction by ZEFSAII (Michael W. Deem and Ramdas Pophale) SiO2 
 PCOD9356083
Probable space group: A M M 2
;
_chemical_formula_sum "Si O2"
_cell_formula_units_Z 64
_cell_length_a 13.603701
_cell_length_b 32.231124
_cell_length_c 8.701266
_cell_angle_alpha 90.000000
_cell_angle_beta 90.000000
_cell_angle_gamma 90.000000
_cell_volume 3815.179486
_symmetry_space_group_name_H-M "A M M 2"
_symmetry_group_IT_number 38
_symmetry_cell_setting 'orthorhombic'
loop_
_space_group_symop_operation_xyz
x,y,z
-x,-y,z
-x,y,z
x,-y,z
x,1/2+y,1/2+z
-x,1/2-y,1/2+z
-x,1/2+y,1/2+z
x,1/2-y,1/2+z
loop_
_atom_site_type_symbol
_atom_site_label
_atom_site_fract_x
_atom_site_fract_y
_atom_site_fract_z
Si Si1 0.199314 0.366695 0.516870
Si Si2 0.116736 0.367523 0.175419
Si Si3 0.387774 0.188064 0.026271
Si Si4 0.804517 0.711747 0.010420
Si Si5 0.115001 0.453623 0.513025
Si Si6 0.387263 0.727605 0.190103
Si Si7 0.114976 0.955712 0.639002
Si Si8 0.113147 0.209155 0.182775
O O1 0.172652 0.363361 0.336660
O O2 0.307441 0.347774 0.542328
O O3 0.179024 0.414260 0.563544
O O4 0.126966 0.335263 0.604119
O O5 0.135498 0.327058 0.076425
O O6 0.151871 0.410198 0.093308
O O7 0.000000 0.371746 0.207181
O O8 0.500000 0.172688 0.021667
O O9 0.369405 0.212757 0.864843
O O10 0.380985 0.223053 0.158426
O O11 0.695339 0.708569 0.079674
O O12 0.851827 0.754617 0.069465
O O13 0.816968 0.711505 0.829506
O O14 0.143436 0.500000 0.566588
O O15 0.118982 0.454744 0.325914
O O16 0.000000 0.446890 0.552916
O O17 0.500000 0.715916 0.150593
O O18 0.000000 0.956993 0.595328
O O19 0.159545 0.000000 0.588968
O O20 0.000000 0.215868 0.227480
#
# Coordination Sequence:
#
# PCOD9356083 Si02
#       8
#     8   8   8   8   8   8   8   8
#     4  11  19  32  50  73  98 127 165 205 247 290
#     4  10  18  29  47  68  95 127 160 194 237 292
#     4  10  20  34  52  72  95 126 166 214 255 292
#     4  12  22  36  47  68  95 132 166 201 244 296
#     4   8  14  26  46  71  97 126 162 198 236 292
#     4  10  20  36  52  69  92 126 168 211 250 283
#     4   7  11  21  39  64  89 115 151 193 228 268
#     4  12  24  34  47  67  99 135 165 198 238 293
#
# _framework density 16.775096000000001
#
# number of rings (size 3 to 8) (size 9 to 14) (size 15 to 20)
#    0.000    2.000    2.500    5.250    0.000    0.000 
#    0.000    0.000    0.000    1.125    0.000    1.750 
#    0.000    0.500    0.000    0.000    0.000    0.000 
#
# Total GULP energy -178353.384180 kJ/mol
# GULP energy per Si atom -5573.543256 kJ/mol
# Density = 1.673692 g / cm^3
# Si number density = 16.775096 Si / 1000 Ang^3
#
#
#
# Elastic Constant Matrix: (Units=GPa)
#
#
# Indices 1 2 3 4 5 6 
#
# 1 87.3121 30.7691 7.2318 0.0000 0.0000 0.0000
# 2 30.7691 130.6123 17.7234 0.0000 0.0000 0.0000
# 3 7.2318 17.7234 26.9978 0.0000 0.0000 0.0000
# 4 0.0000 0.0000 0.0000 9.4232 0.0000 0.0000
# 5 0.0000 0.0000 0.0000 0.0000 15.7459 0.0000
# 6 0.0000 0.0000 0.0000 0.0000 0.0000 19.9754
#
#
#
# Elastic Compliance Matrix: (Units=1/GPa)
#
#
# Indices 1 2 3 4 5 6 
#
# 1 0.012550 -0.002745 -0.001560 0.000000 0.000000 0.000000
# 2 -0.002745 0.009005 -0.005176 0.000000 0.000000 0.000000
# 3 -0.001560 -0.005176 0.040856 0.000000 0.000000 0.000000
# 4 0.000000 0.000000 0.000000 0.106121 0.000000 0.000000
# 5 0.000000 0.000000 0.000000 0.000000 0.063509 0.000000
# 6 0.000000 0.000000 0.000000 0.000000 0.000000 0.050062
#
#
# Mechanical properties :
#
#
# Convention : Reuss Voigt Hill
#
# Bulk Modulus (GPa) = 23.01553 39.59675 31.30614
# Shear Modulus (GPa) = 15.84550 21.64209 18.74380
#
# Velocity S-wave (km/s) = 3.07674 3.59574 3.34632
# Velocity P-wave (km/s) = 5.13533 6.39491 5.79942
#
# Compressibility (1/GPa) = 0.04344893
#
# Stress axis : x y z
#
# Youngs Moduli (GPa) = 79.68370 111.04619 24.47617
#
# Poissons Ratio (x) = 0.30479 0.03818
# Poissons Ratio (y) = 0.21871 0.12670
# Poissons Ratio (z) = 0.12429 0.57483
#
# Static dielectric constant tensor:
#      x y z
#    x 1.577200 0.000000 0.000000 
#    y 0.000000 1.603020 0.000000 
#    z 0.000000 0.000000 1.577300 
# 
# From -- ./inp_files/5997.got.cif
#   From: 2010.05.17/outbox.cif.g08.bks.cpg/sg38_3_cif.got.tgz:5997.got - 2010.06.03 18:07:57.
