data_PCOD9356808
_publ_section_title
;
Structure prediction by ZEFSAII (Michael W. Deem and Ramdas Pophale) SiO2 
 PCOD9356808
Probable space group: A M M 2
;
_chemical_formula_sum "Si O2"
_cell_formula_units_Z 52
_cell_length_a 11.427954
_cell_length_b 7.981178
_cell_length_c 31.269514
_cell_angle_alpha 90.000000
_cell_angle_beta 90.000000
_cell_angle_gamma 90.000000
_cell_volume 2852.046564
_symmetry_space_group_name_H-M "A M M 2"
_symmetry_group_IT_number 38
_symmetry_cell_setting 'orthorhombic'
loop_
_space_group_symop_operation_xyz
x,y,z
-x,-y,z
-x,y,z
x,-y,z
x,1/2+y,1/2+z
-x,1/2-y,1/2+z
-x,1/2+y,1/2+z
x,1/2-y,1/2+z
loop_
_atom_site_type_symbol
_atom_site_label
_atom_site_fract_x
_atom_site_fract_y
_atom_site_fract_z
Si Si1 0.792355 0.000000 0.011400
Si Si2 0.867325 0.796974 0.264543
Si Si3 0.863892 0.000000 0.916025
Si Si4 0.708885 0.811049 0.627506
Si Si5 0.633891 0.687973 0.030996
Si Si6 0.628670 0.796623 0.217373
Si Si7 0.860104 0.187676 0.364652
Si Si8 0.131295 0.000000 0.108148
O O1 0.713106 0.834111 0.012803
O O2 0.861748 0.000000 0.056312
O O3 0.859362 0.000000 0.966969
O O4 0.750249 0.739278 0.239800
O O5 0.849060 0.762241 0.314917
O O6 0.000000 0.737574 0.252387
O O7 0.870733 0.000000 0.260351
O O8 0.811643 0.168681 0.895478
O O9 0.000000 0.000000 0.902770
O O10 0.640115 0.798725 0.582700
O O11 0.634167 0.773055 0.669316
O O12 0.804805 0.665615 0.624761
O O13 0.756786 0.000000 0.629956
O O14 0.500000 0.707043 0.017560
O O15 0.674847 0.500000 0.019958
O O16 0.500000 0.750851 0.236057
O O17 0.632696 0.000000 0.216208
O O18 0.000000 0.174368 0.372312
O O19 0.810998 0.000000 0.370705
O O20 0.000000 0.000000 0.123256
#
# Coordination Sequence:
#
# PCOD9356808 Si02
#       8
#     4   8   4   8   8   8   8   4
#     4  10  20  32  50  78 104 134 166 212 269 323
#     4   8  15  30  51  73 101 139 177 216 264 317
#     4  10  19  31  51  78 105 131 168 213 257 311
#     4  10  20  35  53  75 101 138 183 222 263 313
#     4   9  18  33  53  73  96 131 175 219 261 309
#     4  10  19  31  50  79 109 139 178 226 274 319
#     4   8  15  30  51  72  95 129 170 210 253 303
#     4  10  21  37  53  72 107 147 179 219 266 320
#
# _framework density 18.232520999999998
#
# number of rings (size 3 to 8) (size 9 to 14) (size 15 to 20)
#    0.000    2.769    0.769    1.846    0.000    2.462 
#    1.385    0.000    0.000    4.615    0.000    2.154 
#    0.000    0.000    0.000    0.000    0.000    0.000 
#
# Total GULP energy -144767.355827 kJ/mol
# GULP energy per Si atom -5567.975224 kJ/mol
# Density = 1.819102 g / cm^3
# Si number density = 18.232521 Si / 1000 Ang^3
#
#
#
# Elastic Constant Matrix: (Units=GPa)
#
#
# Indices 1 2 3 4 5 6 
#
# 1 90.8119 42.7718 21.4777 0.0000 0.0000 0.0000
# 2 42.7718 91.9782 24.3973 0.0000 0.0000 0.0000
# 3 21.4777 24.3973 48.1566 0.0000 0.0000 0.0000
# 4 0.0000 0.0000 0.0000 18.3894 0.0000 0.0000
# 5 0.0000 0.0000 0.0000 0.0000 11.5109 0.0000
# 6 0.0000 0.0000 0.0000 0.0000 0.0000 -83.7532
#
#
#
# Elastic Compliance Matrix: (Units=1/GPa)
#
#
# Indices 1 2 3 4 5 6 
#
# 1 0.014607 -0.005851 -0.003551 0.000000 0.000000 0.000000
# 2 -0.005851 0.014904 -0.004941 0.000000 0.000000 0.000000
# 3 -0.003551 -0.004941 0.024852 0.000000 0.000000 0.000000
# 4 0.000000 0.000000 0.000000 0.054379 0.000000 0.000000
# 5 0.000000 0.000000 0.000000 0.000000 0.086874 0.000000
# 6 0.000000 0.000000 0.000000 0.000000 0.000000 -0.011940
#
#
# Mechanical properties :
#
#
# Convention : Reuss Voigt Hill
#
# Bulk Modulus (GPa) = 38.94360 45.36005 42.15182
# Shear Modulus (GPa) = 22.63251 -1.28392 10.67429
#
# Velocity S-wave (km/s) = 3.52707 -0.84007 2.42224
# Velocity P-wave (km/s) = 6.16382 4.89813 5.56706
#
# Compressibility (1/GPa) = 0.02567816
#
# Stress axis : x y z
#
# Youngs Moduli (GPa) = 68.45925 67.09819 40.23761
#
# Poissons Ratio (x) = 0.39258 0.14287
# Poissons Ratio (y) = 0.40055 0.19882
# Poissons Ratio (z) = 0.24307 0.33153
#
# Static dielectric constant tensor:
#      x y z
#    x 1.664620 0.000000 0.000000 
#    y 0.000000 1.668190 0.000000 
#    z 0.000000 0.000000 1.610890 
# 
# From -- ./inp_files/24882.got.cif
#   From: 2010.05.17/outbox.cif.g08.bks.cpg/sg38_13_cif.got.tgz:24882.got - 2010.06.03 18:07:57.
