data_PCOD9356468
_publ_section_title
;
Structure prediction by ZEFSAII (Michael W. Deem and Ramdas Pophale) SiO2 
 PCOD9356468
Probable space group: A M M 2
;
_chemical_formula_sum "Si O2"
_cell_formula_units_Z 64
_cell_length_a 7.758847
_cell_length_b 32.050696
_cell_length_c 12.290197
_cell_angle_alpha 90.000000
_cell_angle_beta 90.000000
_cell_angle_gamma 90.000000
_cell_volume 3056.282517
_symmetry_space_group_name_H-M "A M M 2"
_symmetry_group_IT_number 38
_symmetry_cell_setting 'orthorhombic'
loop_
_space_group_symop_operation_xyz
x,y,z
-x,-y,z
-x,y,z
x,-y,z
x,1/2+y,1/2+z
-x,1/2-y,1/2+z
-x,1/2+y,1/2+z
x,1/2-y,1/2+z
loop_
_atom_site_type_symbol
_atom_site_label
_atom_site_fract_x
_atom_site_fract_y
_atom_site_fract_z
Si Si1 0.704758 0.454910 0.442760
Si Si2 0.791665 0.568430 0.200845
Si Si3 0.207653 0.795812 0.925476
Si Si4 0.210967 0.335101 0.200525
Si Si5 0.208263 0.045521 0.459497
Si Si6 0.291950 0.625898 0.573739
Si Si7 0.794744 0.796463 0.476101
Si Si8 0.295837 0.627554 0.821192
O O1 0.500000 0.455379 0.463083
O O2 0.775574 0.500000 0.479238
O O3 0.730329 0.451261 0.313189
O O4 0.774021 0.413682 0.503315
O O5 0.738302 0.616733 0.202519
O O6 0.733713 0.550105 0.085212
O O7 0.000000 0.565937 0.201983
O O8 0.270795 0.812318 0.809126
O O9 0.274416 0.749396 0.949014
O O10 0.000000 0.793485 0.918388
O O11 0.248311 0.830633 0.015344
O O12 0.000000 0.334708 0.199644
O O13 0.273608 0.313607 0.090546
O O14 0.260598 0.085407 0.388949
O O15 0.000000 0.045896 0.461246
O O16 0.265145 0.000000 0.417525
O O17 0.500000 0.623109 0.575821
O O18 0.227521 0.624613 0.697917
O O19 0.769671 0.831866 0.385352
O O20 0.000000 0.791728 0.489827
O O21 0.500000 0.632420 0.813984
#
# Coordination Sequence:
#
# PCOD9356468 Si02
#       8
#     8   8   8   8   8   8   8   8
#     4  10  21  37  57  81 110 147 189 230 279 339
#     4  10  18  34  59  85 116 146 178 227 285 338
#     4  10  21  36  61  90 113 145 189 234 280 335
#     4   9  17  33  56  86 116 143 180 228 283 334
#     4  10  21  38  60  85 114 150 190 235 288 340
#     4  10  23  41  57  78 114 154 190 233 284 335
#     4  10  21  38  61  86 116 150 187 235 284 333
#     4  11  24  40  58  82 115 154 194 235 282 338
#
# _framework density 20.940472
#
# number of rings (size 3 to 8) (size 9 to 14) (size 15 to 20)
#    0.000    2.000    2.500    0.750    1.750    3.500 
#    0.000    1.875    0.000    0.000    0.000    0.000 
#    0.000    0.000    0.000    0.000    0.000    0.000 
#
# Total GULP energy -178715.358168 kJ/mol
# GULP energy per Si atom -5584.854943 kJ/mol
# Density = 2.089281 g / cm^3
# Si number density = 20.940472 Si / 1000 Ang^3
#
#
#
# Elastic Constant Matrix: (Units=GPa)
#
#
# Indices 1 2 3 4 5 6 
#
# 1 24.2259 -3.5471 -7.7565 0.0000 0.0000 0.0000
# 2 -3.5471 197.9039 79.2323 0.0000 0.0000 0.0000
# 3 -7.7565 79.2323 142.6828 0.0000 0.0000 0.0000
# 4 0.0000 0.0000 0.0000 39.0526 0.0000 0.0000
# 5 0.0000 0.0000 0.0000 0.0000 20.1166 0.0000
# 6 0.0000 0.0000 0.0000 0.0000 0.0000 15.4701
#
#
#
# Elastic Compliance Matrix: (Units=1/GPa)
#
#
# Indices 1 2 3 4 5 6 
#
# 1 0.042016 -0.000207 0.002399 0.000000 0.000000 0.000000
# 2 -0.000207 0.006499 -0.003620 0.000000 0.000000 0.000000
# 3 0.002399 -0.003620 0.009149 0.000000 0.000000 0.000000
# 4 0.000000 0.000000 0.000000 0.025606 0.000000 0.000000
# 5 0.000000 0.000000 0.000000 0.000000 0.049710 0.000000
# 6 0.000000 0.000000 0.000000 0.000000 0.000000 0.064641
#
#
# Mechanical properties :
#
#
# Convention : Reuss Voigt Hill
#
# Bulk Modulus (GPa) = 18.24571 55.62998 36.93785
# Shear Modulus (GPa) = 22.85752 34.72013 28.78882
#
# Velocity S-wave (km/s) = 3.30744 4.07632 3.71184
# Velocity P-wave (km/s) = 4.82883 6.98417 6.00401
#
# Compressibility (1/GPa) = 0.05480740
#
# Stress axis : x y z
#
# Youngs Moduli (GPa) = 23.80045 153.88166 109.29997
#
# Poissons Ratio (x) = 0.03193 -0.26224
# Poissons Ratio (y) = 0.00494 0.39566
# Poissons Ratio (z) = -0.05710 0.55704
#
# Static dielectric constant tensor:
#      x y z
#    x 1.776990 0.000000 0.000000 
#    y 0.000000 1.748730 0.000000 
#    z 0.000000 0.000000 1.730800 
# 
# From -- ./inp_files/8630.got.cif
#   From: 2010.05.17/outbox.cif.g08.bks.cpg/sg38_5_cif.got.tgz:8630.got - 2010.06.03 18:07:57.
