data_PCOD9356791
_publ_section_title
;
Structure prediction by ZEFSAII (Michael W. Deem and Ramdas Pophale) SiO2 
 PCOD9356791
Probable space group: A M M 2
;
_chemical_formula_sum "Si O2"
_cell_formula_units_Z 40
_cell_length_a 9.322905
_cell_length_b 7.718332
_cell_length_c 30.606926
_cell_angle_alpha 90.000000
_cell_angle_beta 90.000000
_cell_angle_gamma 90.000000
_cell_volume 2202.391022
_symmetry_space_group_name_H-M "A M M 2"
_symmetry_group_IT_number 38
_symmetry_cell_setting 'orthorhombic'
loop_
_space_group_symop_operation_xyz
x,y,z
-x,-y,z
-x,y,z
x,-y,z
x,1/2+y,1/2+z
-x,1/2-y,1/2+z
-x,1/2+y,1/2+z
x,1/2-y,1/2+z
loop_
_atom_site_type_symbol
_atom_site_label
_atom_site_fract_x
_atom_site_fract_y
_atom_site_fract_z
Si Si1 0.325435 0.500000 0.541400
Si Si2 0.324707 0.000000 0.141326
Si Si3 0.669958 0.696971 0.976681
Si Si4 0.664882 0.288615 0.303275
Si Si5 0.674912 0.801099 0.706175
Si Si6 0.834820 0.710308 0.388829
O O1 0.500000 0.500000 0.543042
O O2 0.275155 0.500000 0.591304
O O3 0.281832 0.667350 0.513366
O O4 0.279942 0.830632 0.168597
O O5 0.500000 0.000000 0.140818
O O6 0.500000 0.726160 0.968820
O O7 0.688950 0.500000 0.991602
O O8 0.751649 0.725770 0.931412
O O9 0.500000 0.231732 0.308882
O O10 0.663571 0.500000 0.303013
O O11 0.717490 0.239676 0.254858
O O12 0.759224 0.231540 0.344071
O O13 0.500000 0.802905 0.707033
O O14 0.721284 0.000000 0.699258
O O15 0.829550 0.500000 0.389491
O O16 0.000000 0.763982 0.390031
#
# Coordination Sequence:
#
# PCOD9356791 Si02
#       6
#     4   4   8   8   8   8
#     4   9  18  32  49  71 101 131 165 213 260 301
#     4   9  16  26  44  71  99 127 159 203 254 297
#     4  10  20  34  52  73  99 134 172 209 254 305
#     4   8  14  26  45  68  98 136 170 203 245 294
#     4   8  14  25  41  64  96 130 162 197 241 294
#     4  10  19  31  50  75 102 135 171 209 256 303
#
# _framework density 18.162081000000001
#
# number of rings (size 3 to 8) (size 9 to 14) (size 15 to 20)
#    0.000    3.000    1.000    1.800    0.000    2.000 
#    1.800    4.000    0.000    0.000    0.000    2.800 
#    0.000    3.200    0.000    0.000    0.000    0.000 
#
# Total GULP energy -111501.242537 kJ/mol
# GULP energy per Si atom -5575.062127 kJ/mol
# Density = 1.812074 g / cm^3
# Si number density = 18.162081 Si / 1000 Ang^3
#
#
#
# Elastic Constant Matrix: (Units=GPa)
#
#
# Indices 1 2 3 4 5 6 
#
# 1 35.2529 34.5443 49.9120 0.0000 0.0000 0.0000
# 2 34.5443 89.2064 84.2757 0.0000 0.0000 0.0000
# 3 49.9120 84.2757 202.9969 0.0000 0.0000 0.0000
# 4 0.0000 0.0000 0.0000 -6.5425 0.0000 0.0000
# 5 0.0000 0.0000 0.0000 0.0000 -4.1212 0.0000
# 6 0.0000 0.0000 0.0000 0.0000 0.0000 7.4662
#
#
#
# Elastic Compliance Matrix: (Units=1/GPa)
#
#
# Indices 1 2 3 4 5 6 
#
# 1 0.051397 -0.013103 -0.007197 0.000000 0.000000 0.000000
# 2 -0.013103 0.021785 -0.005822 0.000000 0.000000 0.000000
# 3 -0.007197 -0.005822 0.009113 0.000000 0.000000 0.000000
# 4 0.000000 0.000000 0.000000 -0.152846 0.000000 0.000000
# 5 0.000000 0.000000 0.000000 0.000000 -0.242649 0.000000
# 6 0.000000 0.000000 0.000000 0.000000 0.000000 0.133938
#
#
# Mechanical properties :
#
#
# Convention : Reuss Voigt Hill
#
# Bulk Modulus (GPa) = 33.27971 73.88001 53.57986
# Shear Modulus (GPa) = -42.73457 9.94210 -16.39624
#
# Velocity S-wave (km/s) = -4.85599 2.34222 -3.00788
# Velocity P-wave (km/s) = 3.61626 6.93405 4.18353
#
# Compressibility (1/GPa) = 0.03004834
#
# Stress axis : x y z
#
# Youngs Moduli (GPa) = 19.45657 45.90412 109.73442
#
# Poissons Ratio (x) = 0.60150 0.78978
# Poissons Ratio (y) = 0.25495 0.63889
# Poissons Ratio (z) = 0.14003 0.26726
#
# Static dielectric constant tensor:
#      x y z
#    x 1.590780 0.000000 0.000000 
#    y 0.000000 1.656730 0.000000 
#    z 0.000000 0.000000 1.603490 
# 
# From -- ./inp_files/23231.got.cif
#   From: 2010.05.17/outbox.cif.g08.bks.cpg/sg38_12_cif.got.tgz:23231.got - 2010.06.03 18:07:57.
