data_PCOD9356500
_publ_section_title
;
Structure prediction by ZEFSAII (Michael W. Deem and Ramdas Pophale) SiO2 
 PCOD9356500
Probable space group: A M M 2
;
_chemical_formula_sum "Si O2"
_cell_formula_units_Z 56
_cell_length_a 17.015469
_cell_length_b 8.741237
_cell_length_c 20.892253
_cell_angle_alpha 90.000000
_cell_angle_beta 90.000000
_cell_angle_gamma 90.000000
_cell_volume 3107.435307
_symmetry_space_group_name_H-M "A M M 2"
_symmetry_group_IT_number 38
_symmetry_cell_setting 'orthorhombic'
loop_
_space_group_symop_operation_xyz
x,y,z
-x,-y,z
-x,y,z
x,-y,z
x,1/2+y,1/2+z
-x,1/2-y,1/2+z
-x,1/2+y,1/2+z
x,1/2-y,1/2+z
loop_
_atom_site_type_symbol
_atom_site_label
_atom_site_fract_x
_atom_site_fract_y
_atom_site_fract_z
Si Si1 0.409385 0.178727 0.312230
Si Si2 0.838270 0.182446 0.866815
Si Si3 0.268761 0.817160 0.742321
Si Si4 0.589806 0.317450 0.452353
Si Si5 0.750294 0.316302 0.990002
Si Si6 0.000000 0.182412 0.320627
Si Si7 0.832513 0.313829 0.121078
Si Si8 0.000000 0.814148 0.676480
O O1 0.500000 0.198141 0.292997
O O2 0.349909 0.235875 0.258755
O O3 0.397407 0.271842 0.377977
O O4 0.395746 0.000000 0.326492
O O5 0.788604 0.212338 0.802345
O O6 0.791689 0.248696 0.927131
O O7 0.922715 0.258547 0.856883
O O8 0.846583 0.000000 0.873381
O O9 0.225823 0.765298 0.677911
O O10 0.281074 0.000000 0.738726
O O11 0.500000 0.269992 0.468728
O O12 0.595158 0.500000 0.458424
O O13 0.660112 0.239840 0.491219
O O14 0.751273 0.500000 0.986637
O O15 0.798812 0.265893 0.052665
O O16 0.000000 0.250404 0.248579
O O17 0.000000 0.000000 0.317339
O O18 0.833206 0.500000 0.121312
O O19 0.920895 0.266264 0.139403
O O20 0.000000 0.000000 0.681247
#
# Coordination Sequence:
#
# PCOD9356500 Si02
#       8
#     8   8   8   8   8   4   8   4
#     4  10  20  33  53  84 118 149 187 241 296 335
#     4  11  22  38  61  85 115 152 190 235 286 341
#     4  10  19  35  59  84 111 148 194 232 277 343
#     4  10  20  35  56  81 111 152 197 236 285 350
#     4  11  22  37  58  88 121 150 191 241 290 341
#     4  12  24  37  58  91 121 147 193 247 292 332
#     4   9  20  37  60  85 112 153 194 231 283 346
#     4  10  18  39  64  81 111 153 195 233 282 350
#
# _framework density 18.021291999999999
#
# number of rings (size 3 to 8) (size 9 to 14) (size 15 to 20)
#    0.000    1.714    2.857    2.357    0.000    2.857 
#    0.000    5.000    0.000    4.286    0.000    0.000 
#    0.000    0.000    0.000    0.000    0.000    0.000 
#
# Total GULP energy -156360.920182 kJ/mol
# GULP energy per Si atom -5584.318578 kJ/mol
# Density = 1.798027 g / cm^3
# Si number density = 18.021292 Si / 1000 Ang^3
#
#
#
# Elastic Constant Matrix: (Units=GPa)
#
#
# Indices 1 2 3 4 5 6 
#
# 1 122.8582 40.5168 47.0163 0.0000 0.0000 0.0000
# 2 40.5168 45.8695 33.6041 0.0000 0.0000 0.0000
# 3 47.0163 33.6041 90.3390 0.0000 0.0000 0.0000
# 4 0.0000 0.0000 0.0000 21.4389 0.0000 0.0000
# 5 0.0000 0.0000 0.0000 0.0000 22.6425 0.0000
# 6 0.0000 0.0000 0.0000 0.0000 0.0000 29.8214
#
#
#
# Elastic Compliance Matrix: (Units=1/GPa)
#
#
# Indices 1 2 3 4 5 6 
#
# 1 0.012122 -0.008365 -0.003197 0.000000 0.000000 0.000000
# 2 -0.008365 0.035740 -0.008941 0.000000 0.000000 0.000000
# 3 -0.003197 -0.008941 0.016059 0.000000 0.000000 0.000000
# 4 0.000000 0.000000 0.000000 0.046644 0.000000 0.000000
# 5 0.000000 0.000000 0.000000 0.000000 0.044165 0.000000
# 6 0.000000 0.000000 0.000000 0.000000 0.000000 0.033533
#
#
# Mechanical properties :
#
#
# Convention : Reuss Voigt Hill
#
# Bulk Modulus (GPa) = 43.64000 55.70459 49.67229
# Shear Modulus (GPa) = 21.10538 23.97588 22.54063
#
# Velocity S-wave (km/s) = 3.42590 3.65145 3.54047
# Velocity P-wave (km/s) = 6.31802 6.98248 6.65854
#
# Compressibility (1/GPa) = 0.02291476
#
# Stress axis : x y z
#
# Youngs Moduli (GPa) = 82.49785 27.97993 62.26980
#
# Poissons Ratio (x) = 0.23405 0.19908
# Poissons Ratio (y) = 0.69008 0.55676
# Poissons Ratio (z) = 0.26375 0.25017
#
# Static dielectric constant tensor:
#      x y z
#    x 1.625490 0.000000 0.000000 
#    y 0.000000 1.609500 0.000000 
#    z 0.000000 0.000000 1.586240 
# 
# From -- ./inp_files/21161.got.cif
#   From: 2010.05.17/outbox.cif.g08.bks.cpg/sg38_11_cif.got.tgz:21161.got - 2010.06.03 18:07:57.
