data_PCOD9356271
_publ_section_title
;
Structure prediction by ZEFSAII (Michael W. Deem and Ramdas Pophale) SiO2 
 PCOD9356271
Probable space group: A M M 2
;
_chemical_formula_sum "Si O2"
_cell_formula_units_Z 56
_cell_length_a 14.758598
_cell_length_b 7.466526
_cell_length_c 22.687580
_cell_angle_alpha 90.000000
_cell_angle_beta 90.000000
_cell_angle_gamma 90.000000
_cell_volume 2500.068217
_symmetry_space_group_name_H-M "A M M 2"
_symmetry_group_IT_number 38
_symmetry_cell_setting 'orthorhombic'
loop_
_space_group_symop_operation_xyz
x,y,z
-x,-y,z
-x,y,z
x,-y,z
x,1/2+y,1/2+z
-x,1/2-y,1/2+z
-x,1/2+y,1/2+z
x,1/2-y,1/2+z
loop_
_atom_site_type_symbol
_atom_site_label
_atom_site_fract_x
_atom_site_fract_y
_atom_site_fract_z
Si Si1 0.171779 0.718403 0.966290
Si Si2 0.404400 0.789918 0.885773
Si Si3 0.000000 0.282948 0.040304
Si Si4 0.360690 0.714593 0.018269
Si Si5 0.213674 0.200914 0.340464
Si Si6 0.203741 0.780385 0.207481
Si Si7 0.000000 0.201080 0.173466
Si Si8 0.398353 0.707435 0.652204
O O1 0.176564 0.500000 0.961978
O O2 0.171425 0.786434 0.899177
O O3 0.258178 0.772618 0.004524
O O4 0.085628 0.769473 0.002503
O O5 0.500000 0.724771 0.861815
O O6 0.318747 0.693318 0.858959
O O7 0.394587 0.000000 0.872879
O O8 0.405741 0.768710 0.956546
O O9 0.000000 0.197630 0.103460
O O10 0.000000 0.500000 0.047573
O O11 0.366566 0.500000 0.022234
O O12 0.393579 0.785006 0.080815
O O13 0.208348 0.278662 0.275668
O O14 0.175468 0.000000 0.335141
O O15 0.299362 0.721622 0.175833
O O16 0.101567 0.722414 0.187552
O O17 0.204465 0.000000 0.202751
O O18 0.000000 0.000000 0.199681
O O19 0.500000 0.782150 0.668573
O O20 0.399918 0.500000 0.670907
#
# Coordination Sequence:
#
# PCOD9356271 Si02
#       8
#     8   8   4   8   8   8   4   8
#     4   8  16  29  48  74  99 124 160 209 257 304
#     4  10  20  33  50  74 103 134 168 210 263 316
#     4  10  18  31  51  75 103 132 163 204 263 320
#     4  10  19  32  50  74 103 134 173 217 261 311
#     4   9  18  34  53  74 100 132 173 214 254 303
#     4   9  19  35  55  78 104 138 178 217 258 305
#     4  10  20  35  55  79 105 134 173 216 255 302
#     4  10  20  33  49  72 104 140 176 215 261 311
#
# _framework density 22.399387999999998
#
# number of rings (size 3 to 8) (size 9 to 14) (size 15 to 20)
#    0.000    2.571    0.000    3.000    0.000    4.286 
#    0.000    8.571    0.000    0.000    0.000    5.000 
#    0.000    0.000    0.000    0.000    0.000    0.000 
#
# Total GULP energy -155983.701277 kJ/mol
# GULP energy per Si atom -5570.846474 kJ/mol
# Density = 2.234841 g / cm^3
# Si number density = 22.399388 Si / 1000 Ang^3
#
#
#
# Elastic Constant Matrix: (Units=GPa)
#
#
# Indices 1 2 3 4 5 6 
#
# 1 194.9783 3.1906 76.6779 0.0000 0.0000 0.0000
# 2 3.1906 68.3512 -4.9335 0.0000 0.0000 0.0000
# 3 76.6779 -4.9335 127.4862 0.0000 0.0000 0.0000
# 4 0.0000 0.0000 0.0000 8.7847 0.0000 0.0000
# 5 0.0000 0.0000 0.0000 0.0000 -41.4220 0.0000
# 6 0.0000 0.0000 0.0000 0.0000 0.0000 23.0416
#
#
#
# Elastic Compliance Matrix: (Units=1/GPa)
#
#
# Indices 1 2 3 4 5 6 
#
# 1 0.006743 -0.000609 -0.004079 0.000000 0.000000 0.000000
# 2 -0.000609 0.014726 0.000936 0.000000 0.000000 0.000000
# 3 -0.004079 0.000936 0.010334 0.000000 0.000000 0.000000
# 4 0.000000 0.000000 0.000000 0.113834 0.000000 0.000000
# 5 0.000000 0.000000 0.000000 0.000000 -0.024142 0.000000
# 6 0.000000 0.000000 0.000000 0.000000 0.000000 0.043400
#
#
# Mechanical properties :
#
#
# Convention : Reuss Voigt Hill
#
# Bulk Modulus (GPa) = 41.15433 60.07620 50.61526
# Shear Modulus (GPa) = 27.70103 19.13957 23.42030
#
# Velocity S-wave (km/s) = 3.52047 2.92630 3.23705
# Velocity P-wave (km/s) = 5.91082 6.18840 6.05120
#
# Compressibility (1/GPa) = 0.02429878
#
# Stress axis : x y z
#
# Youngs Moduli (GPa) = 148.30325 67.90556 96.77083
#
# Poissons Ratio (x) = 0.04137 0.39475
# Poissons Ratio (y) = 0.09034 -0.09060
# Poissons Ratio (z) = 0.60496 -0.06358
#
# Static dielectric constant tensor:
#      x y z
#    x 1.878230 0.000000 0.000000 
#    y 0.000000 1.888580 0.000000 
#    z 0.000000 0.000000 1.778830 
# 
# From -- ./inp_files/21153.got.cif
#   From: 2010.05.17/outbox.cif.g08.bks.cpg/sg38_11_cif.got.tgz:21153.got - 2010.06.03 18:07:57.
