data_PCOD9356461
_publ_section_title
;
Structure prediction by ZEFSAII (Michael W. Deem and Ramdas Pophale) SiO2 
 PCOD9356461
Probable space group: A M M 2
;
_chemical_formula_sum "Si O2"
_cell_formula_units_Z 56
_cell_length_a 7.894046
_cell_length_b 21.632218
_cell_length_c 14.791206
_cell_angle_alpha 90.000000
_cell_angle_beta 90.000000
_cell_angle_gamma 90.000000
_cell_volume 2525.831001
_symmetry_space_group_name_H-M "A M M 2"
_symmetry_group_IT_number 38
_symmetry_cell_setting 'orthorhombic'
loop_
_space_group_symop_operation_xyz
x,y,z
-x,-y,z
-x,y,z
x,-y,z
x,1/2+y,1/2+z
-x,1/2-y,1/2+z
-x,1/2+y,1/2+z
x,1/2-y,1/2+z
loop_
_atom_site_type_symbol
_atom_site_label
_atom_site_fract_x
_atom_site_fract_y
_atom_site_fract_z
Si Si1 0.320570 0.500000 0.061710
Si Si2 0.195012 0.684622 0.666465
Si Si3 0.189506 0.892433 0.675109
Si Si4 0.703814 0.571108 0.359786
Si Si5 0.296511 0.427877 0.563145
Si Si6 0.191219 0.000000 0.372345
Si Si7 0.208790 0.358366 0.856125
Si Si8 0.196051 0.716325 0.033616
O O1 0.500000 0.500000 0.012658
O O2 0.307101 0.441664 0.126473
O O3 0.186293 0.500000 0.981970
O O4 0.202440 0.614458 0.633376
O O5 0.264731 0.680736 0.768135
O O6 0.274379 0.723586 0.583028
O O7 0.000000 0.705974 0.674485
O O8 0.232626 0.886006 0.779794
O O9 0.197160 0.831112 0.617118
O O10 0.000000 0.917853 0.668173
O O11 0.500000 0.570826 0.359274
O O12 0.758765 0.500000 0.341244
O O13 0.757592 0.587920 0.460640
O O14 0.500000 0.418803 0.570566
O O15 0.263680 0.500000 0.576962
O O16 0.264396 0.931001 0.350839
O O17 0.000000 0.000000 0.335124
O O18 0.000000 0.360720 0.858056
O O19 0.264322 0.321604 0.946969
O O20 0.000000 0.731393 0.008819
#
# Coordination Sequence:
#
# PCOD9356461 Si02
#       8
#     4   8   8   8   8   4   8   8
#     4  12  22  32  50  81 116 147 184 241 296 336
#     4  10  21  36  59  86 109 142 189 240 286 336
#     4  11  20  32  54  82 111 150 192 232 280 340
#     4   9  18  33  52  76 109 147 181 221 278 337
#     4   9  20  39  58  77 110 152 184 223 289 350
#     4  10  18  34  58  79 108 153 194 231 282 348
#     4   9  18  33  56  84 115 148 185 232 290 341
#     4   9  19  35  54  80 114 148 184 229 286 343
#
# _framework density 22.170922999999998
#
# number of rings (size 3 to 8) (size 9 to 14) (size 15 to 20)
#    0.000    2.286    2.143    1.929    1.000    2.000 
#    0.000    6.429    0.000    0.000    0.000    0.000 
#    0.000    0.000    0.000    0.000    0.000    0.000 
#
# Total GULP energy -156083.501521 kJ/mol
# GULP energy per Si atom -5574.410769 kJ/mol
# Density = 2.212046 g / cm^3
# Si number density = 22.170923 Si / 1000 Ang^3
#
#
#
# Elastic Constant Matrix: (Units=GPa)
#
#
# Indices 1 2 3 4 5 6 
#
# 1 31.0298 7.0576 1.4258 0.0000 0.0000 0.0000
# 2 7.0576 70.9955 51.6460 0.0000 0.0000 0.0000
# 3 1.4258 51.6460 116.4242 0.0000 0.0000 0.0000
# 4 0.0000 0.0000 0.0000 16.9076 0.0000 0.0000
# 5 0.0000 0.0000 0.0000 0.0000 4.6841 0.0000
# 6 0.0000 0.0000 0.0000 0.0000 0.0000 11.9122
#
#
#
# Elastic Compliance Matrix: (Units=1/GPa)
#
#
# Indices 1 2 3 4 5 6 
#
# 1 0.033163 -0.004431 0.001560 0.000000 0.000000 0.000000
# 2 -0.004431 0.021389 -0.009434 0.000000 0.000000 0.000000
# 3 0.001560 -0.009434 0.012755 0.000000 0.000000 0.000000
# 4 0.000000 0.000000 0.000000 0.059145 0.000000 0.000000
# 5 0.000000 0.000000 0.000000 0.000000 0.213488 0.000000
# 6 0.000000 0.000000 0.000000 0.000000 0.000000 0.083947
#
#
# Mechanical properties :
#
#
# Convention : Reuss Voigt Hill
#
# Bulk Modulus (GPa) = 23.42142 37.63428 30.52785
# Shear Modulus (GPa) = 10.80544 17.25546 14.03045
#
# Velocity S-wave (km/s) = 2.21004 2.79282 2.51834
# Velocity P-wave (km/s) = 4.13513 5.23557 4.71755
#
# Compressibility (1/GPa) = 0.04269595
#
# Stress axis : x y z
#
# Youngs Moduli (GPa) = 30.15386 46.75409 78.40068
#
# Poissons Ratio (x) = 0.20718 -0.12227
# Poissons Ratio (y) = 0.13362 0.73961
# Poissons Ratio (z) = -0.04703 0.44106
#
# Static dielectric constant tensor:
#      x y z
#    x 1.827910 0.000000 0.000000 
#    y 0.000000 1.848470 0.000000 
#    z 0.000000 0.000000 1.807210 
# 
# From -- ./inp_files/12490.got.cif
#   From: 2010.05.17/outbox.cif.g08.bks.cpg/sg38_7_cif.got.tgz:12490.got - 2010.06.03 18:07:57.
