data_PCOD9356636
_publ_section_title
;
Structure prediction by ZEFSAII (Michael W. Deem and Ramdas Pophale) SiO2 
 PCOD9356636
Probable space group: A M M 2
;
_chemical_formula_sum "Si O2"
_cell_formula_units_Z 64
_cell_length_a 8.678823
_cell_length_b 23.914559
_cell_length_c 19.745329
_cell_angle_alpha 90.000000
_cell_angle_beta 90.000000
_cell_angle_gamma 90.000000
_cell_volume 4098.147470
_symmetry_space_group_name_H-M "A M M 2"
_symmetry_group_IT_number 38
_symmetry_cell_setting 'orthorhombic'
loop_
_space_group_symop_operation_xyz
x,y,z
-x,-y,z
-x,y,z
x,-y,z
x,1/2+y,1/2+z
-x,1/2-y,1/2+z
-x,1/2+y,1/2+z
x,1/2-y,1/2+z
loop_
_atom_site_type_symbol
_atom_site_label
_atom_site_fract_x
_atom_site_fract_y
_atom_site_fract_z
Si Si1 0.184604 0.435204 0.644900
Si Si2 0.314416 0.749063 0.278879
Si Si3 0.813477 0.063913 0.417795
Si Si4 0.815568 0.732055 0.135884
Si Si5 0.684757 0.839136 0.057673
Si Si6 0.315203 0.380666 0.781632
Si Si7 0.314204 0.272131 0.428089
Si Si8 0.185552 0.665725 0.006468
O O1 0.229865 0.500000 0.637764
O O2 0.243969 0.396439 0.584081
O O3 0.252989 0.409891 0.714066
O O4 0.000000 0.432079 0.648439
O O5 0.500000 0.745958 0.273390
O O6 0.241029 0.723296 0.211885
O O7 0.272328 0.814996 0.281659
O O8 0.266118 0.721818 0.350210
O O9 0.751752 0.089053 0.347602
O O10 0.764549 0.105856 0.477847
O O11 0.000000 0.064157 0.415054
O O12 0.762494 0.000000 0.426733
O O13 0.741944 0.789238 0.106845
O O14 0.000000 0.738006 0.134676
O O15 0.770011 0.683685 0.082491
O O16 0.500000 0.842060 0.061695
O O17 0.730470 0.819898 0.981893
O O18 0.500000 0.383969 0.782771
O O19 0.500000 0.268459 0.428966
O O20 0.250077 0.214049 0.457604
O O21 0.000000 0.667747 0.003275
#
# Coordination Sequence:
#
# PCOD9356636 Si02
#       8
#     8   8   8   8   8   8   8   8
#     4  11  23  36  49  66  93 129 163 195 231 271
#     4  10  19  31  47  70  97 126 155 187 231 282
#     4  10  20  33  48  66  93 129 164 197 233 273
#     4  10  19  30  47  69  94 122 154 195 236 279
#     4  10  19  32  50  70  91 120 155 195 236 278
#     4  11  21  32  47  68  96 129 163 196 226 267
#     4   9  18  32  49  68  93 120 151 189 235 282
#     4   9  18  31  46  67  92 120 157 195 233 274
#
# _framework density 15.616811999999999
#
# number of rings (size 3 to 8) (size 9 to 14) (size 15 to 20)
#    0.000    2.000    2.500    1.875    0.000    4.750 
#    0.000    0.000    0.000    0.000    0.000    0.875 
#    0.000    3.000    0.000    0.000    0.000    0.000 
#
# Total GULP energy -178519.572330 kJ/mol
# GULP energy per Si atom -5578.736635 kJ/mol
# Density = 1.558127 g / cm^3
# Si number density = 15.616812 Si / 1000 Ang^3
#
#
#
# Elastic Constant Matrix: (Units=GPa)
#
#
# Indices 1 2 3 4 5 6 
#
# 1 15.1007 21.1931 23.6842 0.0000 0.0000 0.0000
# 2 21.1931 88.6384 64.3236 0.0000 0.0000 0.0000
# 3 23.6842 64.3236 143.5867 0.0000 0.0000 0.0000
# 4 0.0000 0.0000 0.0000 20.0032 0.0000 0.0000
# 5 0.0000 0.0000 0.0000 0.0000 22.8087 0.0000
# 6 0.0000 0.0000 0.0000 0.0000 0.0000 13.7146
#
#
#
# Elastic Compliance Matrix: (Units=1/GPa)
#
#
# Indices 1 2 3 4 5 6 
#
# 1 0.107275 -0.018978 -0.009193 0.000000 0.000000 0.000000
# 2 -0.018978 0.020073 -0.005862 0.000000 0.000000 0.000000
# 3 -0.009193 -0.005862 0.011107 0.000000 0.000000 0.000000
# 4 0.000000 0.000000 0.000000 0.049992 0.000000 0.000000
# 5 0.000000 0.000000 0.000000 0.000000 0.043843 0.000000
# 6 0.000000 0.000000 0.000000 0.000000 0.000000 0.072915
#
#
# Mechanical properties :
#
#
# Convention : Reuss Voigt Hill
#
# Bulk Modulus (GPa) = 14.20670 51.74753 32.97712
# Shear Modulus (GPa) = 12.60291 20.51364 16.55828
#
# Velocity S-wave (km/s) = 2.84387 3.62824 3.25974
# Velocity P-wave (km/s) = 4.46097 7.12460 5.94391
#
# Compressibility (1/GPa) = 0.07038930
#
# Stress axis : x y z
#
# Youngs Moduli (GPa) = 9.32184 49.81741 90.03425
#
# Poissons Ratio (x) = 0.94542 0.82770
# Poissons Ratio (y) = 0.17691 0.52779
# Poissons Ratio (z) = 0.08570 0.29203
#
# Static dielectric constant tensor:
#      x y z
#    x 1.526700 0.000000 0.000000 
#    y 0.000000 1.506410 0.000000 
#    z 0.000000 0.000000 1.528740 
# 
# From -- ./inp_files/17271.got.cif
#   From: 2010.05.17/outbox.cif.g08.bks.cpg/sg38_9_cif.got.tgz:17271.got - 2010.06.03 18:07:57.
