data_PCOD9356544
_publ_section_title
;
Structure prediction by ZEFSAII (Michael W. Deem and Ramdas Pophale) SiO2 
 PCOD9356544
Probable space group: A M M 2
;
_chemical_formula_sum "Si O2"
_cell_formula_units_Z 64
_cell_length_a 9.129705
_cell_length_b 14.040977
_cell_length_c 35.436039
_cell_angle_alpha 90.000000
_cell_angle_beta 90.000000
_cell_angle_gamma 90.000000
_cell_volume 4542.545057
_symmetry_space_group_name_H-M "A M M 2"
_symmetry_group_IT_number 38
_symmetry_cell_setting 'orthorhombic'
loop_
_space_group_symop_operation_xyz
x,y,z
-x,-y,z
-x,y,z
x,-y,z
x,1/2+y,1/2+z
-x,1/2-y,1/2+z
-x,1/2+y,1/2+z
x,1/2-y,1/2+z
loop_
_atom_site_type_symbol
_atom_site_label
_atom_site_fract_x
_atom_site_fract_y
_atom_site_fract_z
Si Si1 0.331287 0.115938 0.196670
Si Si2 0.177034 0.292685 0.542253
Si Si3 0.675351 0.888329 0.349794
Si Si4 0.676000 0.787857 0.427874
Si Si5 0.823535 0.110120 0.963909
Si Si6 0.175813 0.112922 0.119284
Si Si7 0.168723 0.384073 0.772611
Si Si8 0.823614 0.109241 0.497779
O O1 0.500000 0.145542 0.196611
O O2 0.250663 0.144311 0.158166
O O3 0.250931 0.148242 0.234780
O O4 0.327878 0.000000 0.197167
O O5 0.217492 0.359691 0.506801
O O6 0.229878 0.330607 0.582427
O O7 0.218192 0.185798 0.529912
O O8 0.000000 0.295974 0.544325
O O9 0.500000 0.883466 0.344549
O O10 0.714515 0.827611 0.386591
O O11 0.753209 0.855717 0.311457
O O12 0.712397 0.000000 0.356389
O O13 0.500000 0.786454 0.431292
O O14 0.743107 0.684414 0.436737
O O15 0.744221 0.856993 0.459679
O O16 0.000000 0.122232 0.960683
O O17 0.788378 0.000000 0.957078
O O18 0.000000 0.123669 0.122840
O O19 0.204102 0.000000 0.113683
O O20 0.172497 0.500000 0.772147
O O21 0.000000 0.354578 0.772067
O O22 0.000000 0.117200 0.492335
O O23 0.789310 0.000000 0.506765
#
# Coordination Sequence:
#
# PCOD9356544 Si02
#       8
#     8   8   8   8   8   8   8   8
#     4   9  16  25  36  51  75 105 131 156 191 235
#     4   8  14  25  41  60  79 102 135 171 205 240
#     4   9  17  28  40  55  79 110 138 164 198 239
#     4  10  19  29  42  61  84 109 138 171 206 246
#     4   9  17  30  46  61  80 108 140 173 209 246
#     4   9  15  23  37  55  75 101 133 166 196 231
#     4   9  16  25  38  56  76 100 132 165 194 229
#     4   9  17  29  44  60  80 108 141 175 209 245
#
# _framework density 14.089017999999999
#
# number of rings (size 3 to 8) (size 9 to 14) (size 15 to 20)
#    0.000    3.000    0.000    2.625    0.000    6.500 
#    0.000    3.750    0.000    3.000    0.000    0.000 
#    0.000    1.000    0.000    5.250    0.000    2.625 
#
# Total GULP energy -178175.887077 kJ/mol
# GULP energy per Si atom -5567.996471 kJ/mol
# Density = 1.405695 g / cm^3
# Si number density = 14.089018 Si / 1000 Ang^3
#
#
#
# Elastic Constant Matrix: (Units=GPa)
#
#
# Indices 1 2 3 4 5 6 
#
# 1 43.5094 33.5041 58.8270 0.0000 0.0000 0.0000
# 2 33.5041 74.8583 58.5820 0.0000 0.0000 0.0000
# 3 58.8270 58.5820 156.1501 0.0000 0.0000 0.0000
# 4 0.0000 0.0000 0.0000 19.7335 0.0000 0.0000
# 5 0.0000 0.0000 0.0000 0.0000 1289.6010 0.0000
# 6 0.0000 0.0000 0.0000 0.0000 0.0000 13.1667
#
#
#
# Elastic Compliance Matrix: (Units=1/GPa)
#
#
# Indices 1 2 3 4 5 6 
#
# 1 0.052981 -0.011456 -0.015662 0.000000 0.000000 0.000000
# 2 -0.011456 0.021388 -0.003708 0.000000 0.000000 0.000000
# 3 -0.015662 -0.003708 0.013696 0.000000 0.000000 0.000000
# 4 0.000000 0.000000 0.000000 0.050675 0.000000 0.000000
# 5 0.000000 0.000000 0.000000 0.000000 0.000775 0.000000
# 6 0.000000 0.000000 0.000000 0.000000 0.000000 0.075949
#
#
# Mechanical properties :
#
#
# Convention : Reuss Voigt Hill
#
# Bulk Modulus (GPa) = 37.86109 64.03823 50.94966
# Shear Modulus (GPa) = 17.48747 272.74056 145.11401
#
# Velocity S-wave (km/s) = 3.52691 13.92853 10.15980
# Velocity P-wave (km/s) = 6.59671 17.44200 13.18597
#
# Compressibility (1/GPa) = 0.02641234
#
# Stress axis : x y z
#
# Youngs Moduli (GPa) = 18.87486 46.75583 73.01659
#
# Poissons Ratio (x) = 0.53563 1.14356
# Poissons Ratio (y) = 0.21623 0.27075
# Poissons Ratio (z) = 0.29561 0.17337
#
# Static dielectric constant tensor:
#      x y z
#    x 1.463580 0.000000 0.000000 
#    y 0.000000 1.448680 0.000000 
#    z 0.000000 0.000000 1.456820 
# 
# From -- ./inp_files/24770.got.cif
#   From: 2010.05.17/outbox.cif.g08.bks.cpg/sg38_13_cif.got.tgz:24770.got - 2010.06.03 18:07:57.
