data_PCOD9356368
_publ_section_title
;
Structure prediction by ZEFSAII (Michael W. Deem and Ramdas Pophale) SiO2 
 PCOD9356368
Probable space group: A M M 2
;
_chemical_formula_sum "Si O2"
_cell_formula_units_Z 56
_cell_length_a 7.577754
_cell_length_b 17.174297
_cell_length_c 20.815517
_cell_angle_alpha 90.000000
_cell_angle_beta 90.000000
_cell_angle_gamma 90.000000
_cell_volume 2708.985457
_symmetry_space_group_name_H-M "A M M 2"
_symmetry_group_IT_number 38
_symmetry_cell_setting 'orthorhombic'
loop_
_space_group_symop_operation_xyz
x,y,z
-x,-y,z
-x,y,z
x,-y,z
x,1/2+y,1/2+z
-x,1/2-y,1/2+z
-x,1/2+y,1/2+z
x,1/2-y,1/2+z
loop_
_atom_site_type_symbol
_atom_site_label
_atom_site_fract_x
_atom_site_fract_y
_atom_site_fract_z
Si Si1 0.713314 0.586006 0.472910
Si Si2 0.217923 0.831123 0.777199
Si Si3 0.708901 0.500000 0.089710
Si Si4 0.210254 0.335349 0.024119
Si Si5 0.790202 0.000000 0.743271
Si Si6 0.797653 0.255158 0.404318
Si Si7 0.794602 0.752417 0.648642
Si Si8 0.712407 0.416047 0.623723
O O1 0.500000 0.591211 0.468083
O O2 0.766283 0.500000 0.448253
O O3 0.794387 0.660690 0.439305
O O4 0.760054 0.588543 0.548361
O O5 0.276529 0.920957 0.776208
O O6 0.281842 0.776970 0.835315
O O7 0.279298 0.796805 0.709472
O O8 0.000000 0.830811 0.779395
O O9 0.500000 0.500000 0.091399
O O10 0.765706 0.577361 0.050736
O O11 0.765907 0.500000 0.165110
O O12 0.283109 0.279572 0.080638
O O13 0.000000 0.321792 0.018856
O O14 0.281347 0.307054 0.954852
O O15 0.000000 0.000000 0.752135
O O16 0.000000 0.231102 0.391966
O O17 0.781639 0.660569 0.657120
O O18 0.000000 0.774890 0.646012
O O19 0.500000 0.414288 0.626766
O O20 0.772763 0.500000 0.648599
#
# Coordination Sequence:
#
# PCOD9356368 Si02
#       8
#     8   8   4   8   4   8   8   8
#     4   9  18  31  46  70 107 143 167 199 251 303
#     4   9  19  33  53  79 110 143 176 217 275 334
#     4  12  24  36  58  88 110 137 188 240 275 324
#     4  10  20  36  57  81 109 141 178 225 281 328
#     4  10  18  36  58  80 118 157 178 214 283 340
#     4  10  20  34  54  80 104 137 183 222 259 320
#     4  10  18  32  54  79 104 134 173 220 269 320
#     4   9  18  32  50  73 102 136 172 209 258 313
#
# _framework density 20.671945999999998
#
# number of rings (size 3 to 8) (size 9 to 14) (size 15 to 20)
#    0.000    2.286    2.857    1.500    1.000    1.714 
#    0.000    2.857    1.571    0.000    0.000    0.000 
#    0.000    0.000    0.000    0.000    0.000    0.000 
#
# Total GULP energy -156163.832015 kJ/mol
# GULP energy per Si atom -5577.279715 kJ/mol
# Density = 2.062490 g / cm^3
# Si number density = 20.671946 Si / 1000 Ang^3
#
#
#
# Elastic Constant Matrix: (Units=GPa)
#
#
# Indices 1 2 3 4 5 6 
#
# 1 46.3219 -12.2055 6.3641 0.0000 0.0000 0.0000
# 2 -12.2055 92.0807 33.9998 0.0000 0.0000 0.0000
# 3 6.3641 33.9998 88.8038 0.0000 0.0000 0.0000
# 4 0.0000 0.0000 0.0000 30.2884 0.0000 0.0000
# 5 0.0000 0.0000 0.0000 0.0000 -5.5120 0.0000
# 6 0.0000 0.0000 0.0000 0.0000 0.0000 33.2233
#
#
#
# Elastic Compliance Matrix: (Units=1/GPa)
#
#
# Indices 1 2 3 4 5 6 
#
# 1 0.023173 0.004291 -0.003304 0.000000 0.000000 0.000000
# 2 0.004291 0.013443 -0.005454 0.000000 0.000000 0.000000
# 3 -0.003304 -0.005454 0.013586 0.000000 0.000000 0.000000
# 4 0.000000 0.000000 0.000000 0.033016 0.000000 0.000000
# 5 0.000000 0.000000 0.000000 0.000000 -0.181422 0.000000
# 6 0.000000 0.000000 0.000000 0.000000 0.000000 0.030099
#
#
# Mechanical properties :
#
#
# Convention : Reuss Voigt Hill
#
# Bulk Modulus (GPa) = 24.23174 31.50259 27.86717
# Shear Modulus (GPa) = -110.09345 24.86979 -42.61183
#
# Velocity S-wave (km/s) = -7.30569 3.47229 -4.54512
# Velocity P-wave (km/s) = 7.70821 5.59894 3.74623
#
# Compressibility (1/GPa) = 0.04126818
#
# Stress axis : x y z
#
# Youngs Moduli (GPa) = 43.15421 74.38908 73.60627
#
# Poissons Ratio (x) = -0.31924 0.24317
# Poissons Ratio (y) = -0.18519 0.40147
# Poissons Ratio (z) = 0.14257 0.40574
#
# Static dielectric constant tensor:
#      x y z
#    x 1.769030 0.000000 0.000000 
#    y 0.000000 1.754820 0.000000 
#    z 0.000000 0.000000 1.764600 
# 
# From -- ./inp_files/19897.got.cif
#   From: 2010.05.17/outbox.cif.g08.bks.cpg/sg38_10_cif.got.tgz:19897.got - 2010.06.03 18:07:57.
