data_PCOD9356662
_publ_section_title
;
Structure prediction by ZEFSAII (Michael W. Deem and Ramdas Pophale) SiO2 
 PCOD9356662
Probable space group: A M M 2
;
_chemical_formula_sum "Si O2"
_cell_formula_units_Z 64
_cell_length_a 8.751360
_cell_length_b 28.925436
_cell_length_c 14.881576
_cell_angle_alpha 90.000000
_cell_angle_beta 90.000000
_cell_angle_gamma 90.000000
_cell_volume 3767.076069
_symmetry_space_group_name_H-M "A M M 2"
_symmetry_group_IT_number 38
_symmetry_cell_setting 'orthorhombic'
loop_
_space_group_symop_operation_xyz
x,y,z
-x,-y,z
-x,y,z
x,-y,z
x,1/2+y,1/2+z
-x,1/2-y,1/2+z
-x,1/2+y,1/2+z
x,1/2-y,1/2+z
loop_
_atom_site_type_symbol
_atom_site_label
_atom_site_fract_x
_atom_site_fract_y
_atom_site_fract_z
Si Si1 0.815283 0.946788 0.316090
Si Si2 0.817387 0.866794 0.629665
Si Si3 0.816011 0.365123 0.689535
Si Si4 0.317359 0.946317 0.510512
Si Si5 0.318887 0.282509 0.017200
Si Si6 0.815316 0.681725 0.512609
Si Si7 0.815846 0.818591 0.807385
Si Si8 0.680575 0.718143 0.803885
O O1 0.762534 0.911582 0.239084
O O2 0.750417 0.932793 0.413286
O O3 0.000000 0.945334 0.320807
O O4 0.769685 0.000000 0.299267
O O5 0.743929 0.911958 0.585942
O O6 0.764169 0.822370 0.572385
O O7 0.772097 0.855942 0.732520
O O8 0.000000 0.870744 0.624970
O O9 0.767469 0.355523 0.587115
O O10 0.761932 0.321464 0.747549
O O11 0.000000 0.366325 0.690018
O O12 0.500000 0.943321 0.506054
O O13 0.274314 0.000000 0.526553
O O14 0.500000 0.283916 0.035043
O O15 0.253987 0.231601 0.037588
O O16 0.294766 0.289905 0.910413
O O17 0.769877 0.670673 0.410038
O O18 0.000000 0.685699 0.514466
O O19 0.745670 0.768872 0.782880
O O20 0.000000 0.814180 0.805435
O O21 0.500000 0.717274 0.786390
#
# Coordination Sequence:
#
# PCOD9356662 Si02
#       8
#     8   8   8   8   8   8   8   8
#     4   9  18  33  52  74  99 125 154 191 236 286
#     4  11  21  32  50  73  95 125 163 198 236 282
#     4  10  19  30  48  71  94 124 160 195 235 283
#     4  10  21  36  53  74  99 125 153 189 236 286
#     4  10  20  32  46  69 100 130 161 197 237 281
#     4   9  18  33  49  66  94 130 164 198 236 278
#     4   9  19  34  49  66  93 128 163 197 233 275
#     4  10  20  31  45  68  98 128 158 194 235 280
#
# _framework density 16.989304000000001
#
# number of rings (size 3 to 8) (size 9 to 14) (size 15 to 20)
#    0.000    2.250    0.000    3.000    0.000    9.250 
#    0.000    0.000    0.000    0.750    0.000    3.500 
#    0.000    2.000    0.000    0.000    0.000    0.000 
#
# Total GULP energy -178597.283148 kJ/mol
# GULP energy per Si atom -5581.165098 kJ/mol
# Density = 1.695064 g / cm^3
# Si number density = 16.989304 Si / 1000 Ang^3
#
#
#
# Elastic Constant Matrix: (Units=GPa)
#
#
# Indices 1 2 3 4 5 6 
#
# 1 11.4604 17.2032 21.9507 0.0000 0.0000 0.0000
# 2 17.2032 89.2615 75.9301 0.0000 0.0000 0.0000
# 3 21.9507 75.9301 91.7164 0.0000 0.0000 0.0000
# 4 0.0000 0.0000 0.0000 33.3803 0.0000 0.0000
# 5 0.0000 0.0000 0.0000 0.0000 11.6824 0.0000
# 6 0.0000 0.0000 0.0000 0.0000 0.0000 16.7805
#
#
#
# Elastic Compliance Matrix: (Units=1/GPa)
#
#
# Indices 1 2 3 4 5 6 
#
# 1 0.162041 0.005950 -0.043707 0.000000 0.000000 0.000000
# 2 0.005950 0.038096 -0.032963 0.000000 0.000000 0.000000
# 3 -0.043707 -0.032963 0.048653 0.000000 0.000000 0.000000
# 4 0.000000 0.000000 0.000000 0.029958 0.000000 0.000000
# 5 0.000000 0.000000 0.000000 0.000000 0.085599 0.000000
# 6 0.000000 0.000000 0.000000 0.000000 0.000000 0.059593
#
#
# Mechanical properties :
#
#
# Convention : Reuss Voigt Hill
#
# Bulk Modulus (GPa) = 9.31541 46.95624 28.13583
# Shear Modulus (GPa) = 8.31720 17.52561 12.92141
#
# Velocity S-wave (km/s) = 2.21499 3.21529 2.76082
# Velocity P-wave (km/s) = 3.46938 6.44071 5.17298
#
# Compressibility (1/GPa) = 0.10734899
#
# Stress axis : x y z
#
# Youngs Moduli (GPa) = 6.17129 26.24922 20.55360
#
# Poissons Ratio (x) = -0.15618 0.89834
# Poissons Ratio (y) = -0.03672 0.67751
# Poissons Ratio (z) = 0.26973 0.86526
#
# Static dielectric constant tensor:
#      x y z
#    x 1.565220 0.000000 0.000000 
#    y 0.000000 1.551570 0.000000 
#    z 0.000000 0.000000 1.595750 
# 
# From -- ./inp_files/13081.got.cif
#   From: 2010.05.17/outbox.cif.g08.bks.cpg/sg38_7_cif.got.tgz:13081.got - 2010.06.03 18:07:57.
