data_PCOD9356615
_publ_section_title
;
Structure prediction by ZEFSAII (Michael W. Deem and Ramdas Pophale) SiO2 
 PCOD9356615
Probable space group: A M M 2
;
_chemical_formula_sum "Si O2"
_cell_formula_units_Z 52
_cell_length_a 34.323423
_cell_length_b 14.504843
_cell_length_c 5.081053
_cell_angle_alpha 90.000000
_cell_angle_beta 90.000000
_cell_angle_gamma 90.000000
_cell_volume 2529.632020
_symmetry_space_group_name_H-M "A M M 2"
_symmetry_group_IT_number 38
_symmetry_cell_setting 'orthorhombic'
loop_
_space_group_symop_operation_xyz
x,y,z
-x,-y,z
-x,y,z
x,-y,z
x,1/2+y,1/2+z
-x,1/2-y,1/2+z
-x,1/2+y,1/2+z
x,1/2-y,1/2+z
loop_
_atom_site_type_symbol
_atom_site_label
_atom_site_fract_x
_atom_site_fract_y
_atom_site_fract_z
Si Si1 0.623813 0.185296 0.775910
Si Si2 0.209979 0.889277 0.628044
Si Si3 0.705664 0.188809 0.652231
Si Si4 0.918016 0.310770 0.781132
Si Si5 0.835301 0.389332 0.627070
Si Si6 0.542225 0.684867 0.157703
Si Si7 0.000000 0.814026 0.155435
O O1 0.623644 0.271296 0.567474
O O2 0.665113 0.137172 0.718265
O O3 0.583051 0.134475 0.716028
O O4 0.253739 0.861610 0.696397
O O5 0.196019 0.856913 0.342700
O O6 0.208493 0.000000 0.625888
O O7 0.178792 0.855734 0.843215
O O8 0.704985 0.225012 0.353870
O O9 0.918381 0.223229 0.581423
O O10 0.878381 0.361760 0.712243
O O11 0.958746 0.361831 0.714816
O O12 0.834049 0.500000 0.621087
O O13 0.500000 0.637733 0.191018
O O14 0.542942 0.768982 0.369607
O O15 0.000000 0.727821 0.362618
#
# Coordination Sequence:
#
# PCOD9356615 Si02
#       7
#     8   8   8   8   8   8   4
#     4   8  14  23  34  52  77 102 130 169 212 246
#     4  10  21  35  48  64  91 122 148 180 224 267
#     4  10  19  30  46  66  87 112 146 186 220 256
#     4  10  19  32  52  74  95 121 152 183 215 258
#     4  10  21  35  49  68  94 120 147 184 225 259
#     4   8  12  18  29  45  68  99 129 156 196 251
#     4   8  16  30  47  70  97 120 144 178 218 254
#
# _framework density 20.556350999999999
#
# number of rings (size 3 to 8) (size 9 to 14) (size 15 to 20)
#    0.000    2.769    0.000    1.846    0.000    3.692 
#    0.000    0.385    0.000    0.000    0.000    9.692 
#    0.000    0.615    0.000    0.000    0.000  156.308 
#
# Total GULP energy -144826.323395 kJ/mol
# GULP energy per Si atom -5570.243207 kJ/mol
# Density = 2.050956 g / cm^3
# Si number density = 20.556351 Si / 1000 Ang^3
#
#
#
# Elastic Constant Matrix: (Units=GPa)
#
#
# Indices 1 2 3 4 5 6 
#
# 1 154.7385 -0.8731 -5.5906 0.0000 0.0000 0.0000
# 2 -0.8731 18.5168 -4.3691 0.0000 0.0000 0.0000
# 3 -5.5906 -4.3691 87.6904 0.0000 0.0000 0.0000
# 4 0.0000 0.0000 0.0000 3.7622 0.0000 0.0000
# 5 0.0000 0.0000 0.0000 0.0000 34.2791 0.0000
# 6 0.0000 0.0000 0.0000 0.0000 0.0000 -10.9269
#
#
#
# Elastic Compliance Matrix: (Units=1/GPa)
#
#
# Indices 1 2 3 4 5 6 
#
# 1 0.006480 0.000408 0.000433 0.000000 0.000000 0.000000
# 2 0.000408 0.054673 0.002750 0.000000 0.000000 0.000000
# 3 0.000433 0.002750 0.011568 0.000000 0.000000 0.000000
# 4 0.000000 0.000000 0.000000 0.265803 0.000000 0.000000
# 5 0.000000 0.000000 0.000000 0.000000 0.029172 0.000000
# 6 0.000000 0.000000 0.000000 0.000000 0.000000 -0.091518
#
#
# Mechanical properties :
#
#
# Convention : Reuss Voigt Hill
#
# Bulk Modulus (GPa) = 12.51491 26.58667 19.55079
# Shear Modulus (GPa) = 16.91295 23.54146 20.22720
#
# Velocity S-wave (km/s) = 2.87149 3.38777 3.14026
# Velocity P-wave (km/s) = 4.13464 5.31642 4.76233
#
# Compressibility (1/GPa) = 0.07990467
#
# Stress axis : x y z
#
# Youngs Moduli (GPa) = 154.30960 18.29055 86.44231
#
# Poissons Ratio (x) = -0.00746 -0.03747
# Poissons Ratio (y) = -0.06294 -0.23772
# Poissons Ratio (z) = -0.06689 -0.05030
#
# Static dielectric constant tensor:
#      x y z
#    x 1.838790 0.000000 0.000000 
#    y 0.000000 1.684700 0.000000 
#    z 0.000000 0.000000 1.718510 
# 
# From -- ./inp_files/2226.got.cif
#   From: 2010.05.17/outbox.cif.g08.bks.cpg/sg38_2_cif.got.tgz:2226.got - 2010.06.03 18:07:57.
