data_PCOD9356755
_publ_section_title
;
Structure prediction by ZEFSAII (Michael W. Deem and Ramdas Pophale) SiO2 
 PCOD9356755
Probable space group: A M M 2
;
_chemical_formula_sum "Si O2"
_cell_formula_units_Z 56
_cell_length_a 24.639611
_cell_length_b 7.506133
_cell_length_c 14.844607
_cell_angle_alpha 90.000000
_cell_angle_beta 90.000000
_cell_angle_gamma 90.000000
_cell_volume 2745.483303
_symmetry_space_group_name_H-M "A M M 2"
_symmetry_group_IT_number 38
_symmetry_cell_setting 'orthorhombic'
loop_
_space_group_symop_operation_xyz
x,y,z
-x,-y,z
-x,y,z
x,-y,z
x,1/2+y,1/2+z
-x,1/2-y,1/2+z
-x,1/2+y,1/2+z
x,1/2-y,1/2+z
loop_
_atom_site_type_symbol
_atom_site_label
_atom_site_fract_x
_atom_site_fract_y
_atom_site_fract_z
Si Si1 0.938138 0.784652 0.650220
Si Si2 0.149311 0.711134 0.503912
Si Si3 0.560413 0.784830 0.782935
Si Si4 0.232315 0.216073 0.155644
Si Si5 0.353948 0.707342 0.633095
Si Si6 0.439635 0.782416 0.991348
Si Si7 0.144809 0.789501 0.801385
O O1 0.906313 0.736248 0.559067
O O2 0.901996 0.717897 0.734524
O O3 0.000000 0.721849 0.652254
O O4 0.938723 0.000000 0.654405
O O5 0.159479 0.500000 0.495975
O O6 0.196392 0.780498 0.570650
O O7 0.147300 0.784551 0.402575
O O8 0.500000 0.725881 0.753172
O O9 0.608473 0.717541 0.720962
O O10 0.561103 0.000000 0.779455
O O11 0.567133 0.732696 0.887119
O O12 0.294001 0.281528 0.148949
O O13 0.200700 0.268720 0.246332
O O14 0.232057 0.000000 0.155023
O O15 0.345502 0.500000 0.609883
O O16 0.391314 0.784970 0.553799
O O17 0.500000 0.725151 0.021259
O O18 0.439673 0.000000 0.994951
O O19 0.133722 0.000000 0.810189
#
# Coordination Sequence:
#
# PCOD9356755 Si02
#       7
#     8   8   8   8   8   8   8
#     4   9  18  32  49  73 104 130 154 190 236 284
#     4   9  18  33  52  72  95 127 166 202 234 272
#     4   9  18  32  49  70  95 122 155 196 239 284
#     4   9  19  33  47  69  99 125 156 200 240 277
#     4  10  19  31  49  71  94 123 158 195 237 284
#     4   8  15  29  48  68  91 121 154 187 230 285
#     4   9  18  33  53  73  94 126 163 196 234 278
#
# _framework density 20.397138000000002
#
# number of rings (size 3 to 8) (size 9 to 14) (size 15 to 20)
#    0.000    3.000    0.000    1.286    0.000    4.000 
#    0.000    5.000    0.000    0.857    0.000    0.000 
#    0.000    0.000    0.000    0.000    0.000    0.000 
#
# Total GULP energy -156187.562184 kJ/mol
# GULP energy per Si atom -5578.127221 kJ/mol
# Density = 2.035071 g / cm^3
# Si number density = 20.397138 Si / 1000 Ang^3
#
#
#
# Elastic Constant Matrix: (Units=GPa)
#
#
# Indices 1 2 3 4 5 6 
#
# 1 172.8357 -11.9312 87.1828 0.0000 0.0000 0.0000
# 2 -11.9312 47.6406 -1.3027 0.0000 0.0000 0.0000
# 3 87.1828 -1.3027 158.5687 0.0000 0.0000 0.0000
# 4 0.0000 0.0000 0.0000 1.1548 0.0000 0.0000
# 5 0.0000 0.0000 0.0000 0.0000 19.0525 0.0000
# 6 0.0000 0.0000 0.0000 0.0000 0.0000 14.1686
#
#
#
# Elastic Compliance Matrix: (Units=1/GPa)
#
#
# Indices 1 2 3 4 5 6 
#
# 1 0.008179 0.001926 -0.004481 0.000000 0.000000 0.000000
# 2 0.001926 0.021449 -0.000883 0.000000 0.000000 0.000000
# 3 -0.004481 -0.000883 0.008763 0.000000 0.000000 0.000000
# 4 0.000000 0.000000 0.000000 0.865932 0.000000 0.000000
# 5 0.000000 0.000000 0.000000 0.000000 0.052487 0.000000
# 6 0.000000 0.000000 0.000000 0.000000 0.000000 0.070579
#
#
# Mechanical properties :
#
#
# Convention : Reuss Voigt Hill
#
# Bulk Modulus (GPa) = 31.73097 58.54919 45.14008
# Shear Modulus (GPa) = 4.78574 27.21492 16.00033
#
# Velocity S-wave (km/s) = 1.53342 3.65670 2.80382
# Velocity P-wave (km/s) = 4.32730 6.82609 5.71494
#
# Compressibility (1/GPa) = 0.03151495
#
# Stress axis : x y z
#
# Youngs Moduli (GPa) = 122.26101 46.62287 114.11647
#
# Poissons Ratio (x) = -0.08979 0.51138
# Poissons Ratio (y) = -0.23546 0.10073
# Poissons Ratio (z) = 0.54788 0.04115
#
# Static dielectric constant tensor:
#      x y z
#    x 1.707270 0.000000 0.000000 
#    y 0.000000 1.782270 0.000000 
#    z 0.000000 0.000000 1.710080 
# 
# From -- ./inp_files/10747.got.cif
#   From: 2010.05.17/outbox.cif.g08.bks.cpg/sg38_6_cif.got.tgz:10747.got - 2010.06.03 18:07:57.
