data_PCOD9356618
_publ_section_title
;
Structure prediction by ZEFSAII (Michael W. Deem and Ramdas Pophale) SiO2 
 PCOD9356618
Probable space group: A M M 2
;
_chemical_formula_sum "Si O2"
_cell_formula_units_Z 56
_cell_length_a 8.742809
_cell_length_b 14.006058
_cell_length_c 30.150328
_cell_angle_alpha 90.000000
_cell_angle_beta 90.000000
_cell_angle_gamma 90.000000
_cell_volume 3691.976706
_symmetry_space_group_name_H-M "A M M 2"
_symmetry_group_IT_number 38
_symmetry_cell_setting 'orthorhombic'
loop_
_space_group_symop_operation_xyz
x,y,z
-x,-y,z
-x,y,z
x,-y,z
x,1/2+y,1/2+z
-x,1/2-y,1/2+z
-x,1/2+y,1/2+z
x,1/2-y,1/2+z
loop_
_atom_site_type_symbol
_atom_site_label
_atom_site_fract_x
_atom_site_fract_y
_atom_site_fract_z
Si Si1 0.183454 0.389602 0.347520
Si Si2 0.183408 0.889332 0.309240
Si Si3 0.822676 0.884167 0.577319
Si Si4 0.185336 0.387542 0.175639
Si Si5 0.315638 0.212434 0.395172
Si Si6 0.683683 0.889875 0.484850
Si Si7 0.317284 0.788009 0.761462
O O1 0.220476 0.500000 0.355871
O O2 0.252207 0.316888 0.383407
O O3 0.251074 0.356010 0.300318
O O4 0.000000 0.379033 0.346025
O O5 0.251469 0.856169 0.356507
O O6 0.253716 0.816774 0.273494
O O7 0.000000 0.877558 0.310277
O O8 0.218989 0.000000 0.300923
O O9 0.765636 0.855323 0.626142
O O10 0.737051 0.853738 0.532890
O O11 0.000000 0.856537 0.573581
O O12 0.816648 0.000000 0.578112
O O13 0.224113 0.500000 0.181253
O O14 0.258680 0.326721 0.214627
O O15 0.000000 0.381220 0.177455
O O16 0.500000 0.212890 0.392748
O O17 0.266617 0.173073 0.443055
O O18 0.500000 0.891880 0.484519
O O19 0.737499 0.000000 0.479309
O O20 0.500000 0.788192 0.763578
#
# Coordination Sequence:
#
# PCOD9356618 Si02
#       7
#     8   8   8   8   8   8   8
#     4  10  20  33  47  63  87 118 150 186 223 258
#     4  10  20  33  48  65  87 117 151 185 219 257
#     4   8  15  27  43  63  86 115 149 181 214 253
#     4   9  17  30  46  64  90 121 150 182 219 259
#     4  10  19  30  46  67  91 119 149 181 219 263
#     4   9  17  28  42  63  92 121 145 174 216 262
#     4  11  21  30  45  68  91 117 148 181 219 264
#
# _framework density 15.168027
#
# number of rings (size 3 to 8) (size 9 to 14) (size 15 to 20)
#    0.000    2.429    0.000    6.000    0.000    6.571 
#    0.000    2.857    0.000    0.000    0.000    1.000 
#    0.000    5.714    0.000    0.000    0.000    0.000 
#
# Total GULP energy -156092.626593 kJ/mol
# GULP energy per Si atom -5574.736664 kJ/mol
# Density = 1.513350 g / cm^3
# Si number density = 15.168027 Si / 1000 Ang^3
#
#
#
# Elastic Constant Matrix: (Units=GPa)
#
#
# Indices 1 2 3 4 5 6 
#
# 1 55.3470 42.7359 45.8751 0.0000 0.0000 0.0000
# 2 42.7359 102.4949 73.6082 0.0000 0.0000 0.0000
# 3 45.8751 73.6082 154.3077 0.0000 0.0000 0.0000
# 4 0.0000 0.0000 0.0000 24.0587 0.0000 0.0000
# 5 0.0000 0.0000 0.0000 0.0000 28.6536 0.0000
# 6 0.0000 0.0000 0.0000 0.0000 0.0000 14.1243
#
#
#
# Elastic Compliance Matrix: (Units=1/GPa)
#
#
# Indices 1 2 3 4 5 6 
#
# 1 0.028364 -0.008778 -0.004245 0.000000 0.000000 0.000000
# 2 -0.008778 0.017557 -0.005766 0.000000 0.000000 0.000000
# 3 -0.004245 -0.005766 0.010493 0.000000 0.000000 0.000000
# 4 0.000000 0.000000 0.000000 0.041565 0.000000 0.000000
# 5 0.000000 0.000000 0.000000 0.000000 0.034900 0.000000
# 6 0.000000 0.000000 0.000000 0.000000 0.000000 0.070800
#
#
# Mechanical properties :
#
#
# Convention : Reuss Voigt Hill
#
# Bulk Modulus (GPa) = 53.08696 70.73200 61.90948
# Shear Modulus (GPa) = 20.19911 23.36269 21.78090
#
# Velocity S-wave (km/s) = 3.65319 3.92887 3.79354
# Velocity P-wave (km/s) = 7.27115 8.20457 7.75192
#
# Compressibility (1/GPa) = 0.01883702
#
# Stress axis : x y z
#
# Youngs Moduli (GPa) = 35.25542 56.95682 95.30162
#
# Poissons Ratio (x) = 0.49996 0.40460
# Poissons Ratio (y) = 0.30947 0.54947
# Poissons Ratio (z) = 0.14967 0.32839
#
# Static dielectric constant tensor:
#      x y z
#    x 1.511000 0.000000 0.000000 
#    y 0.000000 1.490570 0.000000 
#    z 0.000000 0.000000 1.502710 
# 
# From -- ./inp_files/24656.got.cif
#   From: 2010.05.17/outbox.cif.g08.bks.cpg/sg38_13_cif.got.tgz:24656.got - 2010.06.03 18:07:57.
