data_PCOD9356629
_publ_section_title
;
Structure prediction by ZEFSAII (Michael W. Deem and Ramdas Pophale) SiO2 
 PCOD9356629
Probable space group: A M M 2
;
_chemical_formula_sum "Si O2"
_cell_formula_units_Z 64
_cell_length_a 7.709601
_cell_length_b 14.951913
_cell_length_c 25.176366
_cell_angle_alpha 90.000000
_cell_angle_beta 90.000000
_cell_angle_gamma 90.000000
_cell_volume 2902.162373
_symmetry_space_group_name_H-M "A M M 2"
_symmetry_group_IT_number 38
_symmetry_cell_setting 'orthorhombic'
loop_
_space_group_symop_operation_xyz
x,y,z
-x,-y,z
-x,y,z
x,-y,z
x,1/2+y,1/2+z
-x,1/2-y,1/2+z
-x,1/2+y,1/2+z
x,1/2-y,1/2+z
loop_
_atom_site_type_symbol
_atom_site_label
_atom_site_fract_x
_atom_site_fract_y
_atom_site_fract_z
Si Si1 0.302045 0.098554 0.046780
Si Si2 0.712693 0.602102 0.153322
Si Si3 0.196438 0.661289 0.928929
Si Si4 0.200458 0.374486 0.431113
Si Si5 0.706653 0.400602 0.811464
Si Si6 0.293526 0.698132 0.047120
Si Si7 0.695716 0.745090 0.238275
Si Si8 0.209459 0.904534 0.813610
O O1 0.500000 0.099805 0.067212
O O2 0.222781 0.199077 0.055408
O O3 0.227173 0.000000 0.063025
O O4 0.303717 0.098098 0.982683
O O5 0.500000 0.601305 0.157105
O O6 0.770352 0.500000 0.163874
O O7 0.763029 0.633544 0.094357
O O8 0.775241 0.681887 0.192445
O O9 0.203138 0.768240 0.923821
O O10 0.273314 0.624561 0.873882
O O11 0.000000 0.628665 0.929399
O O12 0.263720 0.652948 0.989425
O O13 0.258962 0.409482 0.374859
O O14 0.000000 0.400341 0.440316
O O15 0.500000 0.401066 0.802560
O O16 0.776698 0.500000 0.803678
O O17 0.778113 0.331105 0.767361
O O18 0.500000 0.709219 0.051141
O O19 0.500000 0.768475 0.220310
O O20 0.692211 0.674969 0.286413
O O21 0.000000 0.889389 0.811645
O O22 0.246961 0.000000 0.787670
#
# Coordination Sequence:
#
# PCOD9356629 Si02
#       8
#     8   8   8   8   8   8   8   8
#     4   9  17  28  43  67  99 133 170 210 252 301
#     4   9  18  34  56  80 104 134 175 221 269 319
#     4  10  19  33  54  79 108 141 178 220 264 310
#     4   9  17  29  45  67  99 136 170 204 249 308
#     4  10  21  36  54  78 109 143 177 216 269 329
#     4   9  18  33  53  76 106 142 178 218 267 320
#     4  10  20  35  55  76 102 135 177 224 264 311
#     4  10  19  30  46  71 103 137 171 208 258 316
#
# _framework density 22.052522
#
# number of rings (size 3 to 8) (size 9 to 14) (size 15 to 20)
#    0.000    2.500    1.250    1.125    0.000    3.250 
#    0.000    2.500    0.000    4.500    0.000    0.000 
#    0.000    4.000    0.000    0.000    0.000    0.000 
#
# Total GULP energy -178146.099917 kJ/mol
# GULP energy per Si atom -5567.065622 kJ/mol
# Density = 2.200233 g / cm^3
# Si number density = 22.052522 Si / 1000 Ang^3
#
#
#
# Elastic Constant Matrix: (Units=GPa)
#
#
# Indices 1 2 3 4 5 6 
#
# 1 33.6625 8.2838 0.2226 0.0000 0.0000 0.0000
# 2 8.2838 143.2861 67.9709 0.0000 0.0000 0.0000
# 3 0.2226 67.9709 119.5507 0.0000 0.0000 0.0000
# 4 0.0000 0.0000 0.0000 6.9992 0.0000 0.0000
# 5 0.0000 0.0000 0.0000 0.0000 110.4394 0.0000
# 6 0.0000 0.0000 0.0000 0.0000 0.0000 -0.5168
#
#
#
# Elastic Compliance Matrix: (Units=1/GPa)
#
#
# Indices 1 2 3 4 5 6 
#
# 1 0.030279 -0.002360 0.001286 0.000000 0.000000 0.000000
# 2 -0.002360 0.009740 -0.005534 0.000000 0.000000 0.000000
# 3 0.001286 -0.005534 0.011508 0.000000 0.000000 0.000000
# 4 0.000000 0.000000 0.000000 0.142874 0.000000 0.000000
# 5 0.000000 0.000000 0.000000 0.000000 0.009055 0.000000
# 6 0.000000 0.000000 0.000000 0.000000 0.000000 -1.935037
#
#
# Mechanical properties :
#
#
# Convention : Reuss Voigt Hill
#
# Bulk Modulus (GPa) = 26.10204 49.93933 38.02069
# Shear Modulus (GPa) = -2.93153 38.05250 17.56048
#
# Velocity S-wave (km/s) = -1.15422 4.15847 2.82494
# Velocity P-wave (km/s) = 3.17580 6.76402 5.28383
#
# Compressibility (1/GPa) = 0.03831118
#
# Stress axis : x y z
#
# Youngs Moduli (GPa) = 33.02619 102.66437 86.89313
#
# Poissons Ratio (x) = 0.24233 -0.11171
# Poissons Ratio (y) = 0.07795 0.48083
# Poissons Ratio (z) = -0.04246 0.56810
#
# Static dielectric constant tensor:
#      x y z
#    x 1.849860 0.000000 0.000000 
#    y 0.000000 1.877510 0.000000 
#    z 0.000000 0.000000 1.819980 
# 
# From -- ./inp_files/24773.got.cif
#   From: 2010.05.17/outbox.cif.g08.bks.cpg/sg38_13_cif.got.tgz:24773.got - 2010.06.03 18:07:57.
