data_PCOD9356673
_publ_section_title
;
Structure prediction by ZEFSAII (Michael W. Deem and Ramdas Pophale) SiO2 
 PCOD9356673
Probable space group: A M M 2
;
_chemical_formula_sum "Si O2"
_cell_formula_units_Z 64
_cell_length_a 17.670407
_cell_length_b 7.612105
_cell_length_c 22.752890
_cell_angle_alpha 90.000000
_cell_angle_beta 90.000000
_cell_angle_gamma 90.000000
_cell_volume 3060.468333
_symmetry_space_group_name_H-M "A M M 2"
_symmetry_group_IT_number 38
_symmetry_cell_setting 'orthorhombic'
loop_
_space_group_symop_operation_xyz
x,y,z
-x,-y,z
-x,y,z
x,-y,z
x,1/2+y,1/2+z
-x,1/2-y,1/2+z
-x,1/2+y,1/2+z
x,1/2-y,1/2+z
loop_
_atom_site_type_symbol
_atom_site_label
_atom_site_fract_x
_atom_site_fract_y
_atom_site_fract_z
Si Si1 0.085413 0.797770 0.357620
Si Si2 0.781968 0.212955 0.643550
Si Si3 0.726758 0.794186 0.019869
Si Si4 0.082851 0.289472 0.223231
Si Si5 0.251671 0.700984 0.889357
Si Si6 0.586351 0.203354 0.338738
Si Si7 0.632032 0.704181 0.209697
Si Si8 0.420499 0.711821 0.584783
O O1 0.087616 0.794146 0.287088
O O2 0.168285 0.719075 0.374387
O O3 0.000000 0.725159 0.373315
O O4 0.085602 0.000000 0.379001
O O5 0.780005 0.275979 0.576639
O O6 0.855116 0.270878 0.678076
O O7 0.711248 0.274691 0.683503
O O8 0.777649 0.000000 0.641673
O O9 0.648468 0.722241 0.046475
O O10 0.718519 0.000000 0.005752
O O11 0.746637 0.701860 0.959775
O O12 0.092043 0.500000 0.232160
O O13 0.000000 0.257713 0.198685
O O14 0.249797 0.500000 0.866038
O O15 0.333527 0.775938 0.866306
O O16 0.500000 0.275979 0.350547
O O17 0.599508 0.210086 0.268207
O O18 0.583766 0.000000 0.357854
O O19 0.642083 0.500000 0.225016
O O20 0.582164 0.720227 0.151210
O O21 0.500000 0.757355 0.556722
O O22 0.413836 0.500000 0.588532
#
# Coordination Sequence:
#
# PCOD9356673 Si02
#       8
#     8   8   8   8   8   8   8   8
#     4   9  18  33  54  79 103 129 164 204 247 296
#     4   9  18  33  51  72 101 133 162 197 245 298
#     4  10  21  35  52  73  95 125 168 210 246 289
#     4   9  17  30  51  79 106 130 158 195 242 295
#     4  10  21  37  54  71  97 134 171 207 248 293
#     4  10  21  35  50  71 101 136 169 200 242 298
#     4  10  19  30  48  75 102 128 162 204 248 293
#     4   9  18  33  51  70  95 127 161 201 250 299
#
# _framework density 20.911832
#
# number of rings (size 3 to 8) (size 9 to 14) (size 15 to 20)
#    0.000    2.500    0.000    1.875    0.000    5.000 
#    0.000    0.625    0.000    3.750    0.000    0.000 
#    0.000    0.000    0.000    0.000    0.000    0.000 
#
# Total GULP energy -178200.938044 kJ/mol
# GULP energy per Si atom -5568.779314 kJ/mol
# Density = 2.086424 g / cm^3
# Si number density = 20.911832 Si / 1000 Ang^3
#
#
#
# Elastic Constant Matrix: (Units=GPa)
#
#
# Indices 1 2 3 4 5 6 
#
# 1 179.6308 10.0917 67.3856 0.0000 0.0000 0.0000
# 2 10.0917 43.1864 -4.5451 0.0000 0.0000 0.0000
# 3 67.3856 -4.5451 69.8849 0.0000 0.0000 0.0000
# 4 0.0000 0.0000 0.0000 7.0178 0.0000 0.0000
# 5 0.0000 0.0000 0.0000 0.0000 -25.0013 0.0000
# 6 0.0000 0.0000 0.0000 0.0000 0.0000 4.9109
#
#
#
# Elastic Compliance Matrix: (Units=1/GPa)
#
#
# Indices 1 2 3 4 5 6 
#
# 1 0.009110 -0.003074 -0.008984 0.000000 0.000000 0.000000
# 2 -0.003074 0.024352 0.004548 0.000000 0.000000 0.000000
# 3 -0.008984 0.004548 0.023268 0.000000 0.000000 0.000000
# 4 0.000000 0.000000 0.000000 0.142495 0.000000 0.000000
# 5 0.000000 0.000000 0.000000 0.000000 -0.039998 0.000000
# 6 0.000000 0.000000 0.000000 0.000000 0.000000 0.203630
#
#
# Mechanical properties :
#
#
# Convention : Reuss Voigt Hill
#
# Bulk Modulus (GPa) = 23.97516 48.72960 36.35238
# Shear Modulus (GPa) = 12.76225 12.03680 12.39952
#
# Velocity S-wave (km/s) = 2.47308 2.40176 2.43768
# Velocity P-wave (km/s) = 4.43222 5.57174 5.03433
#
# Compressibility (1/GPa) = 0.04170984
#
# Stress axis : x y z
#
# Youngs Moduli (GPa) = 109.77056 41.06357 42.97788
#
# Poissons Ratio (x) = 0.12624 0.38612
# Poissons Ratio (y) = 0.33747 -0.19547
# Poissons Ratio (z) = 0.98618 -0.18676
#
# Static dielectric constant tensor:
#      x y z
#    x 1.854540 0.000000 0.000000 
#    y 0.000000 1.797410 0.000000 
#    z 0.000000 0.000000 1.680560 
# 
# From -- ./inp_files/21382.got.cif
#   From: 2010.05.17/outbox.cif.g08.bks.cpg/sg38_11_cif.got.tgz:21382.got - 2010.06.03 18:07:57.
