data_PCOD9356070
_publ_section_title
;
Structure prediction by ZEFSAII (Michael W. Deem and Ramdas Pophale) SiO2 
 PCOD9356070
Probable space group: A M M 2
;
_chemical_formula_sum "Si O2"
_cell_formula_units_Z 64
_cell_length_a 7.854138
_cell_length_b 24.315218
_cell_length_c 19.773028
_cell_angle_alpha 90.000000
_cell_angle_beta 90.000000
_cell_angle_gamma 90.000000
_cell_volume 3776.155558
_symmetry_space_group_name_H-M "A M M 2"
_symmetry_group_IT_number 38
_symmetry_cell_setting 'orthorhombic'
loop_
_space_group_symop_operation_xyz
x,y,z
-x,-y,z
-x,y,z
x,-y,z
x,1/2+y,1/2+z
-x,1/2-y,1/2+z
-x,1/2+y,1/2+z
x,1/2-y,1/2+z
loop_
_atom_site_type_symbol
_atom_site_label
_atom_site_fract_x
_atom_site_fract_y
_atom_site_fract_z
Si Si1 0.702287 0.273678 0.062210
Si Si2 0.295784 0.834231 0.141482
Si Si3 0.796207 0.338162 0.187965
Si Si4 0.795752 0.243334 0.915944
Si Si5 0.206059 0.383114 0.419688
Si Si6 0.296053 0.061665 0.061013
Si Si7 0.205602 0.270185 0.768501
Si Si8 0.208462 0.937401 0.777730
O O1 0.500000 0.270614 0.064980
O O2 0.771630 0.217044 0.096312
O O3 0.756255 0.323367 0.110788
O O4 0.754133 0.275155 0.984433
O O5 0.500000 0.834761 0.133650
O O6 0.229474 0.891786 0.112505
O O7 0.257658 0.819279 0.218884
O O8 0.733068 0.286484 0.232937
O O9 0.734057 0.395161 0.219601
O O10 0.000000 0.338436 0.195020
O O11 0.732842 0.180172 0.921692
O O12 0.734163 0.270031 0.845846
O O13 0.000000 0.239986 0.911077
O O14 0.263200 0.415970 0.485644
O O15 0.259908 0.412486 0.350316
O O16 0.000000 0.382173 0.419738
O O17 0.500000 0.058782 0.069988
O O18 0.226961 0.000000 0.069482
O O19 0.000000 0.268804 0.768740
O O20 0.000000 0.938132 0.777392
O O21 0.266188 0.000000 0.769522
#
# Coordination Sequence:
#
# PCOD9356070 Si02
#       8
#     8   8   8   8   8   8   8   8
#     4  10  19  30  45  65  90 119 152 189 227 268
#     4   9  18  31  44  63  88 117 153 188 222 263
#     4   9  16  29  46  65  89 119 152 187 225 266
#     4  10  18  29  46  69  94 121 150 183 227 273
#     4  10  18  29  45  67  94 123 156 189 216 255
#     4  10  20  33  46  62  91 128 159 187 221 263
#     4   9  17  29  46  66  89 116 148 185 227 270
#     4   9  16  27  45  68  93 122 156 190 222 260
#
# _framework density 16.948454000000002
#
# number of rings (size 3 to 8) (size 9 to 14) (size 15 to 20)
#    0.000    2.500    2.500    0.750    0.000    2.250 
#    0.000    0.625    0.000    1.125    0.000    0.875 
#    0.000    1.000    0.000    0.000    0.000    0.000 
#
# Total GULP energy -178428.458982 kJ/mol
# GULP energy per Si atom -5575.889343 kJ/mol
# Density = 1.690988 g / cm^3
# Si number density = 16.948454 Si / 1000 Ang^3
#
#
#
# Elastic Constant Matrix: (Units=GPa)
#
#
# Indices 1 2 3 4 5 6 
#
# 1 14.3150 6.9478 -1.0280 0.0000 0.0000 0.0000
# 2 6.9478 117.5490 87.9552 0.0000 0.0000 0.0000
# 3 -1.0280 87.9552 148.8181 0.0000 0.0000 0.0000
# 4 0.0000 0.0000 0.0000 19.4929 0.0000 0.0000
# 5 0.0000 0.0000 0.0000 0.0000 30.3714 0.0000
# 6 0.0000 0.0000 0.0000 0.0000 0.0000 10.3484
#
#
#
# Elastic Compliance Matrix: (Units=1/GPa)
#
#
# Indices 1 2 3 4 5 6 
#
# 1 0.074420 -0.008576 0.005583 0.000000 0.000000 0.000000
# 2 -0.008576 0.016240 -0.009658 0.000000 0.000000 0.000000
# 3 0.005583 -0.009658 0.012466 0.000000 0.000000 0.000000
# 4 0.000000 0.000000 0.000000 0.051301 0.000000 0.000000
# 5 0.000000 0.000000 0.000000 0.000000 0.032926 0.000000
# 6 0.000000 0.000000 0.000000 0.000000 0.000000 0.096633
#
#
# Mechanical properties :
#
#
# Convention : Reuss Voigt Hill
#
# Bulk Modulus (GPa) = 12.84940 52.04801 32.44871
# Shear Modulus (GPa) = 14.91520 24.49636 19.70578
#
# Velocity S-wave (km/s) = 2.96975 3.80589 3.41352
# Velocity P-wave (km/s) = 4.39968 7.07738 5.89264
#
# Compressibility (1/GPa) = 0.07782462
#
# Stress axis : x y z
#
# Youngs Moduli (GPa) = 13.43726 61.57570 80.21794
#
# Poissons Ratio (x) = 0.52806 -0.44782
# Poissons Ratio (y) = 0.11523 0.77471
# Poissons Ratio (z) = -0.07501 0.59467
#
# Static dielectric constant tensor:
#      x y z
#    x 1.611330 0.000000 0.000000 
#    y 0.000000 1.575000 0.000000 
#    z 0.000000 0.000000 1.576630 
# 
# From -- ./inp_files/17264.got.cif
#   From: 2010.05.17/outbox.cif.g08.bks.cpg/sg38_9_cif.got.tgz:17264.got - 2010.06.03 18:07:57.
