data_PCOD9356720
_publ_section_title
;
Structure prediction by ZEFSAII (Michael W. Deem and Ramdas Pophale) SiO2 
 PCOD9356720
Probable space group: A M M 2
;
_chemical_formula_sum "Si O2"
_cell_formula_units_Z 64
_cell_length_a 7.826771
_cell_length_b 28.855033
_cell_length_c 15.049517
_cell_angle_alpha 90.000000
_cell_angle_beta 90.000000
_cell_angle_gamma 90.000000
_cell_volume 3398.809038
_symmetry_space_group_name_H-M "A M M 2"
_symmetry_group_IT_number 38
_symmetry_cell_setting 'orthorhombic'
loop_
_space_group_symop_operation_xyz
x,y,z
-x,-y,z
-x,y,z
x,-y,z
x,1/2+y,1/2+z
-x,1/2-y,1/2+z
-x,1/2+y,1/2+z
x,1/2-y,1/2+z
loop_
_atom_site_type_symbol
_atom_site_label
_atom_site_fract_x
_atom_site_fract_y
_atom_site_fract_z
Si Si1 0.706516 0.946855 0.319930
Si Si2 0.793391 0.864129 0.639513
Si Si3 0.699777 0.369514 0.686919
Si Si4 0.205355 0.947515 0.519863
Si Si5 0.206742 0.280827 0.013657
Si Si6 0.704053 0.675939 0.513518
Si Si7 0.702839 0.816705 0.814021
Si Si8 0.799717 0.713091 0.810430
O O1 0.500000 0.947085 0.316557
O O2 0.772909 0.911435 0.245649
O O3 0.755514 0.931590 0.419465
O O4 0.765883 0.000000 0.308113
O O5 0.731499 0.910974 0.592371
O O6 0.734010 0.820507 0.580246
O O7 0.740019 0.854829 0.740082
O O8 0.000000 0.864321 0.636730
O O9 0.500000 0.380564 0.673433
O O10 0.775302 0.357192 0.590480
O O11 0.710710 0.322913 0.745644
O O12 0.000000 0.949411 0.527571
O O13 0.272241 0.000000 0.529969
O O14 0.264470 0.229434 0.039352
O O15 0.000000 0.280681 0.012804
O O16 0.263678 0.290431 0.912307
O O17 0.500000 0.668844 0.510405
O O18 0.769902 0.671026 0.412638
O O19 0.500000 0.809805 0.820763
O O20 0.778839 0.767027 0.785304
O O21 0.000000 0.701549 0.808921
#
# Coordination Sequence:
#
# PCOD9356720 Si02
#       8
#     8   8   8   8   8   8   8   8
#     4   9  18  32  50  73  99 124 152 190 236 284
#     4  10  19  31  48  70  94 122 158 194 230 276
#     4  10  19  31  48  69  93 123 158 193 232 279
#     4   9  18  33  52  73  98 126 154 188 234 286
#     4   9  18  30  44  65  94 123 150 184 226 273
#     4   9  19  33  46  62  89 123 157 192 227 268
#     4  10  20  33  47  65  92 126 161 195 232 272
#     4  10  19  31  47  69  97 125 154 190 231 276
#
# _framework density 18.830124000000001
#
# number of rings (size 3 to 8) (size 9 to 14) (size 15 to 20)
#    0.000    2.500    0.000    2.250    0.000    6.000 
#    0.000    0.000    0.000    0.750    0.000    1.750 
#    0.000    0.000    0.000    0.000    0.000    0.000 
#
# Total GULP energy -178563.297061 kJ/mol
# GULP energy per Si atom -5580.103033 kJ/mol
# Density = 1.878727 g / cm^3
# Si number density = 18.830124 Si / 1000 Ang^3
#
#
#
# Elastic Constant Matrix: (Units=GPa)
#
#
# Indices 1 2 3 4 5 6 
#
# 1 22.5206 -1.5090 -0.7428 0.0000 0.0000 0.0000
# 2 -1.5090 86.5615 78.6480 0.0000 0.0000 0.0000
# 3 -0.7428 78.6480 110.3179 0.0000 0.0000 0.0000
# 4 0.0000 0.0000 0.0000 33.4016 0.0000 0.0000
# 5 0.0000 0.0000 0.0000 0.0000 13.9206 0.0000
# 6 0.0000 0.0000 0.0000 0.0000 0.0000 11.5217
#
#
#
# Elastic Compliance Matrix: (Units=1/GPa)
#
#
# Indices 1 2 3 4 5 6 
#
# 1 0.044476 0.001429 -0.000719 0.000000 0.000000 0.000000
# 2 0.001429 0.032842 -0.023404 0.000000 0.000000 0.000000
# 3 -0.000719 -0.023404 0.025745 0.000000 0.000000 0.000000
# 4 0.000000 0.000000 0.000000 0.029939 0.000000 0.000000
# 5 0.000000 0.000000 0.000000 0.000000 0.071836 0.000000
# 6 0.000000 0.000000 0.000000 0.000000 0.000000 0.086793
#
#
# Mechanical properties :
#
#
# Convention : Reuss Voigt Hill
#
# Bulk Modulus (GPa) = 17.33887 41.35472 29.34680
# Shear Modulus (GPa) = 14.03533 21.30235 17.66884
#
# Velocity S-wave (km/s) = 2.73310 3.36712 3.06654
# Velocity P-wave (km/s) = 4.38039 6.09314 5.30632
#
# Compressibility (1/GPa) = 0.05767387
#
# Stress axis : x y z
#
# Youngs Moduli (GPa) = 22.48413 30.44897 38.84228
#
# Poissons Ratio (x) = -0.04350 0.02793
# Poissons Ratio (y) = -0.03212 0.90907
# Poissons Ratio (z) = 0.01617 0.71263
#
# Static dielectric constant tensor:
#      x y z
#    x 1.684450 0.000000 0.000000 
#    y 0.000000 1.643570 0.000000 
#    z 0.000000 0.000000 1.674700 
# 
# From -- ./inp_files/13072.got.cif
#   From: 2010.05.17/outbox.cif.g08.bks.cpg/sg38_7_cif.got.tgz:13072.got - 2010.06.03 18:07:57.
