data_PCOD9356771
_publ_section_title
;
Structure prediction by ZEFSAII (Michael W. Deem and Ramdas Pophale) SiO2 
 PCOD9356771
Probable space group: A M M 2
;
_chemical_formula_sum "Si O2"
_cell_formula_units_Z 64
_cell_length_a 8.908732
_cell_length_b 22.144285
_cell_length_c 15.623692
_cell_angle_alpha 90.000000
_cell_angle_beta 90.000000
_cell_angle_gamma 90.000000
_cell_volume 3082.202905
_symmetry_space_group_name_H-M "A M M 2"
_symmetry_group_IT_number 38
_symmetry_cell_setting 'orthorhombic'
loop_
_space_group_symop_operation_xyz
x,y,z
-x,-y,z
-x,y,z
x,-y,z
x,1/2+y,1/2+z
-x,1/2-y,1/2+z
-x,1/2+y,1/2+z
x,1/2-y,1/2+z
loop_
_atom_site_type_symbol
_atom_site_label
_atom_site_fract_x
_atom_site_fract_y
_atom_site_fract_z
Si Si1 0.819781 0.934081 0.181740
Si Si2 0.669886 0.572902 0.201709
Si Si3 0.820593 0.697304 0.607607
Si Si4 0.824547 0.070912 0.881181
Si Si5 0.323846 0.315562 0.434538
Si Si6 0.179728 0.736277 0.793019
Si Si7 0.827958 0.073025 0.529140
Si Si8 0.679123 0.610535 0.851871
O O1 0.780105 0.872384 0.132254
O O2 0.742068 0.929786 0.274186
O O3 0.000000 0.931135 0.193727
O O4 0.785445 0.000000 0.142237
O O5 0.500000 0.595666 0.216203
O O6 0.659503 0.500000 0.193884
O O7 0.776109 0.582599 0.283008
O O8 0.742229 0.595536 0.113745
O O9 0.736779 0.714755 0.521173
O O10 0.784686 0.736841 0.691724
O O11 0.000000 0.699468 0.593436
O O12 0.722784 0.114280 0.937701
O O13 0.000000 0.084776 0.894549
O O14 0.801660 0.000000 0.898108
O O15 0.500000 0.307562 0.426106
O O16 0.240114 0.289635 0.351492
O O17 0.257752 0.676711 0.830620
O O18 0.000000 0.731089 0.800226
O O19 0.743638 0.090509 0.442812
O O20 0.000000 0.094733 0.527884
O O21 0.831825 0.000000 0.533524
O O22 0.500000 0.609687 0.852524
#
# Coordination Sequence:
#
# PCOD9356771 Si02
#       8
#     8   8   8   8   8   8   8   8
#     4   9  18  34  57  85 119 161 206 248 296 358
#     4   9  17  31  51  77 112 149 188 242 302 352
#     4   9  20  40  65  91 121 160 206 255 302 356
#     4  10  21  39  63  89 120 160 204 246 293 358
#     4  12  25  41  65  96 128 160 197 249 310 368
#     4  10  22  44  68  87 115 157 206 254 302 361
#     4  10  19  31  49  75 111 157 206 250 298 363
#     4  11  21  33  52  81 117 154 198 253 311 362
#
# _framework density 20.76437
#
# number of rings (size 3 to 8) (size 9 to 14) (size 15 to 20)
#    0.000    2.000    0.000    4.875    0.000    7.750 
#    2.250    1.250    0.000    0.000    0.000    0.000 
#    0.000    0.000    0.000    0.000    0.000    0.000 
#
# Total GULP energy -178769.816448 kJ/mol
# GULP energy per Si atom -5586.556764 kJ/mol
# Density = 2.071711 g / cm^3
# Si number density = 20.764370 Si / 1000 Ang^3
#
#
#
# Elastic Constant Matrix: (Units=GPa)
#
#
# Indices 1 2 3 4 5 6 
#
# 1 48.7251 7.5893 14.3209 0.0000 0.0000 0.0000
# 2 7.5893 38.5777 6.9279 0.0000 0.0000 0.0000
# 3 14.3209 6.9279 84.1386 0.0000 0.0000 0.0000
# 4 0.0000 0.0000 0.0000 15.5263 0.0000 0.0000
# 5 0.0000 0.0000 0.0000 0.0000 454.4521 0.0000
# 6 0.0000 0.0000 0.0000 0.0000 0.0000 21.3718
#
#
#
# Elastic Compliance Matrix: (Units=1/GPa)
#
#
# Indices 1 2 3 4 5 6 
#
# 1 0.022121 -0.003731 -0.003458 0.000000 0.000000 0.000000
# 2 -0.003731 0.026940 -0.001583 0.000000 0.000000 0.000000
# 3 -0.003458 -0.001583 0.012604 0.000000 0.000000 0.000000
# 4 0.000000 0.000000 0.000000 0.064407 0.000000 0.000000
# 5 0.000000 0.000000 0.000000 0.000000 0.002200 0.000000
# 6 0.000000 0.000000 0.000000 0.000000 0.000000 0.046791
#
#
# Mechanical properties :
#
#
# Convention : Reuss Voigt Hill
#
# Bulk Modulus (GPa) = 22.66494 25.45750 24.06122
# Shear Modulus (GPa) = 24.11810 107.77695 65.94752
#
# Velocity S-wave (km/s) = 3.41180 7.21231 5.64171
# Velocity P-wave (km/s) = 5.14388 9.03567 7.35197
#
# Compressibility (1/GPa) = 0.04412101
#
# Stress axis : x y z
#
# Youngs Moduli (GPa) = 45.20656 37.11957 79.33946
#
# Poissons Ratio (x) = 0.13848 0.27435
# Poissons Ratio (y) = 0.16865 0.12561
# Poissons Ratio (z) = 0.15632 0.05877
#
# Static dielectric constant tensor:
#      x y z
#    x 1.692030 0.000000 0.000000 
#    y 0.000000 1.819480 0.000000 
#    z 0.000000 0.000000 1.732580 
# 
# From -- ./inp_files/12742.got.cif
#   From: 2010.05.17/outbox.cif.g08.bks.cpg/sg38_7_cif.got.tgz:12742.got - 2010.06.03 18:07:57.
