data_PCOD9356932
_publ_section_title
;
Structure prediction by ZEFSAII (Michael W. Deem and Ramdas Pophale) SiO2 
 PCOD9356932
Probable space group: A M M 2
;
_chemical_formula_sum "Si O2"
_cell_formula_units_Z 64
_cell_length_a 18.972596
_cell_length_b 22.260275
_cell_length_c 8.047133
_cell_angle_alpha 90.000000
_cell_angle_beta 90.000000
_cell_angle_gamma 90.000000
_cell_volume 3398.587561
_symmetry_space_group_name_H-M "A M M 2"
_symmetry_group_IT_number 38
_symmetry_cell_setting 'orthorhombic'
loop_
_space_group_symop_operation_xyz
x,y,z
-x,-y,z
-x,y,z
x,-y,z
x,1/2+y,1/2+z
-x,1/2-y,1/2+z
-x,1/2+y,1/2+z
x,1/2-y,1/2+z
loop_
_atom_site_type_symbol
_atom_site_label
_atom_site_fract_x
_atom_site_fract_y
_atom_site_fract_z
Si Si1 0.669581 0.572314 0.773230
Si Si2 0.680263 0.427187 0.152191
Si Si3 0.156231 0.930613 0.692401
Si Si4 0.079952 0.323605 0.277361
Si Si5 0.083595 0.569237 0.827126
Si Si6 0.801518 0.654377 0.703810
Si Si7 0.840341 0.257604 0.989905
Si Si8 0.419652 0.926981 0.953339
O O1 0.680216 0.500000 0.769585
O O2 0.740276 0.606042 0.717716
O O3 0.611065 0.587726 0.635529
O O4 0.655581 0.589517 0.965668
O O5 0.678857 0.500000 0.156239
O O6 0.762377 0.410729 0.176268
O O7 0.631185 0.405884 0.303567
O O8 0.111326 0.888984 0.814460
O O9 0.118488 0.927228 0.511437
O O10 0.155836 0.000000 0.744492
O O11 0.132982 0.298547 0.138591
O O12 0.089382 0.273757 0.417676
O O13 0.000000 0.328629 0.222504
O O14 0.093998 0.500000 0.770787
O O15 0.125169 0.617934 0.718431
O O16 0.000000 0.580858 0.835664
O O17 0.796530 0.699843 0.549877
O O18 0.801940 0.700071 0.859668
O O19 0.500000 0.906357 0.932733
O O20 0.420104 0.000000 0.945058
#
# Coordination Sequence:
#
# PCOD9356932 Si02
#       8
#     8   8   8   8   8   8   8   8
#     4  10  19  34  61  89 116 155 190 230 288 347
#     4   9  17  31  52  79 114 155 188 221 272 339
#     4  10  19  32  52  79 107 142 188 230 283 345
#     4  11  21  36  52  72 101 140 185 235 286 337
#     4  10  19  32  54  80 108 144 187 240 294 347
#     4  11  21  39  55  78 109 142 195 238 289 343
#     4  10  24  36  52  73 103 141 190 239 288 333
#     4   9  19  33  52  88 130 158 185 223 280 355
#
# _framework density 18.831351999999999
#
# number of rings (size 3 to 8) (size 9 to 14) (size 15 to 20)
#    0.000    2.000    2.500    1.125    1.750    3.750 
#    0.000    3.125    0.000    0.000    0.000    0.875 
#    0.000    0.000    0.000    0.000    0.000    0.000 
#
# Total GULP energy -178427.536938 kJ/mol
# GULP energy per Si atom -5575.860529 kJ/mol
# Density = 1.878849 g / cm^3
# Si number density = 18.831352 Si / 1000 Ang^3
#
#
#
# Elastic Constant Matrix: (Units=GPa)
#
#
# Indices 1 2 3 4 5 6 
#
# 1 84.9364 19.4972 17.3360 0.0000 0.0000 0.0000
# 2 19.4972 63.5675 16.6999 0.0000 0.0000 0.0000
# 3 17.3360 16.6999 37.0851 0.0000 0.0000 0.0000
# 4 0.0000 0.0000 0.0000 19.5585 0.0000 0.0000
# 5 0.0000 0.0000 0.0000 0.0000 22.9946 0.0000
# 6 0.0000 0.0000 0.0000 0.0000 0.0000 8.5330
#
#
#
# Elastic Compliance Matrix: (Units=1/GPa)
#
#
# Indices 1 2 3 4 5 6 
#
# 1 0.013442 -0.002804 -0.005021 0.000000 0.000000 0.000000
# 2 -0.002804 0.018427 -0.006987 0.000000 0.000000 0.000000
# 3 -0.005021 -0.006987 0.032459 0.000000 0.000000 0.000000
# 4 0.000000 0.000000 0.000000 0.051129 0.000000 0.000000
# 5 0.000000 0.000000 0.000000 0.000000 0.043488 0.000000
# 6 0.000000 0.000000 0.000000 0.000000 0.000000 0.117192
#
#
# Mechanical properties :
#
#
# Convention : Reuss Voigt Hill
#
# Bulk Modulus (GPa) = 28.81565 32.51723 30.66644
# Shear Modulus (GPa) = 15.75656 19.02095 17.38875
#
# Velocity S-wave (km/s) = 2.89575 3.18160 3.04204
# Velocity P-wave (km/s) = 5.14933 5.54995 5.35339
#
# Compressibility (1/GPa) = 0.03470337
#
# Stress axis : x y z
#
# Youngs Moduli (GPa) = 74.39395 54.26852 30.80844
#
# Poissons Ratio (x) = 0.15216 0.15469
# Poissons Ratio (y) = 0.20858 0.21527
# Poissons Ratio (z) = 0.37354 0.37919
#
# Static dielectric constant tensor:
#      x y z
#    x 1.622770 0.000000 0.000000 
#    y 0.000000 1.674890 0.000000 
#    z 0.000000 0.000000 1.722320 
# 
# From -- ./inp_files/6575.got.cif
#   From: 2010.05.17/outbox.cif.g08.bks.cpg/sg38_4_cif.got.tgz:6575.got - 2010.06.03 18:07:57.
