data_PCOD9356202
_publ_section_title
;
Structure prediction by ZEFSAII (Michael W. Deem and Ramdas Pophale) SiO2 
 PCOD9356202
Probable space group: A M M 2
;
_chemical_formula_sum "Si O2"
_cell_formula_units_Z 48
_cell_length_a 17.797268
_cell_length_b 16.237868
_cell_length_c 7.928775
_cell_angle_alpha 90.000000
_cell_angle_beta 90.000000
_cell_angle_gamma 90.000000
_cell_volume 2291.334218
_symmetry_space_group_name_H-M "A M M 2"
_symmetry_group_IT_number 38
_symmetry_cell_setting 'orthorhombic'
loop_
_space_group_symop_operation_xyz
x,y,z
-x,-y,z
-x,y,z
x,-y,z
x,1/2+y,1/2+z
-x,1/2-y,1/2+z
-x,1/2+y,1/2+z
x,1/2-y,1/2+z
loop_
_atom_site_type_symbol
_atom_site_label
_atom_site_fract_x
_atom_site_fract_y
_atom_site_fract_z
Si Si1 0.690917 0.899455 0.120510
Si Si2 0.585745 0.899778 0.431166
Si Si3 0.089077 0.500000 0.764042
Si Si4 0.090659 0.500000 0.362677
Si Si5 0.586226 0.399648 0.311750
Si Si6 0.147274 0.836922 0.207392
Si Si7 0.086730 0.324282 0.348372
O O1 0.642471 0.875769 0.284900
O O2 0.771350 0.857314 0.134548
O O3 0.699767 0.000000 0.119068
O O4 0.644534 0.874471 0.954682
O O5 0.500000 0.873623 0.394785
O O6 0.605521 0.873109 0.621264
O O7 0.585149 0.000000 0.432166
O O8 0.108840 0.500000 0.562475
O O9 0.123345 0.414061 0.824387
O O10 0.000000 0.500000 0.785996
O O11 0.115330 0.413543 0.285716
O O12 0.000000 0.500000 0.354002
O O13 0.500000 0.374383 0.348913
O O14 0.585955 0.500000 0.312724
O O15 0.138965 0.750668 0.298735
O O16 0.089655 0.831353 0.050820
O O17 0.000000 0.311332 0.295641
#
# Coordination Sequence:
#
# PCOD9356202 Si02
#       7
#     8   8   4   4   8   8   8
#     4  10  18  30  50  84 126 162 199 245 303 364
#     4   8  14  26  47  78 119 164 207 250 291 342
#     4   9  16  32  57  81 110 152 196 232 280 368
#     4   7  14  30  57  81  99 134 186 242 297 348
#     4   8  14  26  47  78 117 163 210 248 288 347
#     4  11  21  36  56  86 117 154 195 243 311 366
#     4  10  20  38  61  82 108 147 198 255 304 366
#
# _framework density 20.948492999999999
#
# number of rings (size 3 to 8) (size 9 to 14) (size 15 to 20)
#    0.000    2.833    0.833    4.000    0.000    2.000 
#    3.000    0.833    0.000    1.000    0.000    4.667 
#    0.000    0.000    0.000    0.667    0.000    1.667 
#
# Total GULP energy -133846.450942 kJ/mol
# GULP energy per Si atom -5576.935456 kJ/mol
# Density = 2.090081 g / cm^3
# Si number density = 20.948493 Si / 1000 Ang^3
#
#
#
# Elastic Constant Matrix: (Units=GPa)
#
#
# Indices 1 2 3 4 5 6 
#
# 1 106.0120 24.8700 48.6978 0.0000 0.0000 0.0000
# 2 24.8700 103.8344 24.0643 0.0000 0.0000 0.0000
# 3 48.6978 24.0643 57.9791 0.0000 0.0000 0.0000
# 4 0.0000 0.0000 0.0000 10.4382 0.0000 0.0000
# 5 0.0000 0.0000 0.0000 0.0000 -22.9963 0.0000
# 6 0.0000 0.0000 0.0000 0.0000 0.0000 17.3900
#
#
#
# Elastic Compliance Matrix: (Units=1/GPa)
#
#
# Indices 1 2 3 4 5 6 
#
# 1 0.015413 -0.000765 -0.012629 0.000000 0.000000 0.000000
# 2 -0.000765 0.010694 -0.003796 0.000000 0.000000 0.000000
# 3 -0.012629 -0.003796 0.029430 0.000000 0.000000 0.000000
# 4 0.000000 0.000000 0.000000 0.095802 0.000000 0.000000
# 5 0.000000 0.000000 0.000000 0.000000 -0.043485 0.000000
# 6 0.000000 0.000000 0.000000 0.000000 0.000000 0.057504
#
#
# Mechanical properties :
#
#
# Convention : Reuss Voigt Hill
#
# Bulk Modulus (GPa) = 47.26280 51.45444 49.35862
# Shear Modulus (GPa) = 24.17912 12.31259 18.24586
#
# Velocity S-wave (km/s) = 3.40106 2.42700 2.95445
# Velocity P-wave (km/s) = 6.16712 5.69820 5.93729
#
# Compressibility (1/GPa) = 0.02115829
#
# Stress axis : x y z
#
# Youngs Moduli (GPa) = 64.87849 93.51328 33.97891
#
# Poissons Ratio (x) = 0.07154 0.42910
# Poissons Ratio (y) = 0.04963 0.12898
# Poissons Ratio (z) = 0.81932 0.35496
#
# Static dielectric constant tensor:
#      x y z
#    x 1.744580 0.000000 0.000000 
#    y 0.000000 1.833240 0.000000 
#    z 0.000000 0.000000 1.759330 
# 
# From -- ./inp_files/6228.got.cif
#   From: 2010.05.17/outbox.cif.g08.bks.cpg/sg38_4_cif.got.tgz:6228.got - 2010.06.03 18:07:57.
