data_PCOD9356502
_publ_section_title
;
Structure prediction by ZEFSAII (Michael W. Deem and Ramdas Pophale) SiO2 
 PCOD9356502
Probable space group: A M M 2
;
_chemical_formula_sum "Si O2"
_cell_formula_units_Z 64
_cell_length_a 8.902367
_cell_length_b 27.218253
_cell_length_c 18.949713
_cell_angle_alpha 90.000000
_cell_angle_beta 90.000000
_cell_angle_gamma 90.000000
_cell_volume 4591.645783
_symmetry_space_group_name_H-M "A M M 2"
_symmetry_group_IT_number 38
_symmetry_cell_setting 'orthorhombic'
loop_
_space_group_symop_operation_xyz
x,y,z
-x,-y,z
-x,y,z
x,-y,z
x,1/2+y,1/2+z
-x,1/2-y,1/2+z
-x,1/2+y,1/2+z
x,1/2-y,1/2+z
loop_
_atom_site_type_symbol
_atom_site_label
_atom_site_fract_x
_atom_site_fract_y
_atom_site_fract_z
Si Si1 0.678300 0.800971 0.181110
Si Si2 0.179940 0.148690 0.730147
Si Si3 0.679601 0.258737 0.311596
Si Si4 0.320405 0.057154 0.971074
Si Si5 0.821268 0.740507 0.464332
Si Si6 0.818683 0.943900 0.818064
Si Si7 0.820633 0.856146 0.058347
Si Si8 0.820623 0.290961 0.102134
O O1 0.500000 0.808664 0.177676
O O2 0.722121 0.787652 0.261511
O O3 0.760734 0.842818 0.136252
O O4 0.725001 0.751274 0.140038
O O5 0.251545 0.192271 0.776327
O O6 0.228244 0.096251 0.760445
O O7 0.210392 0.160428 0.647742
O O8 0.000000 0.151846 0.739183
O O9 0.500000 0.262687 0.309626
O O10 0.736463 0.254733 0.391096
O O11 0.500000 0.062100 0.968998
O O12 0.251660 0.095105 0.026391
O O13 0.283815 0.000000 0.986733
O O14 0.252881 0.068276 0.893760
O O15 0.782716 0.689976 0.506256
O O16 0.789845 0.784822 0.519400
O O17 0.000000 0.739030 0.450683
O O18 0.000000 0.942093 0.825115
O O19 0.777001 0.000000 0.800010
O O20 0.000000 0.859952 0.059552
O O21 0.000000 0.279554 0.110348
#
# Coordination Sequence:
#
# PCOD9356502 Si02
#       8
#     8   8   8   8   8   8   8   8
#     4   9  17  28  40  56  78 102 128 161 198 235
#     4   9  16  27  42  56  75 105 136 165 198 235
#     4  10  19  27  38  58  81 104 131 162 195 233
#     4  10  20  31  42  58  81 108 136 167 201 233
#     4   9  17  27  39  56  78 103 131 162 195 234
#     4   9  17  28  41  58  80 106 137 171 203 235
#     4  10  19  30  44  60  78 105 138 167 198 235
#     4   8  15  27  40  55  75 101 133 165 196 234
#
# _framework density 13.938357
#
# number of rings (size 3 to 8) (size 9 to 14) (size 15 to 20)
#    0.000    2.750    0.000    3.000    0.000    8.250 
#    0.000    0.000    0.000    0.000    0.000    0.000 
#    0.000    1.000    0.000    4.250    0.000    1.750 
#
# Total GULP energy -178135.248492 kJ/mol
# GULP energy per Si atom -5566.726515 kJ/mol
# Density = 1.390663 g / cm^3
# Si number density = 13.938357 Si / 1000 Ang^3
#
#
#
# Elastic Constant Matrix: (Units=GPa)
#
#
# Indices 1 2 3 4 5 6 
#
# 1 21.0878 22.8180 26.7158 0.0000 0.0000 0.0000
# 2 22.8180 72.1826 45.3432 0.0000 0.0000 0.0000
# 3 26.7158 45.3432 89.0057 0.0000 0.0000 0.0000
# 4 0.0000 0.0000 0.0000 27.5658 0.0000 0.0000
# 5 0.0000 0.0000 0.0000 0.0000 15.8541 0.0000
# 6 0.0000 0.0000 0.0000 0.0000 0.0000 16.3833
#
#
#
# Elastic Compliance Matrix: (Units=1/GPa)
#
#
# Indices 1 2 3 4 5 6 
#
# 1 0.088172 -0.016541 -0.018039 0.000000 0.000000 0.000000
# 2 -0.016541 0.023477 -0.006995 0.000000 0.000000 0.000000
# 3 -0.018039 -0.006995 0.020213 0.000000 0.000000 0.000000
# 4 0.000000 0.000000 0.000000 0.036277 0.000000 0.000000
# 5 0.000000 0.000000 0.000000 0.000000 0.063075 0.000000
# 6 0.000000 0.000000 0.000000 0.000000 0.000000 0.061038
#
#
# Mechanical properties :
#
#
# Convention : Reuss Voigt Hill
#
# Bulk Modulus (GPa) = 20.52867 41.33667 30.93267
# Shear Modulus (GPa) = 12.76682 17.78724 15.27703
#
# Velocity S-wave (km/s) = 3.02975 3.57618 3.31424
# Velocity P-wave (km/s) = 5.19609 6.83910 6.07341
#
# Compressibility (1/GPa) = 0.04871235
#
# Stress axis : x y z
#
# Youngs Moduli (GPa) = 11.34141 42.59530 49.47213
#
# Poissons Ratio (x) = 0.70457 0.89243
# Poissons Ratio (y) = 0.18760 0.34606
# Poissons Ratio (z) = 0.20459 0.29796
#
# Static dielectric constant tensor:
#      x y z
#    x 1.464820 0.000000 0.000000 
#    y 0.000000 1.456850 0.000000 
#    z 0.000000 0.000000 1.468140 
# 
# From -- ./inp_files/17306.got.cif
#   From: 2010.05.17/outbox.cif.g08.bks.cpg/sg38_9_cif.got.tgz:17306.got - 2010.06.03 18:07:57.
