data_PCOD9356989
_publ_section_title
;
Structure prediction by ZEFSAII (Michael W. Deem and Ramdas Pophale) SiO2 
 PCOD9356989
Probable space group: A M M 2
;
_chemical_formula_sum "Si O2"
_cell_formula_units_Z 64
_cell_length_a 14.753989
_cell_length_b 8.938032
_cell_length_c 25.374749
_cell_angle_alpha 90.000000
_cell_angle_beta 90.000000
_cell_angle_gamma 90.000000
_cell_volume 3346.209405
_symmetry_space_group_name_H-M "A M M 2"
_symmetry_group_IT_number 38
_symmetry_cell_setting 'orthorhombic'
loop_
_space_group_symop_operation_xyz
x,y,z
-x,-y,z
-x,y,z
x,-y,z
x,1/2+y,1/2+z
-x,1/2-y,1/2+z
-x,1/2+y,1/2+z
x,1/2-y,1/2+z
loop_
_atom_site_type_symbol
_atom_site_label
_atom_site_fract_x
_atom_site_fract_y
_atom_site_fract_z
Si Si1 0.605993 0.180302 0.216960
Si Si2 0.277328 0.323060 0.123534
Si Si3 0.287625 0.680028 0.823798
Si Si4 0.900123 0.179036 0.854895
Si Si5 0.602325 0.828715 0.038601
Si Si6 0.897110 0.821863 0.079099
Si Si7 0.137015 0.672321 0.966062
Si Si8 0.348834 0.670986 0.937660
O O1 0.500000 0.224652 0.215921
O O2 0.664510 0.255302 0.171117
O O3 0.654165 0.216739 0.272437
O O4 0.609086 0.000000 0.210419
O O5 0.269050 0.500000 0.128347
O O6 0.332929 0.279344 0.071051
O O7 0.178835 0.249573 0.116356
O O8 0.275508 0.500000 0.826410
O O9 0.187793 0.752540 0.826169
O O10 0.341898 0.721268 0.877125
O O11 0.898198 0.241831 0.914613
O O12 0.000000 0.216963 0.832357
O O13 0.891456 0.000000 0.856082
O O14 0.500000 0.819587 0.059785
O O15 0.633972 0.000000 0.043848
O O16 0.601802 0.779204 0.977961
O O17 0.000000 0.792784 0.097004
O O18 0.883502 0.000000 0.075894
O O19 0.886298 0.752377 0.020629
O O20 0.106066 0.500000 0.966771
O O21 0.245125 0.669284 0.957855
O O22 0.383734 0.500000 0.940106
#
# Coordination Sequence:
#
# PCOD9356989 Si02
#       8
#     8   8   8   8   8   8   8   8
#     4  10  22  43  69  92 115 150 198 252 307 363
#     4  12  25  41  62  88 119 155 197 248 301 355
#     4   9  20  38  61  88 117 151 196 247 302 358
#     4  10  20  33  52  82 121 164 205 243 289 346
#     4  11  23  37  56  84 118 158 199 241 295 357
#     4  11  23  38  59  87 119 157 199 243 295 355
#     4  10  19  32  53  83 119 160 202 244 290 345
#     4   9  18  33  54  84 120 156 192 237 293 351
#
# _framework density 19.126118999999999
#
# number of rings (size 3 to 8) (size 9 to 14) (size 15 to 20)
#    0.000    1.750    1.250    4.125    0.000    9.250 
#    0.000    1.875    0.000    0.750    0.000    0.000 
#    0.000    0.000    0.000    0.000    0.000    0.000 
#
# Total GULP energy -178725.047373 kJ/mol
# GULP energy per Si atom -5585.157730 kJ/mol
# Density = 1.908259 g / cm^3
# Si number density = 19.126119 Si / 1000 Ang^3
#
#
#
# Elastic Constant Matrix: (Units=GPa)
#
#
# Indices 1 2 3 4 5 6 
#
# 1 140.1560 55.2931 68.5620 0.0000 0.0000 0.0000
# 2 55.2931 67.5186 45.1137 0.0000 0.0000 0.0000
# 3 68.5620 45.1137 113.4626 0.0000 0.0000 0.0000
# 4 0.0000 0.0000 0.0000 28.4972 0.0000 0.0000
# 5 0.0000 0.0000 0.0000 0.0000 10.3523 0.0000
# 6 0.0000 0.0000 0.0000 0.0000 0.0000 -14.4233
#
#
#
# Elastic Compliance Matrix: (Units=1/GPa)
#
#
# Indices 1 2 3 4 5 6 
#
# 1 0.012066 -0.006822 -0.004579 0.000000 0.000000 0.000000
# 2 -0.006822 0.024026 -0.005431 0.000000 0.000000 0.000000
# 3 -0.004579 -0.005431 0.013740 0.000000 0.000000 0.000000
# 4 0.000000 0.000000 0.000000 0.035091 0.000000 0.000000
# 5 0.000000 0.000000 0.000000 0.000000 0.096597 0.000000
# 6 0.000000 0.000000 0.000000 0.000000 0.000000 -0.069332
#
#
# Mechanical properties :
#
#
# Convention : Reuss Voigt Hill
#
# Bulk Modulus (GPa) = 61.84669 73.23053 67.53861
# Shear Modulus (GPa) = 33.06009 15.02980 24.04495
#
# Velocity S-wave (km/s) = 4.16207 2.80630 3.54952
# Velocity P-wave (km/s) = 7.45007 6.99084 7.22410
#
# Compressibility (1/GPa) = 0.01616901
#
# Stress axis : x y z
#
# Youngs Moduli (GPa) = 82.87707 41.62156 72.78277
#
# Poissons Ratio (x) = 0.28394 0.33325
# Poissons Ratio (y) = 0.56538 0.39526
# Poissons Ratio (z) = 0.37947 0.22603
#
# Static dielectric constant tensor:
#      x y z
#    x 1.690870 0.000000 0.000000 
#    y 0.000000 1.644950 0.000000 
#    z 0.000000 0.000000 1.654400 
# 
# From -- ./inp_files/23010.got.cif
#   From: 2010.05.17/outbox.cif.g08.bks.cpg/sg38_12_cif.got.tgz:23010.got - 2010.06.03 18:07:57.
