data_PCOD9356426
_publ_section_title
;
Structure prediction by ZEFSAII (Michael W. Deem and Ramdas Pophale) SiO2 
 PCOD9356426
Probable space group: A M M 2
;
_chemical_formula_sum "Si O2"
_cell_formula_units_Z 64
_cell_length_a 20.427228
_cell_length_b 8.048263
_cell_length_c 20.936431
_cell_angle_alpha 90.000000
_cell_angle_beta 90.000000
_cell_angle_gamma 90.000000
_cell_volume 3442.026790
_symmetry_space_group_name_H-M "A M M 2"
_symmetry_group_IT_number 38
_symmetry_cell_setting 'orthorhombic'
loop_
_space_group_symop_operation_xyz
x,y,z
-x,-y,z
-x,y,z
x,-y,z
x,1/2+y,1/2+z
-x,1/2-y,1/2+z
-x,1/2+y,1/2+z
x,1/2-y,1/2+z
loop_
_atom_site_type_symbol
_atom_site_label
_atom_site_fract_x
_atom_site_fract_y
_atom_site_fract_z
Si Si1 0.312771 0.701038 0.676290
Si Si2 0.835675 0.699451 0.645437
Si Si3 0.573331 0.803558 0.921932
Si Si4 0.803304 0.200097 0.509477
Si Si5 0.178194 0.703415 0.867232
Si Si6 0.655494 0.697306 0.039840
Si Si7 0.925163 0.796443 0.260858
Si Si8 0.679395 0.800978 0.318184
O O1 0.313883 0.500000 0.674453
O O2 0.236994 0.755976 0.666988
O O3 0.351824 0.762891 0.614559
O O4 0.335253 0.758348 0.746228
O O5 0.834851 0.500000 0.648970
O O6 0.843563 0.748313 0.571806
O O7 0.889921 0.758356 0.695378
O O8 0.500000 0.733680 0.915300
O O9 0.624159 0.736774 0.869766
O O10 0.570308 0.000000 0.912700
O O11 0.602280 0.770036 0.992134
O O12 0.828815 0.256808 0.440719
O O13 0.728237 0.259818 0.519666
O O14 0.801012 0.000000 0.508534
O O15 0.178688 0.500000 0.866628
O O16 0.120650 0.756066 0.819813
O O17 0.249251 0.759195 0.841500
O O18 0.655165 0.500000 0.030922
O O19 0.000000 0.741189 0.265686
O O20 0.925497 0.000000 0.260795
O O21 0.685216 0.000000 0.314178
#
# Coordination Sequence:
#
# PCOD9356426 Si02
#       8
#     8   8   8   8   8   8   8   8
#     4   9  17  30  52  79 106 134 169 217 264 304
#     4   9  16  28  47  72 101 130 167 212 253 300
#     4  11  24  39  54  76 108 140 172 215 264 316
#     4   9  17  29  48  73 101 128 162 211 259 301
#     4   9  15  28  48  72 102 132 170 218 256 296
#     4  10  19  33  54  78 104 135 171 213 259 312
#     4   9  16  27  47  74 102 136 176 215 257 304
#     4  10  18  33  56  79 104 138 177 218 262 311
#
# _framework density 18.593693999999999
#
# number of rings (size 3 to 8) (size 9 to 14) (size 15 to 20)
#    0.000    2.500    2.500    0.750    0.000    2.000 
#    0.000    1.250    0.000    2.625    0.000    0.000 
#    0.000    0.000    0.000    0.000    0.000    0.000 
#
# Total GULP energy -178451.995113 kJ/mol
# GULP energy per Si atom -5576.624847 kJ/mol
# Density = 1.855137 g / cm^3
# Si number density = 18.593694 Si / 1000 Ang^3
#
#
#
# Elastic Constant Matrix: (Units=GPa)
#
#
# Indices 1 2 3 4 5 6 
#
# 1 104.7276 -2.4049 66.6077 0.0000 0.0000 0.0000
# 2 -2.4049 5.4514 -3.2052 0.0000 0.0000 0.0000
# 3 66.6077 -3.2052 160.0857 0.0000 0.0000 0.0000
# 4 0.0000 0.0000 0.0000 26.9038 0.0000 0.0000
# 5 0.0000 0.0000 0.0000 0.0000 22.6821 0.0000
# 6 0.0000 0.0000 0.0000 0.0000 0.0000 8.9392
#
#
#
# Elastic Compliance Matrix: (Units=1/GPa)
#
#
# Indices 1 2 3 4 5 6 
#
# 1 0.013021 0.002589 -0.005366 0.000000 0.000000 0.000000
# 2 0.002589 0.186138 0.002649 0.000000 0.000000 0.000000
# 3 -0.005366 0.002649 0.008532 0.000000 0.000000 0.000000
# 4 0.000000 0.000000 0.000000 0.037170 0.000000 0.000000
# 5 0.000000 0.000000 0.000000 0.000000 0.044088 0.000000
# 6 0.000000 0.000000 0.000000 0.000000 0.000000 0.111866
#
#
# Mechanical properties :
#
#
# Convention : Reuss Voigt Hill
#
# Bulk Modulus (GPa) = 4.82074 43.58443 24.20259
# Shear Modulus (GPa) = 10.63345 25.65616 18.14481
#
# Velocity S-wave (km/s) = 2.39401 3.71864 3.12726
# Velocity P-wave (km/s) = 3.20000 6.47526 5.10730
#
# Compressibility (1/GPa) = 0.20743702
#
# Stress axis : x y z
#
# Youngs Moduli (GPa) = 76.80069 5.37236 117.20224
#
# Poissons Ratio (x) = -0.01391 0.62888
# Poissons Ratio (y) = -0.19886 -0.31053
# Poissons Ratio (z) = 0.41209 -0.01423
#
# Static dielectric constant tensor:
#      x y z
#    x 1.629520 0.000000 0.000000 
#    y 0.000000 1.668200 0.000000 
#    z 0.000000 0.000000 1.650280 
# 
# From -- ./inp_files/21378.got.cif
#   From: 2010.05.17/outbox.cif.g08.bks.cpg/sg38_11_cif.got.tgz:21378.got - 2010.06.03 18:07:57.
