data_PCOD9356503
_publ_section_title
;
Structure prediction by ZEFSAII (Michael W. Deem and Ramdas Pophale) SiO2 
 PCOD9356503
Probable space group: A M M 2
;
_chemical_formula_sum "Si O2"
_cell_formula_units_Z 64
_cell_length_a 9.018018
_cell_length_b 27.142187
_cell_length_c 18.742133
_cell_angle_alpha 90.000000
_cell_angle_beta 90.000000
_cell_angle_gamma 90.000000
_cell_volume 4587.488109
_symmetry_space_group_name_H-M "A M M 2"
_symmetry_group_IT_number 38
_symmetry_cell_setting 'orthorhombic'
loop_
_space_group_symop_operation_xyz
x,y,z
-x,-y,z
-x,y,z
x,-y,z
x,1/2+y,1/2+z
-x,1/2-y,1/2+z
-x,1/2+y,1/2+z
x,1/2-y,1/2+z
loop_
_atom_site_type_symbol
_atom_site_label
_atom_site_fract_x
_atom_site_fract_y
_atom_site_fract_z
Si Si1 0.823380 0.759722 0.443790
Si Si2 0.677497 0.443284 0.932580
Si Si3 0.670950 0.297782 0.161568
Si Si4 0.329428 0.700462 0.560395
Si Si5 0.321023 0.648971 0.025810
Si Si6 0.176885 0.762497 0.277627
Si Si7 0.823571 0.442125 0.779833
Si Si8 0.678678 0.145110 0.197043
O O1 0.766106 0.714379 0.491867
O O2 0.749758 0.808901 0.476333
O O3 0.785235 0.755335 0.360529
O O4 0.000000 0.763704 0.450436
O O5 0.500000 0.439642 0.919782
O O6 0.710553 0.500000 0.951798
O O7 0.761275 0.431498 0.859073
O O8 0.716548 0.403991 0.993294
O O9 0.500000 0.306153 0.183035
O O10 0.672244 0.249402 0.110417
O O11 0.723038 0.340635 0.107869
O O12 0.768402 0.282909 0.228996
O O13 0.500000 0.691819 0.539387
O O14 0.279497 0.658090 0.615160
O O15 0.500000 0.654953 0.023696
O O16 0.255651 0.811373 0.246651
O O17 0.000000 0.768421 0.270995
O O18 0.794758 0.500000 0.765666
O O19 0.742639 0.406034 0.725145
O O20 0.000000 0.433918 0.778254
O O21 0.500000 0.146466 0.201349
#
# Coordination Sequence:
#
# PCOD9356503 Si02
#       8
#     8   8   8   8   8   8   8   8
#     4  10  19  27  38  58  81 105 133 162 195 236
#     4   9  17  29  44  60  79 106 138 170 203 236
#     4   8  15  27  40  55  76 103 133 163 196 235
#     4   8  16  29  42  57  77 101 131 165 198 233
#     4   9  17  28  41  57  78 104 135 167 197 233
#     4  10  19  28  39  59  84 107 134 166 198 235
#     4  10  20  31  42  59  83 108 135 168 201 232
#     4  10  19  30  44  60  78 105 139 168 198 237
#
# _framework density 13.950989999999999
#
# number of rings (size 3 to 8) (size 9 to 14) (size 15 to 20)
#    0.000    2.750    0.000    3.750    0.000   10.250 
#    0.000    0.000    0.000    0.000    0.000    0.000 
#    0.000    1.000    0.000    9.000    0.000    4.250 
#
# Total GULP energy -178235.236701 kJ/mol
# GULP energy per Si atom -5569.851147 kJ/mol
# Density = 1.391924 g / cm^3
# Si number density = 13.950990 Si / 1000 Ang^3
#
#
#
# Elastic Constant Matrix: (Units=GPa)
#
#
# Indices 1 2 3 4 5 6 
#
# 1 38.7721 26.8292 41.6726 0.0000 0.0000 0.0000
# 2 26.8292 64.6581 43.5944 0.0000 0.0000 0.0000
# 3 41.6726 43.5944 90.8774 0.0000 0.0000 0.0000
# 4 0.0000 0.0000 0.0000 28.1178 0.0000 0.0000
# 5 0.0000 0.0000 0.0000 0.0000 34.7925 0.0000
# 6 0.0000 0.0000 0.0000 0.0000 0.0000 16.7490
#
#
#
# Elastic Compliance Matrix: (Units=1/GPa)
#
#
# Indices 1 2 3 4 5 6 
#
# 1 0.053782 -0.008408 -0.020629 0.000000 0.000000 0.000000
# 2 -0.008408 0.024174 -0.007741 0.000000 0.000000 0.000000
# 3 -0.020629 -0.007741 0.024177 0.000000 0.000000 0.000000
# 4 0.000000 0.000000 0.000000 0.035565 0.000000 0.000000
# 5 0.000000 0.000000 0.000000 0.000000 0.028742 0.000000
# 6 0.000000 0.000000 0.000000 0.000000 0.000000 0.059705
#
#
# Mechanical properties :
#
#
# Convention : Reuss Voigt Hill
#
# Bulk Modulus (GPa) = 34.99263 46.50000 40.74632
# Shear Modulus (GPa) = 16.16948 21.41260 18.79104
#
# Velocity S-wave (km/s) = 3.40813 3.92196 3.67404
# Velocity P-wave (km/s) = 6.37371 7.34250 6.87519
#
# Compressibility (1/GPa) = 0.02857744
#
# Stress axis : x y z
#
# Youngs Moduli (GPa) = 18.59368 41.36707 41.36205
#
# Poissons Ratio (x) = 0.34780 0.85325
# Poissons Ratio (y) = 0.15633 0.32018
# Poissons Ratio (z) = 0.38357 0.32022
#
# Static dielectric constant tensor:
#      x y z
#    x 1.466690 0.000000 0.000000 
#    y 0.000000 1.459410 0.000000 
#    z 0.000000 0.000000 1.458660 
# 
# From -- ./inp_files/17340.got.cif
#   From: 2010.05.17/outbox.cif.g08.bks.cpg/sg38_9_cif.got.tgz:17340.got - 2010.06.03 18:07:57.
