data_PCOD9356005
_publ_section_title
;
Structure prediction by ZEFSAII (Michael W. Deem and Ramdas Pophale) SiO2 
 PCOD9356005
Probable space group: A M M 2
;
_chemical_formula_sum "Si O2"
_cell_formula_units_Z 56
_cell_length_a 8.979348
_cell_length_b 18.925503
_cell_length_c 21.493867
_cell_angle_alpha 90.000000
_cell_angle_beta 90.000000
_cell_angle_gamma 90.000000
_cell_volume 3652.639333
_symmetry_space_group_name_H-M "A M M 2"
_symmetry_group_IT_number 38
_symmetry_cell_setting 'orthorhombic'
loop_
_space_group_symop_operation_xyz
x,y,z
-x,-y,z
-x,y,z
x,-y,z
x,1/2+y,1/2+z
-x,1/2-y,1/2+z
-x,1/2+y,1/2+z
x,1/2-y,1/2+z
loop_
_atom_site_type_symbol
_atom_site_label
_atom_site_fract_x
_atom_site_fract_y
_atom_site_fract_z
Si Si1 0.821063 0.343180 0.688630
Si Si2 0.679975 0.081781 0.307805
Si Si3 0.818434 0.418571 0.560666
Si Si4 0.820451 0.418468 0.303874
Si Si5 0.328792 0.285773 0.878652
Si Si6 0.328235 0.789656 0.742766
Si Si7 0.821075 0.344907 0.433711
O O1 0.755586 0.390708 0.744590
O O2 0.775570 0.376804 0.622832
O O3 0.758636 0.264248 0.698337
O O4 0.000000 0.342561 0.692892
O O5 0.500000 0.089044 0.301127
O O6 0.725021 0.135069 0.363402
O O7 0.714775 0.000000 0.318962
O O8 0.769082 0.500000 0.562786
O O9 0.768048 0.380350 0.497519
O O10 0.000000 0.419407 0.559343
O O11 0.777653 0.500000 0.295663
O O12 0.747855 0.364932 0.254785
O O13 0.777555 0.391388 0.373208
O O14 0.000000 0.413348 0.299777
O O15 0.500000 0.288078 0.899535
O O16 0.325136 0.248579 0.810548
O O17 0.237025 0.234293 0.922852
O O18 0.500000 0.796743 0.724148
O O19 0.000000 0.343653 0.434787
#
# Coordination Sequence:
#
# PCOD9356005 Si02
#       7
#     8   8   8   8   8   8   8
#     4  10  18  28  43  62  85 113 145 179 210 244
#     4   9  17  29  44  62  86 114 140 170 213 260
#     4   9  17  28  42  62  87 114 143 173 206 244
#     4   9  16  26  43  67  90 111 139 176 214 251
#     4   8  15  27  41  58  81 108 138 173 211 249
#     4   9  17  29  43  59  83 114 144 175 213 255
#     4   9  16  27  43  61  84 115 145 171 202 245
#
# _framework density 15.331379999999999
#
# number of rings (size 3 to 8) (size 9 to 14) (size 15 to 20)
#    0.000    3.000    0.000    2.571    0.000    6.286 
#    0.000    1.429    0.000    3.000    0.000    1.000 
#    0.000    5.714    0.000    0.000    0.000    0.000 
#
# Total GULP energy -155906.933843 kJ/mol
# GULP energy per Si atom -5568.104780 kJ/mol
# Density = 1.529648 g / cm^3
# Si number density = 15.331380 Si / 1000 Ang^3
#
#
#
# Elastic Constant Matrix: (Units=GPa)
#
#
# Indices 1 2 3 4 5 6 
#
# 1 24.7404 40.3529 23.7206 0.0000 0.0000 0.0000
# 2 40.3529 167.1839 67.7512 0.0000 0.0000 0.0000
# 3 23.7206 67.7512 74.7441 0.0000 0.0000 0.0000
# 4 0.0000 0.0000 0.0000 24.3432 0.0000 0.0000
# 5 0.0000 0.0000 0.0000 0.0000 9.2344 0.0000
# 6 0.0000 0.0000 0.0000 0.0000 0.0000 22.7801
#
#
#
# Elastic Compliance Matrix: (Units=1/GPa)
#
#
# Indices 1 2 3 4 5 6 
#
# 1 0.072188 -0.012866 -0.011247 0.000000 0.000000 0.000000
# 2 -0.012866 0.011747 -0.006565 0.000000 0.000000 0.000000
# 3 -0.011247 -0.006565 0.022899 0.000000 0.000000 0.000000
# 4 0.000000 0.000000 0.000000 0.041079 0.000000 0.000000
# 5 0.000000 0.000000 0.000000 0.000000 0.108291 0.000000
# 6 0.000000 0.000000 0.000000 0.000000 0.000000 0.043898
#
#
# Mechanical properties :
#
#
# Convention : Reuss Voigt Hill
#
# Bulk Modulus (GPa) = 21.98852 58.92420 40.45636
# Shear Modulus (GPa) = 13.27600 20.26113 16.76857
#
# Velocity S-wave (km/s) = 2.94587 3.63925 3.31076
# Velocity P-wave (km/s) = 5.09354 7.49507 6.40782
#
# Compressibility (1/GPa) = 0.04547827
#
# Stress axis : x y z
#
# Youngs Moduli (GPa) = 13.85264 85.12460 43.66936
#
# Poissons Ratio (x) = 1.09522 0.49115
# Poissons Ratio (y) = 0.17823 0.28670
# Poissons Ratio (z) = 0.15580 0.55886
#
# Static dielectric constant tensor:
#      x y z
#    x 1.519280 0.000000 0.000000 
#    y 0.000000 1.522230 0.000000 
#    z 0.000000 0.000000 1.490040 
# 
# From -- ./inp_files/19973.got.cif
#   From: 2010.05.17/outbox.cif.g08.bks.cpg/sg38_10_cif.got.tgz:19973.got - 2010.06.03 18:07:57.
