data_PCOD9356303
_publ_section_title
;
Structure prediction by ZEFSAII (Michael W. Deem and Ramdas Pophale) SiO2 
 PCOD9356303
Probable space group: A M M 2
;
_chemical_formula_sum "Si O2"
_cell_formula_units_Z 64
_cell_length_a 20.280860
_cell_length_b 7.523930
_cell_length_c 21.090185
_cell_angle_alpha 90.000000
_cell_angle_beta 90.000000
_cell_angle_gamma 90.000000
_cell_volume 3218.188679
_symmetry_space_group_name_H-M "A M M 2"
_symmetry_group_IT_number 38
_symmetry_cell_setting 'orthorhombic'
loop_
_space_group_symop_operation_xyz
x,y,z
-x,-y,z
-x,y,z
x,-y,z
x,1/2+y,1/2+z
-x,1/2-y,1/2+z
-x,1/2+y,1/2+z
x,1/2-y,1/2+z
loop_
_atom_site_type_symbol
_atom_site_label
_atom_site_fract_x
_atom_site_fract_y
_atom_site_fract_z
Si Si1 0.314979 0.704790 0.655100
Si Si2 0.832844 0.711393 0.187428
Si Si3 0.925467 0.713611 0.572136
Si Si4 0.666670 0.716620 0.794586
Si Si5 0.679418 0.712837 0.515953
Si Si6 0.574379 0.713401 0.907424
Si Si7 0.182775 0.792846 0.825828
Si Si8 0.177729 0.781598 0.965979
O O1 0.337232 0.500000 0.654483
O O2 0.235249 0.708857 0.660633
O O3 0.340313 0.780507 0.721985
O O4 0.332661 0.784456 0.586936
O O5 0.821223 0.500000 0.191560
O O6 0.891665 0.744491 0.139175
O O7 0.843683 0.780765 0.259020
O O8 0.927712 0.500000 0.566865
O O9 0.876799 0.776526 0.516496
O O10 0.000000 0.781116 0.567470
O O11 0.668472 0.500000 0.793691
O O12 0.611051 0.776118 0.843595
O O13 0.737952 0.777939 0.819601
O O14 0.686535 0.500000 0.522160
O O15 0.620918 0.746862 0.467066
O O16 0.749451 0.776964 0.488239
O O17 0.500000 0.781420 0.914000
O O18 0.571055 0.500000 0.902542
O O19 0.164057 0.718762 0.894387
O O20 0.163922 0.000000 0.827206
O O21 0.178496 0.000000 0.965089
#
# Coordination Sequence:
#
# PCOD9356303 Si02
#       8
#     8   8   8   8   8   8   8   8
#     4   9  17  31  51  75 100 125 163 211 250 288
#     4  10  19  30  48  75 104 131 160 200 251 302
#     4  10  20  35  54  73  98 136 174 206 248 301
#     4   9  17  30  49  72  97 127 164 202 243 291
#     4  10  18  31  53  76 100 129 166 214 253 290
#     4  10  21  35  49  70 104 139 168 202 251 309
#     4   9  17  30  49  73 100 127 158 202 251 289
#     4   9  16  30  51  75 100 126 164 211 249 288
#
# _framework density 19.886963999999999
#
# number of rings (size 3 to 8) (size 9 to 14) (size 15 to 20)
#    0.000    2.500    2.500    0.375    0.000    1.500 
#    0.000    1.875    0.000    4.500    0.000    0.000 
#    0.000    0.000    0.000    0.000    0.000    0.000 
#
# Total GULP energy -178502.985585 kJ/mol
# GULP energy per Si atom -5578.218300 kJ/mol
# Density = 1.984170 g / cm^3
# Si number density = 19.886964 Si / 1000 Ang^3
#
#
#
# Elastic Constant Matrix: (Units=GPa)
#
#
# Indices 1 2 3 4 5 6 
#
# 1 119.2435 -8.5774 101.4533 0.0000 0.0000 0.0000
# 2 -8.5774 51.6715 0.3018 0.0000 0.0000 0.0000
# 3 101.4533 0.3018 217.1632 0.0000 0.0000 0.0000
# 4 0.0000 0.0000 0.0000 4.4922 0.0000 0.0000
# 5 0.0000 0.0000 0.0000 0.0000 24.6788 0.0000
# 6 0.0000 0.0000 0.0000 0.0000 0.0000 12.4037
#
#
#
# Elastic Compliance Matrix: (Units=1/GPa)
#
#
# Indices 1 2 3 4 5 6 
#
# 1 0.014209 0.002398 -0.006642 0.000000 0.000000 0.000000
# 2 0.002398 0.019758 -0.001148 0.000000 0.000000 0.000000
# 3 -0.006642 -0.001148 0.007709 0.000000 0.000000 0.000000
# 4 0.000000 0.000000 0.000000 0.222609 0.000000 0.000000
# 5 0.000000 0.000000 0.000000 0.000000 0.040521 0.000000
# 6 0.000000 0.000000 0.000000 0.000000 0.000000 0.080621
#
#
# Mechanical properties :
#
#
# Convention : Reuss Voigt Hill
#
# Bulk Modulus (GPa) = 32.36965 63.82594 48.09779
# Shear Modulus (GPa) = 12.29987 27.97497 20.13742
#
# Velocity S-wave (km/s) = 2.48964 3.75467 3.18558
# Velocity P-wave (km/s) = 4.95748 7.13868 6.14562
#
# Compressibility (1/GPa) = 0.03089313
#
# Stress axis : x y z
#
# Youngs Moduli (GPa) = 70.37602 50.61314 129.71484
#
# Poissons Ratio (x) = -0.12135 0.86151
# Poissons Ratio (y) = -0.16873 0.14885
# Poissons Ratio (z) = 0.46741 0.05808
#
# Static dielectric constant tensor:
#      x y z
#    x 1.650270 0.000000 0.000000 
#    y 0.000000 1.811110 0.000000 
#    z 0.000000 0.000000 1.734330 
# 
# From -- ./inp_files/21390.got.cif
#   From: 2010.05.17/outbox.cif.g08.bks.cpg/sg38_11_cif.got.tgz:21390.got - 2010.06.03 18:07:57.
