data_PCOD9356240
_publ_section_title
;
Structure prediction by ZEFSAII (Michael W. Deem and Ramdas Pophale) SiO2 
 PCOD9356240
Probable space group: A M M 2
;
_chemical_formula_sum "Si O2"
_cell_formula_units_Z 40
_cell_length_a 8.836471
_cell_length_b 26.870799
_cell_length_c 9.287130
_cell_angle_alpha 90.000000
_cell_angle_beta 90.000000
_cell_angle_gamma 90.000000
_cell_volume 2205.164344
_symmetry_space_group_name_H-M "A M M 2"
_symmetry_group_IT_number 38
_symmetry_cell_setting 'orthorhombic'
loop_
_space_group_symop_operation_xyz
x,y,z
-x,-y,z
-x,y,z
x,-y,z
x,1/2+y,1/2+z
-x,1/2-y,1/2+z
-x,1/2+y,1/2+z
x,1/2-y,1/2+z
loop_
_atom_site_type_symbol
_atom_site_label
_atom_site_fract_x
_atom_site_fract_y
_atom_site_fract_z
Si Si1 0.180343 0.390852 0.745780
Si Si2 0.182086 0.500000 0.727453
Si Si3 0.317968 0.298309 0.911970
Si Si4 0.320325 0.000000 0.909101
Si Si5 0.316569 0.301400 0.245380
Si Si6 0.181110 0.603742 0.405082
O O1 0.216390 0.447038 0.799693
O O2 0.260158 0.347297 0.831816
O O3 0.219196 0.389504 0.575312
O O4 0.000000 0.384150 0.757342
O O5 0.270391 0.500000 0.576870
O O6 0.000000 0.500000 0.695464
O O7 0.500000 0.298639 0.908463
O O8 0.268085 0.248318 0.829957
O O9 0.270995 0.297640 0.078541
O O10 0.250545 0.948530 0.851793
O O11 0.500000 0.000000 0.894628
O O12 0.500000 0.304559 0.252527
O O13 0.246620 0.349936 0.318386
O O14 0.000000 0.601401 0.394378
#
# Coordination Sequence:
#
# PCOD9356240 Si02
#       6
#     8   4   8   4   8   8
#     4   9  18  33  54  78 106 139 177 217 261 313
#     4   8  16  32  51  76 109 142 178 220 260 308
#     4  10  21  36  55  78 106 138 177 223 270 318
#     4  10  18  30  53  82 109 140 176 216 260 310
#     4  10  21  37  55  77 104 138 178 222 270 320
#     4  10  20  35  55  80 109 142 178 218 261 312
#
# _framework density 18.139237999999999
#
# number of rings (size 3 to 8) (size 9 to 14) (size 15 to 20)
#    0.000    2.400    0.000    3.900    0.000    7.200 
#    0.000    1.000    0.000    4.800    0.000    0.000 
#    0.000    0.000    0.000    0.000    0.000    0.000 
#
# Total GULP energy -111563.757377 kJ/mol
# GULP energy per Si atom -5578.187869 kJ/mol
# Density = 1.809795 g / cm^3
# Si number density = 18.139238 Si / 1000 Ang^3
#
#
#
# Elastic Constant Matrix: (Units=GPa)
#
#
# Indices 1 2 3 4 5 6 
#
# 1 31.4743 55.2642 37.1160 0.0000 0.0000 0.0000
# 2 55.2642 223.9149 98.6223 0.0000 0.0000 0.0000
# 3 37.1160 98.6223 99.0452 0.0000 0.0000 0.0000
# 4 0.0000 0.0000 0.0000 32.0397 0.0000 0.0000
# 5 0.0000 0.0000 0.0000 0.0000 23.2547 0.0000
# 6 0.0000 0.0000 0.0000 0.0000 0.0000 62.0766
#
#
#
# Elastic Compliance Matrix: (Units=1/GPa)
#
#
# Indices 1 2 3 4 5 6 
#
# 1 0.067116 -0.009773 -0.015419 0.000000 0.000000 0.000000
# 2 -0.009773 0.009378 -0.005675 0.000000 0.000000 0.000000
# 3 -0.015419 -0.005675 0.021526 0.000000 0.000000 0.000000
# 4 0.000000 0.000000 0.000000 0.031211 0.000000 0.000000
# 5 0.000000 0.000000 0.000000 0.000000 0.043002 0.000000
# 6 0.000000 0.000000 0.000000 0.000000 0.000000 0.016109
#
#
# Mechanical properties :
#
#
# Convention : Reuss Voigt Hill
#
# Bulk Modulus (GPa) = 27.56083 81.82661 54.69372
# Shear Modulus (GPa) = 19.07149 34.36967 26.72058
#
# Velocity S-wave (km/s) = 3.24604 4.35762 3.84224
# Velocity P-wave (km/s) = 5.41073 8.39801 7.06409
#
# Compressibility (1/GPa) = 0.03628337
#
# Stress axis : x y z
#
# Youngs Moduli (GPa) = 14.89967 106.63468 46.45642
#
# Poissons Ratio (x) = 1.04219 0.71631
# Poissons Ratio (y) = 0.14562 0.26365
# Poissons Ratio (z) = 0.22974 0.60518
#
# Static dielectric constant tensor:
#      x y z
#    x 1.609580 0.000000 0.000000 
#    y 0.000000 1.625370 0.000000 
#    z 0.000000 0.000000 1.613720 
# 
# From -- ./inp_files/3499.got.cif
#   From: 2010.05.17/outbox.cif.g08.bks.cpg/sg38_2_cif.got.tgz:3499.got - 2010.06.03 18:07:57.
