data_PCOD9356557
_publ_section_title
;
Structure prediction by ZEFSAII (Michael W. Deem and Ramdas Pophale) SiO2 
 PCOD9356557
Probable space group: A M M 2
;
_chemical_formula_sum "Si O2"
_cell_formula_units_Z 56
_cell_length_a 9.187001
_cell_length_b 13.956116
_cell_length_c 29.607843
_cell_angle_alpha 90.000000
_cell_angle_beta 90.000000
_cell_angle_gamma 90.000000
_cell_volume 3796.165198
_symmetry_space_group_name_H-M "A M M 2"
_symmetry_group_IT_number 38
_symmetry_cell_setting 'orthorhombic'
loop_
_space_group_symop_operation_xyz
x,y,z
-x,-y,z
-x,y,z
x,-y,z
x,1/2+y,1/2+z
-x,1/2-y,1/2+z
-x,1/2+y,1/2+z
x,1/2-y,1/2+z
loop_
_atom_site_type_symbol
_atom_site_label
_atom_site_fract_x
_atom_site_fract_y
_atom_site_fract_z
Si Si1 0.324506 0.112821 0.174790
Si Si2 0.172750 0.885761 0.982477
Si Si3 0.826050 0.388797 0.852126
Si Si4 0.173380 0.215461 0.257894
Si Si5 0.673640 0.611122 0.304427
Si Si6 0.332584 0.116255 0.073533
Si Si7 0.673289 0.784814 0.898869
O O1 0.500000 0.120086 0.178383
O O2 0.247427 0.172753 0.213548
O O3 0.284803 0.145356 0.123874
O O4 0.287040 0.000000 0.179644
O O5 0.252709 0.829020 0.942875
O O6 0.000000 0.871789 0.979984
O O7 0.202267 0.000000 0.977393
O O8 0.233473 0.855463 0.031502
O O9 0.787346 0.500000 0.857602
O O10 0.795861 0.353829 0.800881
O O11 0.740723 0.317330 0.884973
O O12 0.000000 0.378280 0.859235
O O13 0.239806 0.317753 0.271830
O O14 0.000000 0.221244 0.252508
O O15 0.500000 0.621740 0.296800
O O16 0.712481 0.500000 0.299152
O O17 0.702135 0.646194 0.355710
O O18 0.500000 0.146839 0.066193
O O19 0.333690 0.000000 0.074770
O O20 0.500000 0.778106 0.904744
#
# Coordination Sequence:
#
# PCOD9356557 Si02
#       7
#     8   8   8   8   8   8   8
#     4   9  17  29  45  65  90 120 151 182 217 258
#     4  10  19  29  43  65  92 120 148 179 218 264
#     4   9  18  32  46  62  89 121 150 182 219 258
#     4  10  19  29  44  67  92 118 148 181 220 264
#     4   9  18  32  47  63  86 117 152 187 220 256
#     4   8  15  28  44  62  86 116 148 181 217 257
#     4  10  19  30  46  67  89 115 149 185 220 260
#
# _framework density 14.751728
#
# number of rings (size 3 to 8) (size 9 to 14) (size 15 to 20)
#    0.000    2.714    0.000    3.000    0.000    4.571 
#    0.000    1.429    0.000    0.000    0.000    1.000 
#    0.000    1.143    0.000    0.000    0.000    0.000 
#
# Total GULP energy -156071.437391 kJ/mol
# GULP energy per Si atom -5573.979907 kJ/mol
# Density = 1.471815 g / cm^3
# Si number density = 14.751728 Si / 1000 Ang^3
#
#
#
# Elastic Constant Matrix: (Units=GPa)
#
#
# Indices 1 2 3 4 5 6 
#
# 1 59.3265 56.1577 73.3340 0.0000 0.0000 0.0000
# 2 56.1577 101.3021 69.9995 0.0000 0.0000 0.0000
# 3 73.3340 69.9995 141.1304 0.0000 0.0000 0.0000
# 4 0.0000 0.0000 0.0000 24.6832 0.0000 0.0000
# 5 0.0000 0.0000 0.0000 0.0000 25.2966 0.0000
# 6 0.0000 0.0000 0.0000 0.0000 0.0000 21.9898
#
#
#
# Elastic Compliance Matrix: (Units=1/GPa)
#
#
# Indices 1 2 3 4 5 6 
#
# 1 0.065181 -0.019368 -0.024263 0.000000 0.000000 0.000000
# 2 -0.019368 0.020774 -0.000240 0.000000 0.000000 0.000000
# 3 -0.024263 -0.000240 0.019812 0.000000 0.000000 0.000000
# 4 0.000000 0.000000 0.000000 0.040513 0.000000 0.000000
# 5 0.000000 0.000000 0.000000 0.000000 0.039531 0.000000
# 6 0.000000 0.000000 0.000000 0.000000 0.000000 0.045476
#
#
# Mechanical properties :
#
#
# Convention : Reuss Voigt Hill
#
# Bulk Modulus (GPa) = 55.47642 77.86015 66.66829
# Shear Modulus (GPa) = 15.38284 21.21176 18.29730
#
# Velocity S-wave (km/s) = 3.23272 3.79610 3.52568
# Velocity P-wave (km/s) = 7.18487 8.49169 7.86547
#
# Compressibility (1/GPa) = 0.01802568
#
# Stress axis : x y z
#
# Youngs Moduli (GPa) = 15.34183 48.13719 50.47436
#
# Poissons Ratio (x) = 0.93233 1.22466
# Poissons Ratio (y) = 0.29714 0.01210
# Poissons Ratio (z) = 0.37224 0.01154
#
# Static dielectric constant tensor:
#      x y z
#    x 1.486400 0.000000 0.000000 
#    y 0.000000 1.464040 0.000000 
#    z 0.000000 0.000000 1.477100 
# 
# From -- ./inp_files/24631.got.cif
#   From: 2010.05.17/outbox.cif.g08.bks.cpg/sg38_13_cif.got.tgz:24631.got - 2010.06.03 18:07:57.
