data_PCOD9356100
_publ_section_title
;
Structure prediction by ZEFSAII (Michael W. Deem and Ramdas Pophale) SiO2 
 PCOD9356100
Probable space group: A M M 2
;
_chemical_formula_sum "Si O2"
_cell_formula_units_Z 64
_cell_length_a 8.560787
_cell_length_b 28.174809
_cell_length_c 15.324338
_cell_angle_alpha 90.000000
_cell_angle_beta 90.000000
_cell_angle_gamma 90.000000
_cell_volume 3696.207931
_symmetry_space_group_name_H-M "A M M 2"
_symmetry_group_IT_number 38
_symmetry_cell_setting 'orthorhombic'
loop_
_space_group_symop_operation_xyz
x,y,z
-x,-y,z
-x,y,z
x,-y,z
x,1/2+y,1/2+z
-x,1/2-y,1/2+z
-x,1/2+y,1/2+z
x,1/2-y,1/2+z
loop_
_atom_site_type_symbol
_atom_site_label
_atom_site_fract_x
_atom_site_fract_y
_atom_site_fract_z
Si Si1 0.311987 0.828061 0.269310
Si Si2 0.311634 0.445076 0.277035
Si Si3 0.187268 0.781832 0.579973
Si Si4 0.309550 0.445746 0.078370
Si Si5 0.186974 0.637820 0.396687
Si Si6 0.312665 0.282205 0.269795
Si Si7 0.812049 0.328500 0.581522
Si Si8 0.311039 0.361719 0.953778
O O1 0.500000 0.828786 0.266609
O O2 0.264521 0.772788 0.282337
O O3 0.250617 0.844142 0.175429
O O4 0.259028 0.857620 0.353471
O O5 0.500000 0.442172 0.279306
O O6 0.268165 0.500000 0.293169
O O7 0.262275 0.433005 0.177508
O O8 0.244395 0.408649 0.346389
O O9 0.249921 0.797284 0.674812
O O10 0.234945 0.726755 0.568406
O O11 0.256314 0.815379 0.506024
O O12 0.000000 0.784328 0.578934
O O13 0.500000 0.445480 0.077897
O O14 0.260831 0.500000 0.060777
O O15 0.255689 0.407656 0.007548
O O16 0.247409 0.683425 0.343523
O O17 0.240592 0.642172 0.497105
O O18 0.000000 0.638794 0.396138
O O19 0.500000 0.284708 0.269538
O O20 0.000000 0.329477 0.584930
O O21 0.500000 0.362284 0.953981
#
# Coordination Sequence:
#
# PCOD9356100 Si02
#       8
#     8   8   8   8   8   8   8   8
#     4   9  19  32  47  69  95 126 165 204 238 279
#     4   9  18  33  52  74  99 127 158 192 238 295
#     4  10  19  31  47  69  97 128 162 197 235 283
#     4   8  15  29  49  71  95 122 149 181 228 285
#     4  11  21  32  49  73  97 125 164 202 241 292
#     4  10  19  31  46  67  98 131 160 195 241 287
#     4   9  20  35  48  65  94 131 165 198 237 283
#     4  10  18  29  48  73  97 122 157 197 238 285
#
# _framework density 17.315044
#
# number of rings (size 3 to 8) (size 9 to 14) (size 15 to 20)
#    0.000    2.500    0.000    3.375    0.000    3.750 
#    0.000    0.000    0.000    1.875    0.000    1.750 
#    0.000    0.000    0.000    0.000    0.000    0.000 
#
# Total GULP energy -178528.147649 kJ/mol
# GULP energy per Si atom -5579.004614 kJ/mol
# Density = 1.727563 g / cm^3
# Si number density = 17.315044 Si / 1000 Ang^3
#
#
#
# Elastic Constant Matrix: (Units=GPa)
#
#
# Indices 1 2 3 4 5 6 
#
# 1 11.0908 19.7030 26.2700 0.0000 0.0000 0.0000
# 2 19.7030 74.7672 87.3699 0.0000 0.0000 0.0000
# 3 26.2700 87.3699 185.5895 0.0000 0.0000 0.0000
# 4 0.0000 0.0000 0.0000 27.4395 0.0000 0.0000
# 5 0.0000 0.0000 0.0000 0.0000 20.6860 0.0000
# 6 0.0000 0.0000 0.0000 0.0000 0.0000 16.4296
#
#
#
# Elastic Compliance Matrix: (Units=1/GPa)
#
#
# Indices 1 2 3 4 5 6 
#
# 1 0.173238 -0.037782 -0.006735 0.000000 0.000000 0.000000
# 2 -0.037782 0.037970 -0.012527 0.000000 0.000000 0.000000
# 3 -0.006735 -0.012527 0.012239 0.000000 0.000000 0.000000
# 4 0.000000 0.000000 0.000000 0.036444 0.000000 0.000000
# 5 0.000000 0.000000 0.000000 0.000000 0.048342 0.000000
# 6 0.000000 0.000000 0.000000 0.000000 0.000000 0.060866
#
#
# Mechanical properties :
#
#
# Convention : Reuss Voigt Hill
#
# Bulk Modulus (GPa) = 9.14425 59.79261 34.46843
# Shear Modulus (GPa) = 9.62206 22.11800 15.87003
#
# Velocity S-wave (km/s) = 2.35990 3.57793 3.03074
# Velocity P-wave (km/s) = 3.56624 7.18860 5.67424
#
# Compressibility (1/GPa) = 0.10935838
#
# Stress axis : x y z
#
# Youngs Moduli (GPa) = 5.77241 26.33660 81.70641
#
# Poissons Ratio (x) = 0.99505 0.55029
# Poissons Ratio (y) = 0.21809 1.02354
# Poissons Ratio (z) = 0.03888 0.32992
#
# Static dielectric constant tensor:
#      x y z
#    x 1.589600 0.000000 0.000000 
#    y 0.000000 1.577730 0.000000 
#    z 0.000000 0.000000 1.592420 
# 
# From -- ./inp_files/8545.got.cif
#   From: 2010.05.17/outbox.cif.g08.bks.cpg/sg38_5_cif.got.tgz:8545.got - 2010.06.03 18:07:57.
