data_PCOD9356954
_publ_section_title
;
Structure prediction by ZEFSAII (Michael W. Deem and Ramdas Pophale) SiO2 
 PCOD9356954
Probable space group: A M M 2
;
_chemical_formula_sum "Si O2"
_cell_formula_units_Z 40
_cell_length_a 8.555693
_cell_length_b 9.981691
_cell_length_c 26.443523
_cell_angle_alpha 90.000000
_cell_angle_beta 90.000000
_cell_angle_gamma 90.000000
_cell_volume 2258.284369
_symmetry_space_group_name_H-M "A M M 2"
_symmetry_group_IT_number 38
_symmetry_cell_setting 'orthorhombic'
loop_
_space_group_symop_operation_xyz
x,y,z
-x,-y,z
-x,y,z
x,-y,z
x,1/2+y,1/2+z
-x,1/2-y,1/2+z
-x,1/2+y,1/2+z
x,1/2-y,1/2+z
loop_
_atom_site_type_symbol
_atom_site_label
_atom_site_fract_x
_atom_site_fract_y
_atom_site_fract_z
Si Si1 0.687583 0.715518 0.807580
Si Si2 0.689867 0.000000 0.389646
Si Si3 0.690674 0.000000 0.505439
Si Si4 0.187693 0.500000 0.730532
Si Si5 0.187151 0.000000 0.837021
Si Si6 0.812144 0.000000 0.954498
Si Si7 0.812624 0.000000 0.113691
Si Si8 0.687843 0.292201 0.534457
O O1 0.500000 0.716835 0.806299
O O2 0.737561 0.630235 0.857361
O O3 0.749018 0.629560 0.760355
O O4 0.750764 0.865082 0.811329
O O5 0.744789 0.000000 0.447103
O O6 0.500000 0.000000 0.390812
O O7 0.738977 0.861939 0.531591
O O8 0.500000 0.000000 0.504624
O O9 0.236529 0.500000 0.672022
O O10 0.000000 0.500000 0.732920
O O11 0.237470 0.000000 0.896117
O O12 0.000000 0.000000 0.835835
O O13 0.748250 0.128024 0.985147
O O14 0.000000 0.000000 0.957064
O O15 0.750559 0.128013 0.082808
O O16 0.000000 0.000000 0.111360
O O17 0.500000 0.298475 0.534327
#
# Coordination Sequence:
#
# PCOD9356954 Si02
#       8
#     8   4   4   4   4   4   4   8
#     4  10  20  34  55  81 106 136 177 221 261 310
#     4   8  15  29  49  74 105 138 170 205 249 304
#     4   9  17  29  47  76 109 135 164 206 255 300
#     4  10  21  39  60  77  99 134 173 218 274 331
#     4  11  22  34  50  76 113 149 176 212 263 316
#     4  10  20  33  49  74 109 146 180 211 249 306
#     4  10  21  38  57  75  99 134 173 214 262 319
#     4  10  19  32  53  78 104 137 177 221 261 303
#
# _framework density 17.712561000000001
#
# number of rings (size 3 to 8) (size 9 to 14) (size 15 to 20)
#    0.000    2.200    0.000    5.400    0.000    4.800 
#    0.000    3.000    0.000   10.800    0.000    0.000 
#    0.000    0.000    0.000    0.000    0.000    0.000 
#
# Total GULP energy -111648.643600 kJ/mol
# GULP energy per Si atom -5582.432180 kJ/mol
# Density = 1.767225 g / cm^3
# Si number density = 17.712561 Si / 1000 Ang^3
#
#
#
# Elastic Constant Matrix: (Units=GPa)
#
#
# Indices 1 2 3 4 5 6 
#
# 1 49.8579 39.1227 37.0471 0.0000 0.0000 0.0000
# 2 39.1227 198.9165 91.7232 0.0000 0.0000 0.0000
# 3 37.0471 91.7232 146.6142 0.0000 0.0000 0.0000
# 4 0.0000 0.0000 0.0000 212.9303 0.0000 0.0000
# 5 0.0000 0.0000 0.0000 0.0000 22.8977 0.0000
# 6 0.0000 0.0000 0.0000 0.0000 0.0000 4.9039
#
#
#
# Elastic Compliance Matrix: (Units=1/GPa)
#
#
# Indices 1 2 3 4 5 6 
#
# 1 0.025840 -0.002911 -0.004708 0.000000 0.000000 0.000000
# 2 -0.002911 0.007393 -0.003890 0.000000 0.000000 0.000000
# 3 -0.004708 -0.003890 0.010444 0.000000 0.000000 0.000000
# 4 0.000000 0.000000 0.000000 0.004696 0.000000 0.000000
# 5 0.000000 0.000000 0.000000 0.000000 0.043672 0.000000
# 6 0.000000 0.000000 0.000000 0.000000 0.000000 0.203919
#
#
# Mechanical properties :
#
#
# Convention : Reuss Voigt Hill
#
# Bulk Modulus (GPa) = 48.40531 81.24162 64.82346
# Shear Modulus (GPa) = 15.34359 63.31275 39.32817
#
# Velocity S-wave (km/s) = 2.94641 5.98516 4.71718
# Velocity P-wave (km/s) = 6.24201 9.68138 8.14530
#
# Compressibility (1/GPa) = 0.02065889
#
# Stress axis : x y z
#
# Youngs Moduli (GPa) = 38.70014 135.25498 95.75098
#
# Poissons Ratio (x) = 0.39375 0.45080
# Poissons Ratio (y) = 0.11266 0.37245
# Poissons Ratio (z) = 0.18220 0.52611
#
# Static dielectric constant tensor:
#      x y z
#    x 1.598340 0.000000 0.000000 
#    y 0.000000 1.265150 0.000000 
#    z 0.000000 0.000000 1.584960 
# 
# From -- ./inp_files/23316.got.cif
#   From: 2010.05.17/outbox.cif.g08.bks.cpg/sg38_12_cif.got.tgz:23316.got - 2010.06.03 18:07:57.
