data_PCOD9356645
_publ_section_title
;
Structure prediction by ZEFSAII (Michael W. Deem and Ramdas Pophale) SiO2 
 PCOD9356645
Probable space group: A M M 2
;
_chemical_formula_sum "Si O2"
_cell_formula_units_Z 56
_cell_length_a 8.935286
_cell_length_b 19.438358
_cell_length_c 18.501773
_cell_angle_alpha 90.000000
_cell_angle_beta 90.000000
_cell_angle_gamma 90.000000
_cell_volume 3213.522777
_symmetry_space_group_name_H-M "A M M 2"
_symmetry_group_IT_number 38
_symmetry_cell_setting 'orthorhombic'
loop_
_space_group_symop_operation_xyz
x,y,z
-x,-y,z
-x,y,z
x,-y,z
x,1/2+y,1/2+z
-x,1/2-y,1/2+z
-x,1/2+y,1/2+z
x,1/2-y,1/2+z
loop_
_atom_site_type_symbol
_atom_site_label
_atom_site_fract_x
_atom_site_fract_y
_atom_site_fract_z
Si Si1 0.829025 0.293607 0.496400
Si Si2 0.322309 0.806850 0.251186
Si Si3 0.170737 0.343962 0.902453
Si Si4 0.322384 0.075023 0.997441
Si Si5 0.319395 0.420977 0.034165
Si Si6 0.824099 0.077736 0.155663
Si Si7 0.680649 0.711938 0.125598
O O1 0.830750 0.227889 0.445248
O O2 0.740794 0.356838 0.460665
O O3 0.748914 0.266711 0.569066
O O4 0.000000 0.313660 0.511510
O O5 0.500000 0.803580 0.261216
O O6 0.246817 0.825615 0.326839
O O7 0.275495 0.869337 0.199348
O O8 0.275920 0.737937 0.205979
O O9 0.000000 0.367442 0.890899
O O10 0.254244 0.396129 0.956950
O O11 0.500000 0.081153 0.009063
O O12 0.236071 0.075860 0.073840
O O13 0.294257 0.000000 0.963232
O O14 0.500000 0.418981 0.030013
O O15 0.274650 0.500000 0.049942
O O16 0.274930 0.363618 0.094854
O O17 0.000000 0.096060 0.158339
O O18 0.809048 0.000000 0.184669
O O19 0.500000 0.715839 0.121565
#
# Coordination Sequence:
#
# PCOD9356645 Si02
#       7
#     8   8   8   8   8   8   8
#     4  10  19  32  51  73  97 130 171 213 256 303
#     4  11  21  33  51  75 103 139 177 214 258 311
#     4  10  22  36  51  74 104 138 174 214 262 314
#     4  10  19  30  47  72 100 129 161 200 246 296
#     4   9  18  35  58  81 105 135 173 218 269 323
#     4  10  20  32  47  70 101 134 166 202 242 289
#     4   9  18  32  52  77 102 131 170 216 263 310
#
# _framework density 17.426359000000001
#
# number of rings (size 3 to 8) (size 9 to 14) (size 15 to 20)
#    0.000    2.143    1.429    2.143    0.000    4.857 
#    0.000    0.000    0.000    0.857    0.000    2.000 
#    0.000    0.000    0.000    0.000    0.000    0.000 
#
# Total GULP energy -155970.432129 kJ/mol
# GULP energy per Si atom -5570.372576 kJ/mol
# Density = 1.738670 g / cm^3
# Si number density = 17.426359 Si / 1000 Ang^3
#
#
#
# Elastic Constant Matrix: (Units=GPa)
#
#
# Indices 1 2 3 4 5 6 
#
# 1 36.6247 22.0022 2.0509 0.0000 0.0000 0.0000
# 2 22.0022 104.2205 8.5194 0.0000 0.0000 0.0000
# 3 2.0509 8.5194 41.4376 0.0000 0.0000 0.0000
# 4 0.0000 0.0000 0.0000 12.7495 0.0000 0.0000
# 5 0.0000 0.0000 0.0000 0.0000 18.7697 0.0000
# 6 0.0000 0.0000 0.0000 0.0000 0.0000 24.9563
#
#
#
# Elastic Compliance Matrix: (Units=1/GPa)
#
#
# Indices 1 2 3 4 5 6 
#
# 1 0.031271 -0.006586 -0.000194 0.000000 0.000000 0.000000
# 2 -0.006586 0.011146 -0.001966 0.000000 0.000000 0.000000
# 3 -0.000194 -0.001966 0.024546 0.000000 0.000000 0.000000
# 4 0.000000 0.000000 0.000000 0.078434 0.000000 0.000000
# 5 0.000000 0.000000 0.000000 0.000000 0.053277 0.000000
# 6 0.000000 0.000000 0.000000 0.000000 0.000000 0.040070
#
#
# Mechanical properties :
#
#
# Convention : Reuss Voigt Hill
#
# Bulk Modulus (GPa) = 20.21291 27.49197 23.85244
# Shear Modulus (GPa) = 18.33334 21.27579 19.80457
#
# Velocity S-wave (km/s) = 3.24705 3.49792 3.37482
# Velocity P-wave (km/s) = 5.06774 5.66783 5.37616
#
# Compressibility (1/GPa) = 0.04947332
#
# Stress axis : x y z
#
# Youngs Moduli (GPa) = 31.97820 89.71763 40.73919
#
# Poissons Ratio (x) = 0.59087 0.00789
# Poissons Ratio (y) = 0.21061 0.08008
# Poissons Ratio (z) = 0.00619 0.17635
#
# Static dielectric constant tensor:
#      x y z
#    x 1.592910 0.000000 0.000000 
#    y 0.000000 1.648280 0.000000 
#    z 0.000000 0.000000 1.590570 
# 
# From -- ./inp_files/17106.got.cif
#   From: 2010.05.17/outbox.cif.g08.bks.cpg/sg38_9_cif.got.tgz:17106.got - 2010.06.03 18:07:57.
