data_PCOD9356566
_publ_section_title
;
Structure prediction by ZEFSAII (Michael W. Deem and Ramdas Pophale) SiO2 
 PCOD9356566
Probable space group: A M M 2
;
_chemical_formula_sum "Si O2"
_cell_formula_units_Z 64
_cell_length_a 9.021136
_cell_length_b 30.880021
_cell_length_c 14.942449
_cell_angle_alpha 90.000000
_cell_angle_beta 90.000000
_cell_angle_gamma 90.000000
_cell_volume 4162.560890
_symmetry_space_group_name_H-M "A M M 2"
_symmetry_group_IT_number 38
_symmetry_cell_setting 'orthorhombic'
loop_
_space_group_symop_operation_xyz
x,y,z
-x,-y,z
-x,y,z
x,-y,z
x,1/2+y,1/2+z
-x,1/2-y,1/2+z
-x,1/2+y,1/2+z
x,1/2-y,1/2+z
loop_
_atom_site_type_symbol
_atom_site_label
_atom_site_fract_x
_atom_site_fract_y
_atom_site_fract_z
Si Si1 0.678862 0.794659 0.460640
Si Si2 0.676793 0.273460 0.763899
Si Si3 0.822338 0.049893 0.675669
Si Si4 0.827161 0.366405 0.079768
Si Si5 0.679791 0.794228 0.064573
Si Si6 0.676728 0.449752 0.370252
Si Si7 0.168036 0.315968 0.266752
Si Si8 0.825960 0.369082 0.449364
O O1 0.500000 0.795147 0.461874
O O2 0.731473 0.793233 0.357578
O O3 0.738521 0.836651 0.511415
O O4 0.724013 0.750137 0.512150
O O5 0.500000 0.278299 0.763523
O O6 0.729581 0.291043 0.668064
O O7 0.717682 0.223019 0.767389
O O8 0.775756 0.084769 0.601258
O O9 0.742824 0.057447 0.770626
O O10 0.000000 0.055771 0.689646
O O11 0.796218 0.000000 0.649801
O O12 0.817907 0.342954 0.176160
O O13 0.000000 0.367458 0.052925
O O14 0.500000 0.796408 0.061151
O O15 0.748080 0.836128 0.017411
O O16 0.500000 0.443658 0.367694
O O17 0.708051 0.500000 0.393212
O O18 0.749674 0.415602 0.437603
O O19 0.187969 0.346273 0.352244
O O20 0.000000 0.298039 0.270327
O O21 0.000000 0.373494 0.469641
#
# Coordination Sequence:
#
# PCOD9356566 Si02
#       8
#     8   8   8   8   8   8   8   8
#     4  10  20  32  48  70  94 127 165 199 241 287
#     4  10  20  34  48  66  95 128 163 201 242 282
#     4   9  17  31  49  69  97 130 162 198 242 290
#     4  10  19  31  46  69  97 128 162 196 237 286
#     4  10  20  33  49  69  94 125 162 202 241 285
#     4  10  20  32  48  72 100 129 161 197 238 286
#     4  10  19  29  44  68  97 126 161 197 235 279
#     4  11  21  33  49  71  98 131 165 198 240 286
#
# _framework density 15.37515
#
# number of rings (size 3 to 8) (size 9 to 14) (size 15 to 20)
#    0.000    2.000    3.750    0.750    0.000    3.250 
#    0.000    0.000    0.000    0.000    0.000    0.875 
#    0.000    5.000    0.000    0.000    0.000    0.000 
#
# Total GULP energy -178405.402925 kJ/mol
# GULP energy per Si atom -5575.168841 kJ/mol
# Density = 1.534016 g / cm^3
# Si number density = 15.375150 Si / 1000 Ang^3
#
#
#
# Elastic Constant Matrix: (Units=GPa)
#
#
# Indices 1 2 3 4 5 6 
#
# 1 22.0763 37.8593 32.1170 0.0000 0.0000 0.0000
# 2 37.8593 116.9187 52.9162 0.0000 0.0000 0.0000
# 3 32.1170 52.9162 99.9329 0.0000 0.0000 0.0000
# 4 0.0000 0.0000 0.0000 20.8291 0.0000 0.0000
# 5 0.0000 0.0000 0.0000 0.0000 14.2907 0.0000
# 6 0.0000 0.0000 0.0000 0.0000 0.0000 24.6083
#
#
#
# Elastic Compliance Matrix: (Units=1/GPa)
#
#
# Indices 1 2 3 4 5 6 
#
# 1 0.145711 -0.034179 -0.028731 0.000000 0.000000 0.000000
# 2 -0.034179 0.019266 0.000783 0.000000 0.000000 0.000000
# 3 -0.028731 0.000783 0.018826 0.000000 0.000000 0.000000
# 4 0.000000 0.000000 0.000000 0.048010 0.000000 0.000000
# 5 0.000000 0.000000 0.000000 0.000000 0.069976 0.000000
# 6 0.000000 0.000000 0.000000 0.000000 0.000000 0.040637
#
#
# Mechanical properties :
#
#
# Convention : Reuss Voigt Hill
#
# Bulk Modulus (GPa) = 16.79300 53.85700 35.32500
# Shear Modulus (GPa) = 10.27687 19.68131 14.97909
#
# Velocity S-wave (km/s) = 2.58816 3.58169 3.12467
# Velocity P-wave (km/s) = 4.45840 7.22560 6.00361
#
# Compressibility (1/GPa) = 0.05954862
#
# Stress axis : x y z
#
# Youngs Moduli (GPa) = 6.86289 51.90455 53.11853
#
# Poissons Ratio (x) = 1.77406 1.52615
# Poissons Ratio (y) = 0.23457 -0.04159
# Poissons Ratio (z) = 0.19718 -0.04064
#
# Static dielectric constant tensor:
#      x y z
#    x 1.522420 0.000000 0.000000 
#    y 0.000000 1.509050 0.000000 
#    z 0.000000 0.000000 1.508480 
# 
# From -- ./inp_files/13040.got.cif
#   From: 2010.05.17/outbox.cif.g08.bks.cpg/sg38_7_cif.got.tgz:13040.got - 2010.06.03 18:07:57.
