data_PCOD9356924
_publ_section_title
;
Structure prediction by ZEFSAII (Michael W. Deem and Ramdas Pophale) SiO2 
 PCOD9356924
Probable space group: A M M 2
;
_chemical_formula_sum "Si O2"
_cell_formula_units_Z 64
_cell_length_a 14.287014
_cell_length_b 14.176793
_cell_length_c 18.296330
_cell_angle_alpha 90.000000
_cell_angle_beta 90.000000
_cell_angle_gamma 90.000000
_cell_volume 3705.812597
_symmetry_space_group_name_H-M "A M M 2"
_symmetry_group_IT_number 38
_symmetry_cell_setting 'orthorhombic'
loop_
_space_group_symop_operation_xyz
x,y,z
-x,-y,z
-x,y,z
x,-y,z
x,1/2+y,1/2+z
-x,1/2-y,1/2+z
-x,1/2+y,1/2+z
x,1/2-y,1/2+z
loop_
_atom_site_type_symbol
_atom_site_label
_atom_site_fract_x
_atom_site_fract_y
_atom_site_fract_z
Si Si1 0.388187 0.728968 0.927160
Si Si2 0.888024 0.245424 0.412952
Si Si3 0.896402 0.611671 0.133905
Si Si4 0.742361 0.612998 0.479255
Si Si5 0.892894 0.230743 0.243766
Si Si6 0.747857 0.888363 0.152197
Si Si7 0.236114 0.887874 0.504651
Si Si8 0.611443 0.608468 0.782995
O O1 0.500000 0.729730 0.936743
O O2 0.332866 0.663256 0.985170
O O3 0.366394 0.680909 0.848432
O O4 0.341832 0.831623 0.938440
O O5 0.835680 0.335039 0.449220
O O6 0.863910 0.236747 0.327523
O O7 0.841620 0.153967 0.449877
O O8 0.000000 0.250123 0.421427
O O9 0.895294 0.500000 0.142594
O O10 0.889255 0.665238 0.209665
O O11 0.000000 0.637427 0.102173
O O12 0.809614 0.637236 0.082571
O O13 0.742389 0.500000 0.468367
O O14 0.734341 0.632853 0.566519
O O15 0.831811 0.166871 0.190554
O O16 0.000000 0.197224 0.241983
O O17 0.660514 0.868910 0.206139
O O18 0.766299 0.000000 0.155933
O O19 0.244899 0.000000 0.498832
O O20 0.500000 0.609613 0.773813
O O21 0.638529 0.500000 0.803772
#
# Coordination Sequence:
#
# PCOD9356924 Si02
#       8
#     8   8   8   8   8   8   8   8
#     4  10  20  34  53  77 105 136 170 211 260 312
#     4  10  21  35  52  77 107 138 172 211 257 307
#     4   9  18  33  52  72  95 129 172 211 247 290
#     4  10  22  37  53  76 105 140 180 217 256 304
#     4  10  20  33  50  72 100 134 171 211 250 294
#     4  10  20  34  52  74 102 135 170 209 253 303
#     4  10  19  32  52  77 105 133 163 205 257 312
#     4   9  18  34  56  79 101 127 162 207 260 314
#
# _framework density 17.270167000000001
#
# number of rings (size 3 to 8) (size 9 to 14) (size 15 to 20)
#    0.000    2.250    0.000    3.750    0.000    6.250 
#    0.000    5.000    0.000    0.000    0.000    0.000 
#    0.000   12.000    0.000    0.000    0.000    0.000 
#
# Total GULP energy -178317.276077 kJ/mol
# GULP energy per Si atom -5572.414877 kJ/mol
# Density = 1.723086 g / cm^3
# Si number density = 17.270167 Si / 1000 Ang^3
#
#
#
# Elastic Constant Matrix: (Units=GPa)
#
#
# Indices 1 2 3 4 5 6 
#
# 1 83.9539 21.9380 15.9743 0.0000 0.0000 0.0000
# 2 21.9380 60.2511 16.4017 0.0000 0.0000 0.0000
# 3 15.9743 16.4017 67.5442 0.0000 0.0000 0.0000
# 4 0.0000 0.0000 0.0000 23.4980 0.0000 0.0000
# 5 0.0000 0.0000 0.0000 0.0000 -0.8581 0.0000
# 6 0.0000 0.0000 0.0000 0.0000 0.0000 22.3957
#
#
#
# Elastic Compliance Matrix: (Units=1/GPa)
#
#
# Indices 1 2 3 4 5 6 
#
# 1 0.013444 -0.004315 -0.002132 0.000000 0.000000 0.000000
# 2 -0.004315 0.019157 -0.003631 0.000000 0.000000 0.000000
# 3 -0.002132 -0.003631 0.016191 0.000000 0.000000 0.000000
# 4 0.000000 0.000000 0.000000 0.042557 0.000000 0.000000
# 5 0.000000 0.000000 0.000000 0.000000 -1.165311 0.000000
# 6 0.000000 0.000000 0.000000 0.000000 0.000000 0.044651
#
#
# Mechanical properties :
#
#
# Convention : Reuss Voigt Hill
#
# Bulk Modulus (GPa) = 34.92088 35.59748 35.25918
# Shear Modulus (GPa) = -5.00196 19.50279 7.25042
#
# Velocity S-wave (km/s) = -1.70370 3.36412 2.05118
# Velocity P-wave (km/s) = 4.04897 5.97884 5.10591
#
# Compressibility (1/GPa) = 0.02863616
#
# Stress axis : x y z
#
# Youngs Moduli (GPa) = 74.38002 52.20065 61.76231
#
# Poissons Ratio (x) = 0.22524 0.13167
# Poissons Ratio (y) = 0.32094 0.22428
# Poissons Ratio (z) = 0.15857 0.18956
#
# Static dielectric constant tensor:
#      x y z
#    x 1.597690 0.000000 0.000000 
#    y 0.000000 1.584610 0.000000 
#    z 0.000000 0.000000 1.586640 
# 
# From -- ./inp_files/18520.got.cif
#   From: 2010.05.17/outbox.cif.g08.bks.cpg/sg38_10_cif.got.tgz:18520.got - 2010.06.03 18:07:57.
