data_PCOD9356219
_publ_section_title
;
Structure prediction by ZEFSAII (Michael W. Deem and Ramdas Pophale) SiO2 
 PCOD9356219
Probable space group: A M M 2
;
_chemical_formula_sum "Si O2"
_cell_formula_units_Z 64
_cell_length_a 15.198235
_cell_length_b 8.036984
_cell_length_c 25.268248
_cell_angle_alpha 90.000000
_cell_angle_beta 90.000000
_cell_angle_gamma 90.000000
_cell_volume 3086.465237
_symmetry_space_group_name_H-M "A M M 2"
_symmetry_group_IT_number 38
_symmetry_cell_setting 'orthorhombic'
loop_
_space_group_symop_operation_xyz
x,y,z
-x,-y,z
-x,y,z
x,-y,z
x,1/2+y,1/2+z
-x,1/2-y,1/2+z
-x,1/2+y,1/2+z
x,1/2-y,1/2+z
loop_
_atom_site_type_symbol
_atom_site_label
_atom_site_fract_x
_atom_site_fract_y
_atom_site_fract_z
Si Si1 0.846825 0.302672 0.171230
Si Si2 0.657392 0.308874 0.644133
Si Si3 0.292400 0.301303 0.529110
Si Si4 0.096384 0.201700 0.286804
Si Si5 0.726249 0.306823 0.834444
Si Si6 0.596018 0.693672 0.250945
Si Si7 0.904134 0.300534 0.053814
Si Si8 0.399369 0.800674 0.426167
O O1 0.826105 0.500000 0.171072
O O2 0.756809 0.201690 0.166047
O O3 0.892578 0.260020 0.226231
O O4 0.898422 0.266264 0.116993
O O5 0.627625 0.500000 0.642067
O O6 0.666241 0.239396 0.584810
O O7 0.602051 0.214021 0.687965
O O8 0.300299 0.500000 0.529422
O O9 0.187787 0.261559 0.529073
O O10 0.347674 0.232144 0.480436
O O11 0.177874 0.265914 0.321791
O O12 0.000000 0.251511 0.306369
O O13 0.100854 0.000000 0.286213
O O14 0.740046 0.500000 0.848743
O O15 0.671369 0.294497 0.780270
O O16 0.662983 0.231940 0.879287
O O17 0.500000 0.750355 0.269521
O O18 0.607529 0.500000 0.263991
O O19 0.903312 0.500000 0.047524
O O20 0.000000 0.238718 0.034370
O O21 0.500000 0.735757 0.426081
O O22 0.405714 0.000000 0.418750
#
# Coordination Sequence:
#
# PCOD9356219 Si02
#       8
#     8   8   8   8   8   8   8   8
#     4  10  18  30  51  80 115 153 193 234 278 329
#     4  10  20  35  54  79 114 154 190 228 282 345
#     4  10  22  38  58  85 116 149 190 241 295 345
#     4  10  20  33  52  81 116 153 191 230 277 336
#     4  10  21  39  61  83 113 151 192 237 283 339
#     4  11  23  36  54  84 117 149 186 232 289 347
#     4   9  18  33  54  82 117 157 197 234 278 336
#     4  10  22  41  64  86 108 144 196 247 295 349
#
# _framework density 20.735693000000001
#
# number of rings (size 3 to 8) (size 9 to 14) (size 15 to 20)
#    0.000    2.000    1.250    2.250    0.000    5.750 
#    0.000    3.125    0.000    2.250    0.000    0.000 
#    0.000    0.000    0.000    0.000    0.000    0.000 
#
# Total GULP energy -178550.162862 kJ/mol
# GULP energy per Si atom -5579.692589 kJ/mol
# Density = 2.068850 g / cm^3
# Si number density = 20.735693 Si / 1000 Ang^3
#
#
#
# Elastic Constant Matrix: (Units=GPa)
#
#
# Indices 1 2 3 4 5 6 
#
# 1 152.2122 8.2547 64.2522 0.0000 0.0000 0.0000
# 2 8.2547 21.0016 -0.9130 0.0000 0.0000 0.0000
# 3 64.2522 -0.9130 100.6010 0.0000 0.0000 0.0000
# 4 0.0000 0.0000 0.0000 20.1472 0.0000 0.0000
# 5 0.0000 0.0000 0.0000 0.0000 13.6223 0.0000
# 6 0.0000 0.0000 0.0000 0.0000 0.0000 17.1336
#
#
#
# Elastic Compliance Matrix: (Units=1/GPa)
#
#
# Indices 1 2 3 4 5 6 
#
# 1 0.009306 -0.003918 -0.005979 0.000000 0.000000 0.000000
# 2 -0.003918 0.049284 0.002950 0.000000 0.000000 0.000000
# 3 -0.005979 0.002950 0.013786 0.000000 0.000000 0.000000
# 4 0.000000 0.000000 0.000000 0.049635 0.000000 0.000000
# 5 0.000000 0.000000 0.000000 0.000000 0.073409 0.000000
# 6 0.000000 0.000000 0.000000 0.000000 0.000000 0.058365
#
#
# Mechanical properties :
#
#
# Convention : Reuss Voigt Hill
#
# Bulk Modulus (GPa) = 17.09971 46.33362 31.71666
# Shear Modulus (GPa) = 17.41111 23.66202 20.53656
#
# Velocity S-wave (km/s) = 2.90085 3.38172 3.15047
# Velocity P-wave (km/s) = 4.41410 6.13526 5.34442
#
# Compressibility (1/GPa) = 0.05848052
#
# Stress axis : x y z
#
# Youngs Moduli (GPa) = 107.45485 20.29076 72.53788
#
# Poissons Ratio (x) = 0.07949 0.43373
# Poissons Ratio (y) = 0.42098 -0.21395
# Poissons Ratio (z) = 0.64250 -0.05985
#
# Static dielectric constant tensor:
#      x y z
#    x 1.771050 0.000000 0.000000 
#    y 0.000000 1.738300 0.000000 
#    z 0.000000 0.000000 1.744410 
# 
# From -- ./inp_files/22989.got.cif
#   From: 2010.05.17/outbox.cif.g08.bks.cpg/sg38_12_cif.got.tgz:22989.got - 2010.06.03 18:07:57.
