data_PCOD9356443
_publ_section_title
;
Structure prediction by ZEFSAII (Michael W. Deem and Ramdas Pophale) SiO2 
 PCOD9356443
Probable space group: A M M 2
;
_chemical_formula_sum "Si O2"
_cell_formula_units_Z 64
_cell_length_a 16.022001
_cell_length_b 8.271750
_cell_length_c 24.533999
_cell_angle_alpha 90.000000
_cell_angle_beta 90.000000
_cell_angle_gamma 90.000000
_cell_volume 3251.490563
_symmetry_space_group_name_H-M "A M M 2"
_symmetry_group_IT_number 38
_symmetry_cell_setting 'orthorhombic'
loop_
_space_group_symop_operation_xyz
x,y,z
-x,-y,z
-x,y,z
x,-y,z
x,1/2+y,1/2+z
-x,1/2-y,1/2+z
-x,1/2+y,1/2+z
x,1/2-y,1/2+z
loop_
_atom_site_type_symbol
_atom_site_label
_atom_site_fract_x
_atom_site_fract_y
_atom_site_fract_z
Si Si1 0.251078 0.192361 0.391050
Si Si2 0.337843 0.803833 0.078014
Si Si3 0.146779 0.308962 0.075666
Si Si4 0.751210 0.198087 0.266566
Si Si5 0.907686 0.695318 0.694066
Si Si6 0.907864 0.808115 0.958820
Si Si7 0.406780 0.697153 0.695550
Si Si8 0.407480 0.694801 0.461419
O O1 0.246512 0.253240 0.328958
O O2 0.168338 0.236604 0.424620
O O3 0.333062 0.253880 0.422034
O O4 0.256869 0.000000 0.388931
O O5 0.244605 0.735437 0.077014
O O6 0.383537 0.755787 0.133738
O O7 0.332017 0.000000 0.078008
O O8 0.385337 0.753631 0.023161
O O9 0.136243 0.500000 0.070443
O O10 0.107778 0.250471 0.132302
O O11 0.107259 0.227462 0.022530
O O12 0.832130 0.251804 0.232392
O O13 0.666866 0.250043 0.235778
O O14 0.751816 0.000000 0.266244
O O15 0.905747 0.500000 0.694463
O O16 0.000000 0.747843 0.712194
O O17 0.000000 0.745909 0.943175
O O18 0.906414 0.000000 0.950898
O O19 0.500000 0.751845 0.710010
O O20 0.407074 0.500000 0.696563
O O21 0.500000 0.753383 0.445827
O O22 0.409198 0.500000 0.461839
#
# Coordination Sequence:
#
# PCOD9356443 Si02
#       8
#     8   8   8   8   8   8   8   8
#     4  11  23  38  59  88 120 153 193 248 303 341
#     4  10  18  33  59  85 114 150 190 235 285 344
#     4  12  23  35  57  89 122 151 181 229 295 351
#     4   9  19  35  55  84 116 148 191 238 285 336
#     4  10  20  37  61  85 111 149 193 233 278 340
#     4  11  24  42  63  85 112 152 198 241 289 352
#     4   9  16  29  55  87 113 142 186 235 278 327
#     4  10  21  37  59  87 118 156 200 241 287 348
#
# _framework density 19.683281000000001
#
# number of rings (size 3 to 8) (size 9 to 14) (size 15 to 20)
#    0.000    1.750    2.500    2.625    0.000    5.500 
#    0.000    3.750    0.000    1.125    0.000    0.000 
#    0.000    0.000    0.000    0.000    0.000    0.000 
#
# Total GULP energy -178773.088012 kJ/mol
# GULP energy per Si atom -5586.659000 kJ/mol
# Density = 1.963848 g / cm^3
# Si number density = 19.683281 Si / 1000 Ang^3
#
#
#
# Elastic Constant Matrix: (Units=GPa)
#
#
# Indices 1 2 3 4 5 6 
#
# 1 191.7053 11.8272 77.3469 0.0000 0.0000 0.0000
# 2 11.8272 9.2891 5.3757 0.0000 0.0000 0.0000
# 3 77.3469 5.3757 143.0818 0.0000 0.0000 0.0000
# 4 0.0000 0.0000 0.0000 21.1060 0.0000 0.0000
# 5 0.0000 0.0000 0.0000 0.0000 1.8358 0.0000
# 6 0.0000 0.0000 0.0000 0.0000 0.0000 -2.8003
#
#
#
# Elastic Compliance Matrix: (Units=1/GPa)
#
#
# Indices 1 2 3 4 5 6 
#
# 1 0.007085 -0.006956 -0.003569 0.000000 0.000000 0.000000
# 2 -0.006956 0.116875 -0.000631 0.000000 0.000000 0.000000
# 3 -0.003569 -0.000631 0.008942 0.000000 0.000000 0.000000
# 4 0.000000 0.000000 0.000000 0.047380 0.000000 0.000000
# 5 0.000000 0.000000 0.000000 0.000000 0.544712 0.000000
# 6 0.000000 0.000000 0.000000 0.000000 0.000000 -0.357100
#
#
# Mechanical properties :
#
#
# Convention : Reuss Voigt Hill
#
# Bulk Modulus (GPa) = 9.04236 59.24175 34.14206
# Shear Modulus (GPa) = 11.70771 20.66339 16.18555
#
# Velocity S-wave (km/s) = 2.44151 3.24357 2.87069
# Velocity P-wave (km/s) = 3.54286 6.64759 5.32646
#
# Compressibility (1/GPa) = 0.11059056
#
# Stress axis : x y z
#
# Youngs Moduli (GPa) = 141.13494 8.55618 111.83221
#
# Poissons Ratio (x) = 0.05952 0.39912
# Poissons Ratio (y) = 0.98174 0.07054
# Poissons Ratio (z) = 0.50369 0.00540
#
# Static dielectric constant tensor:
#      x y z
#    x 1.701640 0.000000 0.000000 
#    y 0.000000 1.682090 0.000000 
#    z 0.000000 0.000000 1.666860 
# 
# From -- ./inp_files/22936.got.cif
#   From: 2010.05.17/outbox.cif.g08.bks.cpg/sg38_12_cif.got.tgz:22936.got - 2010.06.03 18:07:57.
