data_PCOD9356684
_publ_section_title
;
Structure prediction by ZEFSAII (Michael W. Deem and Ramdas Pophale) SiO2 
 PCOD9356684
Probable space group: A M M 2
;
_chemical_formula_sum "Si O2"
_cell_formula_units_Z 64
_cell_length_a 8.660777
_cell_length_b 14.748293
_cell_length_c 24.745488
_cell_angle_alpha 90.000000
_cell_angle_beta 90.000000
_cell_angle_gamma 90.000000
_cell_volume 3160.782676
_symmetry_space_group_name_H-M "A M M 2"
_symmetry_group_IT_number 38
_symmetry_cell_setting 'orthorhombic'
loop_
_space_group_symop_operation_xyz
x,y,z
-x,-y,z
-x,y,z
x,-y,z
x,1/2+y,1/2+z
-x,1/2-y,1/2+z
-x,1/2+y,1/2+z
x,1/2-y,1/2+z
loop_
_atom_site_type_symbol
_atom_site_label
_atom_site_fract_x
_atom_site_fract_y
_atom_site_fract_z
Si Si1 0.314314 0.099377 0.444290
Si Si2 0.316466 0.897661 0.164795
Si Si3 0.813651 0.896541 0.827589
Si Si4 0.824398 0.341589 0.550054
Si Si5 0.177478 0.240443 0.736696
Si Si6 0.173985 0.126252 0.560349
Si Si7 0.315433 0.308730 0.433279
Si Si8 0.328099 0.398839 0.167500
O O1 0.500000 0.102039 0.451691
O O2 0.228036 0.097587 0.501421
O O3 0.273157 0.201274 0.423331
O O4 0.280509 0.000000 0.417231
O O5 0.500000 0.887787 0.160430
O O6 0.249018 0.882661 0.104375
O O7 0.257468 0.827078 0.209786
O O8 0.277955 0.000000 0.181576
O O9 0.755869 0.815785 0.787818
O O10 0.763467 0.868792 0.887425
O O11 0.000000 0.896432 0.822906
O O12 0.761763 0.000000 0.815307
O O13 0.828697 0.234576 0.561644
O O14 0.736204 0.344215 0.492621
O O15 0.000000 0.375172 0.543309
O O16 0.195722 0.164135 0.690688
O O17 0.000000 0.263143 0.747458
O O18 0.298076 0.096675 0.604078
O O19 0.000000 0.095647 0.572274
O O20 0.500000 0.315212 0.429616
O O21 0.500000 0.362029 0.178662
O O22 0.318198 0.500000 0.189781
#
# Coordination Sequence:
#
# PCOD9356684 Si02
#       8
#     8   8   8   8   8   8   8   8
#     4   9  18  33  52  77 114 158 198 238 291 352
#     4  11  24  41  63  92 126 163 203 250 305 369
#     4  10  23  44  67  90 119 156 200 253 311 370
#     4  10  20  36  59  87 122 165 207 250 304 361
#     4  11  23  41  64  88 117 155 199 252 309 365
#     4  10  19  30  48  78 114 153 196 242 290 346
#     4  10  21  37  61  91 123 161 206 258 309 363
#     4  11  22  33  50  79 115 155 195 239 295 357
#
# _framework density 20.248149000000002
#
# number of rings (size 3 to 8) (size 9 to 14) (size 15 to 20)
#    0.000    1.750    1.250    3.000    0.000    7.500 
#    0.000    0.625    0.000    2.250    0.000    0.000 
#    0.000    0.000    0.000    0.000    0.000    0.000 
#
# Total GULP energy -178373.639985 kJ/mol
# GULP energy per Si atom -5574.176250 kJ/mol
# Density = 2.020206 g / cm^3
# Si number density = 20.248149 Si / 1000 Ang^3
#
#
#
# Elastic Constant Matrix: (Units=GPa)
#
#
# Indices 1 2 3 4 5 6 
#
# 1 33.2786 32.4686 17.1791 0.0000 0.0000 0.0000
# 2 32.4686 118.7806 46.6505 0.0000 0.0000 0.0000
# 3 17.1791 46.6505 89.0649 0.0000 0.0000 0.0000
# 4 0.0000 0.0000 0.0000 5.2100 0.0000 0.0000
# 5 0.0000 0.0000 0.0000 0.0000 -14.3959 0.0000
# 6 0.0000 0.0000 0.0000 0.0000 0.0000 67.1064
#
#
#
# Elastic Compliance Matrix: (Units=1/GPa)
#
#
# Indices 1 2 3 4 5 6 
#
# 1 0.041449 -0.010311 -0.002594 0.000000 0.000000 0.000000
# 2 -0.010311 0.013164 -0.004906 0.000000 0.000000 0.000000
# 3 -0.002594 -0.004906 0.014298 0.000000 0.000000 0.000000
# 4 0.000000 0.000000 0.000000 0.191940 0.000000 0.000000
# 5 0.000000 0.000000 0.000000 0.000000 -0.069464 0.000000
# 6 0.000000 0.000000 0.000000 0.000000 0.000000 0.014902
#
#
# Mechanical properties :
#
#
# Convention : Reuss Voigt Hill
#
# Bulk Modulus (GPa) = 30.04090 48.19115 39.11602
# Shear Modulus (GPa) = 19.76225 21.23915 20.50070
#
# Velocity S-wave (km/s) = 3.12749 3.24225 3.18539
# Velocity P-wave (km/s) = 5.28301 6.15372 5.73491
#
# Compressibility (1/GPa) = 0.03328795
#
# Stress axis : x y z
#
# Youngs Moduli (GPa) = 24.12624 75.96232 69.93998
#
# Poissons Ratio (x) = 0.78326 0.18142
# Poissons Ratio (y) = 0.24877 0.34315
# Poissons Ratio (z) = 0.06258 0.37270
#
# Static dielectric constant tensor:
#      x y z
#    x 1.712900 0.000000 0.000000 
#    y 0.000000 1.675280 0.000000 
#    z 0.000000 0.000000 1.721770 
# 
# From -- ./inp_files/22142.got.cif
#   From: 2010.05.17/outbox.cif.g08.bks.cpg/sg38_12_cif.got.tgz:22142.got - 2010.06.03 18:07:57.
