data_PCOD9356742
_publ_section_title
;
Structure prediction by ZEFSAII (Michael W. Deem and Ramdas Pophale) SiO2 
 PCOD9356742
Probable space group: A M M 2
;
_chemical_formula_sum "Si O2"
_cell_formula_units_Z 58
_cell_length_a 26.773785
_cell_length_b 7.440044
_cell_length_c 14.725539
_cell_angle_alpha 90.000000
_cell_angle_beta 90.000000
_cell_angle_gamma 90.000000
_cell_volume 2933.299956
_symmetry_space_group_name_H-M "A M M 2"
_symmetry_group_IT_number 38
_symmetry_cell_setting 'orthorhombic'
loop_
_space_group_symop_operation_xyz
x,y,z
-x,-y,z
-x,y,z
x,-y,z
x,1/2+y,1/2+z
-x,1/2-y,1/2+z
-x,1/2+y,1/2+z
x,1/2-y,1/2+z
loop_
_atom_site_type_symbol
_atom_site_label
_atom_site_fract_x
_atom_site_fract_y
_atom_site_fract_z
Si Si1 0.326469 0.213022 0.733430
Si Si2 0.753341 0.716030 0.882257
Si Si3 0.409768 0.210664 0.878637
Si Si4 0.500000 0.000000 0.382155
Si Si5 0.055401 0.283049 0.257452
Si Si6 0.055369 0.219404 0.547238
Si Si7 0.864757 0.208673 0.406694
Si Si8 0.328743 0.718350 0.026682
O O1 0.275340 0.241719 0.788812
O O2 0.371533 0.274221 0.798872
O O3 0.326758 0.282894 0.630598
O O4 0.333331 0.000000 0.726155
O O5 0.754684 0.500000 0.886669
O O6 0.809794 0.785364 0.889910
O O7 0.718292 0.778451 0.965394
O O8 0.456318 0.342197 0.882122
O O9 0.422631 0.000000 0.863565
O O10 0.377826 0.223212 0.971722
O O11 0.055901 0.500000 0.261147
O O12 0.100406 0.216224 0.318348
O O13 0.000000 0.223049 0.288359
O O14 0.061036 0.230839 0.152378
O O15 0.100437 0.287491 0.485814
O O16 0.000000 0.277477 0.516245
O O17 0.055307 0.000000 0.543328
O O18 0.856902 0.000000 0.431141
O O19 0.328329 0.500000 0.027119
#
# Coordination Sequence:
#
# PCOD9356742 Si02
#       8
#     8   8   8   2   8   8   8   8
#     4   9  19  35  60  84 109 143 191 230 268 332
#     4   9  19  32  50  78 107 140 177 221 278 333
#     4  10  21  38  61  89 119 156 195 232 280 331
#     4  12  22  40  64  86 128 162 186 236 286 318
#     4   9  18  32  49  69  93 129 172 215 271 335
#     4   8  15  29  48  67  91 129 174 214 262 331
#     4  10  19  31  48  74 103 130 172 221 271 323
#     4   9  17  36  60  81 110 149 188 233 280 330
#
# _framework density 19.772953000000001
#
# number of rings (size 3 to 8) (size 9 to 14) (size 15 to 20)
#    0.000    2.759    0.690    1.448    0.966    3.034 
#    0.000    4.138    0.000    0.828    0.000    0.000 
#    0.000    0.000    0.000    0.000    0.000    0.000 
#
# Total GULP energy -161506.743741 kJ/mol
# GULP energy per Si atom -5569.198060 kJ/mol
# Density = 1.972795 g / cm^3
# Si number density = 19.772953 Si / 1000 Ang^3
#
#
#
# Elastic Constant Matrix: (Units=GPa)
#
#
# Indices 1 2 3 4 5 6 
#
# 1 181.7711 24.7242 68.9450 0.0000 0.0000 0.0000
# 2 24.7242 77.8918 9.4550 0.0000 0.0000 0.0000
# 3 68.9450 9.4550 127.0962 0.0000 0.0000 0.0000
# 4 0.0000 0.0000 0.0000 9.0578 0.0000 0.0000
# 5 0.0000 0.0000 0.0000 0.0000 -2.1677 0.0000
# 6 0.0000 0.0000 0.0000 0.0000 0.0000 13.3477
#
#
#
# Elastic Compliance Matrix: (Units=1/GPa)
#
#
# Indices 1 2 3 4 5 6 
#
# 1 0.007174 -0.001821 -0.003756 0.000000 0.000000 0.000000
# 2 -0.001821 0.013418 -0.000010 0.000000 0.000000 0.000000
# 3 -0.003756 -0.000010 0.009906 0.000000 0.000000 0.000000
# 4 0.000000 0.000000 0.000000 0.110402 0.000000 0.000000
# 5 0.000000 0.000000 0.000000 0.000000 -0.461312 0.000000
# 6 0.000000 0.000000 0.000000 0.000000 0.000000 0.074919
#
#
# Mechanical properties :
#
#
# Convention : Reuss Voigt Hill
#
# Bulk Modulus (GPa) = 51.75222 65.88973 58.82098
# Shear Modulus (GPa) = -21.94169 22.95655 0.50743
#
# Velocity S-wave (km/s) = -3.33480 3.41105 0.50713
# Velocity P-wave (km/s) = 3.37671 6.99351 5.49142
#
# Compressibility (1/GPa) = 0.01932284
#
# Stress axis : x y z
#
# Youngs Moduli (GPa) = 139.39651 74.52885 100.94561
#
# Poissons Ratio (x) = 0.13573 0.37915
# Poissons Ratio (y) = 0.25386 0.00104
# Poissons Ratio (z) = 0.52358 0.00077
#
# Static dielectric constant tensor:
#      x y z
#    x 1.673780 0.000000 0.000000 
#    y 0.000000 1.757830 0.000000 
#    z 0.000000 0.000000 1.691590 
# 
# From -- ./inp_files/15697.got.cif
#   From: 2010.05.17/outbox.cif.g08.bks.cpg/sg38_8_cif.got.tgz:15697.got - 2010.06.03 18:07:57.
