data_PCOD9356764
_publ_section_title
;
Structure prediction by ZEFSAII (Michael W. Deem and Ramdas Pophale) SiO2 
 PCOD9356764
Probable space group: A M M 2
;
_chemical_formula_sum "Si O2"
_cell_formula_units_Z 56
_cell_length_a 20.310717
_cell_length_b 7.496467
_cell_length_c 16.491614
_cell_angle_alpha 90.000000
_cell_angle_beta 90.000000
_cell_angle_gamma 90.000000
_cell_volume 2510.990385
_symmetry_space_group_name_H-M "A M M 2"
_symmetry_group_IT_number 38
_symmetry_cell_setting 'orthorhombic'
loop_
_space_group_symop_operation_xyz
x,y,z
-x,-y,z
-x,y,z
x,-y,z
x,1/2+y,1/2+z
-x,1/2-y,1/2+z
-x,1/2+y,1/2+z
x,1/2-y,1/2+z
loop_
_atom_site_type_symbol
_atom_site_label
_atom_site_fract_x
_atom_site_fract_y
_atom_site_fract_z
Si Si1 0.076010 0.781626 0.634050
Si Si2 0.571411 0.717252 0.294393
Si Si3 0.153856 0.785732 0.473245
Si Si4 0.710588 0.218534 0.728644
Si Si5 0.845881 0.788153 0.793052
Si Si6 0.428971 0.714113 0.483239
Si Si7 0.285095 0.711069 0.047205
O O1 0.112605 0.724107 0.551509
O O2 0.111974 0.720533 0.716677
O O3 0.000000 0.727703 0.633643
O O4 0.077723 0.000000 0.634139
O O5 0.500000 0.775445 0.261463
O O6 0.571652 0.500000 0.291598
O O7 0.637730 0.780303 0.252096
O O8 0.574524 0.768609 0.388968
O O9 0.128557 0.740351 0.383778
O O10 0.229285 0.719361 0.486250
O O11 0.153146 0.000000 0.475834
O O12 0.770397 0.277901 0.785602
O O13 0.727005 0.277971 0.637820
O O14 0.708241 0.000000 0.730242
O O15 0.842837 0.000000 0.781339
O O16 0.500000 0.778373 0.516466
O O17 0.430834 0.500000 0.484469
O O18 0.361102 0.764468 0.524987
O O19 0.274485 0.500000 0.050767
#
# Coordination Sequence:
#
# PCOD9356764 Si02
#       7
#     8   8   8   8   8   8   8
#     4   9  18  35  58  81 109 146 183 219 267 328
#     4   8  14  25  42  64  89 119 159 205 249 295
#     4  10  20  35  54  80 113 144 177 221 276 327
#     4   9  16  28  47  70  97 128 168 217 258 300
#     4  10  19  34  57  81 104 139 186 226 263 315
#     4   9  18  32  48  69  99 133 170 216 269 319
#     4  10  19  31  49  73 101 133 173 220 265 316
#
# _framework density 22.301957000000002
#
# number of rings (size 3 to 8) (size 9 to 14) (size 15 to 20)
#    0.000    2.714    1.429    1.714    0.000    3.143 
#    0.000    2.857    0.000    1.714    0.000    0.000 
#    0.000    0.000    0.000    0.000    0.000    0.000 
#
# Total GULP energy -156230.266359 kJ/mol
# GULP energy per Si atom -5579.652370 kJ/mol
# Density = 2.225120 g / cm^3
# Si number density = 22.301957 Si / 1000 Ang^3
#
#
#
# Elastic Constant Matrix: (Units=GPa)
#
#
# Indices 1 2 3 4 5 6 
#
# 1 154.3979 2.9447 79.6557 0.0000 0.0000 0.0000
# 2 2.9447 54.0240 -1.2256 0.0000 0.0000 0.0000
# 3 79.6557 -1.2256 146.5643 0.0000 0.0000 0.0000
# 4 0.0000 0.0000 0.0000 7.3292 0.0000 0.0000
# 5 0.0000 0.0000 0.0000 0.0000 17.5641 0.0000
# 6 0.0000 0.0000 0.0000 0.0000 0.0000 -3.6149
#
#
#
# Elastic Compliance Matrix: (Units=1/GPa)
#
#
# Indices 1 2 3 4 5 6 
#
# 1 0.009020 -0.000603 -0.004907 0.000000 0.000000 0.000000
# 2 -0.000603 0.018554 0.000483 0.000000 0.000000 0.000000
# 3 -0.004907 0.000483 0.009494 0.000000 0.000000 0.000000
# 4 0.000000 0.000000 0.000000 0.136441 0.000000 0.000000
# 5 0.000000 0.000000 0.000000 0.000000 0.056934 0.000000
# 6 0.000000 0.000000 0.000000 0.000000 0.000000 -0.276637
#
#
# Mechanical properties :
#
#
# Convention : Reuss Voigt Hill
#
# Bulk Modulus (GPa) = 37.01875 57.52620 47.27248
# Shear Modulus (GPa) = -184.27079 22.49645 -80.88717
#
# Velocity S-wave (km/s) = -9.09971 3.17948 -6.02892
# Velocity P-wave (km/s) = 9.68357 6.27129 5.21739
#
# Compressibility (1/GPa) = 0.02701334
#
# Stress axis : x y z
#
# Youngs Moduli (GPa) = 110.86470 53.89637 105.32937
#
# Poissons Ratio (x) = 0.03250 0.51688
# Poissons Ratio (y) = 0.06685 -0.05086
# Poissons Ratio (z) = 0.54405 -0.02603
#
# Static dielectric constant tensor:
#      x y z
#    x 2.091330 0.000000 0.000000 
#    y 0.000000 1.854980 0.000000 
#    z 0.000000 0.000000 1.805600 
# 
# From -- ./inp_files/15421.got.cif
#   From: 2010.05.17/outbox.cif.g08.bks.cpg/sg38_8_cif.got.tgz:15421.got - 2010.06.03 18:07:57.
