data_PCOD9356793
_publ_section_title
;
Structure prediction by ZEFSAII (Michael W. Deem and Ramdas Pophale) SiO2 
 PCOD9356793
Probable space group: A M M 2
;
_chemical_formula_sum "Si O2"
_cell_formula_units_Z 64
_cell_length_a 19.947847
_cell_length_b 8.963532
_cell_length_c 20.828119
_cell_angle_alpha 90.000000
_cell_angle_beta 90.000000
_cell_angle_gamma 90.000000
_cell_volume 3724.133596
_symmetry_space_group_name_H-M "A M M 2"
_symmetry_group_IT_number 38
_symmetry_cell_setting 'orthorhombic'
loop_
_space_group_symop_operation_xyz
x,y,z
-x,-y,z
-x,y,z
x,-y,z
x,1/2+y,1/2+z
-x,1/2-y,1/2+z
-x,1/2+y,1/2+z
x,1/2-y,1/2+z
loop_
_atom_site_type_symbol
_atom_site_label
_atom_site_fract_x
_atom_site_fract_y
_atom_site_fract_z
Si Si1 0.847057 0.178510 0.132540
Si Si2 0.572503 0.677413 0.319833
Si Si3 0.147462 0.322528 0.876045
Si Si4 0.712034 0.677648 0.175578
Si Si5 0.573837 0.178002 0.179777
Si Si6 0.919843 0.673460 0.252905
Si Si7 0.719494 0.822946 0.829645
Si Si8 0.921267 0.820801 0.999427
O O1 0.772892 0.246133 0.138314
O O2 0.888873 0.247046 0.191193
O O3 0.884166 0.214778 0.066058
O O4 0.844063 0.000000 0.138963
O O5 0.500000 0.701455 0.352496
O O6 0.576064 0.500000 0.303048
O O7 0.571696 0.770539 0.254181
O O8 0.643488 0.710811 0.352608
O O9 0.143726 0.500000 0.874413
O O10 0.106889 0.252922 0.816459
O O11 0.223643 0.268161 0.865619
O O12 0.115333 0.259688 0.940933
O O13 0.713551 0.500000 0.168222
O O14 0.640050 0.741407 0.154004
O O15 0.721331 0.708577 0.252540
O O16 0.500000 0.218048 0.152592
O O17 0.581525 0.000000 0.175824
O O18 0.898563 0.500000 0.253744
O O19 0.000000 0.679736 0.250856
O O20 0.731929 0.000000 0.837549
O O21 0.000000 0.780782 0.002352
O O22 0.917389 0.000000 0.989871
#
# Coordination Sequence:
#
# PCOD9356793 Si02
#       8
#     8   8   8   8   8   8   8   8
#     4  11  22  37  59  84 108 137 176 223 273 327
#     4   8  14  25  42  66  98 137 177 215 260 317
#     4  12  24  36  55  81 108 141 182 227 269 316
#     4  10  19  31  50  75 107 145 180 218 266 321
#     4   9  16  25  40  66 102 141 179 221 266 310
#     4  11  23  38  57  80 108 141 175 215 268 327
#     4   9  17  30  49  73 106 143 177 217 266 319
#     4  10  23  43  62  79 105 140 176 220 276 333
#
# _framework density 17.185203999999999
#
# number of rings (size 3 to 8) (size 9 to 14) (size 15 to 20)
#    0.000    2.000    1.250    4.125    0.000    7.000 
#    0.000    0.000    0.000    0.000    0.000    0.875 
#    0.000    3.000    0.000    0.000    0.000    0.000 
#
# Total GULP energy -178500.018242 kJ/mol
# GULP energy per Si atom -5578.125570 kJ/mol
# Density = 1.714609 g / cm^3
# Si number density = 17.185204 Si / 1000 Ang^3
#
#
#
# Elastic Constant Matrix: (Units=GPa)
#
#
# Indices 1 2 3 4 5 6 
#
# 1 177.5340 78.6924 70.4020 0.0000 0.0000 0.0000
# 2 78.6924 79.6007 60.7808 0.0000 0.0000 0.0000
# 3 70.4020 60.7808 92.0853 0.0000 0.0000 0.0000
# 4 0.0000 0.0000 0.0000 21.6487 0.0000 0.0000
# 5 0.0000 0.0000 0.0000 0.0000 43.0705 0.0000
# 6 0.0000 0.0000 0.0000 0.0000 0.0000 27.1695
#
#
#
# Elastic Compliance Matrix: (Units=1/GPa)
#
#
# Indices 1 2 3 4 5 6 
#
# 1 0.010266 -0.008378 -0.002318 0.000000 0.000000 0.000000
# 2 -0.008378 0.032166 -0.014825 0.000000 0.000000 0.000000
# 3 -0.002318 -0.014825 0.022417 0.000000 0.000000 0.000000
# 4 0.000000 0.000000 0.000000 0.046192 0.000000 0.000000
# 5 0.000000 0.000000 0.000000 0.000000 0.023218 0.000000
# 6 0.000000 0.000000 0.000000 0.000000 0.000000 0.036806
#
#
# Mechanical properties :
#
#
# Convention : Reuss Voigt Hill
#
# Bulk Modulus (GPa) = 72.43942 85.44113 78.94027
# Shear Modulus (GPa) = 22.05450 27.66740 24.86095
#
# Velocity S-wave (km/s) = 3.58626 4.01678 3.80761
# Velocity P-wave (km/s) = 7.70663 8.44621 8.08488
#
# Compressibility (1/GPa) = 0.01380464
#
# Stress axis : x y z
#
# Youngs Moduli (GPa) = 97.41017 31.08889 44.60812
#
# Poissons Ratio (x) = 0.26048 0.10342
# Poissons Ratio (y) = 0.81615 0.66133
# Poissons Ratio (z) = 0.22583 0.46091
#
# Static dielectric constant tensor:
#      x y z
#    x 1.627830 0.000000 0.000000 
#    y 0.000000 1.568770 0.000000 
#    z 0.000000 0.000000 1.547440 
# 
# From -- ./inp_files/18930.got.cif
#   From: 2010.05.17/outbox.cif.g08.bks.cpg/sg38_10_cif.got.tgz:18930.got - 2010.06.03 18:07:57.
