data_PCOD9356095
_publ_section_title
;
Structure prediction by ZEFSAII (Michael W. Deem and Ramdas Pophale) SiO2 
 PCOD9356095
Probable space group: A M M 2
;
_chemical_formula_sum "Si O2"
_cell_formula_units_Z 64
_cell_length_a 7.938077
_cell_length_b 28.698854
_cell_length_c 15.082705
_cell_angle_alpha 90.000000
_cell_angle_beta 90.000000
_cell_angle_gamma 90.000000
_cell_volume 3436.047026
_symmetry_space_group_name_H-M "A M M 2"
_symmetry_group_IT_number 38
_symmetry_cell_setting 'orthorhombic'
loop_
_space_group_symop_operation_xyz
x,y,z
-x,-y,z
-x,y,z
x,-y,z
x,1/2+y,1/2+z
-x,1/2-y,1/2+z
-x,1/2+y,1/2+z
x,1/2-y,1/2+z
loop_
_atom_site_type_symbol
_atom_site_label
_atom_site_fract_x
_atom_site_fract_y
_atom_site_fract_z
Si Si1 0.300567 0.137537 0.387600
Si Si2 0.203420 0.946475 0.265612
Si Si3 0.794047 0.553822 0.565787
Si Si4 0.697541 0.286514 0.553499
Si Si5 0.802726 0.630941 0.431366
Si Si6 0.703783 0.218266 0.256538
Si Si7 0.202114 0.176280 0.758066
Si Si8 0.801893 0.816694 0.559364
O O1 0.500000 0.143634 0.396079
O O2 0.265377 0.089142 0.339070
O O3 0.234740 0.178739 0.323280
O O4 0.225207 0.144878 0.484615
O O5 0.259137 0.932623 0.165807
O O6 0.000000 0.945718 0.266023
O O7 0.256489 0.000000 0.280373
O O8 0.746127 0.500000 0.550612
O O9 0.730649 0.589315 0.491332
O O10 0.000000 0.555251 0.565986
O O11 0.500000 0.298068 0.550338
O O12 0.789209 0.321862 0.488672
O O13 0.759160 0.291135 0.655224
O O14 0.719216 0.232137 0.530078
O O15 0.728896 0.642649 0.334719
O O16 0.000000 0.619891 0.418795
O O17 0.500000 0.217885 0.255827
O O18 0.760087 0.270051 0.282062
O O19 0.264236 0.169889 0.657173
O O20 0.000000 0.170640 0.756877
O O21 0.000000 0.807041 0.568195
#
# Coordination Sequence:
#
# PCOD9356095 Si02
#       8
#     8   8   8   8   8   8   8   8
#     4  11  21  32  49  73  97 125 162 199 239 285
#     4   9  18  33  52  74  99 126 155 189 234 287
#     4   8  15  29  50  75 100 124 153 192 237 285
#     4  10  19  31  46  68  98 127 156 192 236 285
#     4  10  18  29  48  72  95 123 160 197 236 284
#     4   9  19  32  45  65  96 128 156 190 233 284
#     4   9  19  32  46  66  93 125 161 199 235 274
#     4  10  20  34  48  64  92 129 165 200 236 275
#
# _framework density 18.626055999999998
#
# number of rings (size 3 to 8) (size 9 to 14) (size 15 to 20)
#    0.000    2.500    0.000    3.375    0.000    4.750 
#    0.000    0.000    0.000    1.875    0.000    3.500 
#    0.000    0.000    0.000    0.000    0.000    0.000 
#
# Total GULP energy -178557.471664 kJ/mol
# GULP energy per Si atom -5579.920990 kJ/mol
# Density = 1.858366 g / cm^3
# Si number density = 18.626056 Si / 1000 Ang^3
#
#
#
# Elastic Constant Matrix: (Units=GPa)
#
#
# Indices 1 2 3 4 5 6 
#
# 1 17.3344 -4.7503 0.1642 0.0000 0.0000 0.0000
# 2 -4.7503 77.2340 72.7641 0.0000 0.0000 0.0000
# 3 0.1642 72.7641 106.7879 0.0000 0.0000 0.0000
# 4 0.0000 0.0000 0.0000 32.5611 0.0000 0.0000
# 5 0.0000 0.0000 0.0000 0.0000 10.2910 0.0000
# 6 0.0000 0.0000 0.0000 0.0000 0.0000 634.7446
#
#
#
# Elastic Compliance Matrix: (Units=1/GPa)
#
#
# Indices 1 2 3 4 5 6 
#
# 1 0.060682 0.010669 -0.007363 0.000000 0.000000 0.000000
# 2 0.010669 0.038038 -0.025935 0.000000 0.000000 0.000000
# 3 -0.007363 -0.025935 0.027048 0.000000 0.000000 0.000000
# 4 0.000000 0.000000 0.000000 0.030711 0.000000 0.000000
# 5 0.000000 0.000000 0.000000 0.000000 0.097173 0.000000
# 6 0.000000 0.000000 0.000000 0.000000 0.000000 0.001575
#
#
# Mechanical properties :
#
#
# Convention : Reuss Voigt Hill
#
# Bulk Modulus (GPa) = 12.42081 37.52359 24.97220
# Shear Modulus (GPa) = 15.27549 144.39790 79.83669
#
# Velocity S-wave (km/s) = 2.86687 8.81436 6.55408
# Velocity P-wave (km/s) = 4.20019 11.12565 8.40897
#
# Compressibility (1/GPa) = 0.08051002
#
# Stress axis : x y z
#
# Youngs Moduli (GPa) = 16.47924 26.28954 36.97194
#
# Poissons Ratio (x) = -0.28050 0.27224
# Poissons Ratio (y) = -0.17582 0.95887
# Poissons Ratio (z) = 0.12134 0.68182
#
# Static dielectric constant tensor:
#      x y z
#    x 1.667710 0.000000 0.000000 
#    y 0.000000 1.618540 0.000000 
#    z 0.000000 0.000000 1.676120 
# 
# From -- ./inp_files/13083.got.cif
#   From: 2010.05.17/outbox.cif.g08.bks.cpg/sg38_7_cif.got.tgz:13083.got - 2010.06.03 18:07:57.
