data_PCOD9356158
_publ_section_title
;
Structure prediction by ZEFSAII (Michael W. Deem and Ramdas Pophale) SiO2 
 PCOD9356158
Probable space group: A M M 2
;
_chemical_formula_sum "Si O2"
_cell_formula_units_Z 64
_cell_length_a 20.027065
_cell_length_b 19.540313
_cell_length_c 9.264587
_cell_angle_alpha 90.000000
_cell_angle_beta 90.000000
_cell_angle_gamma 90.000000
_cell_volume 3625.558252
_symmetry_space_group_name_H-M "A M M 2"
_symmetry_group_IT_number 38
_symmetry_cell_setting 'orthorhombic'
loop_
_space_group_symop_operation_xyz
x,y,z
-x,-y,z
-x,y,z
x,-y,z
x,1/2+y,1/2+z
-x,1/2-y,1/2+z
-x,1/2+y,1/2+z
x,1/2-y,1/2+z
loop_
_atom_site_type_symbol
_atom_site_label
_atom_site_fract_x
_atom_site_fract_y
_atom_site_fract_z
Si Si1 0.924630 0.577189 0.576930
Si Si2 0.923767 0.289787 0.778733
Si Si3 0.208134 0.874222 0.977572
Si Si4 0.421501 0.419923 0.476305
Si Si5 0.313706 0.920334 0.219982
Si Si6 0.701241 0.185296 0.472447
Si Si7 0.156738 0.722685 0.050124
Si Si8 0.325464 0.672899 0.299998
O O1 0.921529 0.500000 0.637603
O O2 0.916950 0.637790 0.694819
O O3 0.861679 0.585503 0.470118
O O4 0.000000 0.585892 0.515136
O O5 0.902757 0.296364 0.943478
O O6 0.873749 0.234387 0.707636
O O7 0.000000 0.267543 0.763714
O O8 0.185624 0.797388 0.011927
O O9 0.259065 0.871038 0.843552
O O10 0.252206 0.899842 0.114102
O O11 0.500000 0.407792 0.493450
O O12 0.411790 0.500000 0.435097
O O13 0.379992 0.409665 0.623694
O O14 0.387572 0.369227 0.362322
O O15 0.316033 0.874603 0.361957
O O16 0.307579 0.000000 0.255133
O O17 0.779549 0.177315 0.514242
O O18 0.685039 0.255653 0.386295
O O19 0.667827 0.185539 0.629970
#
# Coordination Sequence:
#
# PCOD9356158 Si02
#       8
#     8   8   8   8   8   8   8   8
#     4   9  17  29  46  69  97 130 171 220 269 319
#     4  10  19  30  46  70  98 130 174 222 271 328
#     4   9  17  31  49  72  99 134 177 217 262 318
#     4   9  19  38  61  84 112 145 180 219 266 319
#     4  10  20  35  58  83 108 141 179 221 269 326
#     4  11  20  35  54  80 112 141 180 223 269 322
#     4  10  18  30  47  69  98 134 168 215 271 311
#     4  10  20  34  56  80 109 146 179 219 267 319
#
# _framework density 17.652455
#
# number of rings (size 3 to 8) (size 9 to 14) (size 15 to 20)
#    0.000    2.250    0.000    6.000    0.000    1.500 
#    0.000    3.125    0.000    1.500    0.000    4.375 
#    0.000   25.000    0.000    0.000    0.000    0.000 
#
# Total GULP energy -178239.214992 kJ/mol
# GULP energy per Si atom -5569.975469 kJ/mol
# Density = 1.761228 g / cm^3
# Si number density = 17.652455 Si / 1000 Ang^3
#
#
#
# Elastic Constant Matrix: (Units=GPa)
#
#
# Indices 1 2 3 4 5 6 
#
# 1 107.4709 44.9151 40.1743 0.0000 0.0000 0.0000
# 2 44.9151 68.7049 60.5274 0.0000 0.0000 0.0000
# 3 40.1743 60.5274 109.6373 0.0000 0.0000 0.0000
# 4 0.0000 0.0000 0.0000 25.1051 0.0000 0.0000
# 5 0.0000 0.0000 0.0000 0.0000 10.0438 0.0000
# 6 0.0000 0.0000 0.0000 0.0000 0.0000 24.3649
#
#
#
# Elastic Compliance Matrix: (Units=1/GPa)
#
#
# Indices 1 2 3 4 5 6 
#
# 1 0.012804 -0.008249 -0.000138 0.000000 0.000000 0.000000
# 2 -0.008249 0.033652 -0.015555 0.000000 0.000000 0.000000
# 3 -0.000138 -0.015555 0.017759 0.000000 0.000000 0.000000
# 4 0.000000 0.000000 0.000000 0.039833 0.000000 0.000000
# 5 0.000000 0.000000 0.000000 0.000000 0.099564 0.000000
# 6 0.000000 0.000000 0.000000 0.000000 0.000000 0.041043
#
#
# Mechanical properties :
#
#
# Convention : Reuss Voigt Hill
#
# Bulk Modulus (GPa) = 61.23556 64.11632 62.67594
# Shear Modulus (GPa) = 16.77957 21.24917 19.01437
#
# Velocity S-wave (km/s) = 3.08645 3.47328 3.28556
# Velocity P-wave (km/s) = 6.88959 7.24467 7.06936
#
# Compressibility (1/GPa) = 0.01633038
#
# Stress axis : x y z
#
# Youngs Moduli (GPa) = 78.10167 29.71614 56.30932
#
# Poissons Ratio (x) = 0.24513 0.00775
# Poissons Ratio (y) = 0.64427 0.87591
# Poissons Ratio (z) = 0.01075 0.46225
#
# Static dielectric constant tensor:
#      x y z
#    x 1.634580 0.000000 0.000000 
#    y 0.000000 1.608590 0.000000 
#    z 0.000000 0.000000 1.605810 
# 
# From -- ./inp_files/6876.got.cif
#   From: 2010.05.17/outbox.cif.g08.bks.cpg/sg38_4_cif.got.tgz:6876.got - 2010.06.03 18:07:57.
