data_PCOD9356147
_publ_section_title
;
Structure prediction by ZEFSAII (Michael W. Deem and Ramdas Pophale) SiO2 
 PCOD9356147
Probable space group: A M M 2
;
_chemical_formula_sum "Si O2"
_cell_formula_units_Z 64
_cell_length_a 8.678798
_cell_length_b 26.964215
_cell_length_c 18.919711
_cell_angle_alpha 90.000000
_cell_angle_beta 90.000000
_cell_angle_gamma 90.000000
_cell_volume 4427.533540
_symmetry_space_group_name_H-M "A M M 2"
_symmetry_group_IT_number 38
_symmetry_cell_setting 'orthorhombic'
loop_
_space_group_symop_operation_xyz
x,y,z
-x,-y,z
-x,y,z
x,-y,z
x,1/2+y,1/2+z
-x,1/2-y,1/2+z
-x,1/2+y,1/2+z
x,1/2-y,1/2+z
loop_
_atom_site_type_symbol
_atom_site_label
_atom_site_fract_x
_atom_site_fract_y
_atom_site_fract_z
Si Si1 0.313803 0.645098 0.519750
Si Si2 0.315549 0.057800 0.774208
Si Si3 0.183859 0.259671 0.437501
Si Si4 0.816444 0.851247 0.692629
Si Si5 0.686623 0.241263 0.780721
Si Si6 0.816163 0.558028 0.429637
Si Si7 0.322242 0.701756 0.062792
Si Si8 0.677387 0.696371 0.654553
O O1 0.500000 0.647987 0.519421
O O2 0.249585 0.689254 0.470541
O O3 0.257601 0.593753 0.487489
O O4 0.256749 0.656254 0.599904
O O5 0.500000 0.063127 0.773615
O O6 0.241289 0.095609 0.719216
O O7 0.253214 0.070039 0.852569
O O8 0.277442 0.000000 0.760397
O O9 0.252336 0.253538 0.359583
O O10 0.237620 0.216069 0.490526
O O11 0.000000 0.262281 0.435141
O O12 0.745523 0.809742 0.745352
O O13 0.758160 0.837629 0.614095
O O14 0.000000 0.848064 0.695655
O O15 0.500000 0.240481 0.779636
O O16 0.743435 0.286046 0.729422
O O17 0.784275 0.500000 0.443421
O O18 0.000000 0.565171 0.427428
O O19 0.500000 0.688549 0.049727
O O20 0.322542 0.752880 0.108457
O O21 0.500000 0.682058 0.667806
#
# Coordination Sequence:
#
# PCOD9356147 Si02
#       8
#     8   8   8   8   8   8   8   8
#     4  10  18  30  46  62  82 112 148 180 214 257
#     4  10  20  33  47  62  82 112 149 184 216 253
#     4  11  20  29  42  64  90 114 144 180 217 254
#     4  11  20  30  45  65  88 114 144 180 221 258
#     4  10  18  30  45  61  85 117 149 177 210 256
#     4  10  20  32  44  61  86 113 143 182 223 258
#     4   9  17  31  46  61  83 113 146 176 210 254
#     4   7  14  27  43  60  78 104 139 176 207 242
#
# _framework density 14.455
#
# number of rings (size 3 to 8) (size 9 to 14) (size 15 to 20)
#    0.000    2.250    0.000    6.375    0.000    1.500 
#    0.000    1.875    0.000    0.000    0.000    0.000 
#    0.000    1.000    0.000    5.250    0.000    4.875 
#
# Total GULP energy -178369.444317 kJ/mol
# GULP energy per Si atom -5574.045135 kJ/mol
# Density = 1.442210 g / cm^3
# Si number density = 14.455000 Si / 1000 Ang^3
#
#
#
# Elastic Constant Matrix: (Units=GPa)
#
#
# Indices 1 2 3 4 5 6 
#
# 1 84.0652 33.1399 38.5727 0.0000 0.0000 0.0000
# 2 33.1399 60.4616 41.6671 0.0000 0.0000 0.0000
# 3 38.5727 41.6671 101.4337 0.0000 0.0000 0.0000
# 4 0.0000 0.0000 0.0000 28.1946 0.0000 0.0000
# 5 0.0000 0.0000 0.0000 0.0000 16.2375 0.0000
# 6 0.0000 0.0000 0.0000 0.0000 0.0000 19.6417
#
#
#
# Elastic Compliance Matrix: (Units=1/GPa)
#
#
# Indices 1 2 3 4 5 6 
#
# 1 0.016001 -0.006384 -0.003462 0.000000 0.000000 0.000000
# 2 -0.006384 0.025618 -0.008096 0.000000 0.000000 0.000000
# 3 -0.003462 -0.008096 0.014501 0.000000 0.000000 0.000000
# 4 0.000000 0.000000 0.000000 0.035468 0.000000 0.000000
# 5 0.000000 0.000000 0.000000 0.000000 0.061586 0.000000
# 6 0.000000 0.000000 0.000000 0.000000 0.000000 0.050912
#
#
# Mechanical properties :
#
#
# Convention : Reuss Voigt Hill
#
# Bulk Modulus (GPa) = 49.41849 52.52443 50.97146
# Shear Modulus (GPa) = 20.26633 21.65347 20.95990
#
# Velocity S-wave (km/s) = 3.74843 3.87459 3.81203
# Velocity P-wave (km/s) = 7.27986 7.51212 7.39690
#
# Compressibility (1/GPa) = 0.02023534
#
# Stress axis : x y z
#
# Youngs Moduli (GPa) = 62.49633 39.03537 68.96209
#
# Poissons Ratio (x) = 0.24922 0.23876
# Poissons Ratio (y) = 0.39900 0.55828
# Poissons Ratio (z) = 0.21637 0.31601
#
# Static dielectric constant tensor:
#      x y z
#    x 1.485470 0.000000 0.000000 
#    y 0.000000 1.468230 0.000000 
#    z 0.000000 0.000000 1.482110 
# 
# From -- ./inp_files/17320.got.cif
#   From: 2010.05.17/outbox.cif.g08.bks.cpg/sg38_9_cif.got.tgz:17320.got - 2010.06.03 18:07:57.
