data_PCOD9356108
_publ_section_title
;
Structure prediction by ZEFSAII (Michael W. Deem and Ramdas Pophale) SiO2 
 PCOD9356108
Probable space group: A M M 2
;
_chemical_formula_sum "Si O2"
_cell_formula_units_Z 64
_cell_length_a 7.590910
_cell_length_b 21.524695
_cell_length_c 16.196748
_cell_angle_alpha 90.000000
_cell_angle_beta 90.000000
_cell_angle_gamma 90.000000
_cell_volume 2646.419414
_symmetry_space_group_name_H-M "A M M 2"
_symmetry_group_IT_number 38
_symmetry_cell_setting 'orthorhombic'
loop_
_space_group_symop_operation_xyz
x,y,z
-x,-y,z
-x,y,z
x,-y,z
x,1/2+y,1/2+z
-x,1/2-y,1/2+z
-x,1/2+y,1/2+z
x,1/2-y,1/2+z
loop_
_atom_site_type_symbol
_atom_site_label
_atom_site_fract_x
_atom_site_fract_y
_atom_site_fract_z
Si Si1 0.800671 0.243184 0.682690
Si Si2 0.715293 0.072576 0.955326
Si Si3 0.294418 0.424250 0.278586
Si Si4 0.794145 0.293831 0.843152
Si Si5 0.716791 0.570741 0.096930
Si Si6 0.287886 0.379716 0.632110
Si Si7 0.700600 0.685827 0.013083
Si Si8 0.209385 0.932533 0.302370
O O1 0.720365 0.245594 0.775206
O O2 0.798142 0.315974 0.660524
O O3 0.705169 0.213562 0.604672
O O4 0.000000 0.219071 0.682853
O O5 0.500000 0.075271 0.952726
O O6 0.780476 0.097170 0.866415
O O7 0.762579 0.000000 0.960829
O O8 0.771117 0.104066 0.039923
O O9 0.500000 0.406492 0.276763
O O10 0.289079 0.500000 0.280636
O O11 0.222179 0.408023 0.188499
O O12 0.722336 0.365069 0.834684
O O13 0.000000 0.297269 0.821612
O O14 0.783365 0.275959 0.938860
O O15 0.500000 0.572168 0.097829
O O16 0.769803 0.500000 0.083727
O O17 0.779972 0.617509 0.026960
O O18 0.500000 0.372561 0.631155
O O19 0.241570 0.428414 0.703653
O O20 0.500000 0.680014 0.987470
O O21 0.000000 0.932616 0.317939
O O22 0.279249 0.000000 0.332377
#
# Coordination Sequence:
#
# PCOD9356108 Si02
#       8
#     8   8   8   8   8   8   8   8
#     4  10  22  42  61  75 105 151 195 235 282 343
#     4   8  13  21  37  66 104 141 175 216 269 326
#     4   7  10  20  38  60  95 140 172 196 241 311
#     4   9  20  39  60  80 108 152 196 234 280 337
#     4   8  15  29  49  76 112 147 174 209 269 338
#     4  10  18  29  48  77 110 140 184 242 294 336
#     4  11  22  36  59  90 116 142 183 237 290 340
#     4   9  18  33  53  78 111 153 196 231 277 346
#
# _framework density 24.183620000000001
#
# number of rings (size 3 to 8) (size 9 to 14) (size 15 to 20)
#    0.000    3.000    0.000    3.750    0.000    3.750 
#    2.250    0.000    0.000    1.125    0.000    0.000 
#    0.000    9.000    0.000    0.000    0.000    0.000 
#
# Total GULP energy -178460.586776 kJ/mol
# GULP energy per Si atom -5576.893337 kJ/mol
# Density = 2.412858 g / cm^3
# Si number density = 24.183620 Si / 1000 Ang^3
#
#
#
# Elastic Constant Matrix: (Units=GPa)
#
#
# Indices 1 2 3 4 5 6 
#
# 1 64.2615 7.1306 7.1706 0.0000 0.0000 0.0000
# 2 7.1306 30.7260 18.6553 0.0000 0.0000 0.0000
# 3 7.1706 18.6553 152.4140 0.0000 0.0000 0.0000
# 4 0.0000 0.0000 0.0000 22.6341 0.0000 0.0000
# 5 0.0000 0.0000 0.0000 0.0000 91.9146 0.0000
# 6 0.0000 0.0000 0.0000 0.0000 0.0000 10.2792
#
#
#
# Elastic Compliance Matrix: (Units=1/GPa)
#
#
# Indices 1 2 3 4 5 6 
#
# 1 0.015987 -0.003515 -0.000322 0.000000 0.000000 0.000000
# 2 -0.003515 0.035931 -0.004233 0.000000 0.000000 0.000000
# 3 -0.000322 -0.004233 0.007094 0.000000 0.000000 0.000000
# 4 0.000000 0.000000 0.000000 0.044181 0.000000 0.000000
# 5 0.000000 0.000000 0.000000 0.000000 0.010880 0.000000
# 6 0.000000 0.000000 0.000000 0.000000 0.000000 0.097284
#
#
# Mechanical properties :
#
#
# Convention : Reuss Voigt Hill
#
# Bulk Modulus (GPa) = 23.32399 34.81272 29.06836
# Shear Modulus (GPa) = 20.67934 39.26194 29.97064
#
# Velocity S-wave (km/s) = 2.92738 4.03363 3.52418
# Velocity P-wave (km/s) = 4.59255 6.00999 5.34843
#
# Compressibility (1/GPa) = 0.04287431
#
# Stress axis : x y z
#
# Youngs Moduli (GPa) = 62.54952 27.83102 140.95857
#
# Poissons Ratio (x) = 0.09782 0.04538
# Poissons Ratio (y) = 0.21984 0.59662
# Poissons Ratio (z) = 0.02014 0.11780
#
# Static dielectric constant tensor:
#      x y z
#    x 1.860080 0.000000 0.000000 
#    y 0.000000 1.968370 0.000000 
#    z 0.000000 0.000000 1.995080 
# 
# From -- ./inp_files/12825.got.cif
#   From: 2010.05.17/outbox.cif.g08.bks.cpg/sg38_7_cif.got.tgz:12825.got - 2010.06.03 18:07:57.
