data_PCOD9356160
_publ_section_title
;
Structure prediction by ZEFSAII (Michael W. Deem and Ramdas Pophale) SiO2 
 PCOD9356160
Probable space group: A M M 2
;
_chemical_formula_sum "Si O2"
_cell_formula_units_Z 56
_cell_length_a 8.251199
_cell_length_b 23.734640
_cell_length_c 13.883277
_cell_angle_alpha 90.000000
_cell_angle_beta 90.000000
_cell_angle_gamma 90.000000
_cell_volume 2718.890386
_symmetry_space_group_name_H-M "A M M 2"
_symmetry_group_IT_number 38
_symmetry_cell_setting 'orthorhombic'
loop_
_space_group_symop_operation_xyz
x,y,z
-x,-y,z
-x,y,z
x,-y,z
x,1/2+y,1/2+z
-x,1/2-y,1/2+z
-x,1/2+y,1/2+z
x,1/2-y,1/2+z
loop_
_atom_site_type_symbol
_atom_site_label
_atom_site_fract_x
_atom_site_fract_y
_atom_site_fract_z
Si Si1 0.695320 0.064107 0.921730
Si Si2 0.310339 0.128757 0.314441
Si Si3 0.690681 0.127819 0.525046
Si Si4 0.303321 0.369378 0.232187
Si Si5 0.192232 0.869966 0.109648
Si Si6 0.189754 0.253446 0.532923
Si Si7 0.187399 0.245740 0.812086
O O1 0.500000 0.063479 0.915995
O O2 0.753415 0.096209 0.825613
O O3 0.754637 0.000000 0.922532
O O4 0.740321 0.094625 0.020866
O O5 0.500000 0.115526 0.312629
O O6 0.240760 0.111339 0.419752
O O7 0.234150 0.107079 0.215336
O O8 0.285871 0.196411 0.310100
O O9 0.500000 0.114564 0.521193
O O10 0.754057 0.106927 0.628535
O O11 0.713015 0.195448 0.533489
O O12 0.500000 0.369547 0.231163
O O13 0.246602 0.305024 0.246303
O O14 0.000000 0.867425 0.099151
O O15 0.250212 0.804922 0.097741
O O16 0.195997 0.275044 0.422648
O O17 0.000000 0.240673 0.553928
O O18 0.000000 0.259810 0.790470
#
# Coordination Sequence:
#
# PCOD9356160 Si02
#       7
#     8   8   8   8   8   8   8
#     4  10  22  39  59  82 105 133 176 230 283 330
#     4  10  20  33  49  74 108 146 182 215 255 312
#     4   9  19  32  48  73 106 142 178 212 254 310
#     4  10  19  33  53  75 102 138 178 222 271 322
#     4  11  21  35  54  77 105 140 179 222 273 323
#     4   9  18  30  45  70 105 140 175 213 256 311
#     4  10  18  30  47  73 108 143 179 217 260 316
#
# _framework density 20.596639
#
# number of rings (size 3 to 8) (size 9 to 14) (size 15 to 20)
#    0.000    2.143    1.429    2.143    0.000    5.429 
#    0.000    0.000    0.000    0.857    0.000    4.000 
#    0.000    0.000    0.000    0.000    0.000    0.000 
#
# Total GULP energy -156176.480275 kJ/mol
# GULP energy per Si atom -5577.731438 kJ/mol
# Density = 2.054976 g / cm^3
# Si number density = 20.596639 Si / 1000 Ang^3
#
#
#
# Elastic Constant Matrix: (Units=GPa)
#
#
# Indices 1 2 3 4 5 6 
#
# 1 13.0290 -2.7377 1.6243 0.0000 0.0000 0.0000
# 2 -2.7377 32.3161 18.6434 0.0000 0.0000 0.0000
# 3 1.6243 18.6434 184.8432 0.0000 0.0000 0.0000
# 4 0.0000 0.0000 0.0000 6.7881 0.0000 0.0000
# 5 0.0000 0.0000 0.0000 0.0000 10.4730 0.0000
# 6 0.0000 0.0000 0.0000 0.0000 0.0000 -55.1439
#
#
#
# Elastic Compliance Matrix: (Units=1/GPa)
#
#
# Indices 1 2 3 4 5 6 
#
# 1 0.078505 0.007484 -0.001445 0.000000 0.000000 0.000000
# 2 0.007484 0.033570 -0.003452 0.000000 0.000000 0.000000
# 3 -0.001445 -0.003452 0.005771 0.000000 0.000000 0.000000
# 4 0.000000 0.000000 0.000000 0.147316 0.000000 0.000000
# 5 0.000000 0.000000 0.000000 0.000000 0.095484 0.000000
# 6 0.000000 0.000000 0.000000 0.000000 0.000000 -0.018134
#
#
# Mechanical properties :
#
#
# Convention : Reuss Voigt Hill
#
# Bulk Modulus (GPa) = 8.12872 29.47202 18.80037
# Shear Modulus (GPa) = 13.21557 6.60066 9.90812
#
# Velocity S-wave (km/s) = 2.53580 1.79212 2.19568
# Velocity P-wave (km/s) = 3.53962 4.31537 3.94661
#
# Compressibility (1/GPa) = 0.12302059
#
# Stress axis : x y z
#
# Youngs Moduli (GPa) = 12.73810 29.78882 173.28568
#
# Poissons Ratio (x) = -0.22294 0.25034
# Poissons Ratio (y) = -0.09533 0.59812
# Poissons Ratio (z) = 0.01840 0.10282
#
# Static dielectric constant tensor:
#      x y z
#    x 1.705980 0.000000 0.000000 
#    y 0.000000 1.697610 0.000000 
#    z 0.000000 0.000000 1.842750 
# 
# From -- ./inp_files/12402.got.cif
#   From: 2010.05.17/outbox.cif.g08.bks.cpg/sg38_7_cif.got.tgz:12402.got - 2010.06.03 18:07:57.
