data_PCOD9356695
_publ_section_title
;
Structure prediction by ZEFSAII (Michael W. Deem and Ramdas Pophale) SiO2 
 PCOD9356695
Probable space group: A M M 2
;
_chemical_formula_sum "Si O2"
_cell_formula_units_Z 56
_cell_length_a 7.870661
_cell_length_b 25.065180
_cell_length_c 15.033921
_cell_angle_alpha 90.000000
_cell_angle_beta 90.000000
_cell_angle_gamma 90.000000
_cell_volume 2965.884939
_symmetry_space_group_name_H-M "A M M 2"
_symmetry_group_IT_number 38
_symmetry_cell_setting 'orthorhombic'
loop_
_space_group_symop_operation_xyz
x,y,z
-x,-y,z
-x,y,z
x,-y,z
x,1/2+y,1/2+z
-x,1/2-y,1/2+z
-x,1/2+y,1/2+z
x,1/2-y,1/2+z
loop_
_atom_site_type_symbol
_atom_site_label
_atom_site_fract_x
_atom_site_fract_y
_atom_site_fract_z
Si Si1 0.199018 0.286131 0.886190
Si Si2 0.805500 0.793983 0.584034
Si Si3 0.799266 0.000000 0.223150
Si Si4 0.705071 0.609632 0.424845
Si Si5 0.294949 0.000000 0.013758
Si Si6 0.704631 0.822738 0.092305
Si Si7 0.299857 0.116144 0.268439
Si Si8 0.203213 0.815541 0.772663
O O1 0.212981 0.341708 0.833791
O O2 0.270318 0.236784 0.827036
O O3 0.000000 0.272942 0.899570
O O4 0.274440 0.294143 0.985305
O O5 0.799864 0.731769 0.610421
O O6 0.727219 0.820545 0.672128
O O7 0.000000 0.813422 0.574454
O O8 0.743342 0.000000 0.119145
O O9 0.739222 0.946269 0.271992
O O10 0.000000 0.000000 0.222818
O O11 0.500000 0.607754 0.423852
O O12 0.766304 0.552949 0.462609
O O13 0.755679 0.653735 0.497704
O O14 0.765031 0.632059 0.331026
O O15 0.500000 0.000000 0.008712
O O16 0.500000 0.813648 0.092853
O O17 0.743609 0.865295 0.168414
O O18 0.500000 0.123928 0.280913
O O19 0.000000 0.807833 0.763486
#
# Coordination Sequence:
#
# PCOD9356695 Si02
#       8
#     8   8   4   8   4   8   8   8
#     4  10  20  34  53  78 107 141 181 222 268 324
#     4  10  20  34  51  75 111 147 175 218 271 319
#     4  12  24  36  56  83 110 143 180 219 266 326
#     4  10  20  34  53  76 107 143 178 218 269 322
#     4  10  20  38  56  77 110 145 180 223 274 320
#     4  10  19  30  50  78 107 140 176 216 261 319
#     4  11  22  37  55  78 111 146 179 222 268 317
#     4  10  20  33  52  78 109 143 179 222 270 320
#
# _framework density 18.881381000000001
#
# number of rings (size 3 to 8) (size 9 to 14) (size 15 to 20)
#    0.000    1.714    4.286    1.071    0.000    2.857 
#    0.000    0.000    0.000    0.857    0.000    5.000 
#    0.000    0.000    0.000    0.000    0.000    0.000 
#
# Total GULP energy -156173.166582 kJ/mol
# GULP energy per Si atom -5577.613092 kJ/mol
# Density = 1.883841 g / cm^3
# Si number density = 18.881381 Si / 1000 Ang^3
#
#
#
# Elastic Constant Matrix: (Units=GPa)
#
#
# Indices 1 2 3 4 5 6 
#
# 1 17.5377 -5.2844 7.8736 0.0000 0.0000 0.0000
# 2 -5.2844 57.4613 5.7693 0.0000 0.0000 0.0000
# 3 7.8736 5.7693 91.6504 0.0000 0.0000 0.0000
# 4 0.0000 0.0000 0.0000 31.8264 0.0000 0.0000
# 5 0.0000 0.0000 0.0000 0.0000 13.3750 0.0000
# 6 0.0000 0.0000 0.0000 0.0000 0.0000 11.7576
#
#
#
# Elastic Compliance Matrix: (Units=1/GPa)
#
#
# Indices 1 2 3 4 5 6 
#
# 1 0.061439 0.006220 -0.005670 0.000000 0.000000 0.000000
# 2 0.006220 0.018143 -0.001676 0.000000 0.000000 0.000000
# 3 -0.005670 -0.001676 0.011504 0.000000 0.000000 0.000000
# 4 0.000000 0.000000 0.000000 0.031420 0.000000 0.000000
# 5 0.000000 0.000000 0.000000 0.000000 0.074766 0.000000
# 6 0.000000 0.000000 0.000000 0.000000 0.000000 0.085052
#
#
# Mechanical properties :
#
#
# Convention : Reuss Voigt Hill
#
# Bulk Modulus (GPa) = 11.25706 20.37404 15.81555
# Shear Modulus (GPa) = 15.91399 21.94452 18.92925
#
# Velocity S-wave (km/s) = 2.90632 3.41285 3.16972
# Velocity P-wave (km/s) = 4.15177 5.13264 4.66804
#
# Compressibility (1/GPa) = 0.08883313
#
# Stress axis : x y z
#
# Youngs Moduli (GPa) = 16.27620 55.11672 86.92903
#
# Poissons Ratio (x) = -0.34280 0.49286
# Poissons Ratio (y) = -0.10123 0.14573
# Poissons Ratio (z) = 0.09228 0.09240
#
# Static dielectric constant tensor:
#      x y z
#    x 1.696080 0.000000 0.000000 
#    y 0.000000 1.609740 0.000000 
#    z 0.000000 0.000000 1.697400 
# 
# From -- ./inp_files/12467.got.cif
#   From: 2010.05.17/outbox.cif.g08.bks.cpg/sg38_7_cif.got.tgz:12467.got - 2010.06.03 18:07:57.
