data_PCOD9356283
_publ_section_title
;
Structure prediction by ZEFSAII (Michael W. Deem and Ramdas Pophale) SiO2 
 PCOD9356283
Probable space group: A M M 2
;
_chemical_formula_sum "Si O2"
_cell_formula_units_Z 56
_cell_length_a 14.798522
_cell_length_b 8.650063
_cell_length_c 26.461041
_cell_angle_alpha 90.000000
_cell_angle_beta 90.000000
_cell_angle_gamma 90.000000
_cell_volume 3387.228842
_symmetry_space_group_name_H-M "A M M 2"
_symmetry_group_IT_number 38
_symmetry_cell_setting 'orthorhombic'
loop_
_space_group_symop_operation_xyz
x,y,z
-x,-y,z
-x,y,z
x,-y,z
x,1/2+y,1/2+z
-x,1/2-y,1/2+z
-x,1/2+y,1/2+z
x,1/2-y,1/2+z
loop_
_atom_site_type_symbol
_atom_site_label
_atom_site_fract_x
_atom_site_fract_y
_atom_site_fract_z
Si Si1 0.602234 0.686321 0.345250
Si Si2 0.785385 0.685018 0.808386
Si Si3 0.789211 0.687016 0.505640
Si Si4 0.104540 0.315115 0.100637
Si Si5 0.895209 0.313552 0.710082
Si Si6 0.399556 0.811950 0.963347
Si Si7 0.104796 0.313244 0.403892
O O1 0.500000 0.730154 0.330390
O O2 0.608722 0.500000 0.342911
O O3 0.682641 0.758962 0.313544
O O4 0.614221 0.730164 0.404422
O O5 0.788420 0.500000 0.809743
O O6 0.833211 0.737564 0.756622
O O7 0.840786 0.748640 0.856297
O O8 0.790199 0.500000 0.507870
O O9 0.833415 0.751369 0.556141
O O10 0.686104 0.739122 0.495798
O O11 0.847694 0.733227 0.456400
O O12 0.106656 0.500000 0.100514
O O13 0.131620 0.254414 0.155930
O O14 0.000000 0.264707 0.092195
O O15 0.891679 0.500000 0.707079
O O16 0.000000 0.269508 0.719682
O O17 0.500000 0.759724 0.978963
O O18 0.400104 0.000000 0.964452
O O19 0.108244 0.500000 0.401572
O O20 0.000000 0.265134 0.402766
#
# Coordination Sequence:
#
# PCOD9356283 Si02
#       7
#     8   8   8   8   8   8   8
#     4   9  17  32  53  74 100 135 173 209 246 296
#     4  11  21  32  50  76 106 134 164 209 259 303
#     4  10  18  31  52  74  99 132 169 205 243 295
#     4  10  21  35  51  73  99 128 166 212 257 297
#     4   9  19  36  54  71  95 132 174 208 245 298
#     4   8  14  27  49  74  98 127 166 206 239 283
#     4  10  20  32  47  71 103 138 173 204 241 300
#
# _framework density 16.532689000000001
#
# number of rings (size 3 to 8) (size 9 to 14) (size 15 to 20)
#    0.000    2.429    1.429    2.571    0.000    4.286 
#    0.000    1.429    0.000    1.286    0.000    2.000 
#    0.000    0.000    0.000    0.000    0.000    0.000 
#
# Total GULP energy -156174.235399 kJ/mol
# GULP energy per Si atom -5577.651264 kJ/mol
# Density = 1.649506 g / cm^3
# Si number density = 16.532689 Si / 1000 Ang^3
#
#
#
# Elastic Constant Matrix: (Units=GPa)
#
#
# Indices 1 2 3 4 5 6 
#
# 1 150.8332 30.0175 100.2873 0.0000 0.0000 0.0000
# 2 30.0175 12.0779 28.6905 0.0000 0.0000 0.0000
# 3 100.2873 28.6905 143.5024 0.0000 0.0000 0.0000
# 4 0.0000 0.0000 0.0000 25.2560 0.0000 0.0000
# 5 0.0000 0.0000 0.0000 0.0000 21.7416 0.0000
# 6 0.0000 0.0000 0.0000 0.0000 0.0000 21.8219
#
#
#
# Elastic Compliance Matrix: (Units=1/GPa)
#
#
# Indices 1 2 3 4 5 6 
#
# 1 0.015365 -0.024148 -0.005910 0.000000 0.000000 0.000000
# 2 -0.024148 0.195637 -0.022238 0.000000 0.000000 0.000000
# 3 -0.005910 -0.022238 0.015545 0.000000 0.000000 0.000000
# 4 0.000000 0.000000 0.000000 0.039595 0.000000 0.000000
# 5 0.000000 0.000000 0.000000 0.000000 0.045995 0.000000
# 6 0.000000 0.000000 0.000000 0.000000 0.000000 0.045825
#
#
# Mechanical properties :
#
#
# Convention : Reuss Voigt Hill
#
# Bulk Modulus (GPa) = 8.19976 69.37824 38.78900
# Shear Modulus (GPa) = 9.93631 23.59178 16.76404
#
# Velocity S-wave (km/s) = 2.45421 3.78163 3.18778
# Velocity P-wave (km/s) = 3.60574 7.81812 6.08787
#
# Compressibility (1/GPa) = 0.12195479
#
# Stress axis : x y z
#
# Youngs Moduli (GPa) = 65.08253 5.11151 64.33044
#
# Poissons Ratio (x) = 0.12343 0.38019
# Poissons Ratio (y) = 1.57163 1.43056
# Poissons Ratio (z) = 0.38464 0.11367
#
# Static dielectric constant tensor:
#      x y z
#    x 1.567850 0.000000 0.000000 
#    y 0.000000 1.563740 0.000000 
#    z 0.000000 0.000000 1.522750 
# 
# From -- ./inp_files/21014.got.cif
#   From: 2010.05.17/outbox.cif.g08.bks.cpg/sg38_11_cif.got.tgz:21014.got - 2010.06.03 18:07:57.
