data_PCOD9356396
_publ_section_title
;
Structure prediction by ZEFSAII (Michael W. Deem and Ramdas Pophale) SiO2 
 PCOD9356396
Probable space group: A M M 2
;
_chemical_formula_sum "Si O2"
_cell_formula_units_Z 40
_cell_length_a 7.597015
_cell_length_b 12.193668
_cell_length_c 20.511833
_cell_angle_alpha 90.000000
_cell_angle_beta 90.000000
_cell_angle_gamma 90.000000
_cell_volume 1900.123469
_symmetry_space_group_name_H-M "A M M 2"
_symmetry_group_IT_number 38
_symmetry_cell_setting 'orthorhombic'
loop_
_space_group_symop_operation_xyz
x,y,z
-x,-y,z
-x,y,z
x,-y,z
x,1/2+y,1/2+z
-x,1/2-y,1/2+z
-x,1/2+y,1/2+z
x,1/2-y,1/2+z
loop_
_atom_site_type_symbol
_atom_site_label
_atom_site_fract_x
_atom_site_fract_y
_atom_site_fract_z
Si Si1 0.288202 0.783483 0.860300
Si Si2 0.712650 0.000000 0.087753
Si Si3 0.293782 0.260007 0.596040
Si Si4 0.713335 0.000000 0.934418
Si Si5 0.791859 0.375421 0.222378
Si Si6 0.715904 0.374784 0.971017
O O1 0.500000 0.783729 0.863385
O O2 0.222827 0.891521 0.898294
O O3 0.241621 0.799958 0.785219
O O4 0.229690 0.679141 0.902371
O O5 0.779174 0.881417 0.111797
O O6 0.500000 0.000000 0.098525
O O7 0.751895 0.000000 0.010568
O O8 0.500000 0.277224 0.581168
O O9 0.280585 0.179731 0.657261
O O10 0.222197 0.201090 0.531130
O O11 0.500000 0.000000 0.930010
O O12 0.723103 0.500000 0.233217
O O13 0.000000 0.383059 0.213770
O O14 0.500000 0.375577 0.972632
O O15 0.773564 0.500000 0.978550
#
# Coordination Sequence:
#
# PCOD9356396 Si02
#       6
#     8   4   8   4   8   8
#     4  10  18  32  57  82 105 136 175 219 266 319
#     4   9  16  30  55  87 113 132 167 222 273 313
#     4  10  19  34  58  84 109 139 177 220 266 318
#     4   9  14  26  53  85 107 126 163 218 273 317
#     4  11  24  39  53  74 108 146 183 224 267 313
#     4   9  17  30  53  86 114 134 167 219 271 317
#
# _framework density 21.051265999999998
#
# number of rings (size 3 to 8) (size 9 to 14) (size 15 to 20)
#    0.000    2.200    3.000    1.200    0.000    2.000 
#    1.800    1.500    0.000    2.400    0.000    0.000 
#    0.000    0.000    0.000    0.000    0.000    0.000 
#
# Total GULP energy -111613.530427 kJ/mol
# GULP energy per Si atom -5580.676521 kJ/mol
# Density = 2.100335 g / cm^3
# Si number density = 21.051266 Si / 1000 Ang^3
#
#
#
# Elastic Constant Matrix: (Units=GPa)
#
#
# Indices 1 2 3 4 5 6 
#
# 1 40.5054 12.5421 -14.2886 0.0000 0.0000 0.0000
# 2 12.5421 155.5050 57.7769 0.0000 0.0000 0.0000
# 3 -14.2886 57.7769 87.1775 0.0000 0.0000 0.0000
# 4 0.0000 0.0000 0.0000 35.5112 0.0000 0.0000
# 5 0.0000 0.0000 0.0000 0.0000-1665.7206 0.0000
# 6 0.0000 0.0000 0.0000 0.0000 0.0000 0.7961
#
#
#
# Elastic Compliance Matrix: (Units=1/GPa)
#
#
# Indices 1 2 3 4 5 6 
#
# 1 0.029386 -0.005518 0.008474 0.000000 0.000000 0.000000
# 2 -0.005518 0.009568 -0.007246 0.000000 0.000000 0.000000
# 3 0.008474 -0.007246 0.017662 0.000000 0.000000 0.000000
# 4 0.000000 0.000000 0.000000 0.028160 0.000000 0.000000
# 5 0.000000 0.000000 0.000000 0.000000 -0.000600 0.000000
# 6 0.000000 0.000000 0.000000 0.000000 0.000000 1.256110
#
#
# Mechanical properties :
#
#
# Convention : Reuss Voigt Hill
#
# Bulk Modulus (GPa) = 20.81813 43.91652 32.36732
# Shear Modulus (GPa) = 3.66333 -310.73882 -153.53775
#
# Velocity S-wave (km/s) = 1.32060 -12.16269 -8.54947
# Velocity P-wave (km/s) = 3.49800 13.27909 9.05810
#
# Compressibility (1/GPa) = 0.04803506
#
# Stress axis : x y z
#
# Youngs Moduli (GPa) = 34.02981 104.51738 56.61967
#
# Poissons Ratio (x) = 0.57678 -0.47978
# Poissons Ratio (y) = 0.18779 0.41024
# Poissons Ratio (z) = -0.28836 0.75729
#
# Static dielectric constant tensor:
#      x y z
#    x 2.049670 0.000000 0.000000 
#    y 0.000000 1.785810 0.000000 
#    z 0.000000 0.000000 1.706570 
# 
# From -- ./inp_files/19512.got.cif
#   From: 2010.05.17/outbox.cif.g08.bks.cpg/sg38_10_cif.got.tgz:19512.got - 2010.06.03 18:07:57.
