data_PCOD9356359
_publ_section_title
;
Structure prediction by ZEFSAII (Michael W. Deem and Ramdas Pophale) SiO2 
 PCOD9356359
Probable space group: A M M 2
;
_chemical_formula_sum "Si O2"
_cell_formula_units_Z 40
_cell_length_a 8.394743
_cell_length_b 10.023705
_cell_length_c 26.613416
_cell_angle_alpha 90.000000
_cell_angle_beta 90.000000
_cell_angle_gamma 90.000000
_cell_volume 2239.423877
_symmetry_space_group_name_H-M "A M M 2"
_symmetry_group_IT_number 38
_symmetry_cell_setting 'orthorhombic'
loop_
_space_group_symop_operation_xyz
x,y,z
-x,-y,z
-x,y,z
x,-y,z
x,1/2+y,1/2+z
-x,1/2-y,1/2+z
-x,1/2+y,1/2+z
x,1/2-y,1/2+z
loop_
_atom_site_type_symbol
_atom_site_label
_atom_site_fract_x
_atom_site_fract_y
_atom_site_fract_z
Si Si1 0.809269 0.714056 0.818360
Si Si2 0.691029 0.000000 0.396782
Si Si3 0.694747 0.000000 0.512938
Si Si4 0.194157 0.500000 0.737089
Si Si5 0.690713 0.000000 0.845914
Si Si6 0.693632 0.000000 0.960887
Si Si7 0.809406 0.000000 0.122571
Si Si8 0.692578 0.288769 0.543610
O O1 0.749682 0.629545 0.866394
O O2 0.756546 0.629097 0.769575
O O3 0.747966 0.864195 0.820265
O O4 0.000000 0.714194 0.819235
O O5 0.500000 0.000000 0.396386
O O6 0.744264 0.000000 0.454539
O O7 0.746869 0.863400 0.539210
O O8 0.500000 0.000000 0.513018
O O9 0.250186 0.500000 0.679854
O O10 0.000000 0.500000 0.736226
O O11 0.500000 0.000000 0.847022
O O12 0.750819 0.000000 0.903868
O O13 0.500000 0.000000 0.959133
O O14 0.741703 0.128538 0.993707
O O15 0.752413 0.871511 0.091227
O O16 0.000000 0.000000 0.123318
O O17 0.500000 0.290810 0.544695
#
# Coordination Sequence:
#
# PCOD9356359 Si02
#       8
#     8   4   4   4   4   4   4   8
#     4  10  20  35  52  74 102 135 169 206 252 304
#     4  10  18  32  53  76 101 137 177 209 237 286
#     4   9  17  30  51  74 103 138 165 190 241 305
#     4   8  18  37  57  69  89 128 169 202 250 312
#     4  11  20  32  51  78 107 136 167 204 243 291
#     4   8  15  28  47  68  99 137 167 189 227 288
#     4  10  19  35  55  73  91 122 167 212 250 294
#     4   9  17  32  51  73  98 130 166 199 237 292
#
# _framework density 17.861737000000002
#
# number of rings (size 3 to 8) (size 9 to 14) (size 15 to 20)
#    0.000    2.600    0.000    3.900    0.000    3.200 
#    0.000   17.500    0.000    3.600    0.000    0.000 
#    0.000    0.000    0.000    0.000    0.000    0.000 
#
# Total GULP energy -111567.543993 kJ/mol
# GULP energy per Si atom -5578.377200 kJ/mol
# Density = 1.782108 g / cm^3
# Si number density = 17.861737 Si / 1000 Ang^3
#
#
#
# Elastic Constant Matrix: (Units=GPa)
#
#
# Indices 1 2 3 4 5 6 
#
# 1 30.9845 28.7845 20.7346 0.0000 0.0000 0.0000
# 2 28.7845 200.9852 93.1681 0.0000 0.0000 0.0000
# 3 20.7346 93.1681 148.8576 0.0000 0.0000 0.0000
# 4 0.0000 0.0000 0.0000 5.4598 0.0000 0.0000
# 5 0.0000 0.0000 0.0000 0.0000 22.7444 0.0000
# 6 0.0000 0.0000 0.0000 0.0000 0.0000 25.1246
#
#
#
# Elastic Compliance Matrix: (Units=1/GPa)
#
#
# Indices 1 2 3 4 5 6 
#
# 1 0.037958 -0.004205 -0.002655 0.000000 0.000000 0.000000
# 2 -0.004205 0.007475 -0.004093 0.000000 0.000000 0.000000
# 3 -0.002655 -0.004093 0.009649 0.000000 0.000000 0.000000
# 4 0.000000 0.000000 0.000000 0.183158 0.000000 0.000000
# 5 0.000000 0.000000 0.000000 0.000000 0.043967 0.000000
# 6 0.000000 0.000000 0.000000 0.000000 0.000000 0.039802
#
#
# Mechanical properties :
#
#
# Convention : Reuss Voigt Hill
#
# Bulk Modulus (GPa) = 30.14261 74.02241 52.08251
# Shear Modulus (GPa) = 14.08556 26.54175 20.31365
#
# Velocity S-wave (km/s) = 2.81123 3.85899 3.37600
# Velocity P-wave (km/s) = 5.23923 7.83502 6.66472
#
# Compressibility (1/GPa) = 0.03317562
#
# Stress axis : x y z
#
# Youngs Moduli (GPa) = 26.34502 133.77940 103.63507
#
# Poissons Ratio (x) = 0.56260 0.27516
# Poissons Ratio (y) = 0.11079 0.42415
# Poissons Ratio (z) = 0.06995 0.54752
#
# Static dielectric constant tensor:
#      x y z
#    x 1.617700 0.000000 0.000000 
#    y 0.000000 1.604320 0.000000 
#    z 0.000000 0.000000 1.595730 
# 
# From -- ./inp_files/23318.got.cif
#   From: 2010.05.17/outbox.cif.g08.bks.cpg/sg38_12_cif.got.tgz:23318.got - 2010.06.03 18:07:57.
