data_PCOD9356373
_publ_section_title
;
Structure prediction by ZEFSAII (Michael W. Deem and Ramdas Pophale) SiO2 
 PCOD9356373
Probable space group: A M M 2
;
_chemical_formula_sum "Si O2"
_cell_formula_units_Z 64
_cell_length_a 8.035595
_cell_length_b 26.052700
_cell_length_c 15.410426
_cell_angle_alpha 90.000000
_cell_angle_beta 90.000000
_cell_angle_gamma 90.000000
_cell_volume 3226.156438
_symmetry_space_group_name_H-M "A M M 2"
_symmetry_group_IT_number 38
_symmetry_cell_setting 'orthorhombic'
loop_
_space_group_symop_operation_xyz
x,y,z
-x,-y,z
-x,y,z
x,-y,z
x,1/2+y,1/2+z
-x,1/2-y,1/2+z
-x,1/2+y,1/2+z
x,1/2-y,1/2+z
loop_
_atom_site_type_symbol
_atom_site_label
_atom_site_fract_x
_atom_site_fract_y
_atom_site_fract_z
Si Si1 0.306405 0.762501 0.373540
Si Si2 0.202831 0.105820 0.133376
Si Si3 0.200626 0.057431 0.954019
Si Si4 0.796349 0.940922 0.317812
Si Si5 0.695699 0.325450 0.141445
Si Si6 0.806304 0.363647 0.965725
Si Si7 0.299381 0.651122 0.335011
Si Si8 0.804620 0.282224 0.680179
O O1 0.500000 0.764163 0.399592
O O2 0.214162 0.807145 0.424480
O O3 0.241492 0.704093 0.380976
O O4 0.290350 0.775130 0.271074
O O5 0.256998 0.081007 0.224370
O O6 0.250136 0.165771 0.133273
O O7 0.000000 0.103556 0.132316
O O8 0.261985 0.075981 0.048544
O O9 0.246262 0.100394 0.884358
O O10 0.000000 0.055583 0.958147
O O11 0.261082 0.000000 0.934053
O O12 0.738089 0.904263 0.395753
O O13 0.000000 0.939165 0.317724
O O14 0.746734 0.000000 0.328342
O O15 0.500000 0.315817 0.149488
O O16 0.756528 0.346559 0.234464
O O17 0.779188 0.269948 0.127218
O O18 0.725818 0.361996 0.060255
O O19 0.000000 0.374846 0.977596
O O20 0.500000 0.653382 0.335023
O O21 0.000000 0.287873 0.701659
#
# Coordination Sequence:
#
# PCOD9356373 Si02
#       8
#     8   8   8   8   8   8   8   8
#     4  10  20  35  54  80 115 153 186 225 281 340
#     4   9  17  31  52  83 116 146 179 221 275 333
#     4  10  21  36  57  85 113 144 187 238 286 330
#     4   9  17  32  55  82 114 149 185 228 278 333
#     4  10  22  39  56  78 113 153 188 233 293 350
#     4  11  21  34  56  87 115 147 192 237 281 334
#     4   9  21  40  58  77 106 148 193 232 283 341
#     4  10  18  32  54  84 115 146 188 231 272 331
#
# _framework density 19.837848000000001
#
# number of rings (size 3 to 8) (size 9 to 14) (size 15 to 20)
#    0.000    2.250    1.250    2.625    1.750    4.750 
#    0.000    1.250    0.000    3.750    0.000    0.000 
#    0.000    0.000    0.000    0.000    0.000    0.000 
#
# Total GULP energy -178643.403221 kJ/mol
# GULP energy per Si atom -5582.606351 kJ/mol
# Density = 1.979270 g / cm^3
# Si number density = 19.837848 Si / 1000 Ang^3
#
#
#
# Elastic Constant Matrix: (Units=GPa)
#
#
# Indices 1 2 3 4 5 6 
#
# 1 19.0461 8.2033 1.4888 0.0000 0.0000 0.0000
# 2 8.2033 168.6963 82.2604 0.0000 0.0000 0.0000
# 3 1.4888 82.2604 105.8815 0.0000 0.0000 0.0000
# 4 0.0000 0.0000 0.0000 26.2454 0.0000 0.0000
# 5 0.0000 0.0000 0.0000 0.0000 -21.8961 0.0000
# 6 0.0000 0.0000 0.0000 0.0000 0.0000 143.7692
#
#
#
# Elastic Compliance Matrix: (Units=1/GPa)
#
#
# Indices 1 2 3 4 5 6 
#
# 1 0.053905 -0.003625 0.002058 0.000000 0.000000 0.000000
# 2 -0.003625 0.009787 -0.007553 0.000000 0.000000 0.000000
# 3 0.002058 -0.007553 0.015283 0.000000 0.000000 0.000000
# 4 0.000000 0.000000 0.000000 0.038102 0.000000 0.000000
# 5 0.000000 0.000000 0.000000 0.000000 -0.045670 0.000000
# 6 0.000000 0.000000 0.000000 0.000000 0.000000 0.006956
#
#
# Mechanical properties :
#
#
# Convention : Reuss Voigt Hill
#
# Bulk Modulus (GPa) = 16.46458 53.05875 34.76166
# Shear Modulus (GPa) = 42.79135 43.06844 42.92990
#
# Velocity S-wave (km/s) = 4.64945 4.66448 4.65697
# Velocity P-wave (km/s) = 6.09432 7.47088 6.81744
#
# Compressibility (1/GPa) = 0.06073643
#
# Stress axis : x y z
#
# Youngs Moduli (GPa) = 18.55127 102.17738 65.43111
#
# Poissons Ratio (x) = 0.37039 -0.13468
# Poissons Ratio (y) = 0.06725 0.49417
# Poissons Ratio (z) = -0.03818 0.77170
#
# Static dielectric constant tensor:
#      x y z
#    x 1.707990 0.000000 0.000000 
#    y 0.000000 1.691320 0.000000 
#    z 0.000000 0.000000 1.697640 
# 
# From -- ./inp_files/12811.got.cif
#   From: 2010.05.17/outbox.cif.g08.bks.cpg/sg38_7_cif.got.tgz:12811.got - 2010.06.03 18:07:57.
