data_PCOD9356499
_publ_section_title
;
Structure prediction by ZEFSAII (Michael W. Deem and Ramdas Pophale) SiO2 
 PCOD9356499
Probable space group: A M M 2
;
_chemical_formula_sum "Si O2"
_cell_formula_units_Z 38
_cell_length_a 12.398223
_cell_length_b 17.453973
_cell_length_c 9.135170
_cell_angle_alpha 90.000000
_cell_angle_beta 90.000000
_cell_angle_gamma 90.000000
_cell_volume 1976.834797
_symmetry_space_group_name_H-M "A M M 2"
_symmetry_group_IT_number 38
_symmetry_cell_setting 'orthorhombic'
loop_
_space_group_symop_operation_xyz
x,y,z
-x,-y,z
-x,y,z
x,-y,z
x,1/2+y,1/2+z
-x,1/2-y,1/2+z
-x,1/2+y,1/2+z
x,1/2-y,1/2+z
loop_
_atom_site_type_symbol
_atom_site_label
_atom_site_fract_x
_atom_site_fract_y
_atom_site_fract_z
Si Si1 0.000000 0.500000 0.325990
Si Si2 0.616086 0.139119 0.647061
Si Si3 0.631527 0.000000 0.049615
Si Si4 0.229670 0.356772 0.643684
Si Si5 0.311673 0.252015 0.896075
Si Si6 0.247984 0.500000 0.232014
Si Si7 0.000000 0.907805 0.053766
O O1 0.120092 0.500000 0.255784
O O2 0.000000 0.403255 0.378751
O O3 0.500000 0.099611 0.651550
O O4 0.625706 0.194457 0.788257
O O5 0.622894 0.193420 0.505647
O O6 0.709843 0.076337 0.651923
O O7 0.681881 0.924612 0.127877
O O8 0.500000 0.000000 0.044334
O O9 0.688361 0.000000 0.889065
O O10 0.247302 0.307653 0.788333
O O11 0.243830 0.301617 0.503953
O O12 0.108558 0.387101 0.633346
O O13 0.000000 0.000000 0.030604
#
# Coordination Sequence:
#
# PCOD9356499 Si02
#       7
#     2   8   4   8   8   4   4
#     4  10  18  38  64  92 118 158 206 262 300 358
#     4  11  22  40  63  92 128 165 205 255 313 375
#     4  12  22  37  64  92 121 162 216 252 298 380
#     4  11  22  42  63  96 122 168 210 258 316 373
#     4  10  24  39  60  93 134 161 204 255 319 375
#     4  12  22  39  64  92 119 163 212 255 306 367
#     4  10  18  38  69  88 120 160 212 262 301 363
#
# _framework density 19.222649000000001
#
# number of rings (size 3 to 8) (size 9 to 14) (size 15 to 20)
#    0.316    0.842    5.263    1.579    0.000    5.895 
#    0.000    5.263    0.000    0.000    0.000    0.000 
#    0.000    0.000    0.000    0.000    0.000    0.000 
#
# Total GULP energy -105804.530437 kJ/mol
# GULP energy per Si atom -5568.659497 kJ/mol
# Density = 1.917890 g / cm^3
# Si number density = 19.222649 Si / 1000 Ang^3
#
#
#
# Elastic Constant Matrix: (Units=GPa)
#
#
# Indices 1 2 3 4 5 6 
#
# 1 174.1566 49.2928 29.2591 0.0000 0.0000 0.0000
# 2 49.2928 101.2674 35.8198 0.0000 0.0000 0.0000
# 3 29.2591 35.8198 91.1389 0.0000 0.0000 0.0000
# 4 0.0000 0.0000 0.0000 24.4691 0.0000 0.0000
# 5 0.0000 0.0000 0.0000 0.0000 -28.0262 0.0000
# 6 0.0000 0.0000 0.0000 0.0000 0.0000 1568.7248
#
#
#
# Elastic Compliance Matrix: (Units=1/GPa)
#
#
# Indices 1 2 3 4 5 6 
#
# 1 0.006739 -0.002921 -0.001015 0.000000 0.000000 0.000000
# 2 -0.002921 0.012736 -0.004068 0.000000 0.000000 0.000000
# 3 -0.001015 -0.004068 0.012897 0.000000 0.000000 0.000000
# 4 0.000000 0.000000 0.000000 0.040868 0.000000 0.000000
# 5 0.000000 0.000000 0.000000 0.000000 -0.035681 0.000000
# 6 0.000000 0.000000 0.000000 0.000000 0.000000 0.000637
#
#
# Mechanical properties :
#
#
# Convention : Reuss Voigt Hill
#
# Bulk Modulus (GPa) = 61.11245 66.14517 63.62881
# Shear Modulus (GPa) = 83.80930 329.84630 206.82780
#
# Velocity S-wave (km/s) = 6.61014 13.11354 10.38410
# Velocity P-wave (km/s) = 9.49313 16.24104 13.30208
#
# Compressibility (1/GPa) = 0.01636328
#
# Stress axis : x y z
#
# Youngs Moduli (GPa) = 148.38133 78.52036 77.53795
#
# Poissons Ratio (x) = 0.22938 0.07874
# Poissons Ratio (y) = 0.43346 0.31539
# Poissons Ratio (z) = 0.15068 0.31938
#
# Static dielectric constant tensor:
#      x y z
#    x 1.649270 0.000000 0.000000 
#    y 0.000000 1.703060 0.000000 
#    z 0.000000 0.000000 1.672810 
# 
# From -- ./inp_files/4326.got.cif
#   From: 2010.05.17/outbox.cif.g08.bks.cpg/sg38_3_cif.got.tgz:4326.got - 2010.06.03 18:07:57.
