data_PCOD9356051
_publ_section_title
;
Structure prediction by ZEFSAII (Michael W. Deem and Ramdas Pophale) SiO2 
 PCOD9356051
Probable space group: A M M 2
;
_chemical_formula_sum "Si O2"
_cell_formula_units_Z 64
_cell_length_a 20.387508
_cell_length_b 8.158718
_cell_length_c 20.875924
_cell_angle_alpha 90.000000
_cell_angle_beta 90.000000
_cell_angle_gamma 90.000000
_cell_volume 3472.416202
_symmetry_space_group_name_H-M "A M M 2"
_symmetry_group_IT_number 38
_symmetry_cell_setting 'orthorhombic'
loop_
_space_group_symop_operation_xyz
x,y,z
-x,-y,z
-x,y,z
x,-y,z
x,1/2+y,1/2+z
-x,1/2-y,1/2+z
-x,1/2+y,1/2+z
x,1/2-y,1/2+z
loop_
_atom_site_type_symbol
_atom_site_label
_atom_site_fract_x
_atom_site_fract_y
_atom_site_fract_z
Si Si1 0.847195 0.191366 0.909450
Si Si2 0.924248 0.193189 0.531638
Si Si3 0.074547 0.696024 0.786354
Si Si4 0.713391 0.800372 0.968949
Si Si5 0.429702 0.196339 0.964578
Si Si6 0.147517 0.194726 0.158933
Si Si7 0.570699 0.301453 0.113154
Si Si8 0.714436 0.303914 0.118000
O O1 0.884418 0.269603 0.850022
O O2 0.774946 0.257451 0.927236
O O3 0.840203 0.000000 0.895002
O O4 0.890113 0.214009 0.973353
O O5 0.885444 0.224706 0.596926
O O6 0.000000 0.242856 0.539100
O O7 0.922122 0.000000 0.516543
O O8 0.070048 0.500000 0.779904
O O9 0.112746 0.756860 0.723427
O O10 0.000000 0.761106 0.790475
O O11 0.642098 0.745023 0.942879
O O12 0.714410 0.000000 0.970531
O O13 0.720809 0.742881 0.042650
O O14 0.500000 0.260440 0.939044
O O15 0.430243 0.000000 0.956242
O O16 0.429716 0.235745 0.040403
O O17 0.224960 0.228851 0.156014
O O18 0.137169 0.000000 0.153740
O O19 0.500000 0.252318 0.142365
O O20 0.571647 0.500000 0.110572
O O21 0.641417 0.250066 0.140355
O O22 0.718552 0.500000 0.122760
#
# Coordination Sequence:
#
# PCOD9356051 Si02
#       8
#     8   8   8   8   8   8   8   8
#     4  11  22  35  54  79 106 137 170 209 256 308
#     4  11  23  37  55  79 105 132 166 209 256 310
#     4  10  23  42  59  74  97 131 171 216 264 314
#     4   9  17  29  45  70 103 135 167 206 250 297
#     4   8  13  22  38  61  92 130 167 201 240 287
#     4  11  22  37  56  77 102 134 171 214 264 315
#     4   8  14  24  38  61  96 134 168 202 244 295
#     4  10  18  28  47  74 103 136 171 210 255 302
#
# _framework density 18.430971
#
# number of rings (size 3 to 8) (size 9 to 14) (size 15 to 20)
#    0.000    2.250    1.250    2.250    0.000    5.250 
#    0.000    0.000    0.000    0.000    0.000    0.875 
#    0.000    5.000    0.000    0.000    0.000    0.250 
#
# Total GULP energy -178342.810560 kJ/mol
# GULP energy per Si atom -5573.212830 kJ/mol
# Density = 1.838902 g / cm^3
# Si number density = 18.430971 Si / 1000 Ang^3
#
#
#
# Elastic Constant Matrix: (Units=GPa)
#
#
# Indices 1 2 3 4 5 6 
#
# 1 174.6969 3.8753 39.0826 0.0000 0.0000 0.0000
# 2 3.8753 13.1478 -4.3312 0.0000 0.0000 0.0000
# 3 39.0826 -4.3312 67.1469 0.0000 0.0000 0.0000
# 4 0.0000 0.0000 0.0000 19.3943 0.0000 0.0000
# 5 0.0000 0.0000 0.0000 0.0000 18.0060 0.0000
# 6 0.0000 0.0000 0.0000 0.0000 0.0000 19.8707
#
#
#
# Elastic Compliance Matrix: (Units=1/GPa)
#
#
# Indices 1 2 3 4 5 6 
#
# 1 0.006722 -0.003341 -0.004128 0.000000 0.000000 0.000000
# 2 -0.003341 0.079370 0.007064 0.000000 0.000000 0.000000
# 3 -0.004128 0.007064 0.017751 0.000000 0.000000 0.000000
# 4 0.000000 0.000000 0.000000 0.051562 0.000000 0.000000
# 5 0.000000 0.000000 0.000000 0.000000 0.055537 0.000000
# 6 0.000000 0.000000 0.000000 0.000000 0.000000 0.050325
#
#
# Mechanical properties :
#
#
# Convention : Reuss Voigt Hill
#
# Bulk Modulus (GPa) = 9.70554 36.91611 23.31083
# Shear Modulus (GPa) = 16.86789 25.87852 21.37321
#
# Velocity S-wave (km/s) = 3.02850 3.75117 3.40904
# Velocity P-wave (km/s) = 4.18406 6.23174 5.30759
#
# Compressibility (1/GPa) = 0.10303393
#
# Stress axis : x y z
#
# Youngs Moduli (GPa) = 148.76977 12.59915 56.33475
#
# Poissons Ratio (x) = 0.04209 0.23254
# Poissons Ratio (y) = 0.49705 -0.39797
# Poissons Ratio (z) = 0.61411 -0.08900
#
# Static dielectric constant tensor:
#      x y z
#    x 1.717900 0.000000 0.000000 
#    y 0.000000 1.644990 0.000000 
#    z 0.000000 0.000000 1.586220 
# 
# From -- ./inp_files/18919.got.cif
#   From: 2010.05.17/outbox.cif.g08.bks.cpg/sg38_10_cif.got.tgz:18919.got - 2010.06.03 18:07:57.
