data_PCOD9356333
_publ_section_title
;
Structure prediction by ZEFSAII (Michael W. Deem and Ramdas Pophale) SiO2 
 PCOD9356333
Probable space group: A M M 2
;
_chemical_formula_sum "Si O2"
_cell_formula_units_Z 48
_cell_length_a 7.558819
_cell_length_b 21.209471
_cell_length_c 14.745465
_cell_angle_alpha 90.000000
_cell_angle_beta 90.000000
_cell_angle_gamma 90.000000
_cell_volume 2363.971603
_symmetry_space_group_name_H-M "A M M 2"
_symmetry_group_IT_number 38
_symmetry_cell_setting 'orthorhombic'
loop_
_space_group_symop_operation_xyz
x,y,z
-x,-y,z
-x,y,z
x,-y,z
x,1/2+y,1/2+z
-x,1/2-y,1/2+z
-x,1/2+y,1/2+z
x,1/2-y,1/2+z
loop_
_atom_site_type_symbol
_atom_site_label
_atom_site_fract_x
_atom_site_fract_y
_atom_site_fract_z
Si Si1 0.216571 0.429030 0.239070
Si Si2 0.785490 0.234536 0.422810
Si Si3 0.785819 0.119837 0.935286
Si Si4 0.708009 0.569467 0.631847
Si Si5 0.708279 0.697596 0.718536
Si Si6 0.794862 0.179121 0.606948
O O1 0.268919 0.500000 0.215930
O O2 0.271916 0.411494 0.341140
O O3 0.281634 0.376690 0.168261
O O4 0.000000 0.426582 0.239880
O O5 0.728065 0.307145 0.434981
O O6 0.732364 0.208433 0.325223
O O7 0.718758 0.194134 0.508092
O O8 0.000000 0.235445 0.425381
O O9 0.000000 0.118960 0.937173
O O10 0.724071 0.084570 0.025156
O O11 0.500000 0.566771 0.654662
O O12 0.783945 0.500000 0.650936
O O13 0.781443 0.630399 0.684581
O O14 0.500000 0.699381 0.697023
O O15 0.789693 0.756325 0.664549
O O16 0.000000 0.162337 0.592109
#
# Coordination Sequence:
#
# PCOD9356333 Si02
#       6
#     8   8   8   8   8   8
#     4   9  17  30  50  77 106 135 168 207 259 318
#     4  10  20  34  55  81 108 137 174 220 269 316
#     4  10  18  31  55  82 108 137 172 218 268 323
#     4  10  22  38  53  75 110 147 180 220 272 321
#     4  11  22  35  55  79 106 141 181 222 263 317
#     4  10  19  35  56  77 105 140 175 217 266 315
#
# _framework density 20.304811000000001
#
# number of rings (size 3 to 8) (size 9 to 14) (size 15 to 20)
#    0.000    2.000    3.333    1.000    0.000    3.000 
#    0.000    0.833    0.000    1.500    0.000    0.000 
#    0.000    0.000    0.000    0.000    0.000    0.000 
#
# Total GULP energy -134042.118352 kJ/mol
# GULP energy per Si atom -5585.088265 kJ/mol
# Density = 2.025860 g / cm^3
# Si number density = 20.304811 Si / 1000 Ang^3
#
#
#
# Elastic Constant Matrix: (Units=GPa)
#
#
# Indices 1 2 3 4 5 6 
#
# 1 46.4934 -6.9784 -17.6786 0.0000 0.0000 0.0000
# 2 -6.9784 143.9061 36.2259 0.0000 0.0000 0.0000
# 3 -17.6786 36.2259 94.2173 0.0000 0.0000 0.0000
# 4 0.0000 0.0000 0.0000 22.0560 0.0000 0.0000
# 5 0.0000 0.0000 0.0000 0.0000 24.1510 0.0000
# 6 0.0000 0.0000 0.0000 0.0000 0.0000 27.0123
#
#
#
# Elastic Compliance Matrix: (Units=1/GPa)
#
#
# Indices 1 2 3 4 5 6 
#
# 1 0.023161 0.000032 0.004333 0.000000 0.000000 0.000000
# 2 0.000032 0.007694 -0.002952 0.000000 0.000000 0.000000
# 3 0.004333 -0.002952 0.012562 0.000000 0.000000 0.000000
# 4 0.000000 0.000000 0.000000 0.045339 0.000000 0.000000
# 5 0.000000 0.000000 0.000000 0.000000 0.041406 0.000000
# 6 0.000000 0.000000 0.000000 0.000000 0.000000 0.037020
#
#
# Mechanical properties :
#
#
# Convention : Reuss Voigt Hill
#
# Bulk Modulus (GPa) = 21.62450 34.19496 27.90973
# Shear Modulus (GPa) = 27.81340 32.84707 30.33024
#
# Velocity S-wave (km/s) = 3.70509 4.02643 3.86909
# Velocity P-wave (km/s) = 5.38299 6.20431 5.80819
#
# Compressibility (1/GPa) = 0.04624385
#
# Stress axis : x y z
#
# Youngs Moduli (GPa) = 43.17600 129.97669 79.60554
#
# Poissons Ratio (x) = -0.00419 -0.34497
# Poissons Ratio (y) = -0.00139 0.23500
# Poissons Ratio (z) = -0.18710 0.38371
#
# Static dielectric constant tensor:
#      x y z
#    x 1.785150 0.000000 0.000000 
#    y 0.000000 1.720120 0.000000 
#    z 0.000000 0.000000 1.683310 
# 
# From -- ./inp_files/12036.got.cif
#   From: 2010.05.17/outbox.cif.g08.bks.cpg/sg38_7_cif.got.tgz:12036.got - 2010.06.03 18:07:57.
