data_PCOD9356945
_publ_section_title
;
Structure prediction by ZEFSAII (Michael W. Deem and Ramdas Pophale) SiO2 
 PCOD9356945
Probable space group: A M M 2
;
_chemical_formula_sum "Si O2"
_cell_formula_units_Z 48
_cell_length_a 19.495083
_cell_length_b 7.717754
_cell_length_c 15.803383
_cell_angle_alpha 90.000000
_cell_angle_beta 90.000000
_cell_angle_gamma 90.000000
_cell_volume 2377.749426
_symmetry_space_group_name_H-M "A M M 2"
_symmetry_group_IT_number 38
_symmetry_cell_setting 'orthorhombic'
loop_
_space_group_symop_operation_xyz
x,y,z
-x,-y,z
-x,y,z
x,-y,z
x,1/2+y,1/2+z
-x,1/2-y,1/2+z
-x,1/2+y,1/2+z
x,1/2-y,1/2+z
loop_
_atom_site_type_symbol
_atom_site_label
_atom_site_fract_x
_atom_site_fract_y
_atom_site_fract_z
Si Si1 0.324823 0.208966 0.137290
Si Si2 0.177932 0.705372 0.940721
Si Si3 0.169256 0.290879 0.633829
Si Si4 0.577760 0.291627 0.292737
Si Si5 0.921364 0.787640 0.290862
Si Si6 0.335022 0.203763 0.949366
O O1 0.246848 0.268690 0.155192
O O2 0.377863 0.254983 0.209678
O O3 0.321708 0.000000 0.132663
O O4 0.344869 0.275982 0.043952
O O5 0.184910 0.500000 0.929479
O O6 0.124217 0.769044 0.870899
O O7 0.254197 0.780496 0.929386
O O8 0.154870 0.739789 0.037054
O O9 0.169453 0.500000 0.636203
O O10 0.115687 0.231118 0.704270
O O11 0.500000 0.225692 0.287292
O O12 0.574404 0.500000 0.300275
O O13 0.618465 0.222129 0.374709
O O14 0.000000 0.730796 0.295926
O O15 0.921701 0.000000 0.291250
O O16 0.351236 0.000000 0.954410
#
# Coordination Sequence:
#
# PCOD9356945 Si02
#       6
#     8   8   8   8   8   8
#     4   9  18  33  53  75  97 127 168 207 243 290
#     4  10  19  32  53  78 101 127 165 212 252 287
#     4   9  18  34  54  74  98 131 170 206 243 294
#     4  10  21  35  51  74 103 132 162 201 249 295
#     4   9  18  32  50  73 103 138 169 199 244 300
#     4   9  19  36  55  73  98 133 168 201 243 298
#
# _framework density 20.187155000000001
#
# number of rings (size 3 to 8) (size 9 to 14) (size 15 to 20)
#    0.000    2.667    0.000    2.500    0.000    6.333 
#    0.000    3.333    0.000    3.500    0.000    0.000 
#    0.000    0.000    0.000    0.000    0.000    0.000 
#
# Total GULP energy -133940.671636 kJ/mol
# GULP energy per Si atom -5580.861318 kJ/mol
# Density = 2.014121 g / cm^3
# Si number density = 20.187155 Si / 1000 Ang^3
#
#
#
# Elastic Constant Matrix: (Units=GPa)
#
#
# Indices 1 2 3 4 5 6 
#
# 1 75.3656 -13.0339 73.6961 0.0000 0.0000 0.0000
# 2 -13.0339 25.8617 -9.1628 0.0000 0.0000 0.0000
# 3 73.6961 -9.1628 118.4691 0.0000 0.0000 0.0000
# 4 0.0000 0.0000 0.0000 -37.6615 0.0000 0.0000
# 5 0.0000 0.0000 0.0000 0.0000 -21.2501 0.0000
# 6 0.0000 0.0000 0.0000 0.0000 0.0000 17.2172
#
#
#
# Elastic Compliance Matrix: (Units=1/GPa)
#
#
# Indices 1 2 3 4 5 6 
#
# 1 0.036519 0.010648 -0.021894 0.000000 0.000000 0.000000
# 2 0.010648 0.042861 -0.003309 0.000000 0.000000 0.000000
# 3 -0.021894 -0.003309 0.021805 0.000000 0.000000 0.000000
# 4 0.000000 0.000000 0.000000 -0.026552 0.000000 0.000000
# 5 0.000000 0.000000 0.000000 0.000000 -0.047059 0.000000
# 6 0.000000 0.000000 0.000000 0.000000 0.000000 0.058081
#
#
# Mechanical properties :
#
#
# Convention : Reuss Voigt Hill
#
# Bulk Modulus (GPa) = 13.87425 35.85499 24.86462
# Shear Modulus (GPa) = 36.02570 2.87426 19.44998
#
# Velocity S-wave (km/s) = 4.22902 1.19453 3.10737
# Velocity P-wave (km/s) = 5.54381 4.43874 5.02176
#
# Compressibility (1/GPa) = 0.07207595
#
# Stress axis : x y z
#
# Youngs Moduli (GPa) = 27.38300 23.33101 45.86188
#
# Poissons Ratio (x) = -0.24843 1.00409
# Poissons Ratio (y) = -0.29158 0.15175
# Poissons Ratio (z) = 0.59952 0.07720
#
# Static dielectric constant tensor:
#      x y z
#    x 1.685500 0.000000 0.000000 
#    y 0.000000 1.744910 0.000000 
#    z 0.000000 0.000000 1.707200 
# 
# From -- ./inp_files/14962.got.cif
#   From: 2010.05.17/outbox.cif.g08.bks.cpg/sg38_8_cif.got.tgz:14962.got - 2010.06.03 18:07:57.
