data_PCOD9356504
_publ_section_title
;
Structure prediction by ZEFSAII (Michael W. Deem and Ramdas Pophale) SiO2 
 PCOD9356504
Probable space group: A M M 2
;
_chemical_formula_sum "Si O2"
_cell_formula_units_Z 64
_cell_length_a 9.074998
_cell_length_b 18.677828
_cell_length_c 27.169519
_cell_angle_alpha 90.000000
_cell_angle_beta 90.000000
_cell_angle_gamma 90.000000
_cell_volume 4605.267480
_symmetry_space_group_name_H-M "A M M 2"
_symmetry_group_IT_number 38
_symmetry_cell_setting 'orthorhombic'
loop_
_space_group_symop_operation_xyz
x,y,z
-x,-y,z
-x,y,z
x,-y,z
x,1/2+y,1/2+z
-x,1/2-y,1/2+z
-x,1/2+y,1/2+z
x,1/2-y,1/2+z
loop_
_atom_site_type_symbol
_atom_site_label
_atom_site_fract_x
_atom_site_fract_y
_atom_site_fract_z
Si Si1 0.175762 0.916870 0.484240
Si Si2 0.330690 0.799598 0.942407
Si Si3 0.677544 0.158862 0.094288
Si Si4 0.675425 0.415757 0.790172
Si Si5 0.321882 0.839732 0.391299
Si Si6 0.175207 0.915025 0.186686
Si Si7 0.669208 0.201816 0.541384
Si Si8 0.174966 0.583749 0.500569
O O1 0.248737 0.887145 0.434079
O O2 0.233558 0.866492 0.528292
O O3 0.000000 0.910515 0.480261
O O4 0.214552 0.000000 0.491162
O O5 0.500000 0.821541 0.933689
O O6 0.281656 0.743378 0.900776
O O7 0.232048 0.867362 0.955680
O O8 0.329895 0.750526 0.991803
O O9 0.500000 0.154020 0.093112
O O10 0.742429 0.129581 0.144854
O O11 0.717407 0.241862 0.083020
O O12 0.743715 0.111816 0.049656
O O13 0.500000 0.406934 0.781400
O O14 0.700688 0.500000 0.801116
O O15 0.717017 0.369645 0.837808
O O16 0.763405 0.397514 0.740827
O O17 0.500000 0.844426 0.397021
O O18 0.000000 0.903863 0.184006
O O19 0.203613 0.000000 0.178514
O O20 0.500000 0.180139 0.550154
O O21 0.205619 0.500000 0.493193
O O22 0.000000 0.593302 0.506986
#
# Coordination Sequence:
#
# PCOD9356504 Si02
#       8
#     8   8   8   8   8   8   8   8
#     4  10  19  27  38  60  86 110 137 167 199 237
#     4   8  15  27  41  58  79 103 134 169 201 236
#     4  10  19  30  44  60  78 104 139 172 202 239
#     4   9  17  29  44  60  79 106 138 169 200 233
#     4   9  17  29  44  60  79 107 141 171 201 238
#     4  10  20  31  42  59  83 108 135 168 203 238
#     4   8  16  29  42  57  77 103 135 168 200 236
#     4  10  19  28  39  58  83 109 137 167 200 240
#
# _framework density 13.897130000000001
#
# number of rings (size 3 to 8) (size 9 to 14) (size 15 to 20)
#    0.000    2.750    0.000    3.750    0.000   10.250 
#    0.000    1.250    0.000    0.000    0.000    0.000 
#    0.000    1.000    0.000    9.500    0.000    5.500 
#
# Total GULP energy -178253.473817 kJ/mol
# GULP energy per Si atom -5570.421057 kJ/mol
# Density = 1.386550 g / cm^3
# Si number density = 13.897130 Si / 1000 Ang^3
#
#
#
# Elastic Constant Matrix: (Units=GPa)
#
#
# Indices 1 2 3 4 5 6 
#
# 1 51.3318 56.9220 40.8854 0.0000 0.0000 0.0000
# 2 56.9220 105.3950 62.5678 0.0000 0.0000 0.0000
# 3 40.8854 62.5678 89.2137 0.0000 0.0000 0.0000
# 4 0.0000 0.0000 0.0000 27.6958 0.0000 0.0000
# 5 0.0000 0.0000 0.0000 0.0000 15.0145 0.0000
# 6 0.0000 0.0000 0.0000 0.0000 0.0000 21.1562
#
#
#
# Elastic Compliance Matrix: (Units=1/GPa)
#
#
# Indices 1 2 3 4 5 6 
#
# 1 0.050961 -0.023402 -0.006942 0.000000 0.000000 0.000000
# 2 -0.023402 0.027003 -0.008213 0.000000 0.000000 0.000000
# 3 -0.006942 -0.008213 0.020151 0.000000 0.000000 0.000000
# 4 0.000000 0.000000 0.000000 0.036107 0.000000 0.000000
# 5 0.000000 0.000000 0.000000 0.000000 0.066602 0.000000
# 6 0.000000 0.000000 0.000000 0.000000 0.000000 0.047268
#
#
# Mechanical properties :
#
#
# Convention : Reuss Voigt Hill
#
# Bulk Modulus (GPa) = 47.61925 62.96564 55.29245
# Shear Modulus (GPa) = 15.05097 18.47764 16.76430
#
# Velocity S-wave (km/s) = 3.29451 3.65033 3.47697
# Velocity P-wave (km/s) = 6.98653 7.94816 7.48281
#
# Compressibility (1/GPa) = 0.02099991
#
# Stress axis : x y z
#
# Youngs Moduli (GPa) = 19.62292 37.03358 49.62629
#
# Poissons Ratio (x) = 0.86665 0.34453
# Poissons Ratio (y) = 0.45921 0.40758
# Poissons Ratio (z) = 0.13623 0.30415
#
# Static dielectric constant tensor:
#      x y z
#    x 1.463990 0.000000 0.000000 
#    y 0.000000 1.461010 0.000000 
#    z 0.000000 0.000000 1.442620 
# 
# From -- ./inp_files/23629.got.cif
#   From: 2010.05.17/outbox.cif.g08.bks.cpg/sg38_12_cif.got.tgz:23629.got - 2010.06.03 18:07:57.
