data_PCOD9356084
_publ_section_title
;
Structure prediction by ZEFSAII (Michael W. Deem and Ramdas Pophale) SiO2 
 PCOD9356084
Probable space group: A M M 2
;
_chemical_formula_sum "Si O2"
_cell_formula_units_Z 58
_cell_length_a 15.635899
_cell_length_b 7.368573
_cell_length_c 25.891441
_cell_angle_alpha 90.000000
_cell_angle_beta 90.000000
_cell_angle_gamma 90.000000
_cell_volume 2983.063298
_symmetry_space_group_name_H-M "A M M 2"
_symmetry_group_IT_number 38
_symmetry_cell_setting 'orthorhombic'
loop_
_space_group_symop_operation_xyz
x,y,z
-x,-y,z
-x,y,z
x,-y,z
x,1/2+y,1/2+z
-x,1/2-y,1/2+z
-x,1/2+y,1/2+z
x,1/2-y,1/2+z
loop_
_atom_site_type_symbol
_atom_site_label
_atom_site_fract_x
_atom_site_fract_y
_atom_site_fract_z
Si Si1 0.098242 0.778272 0.023550
Si Si2 0.374662 0.290999 0.773744
Si Si3 0.500000 0.000000 0.815383
Si Si4 0.094700 0.219288 0.698227
Si Si5 0.404662 0.279052 0.654582
Si Si6 0.228368 0.710403 0.609509
Si Si7 0.818890 0.780484 0.801926
Si Si8 0.098296 0.220571 0.906569
O O1 0.168333 0.712348 0.064354
O O2 0.000000 0.722180 0.035069
O O3 0.097336 0.000000 0.025297
O O4 0.120161 0.723480 0.964894
O O5 0.401567 0.500000 0.777788
O O6 0.426015 0.158550 0.810691
O O7 0.392770 0.228656 0.714747
O O8 0.274472 0.280310 0.784955
O O9 0.169977 0.282527 0.660755
O O10 0.115397 0.274129 0.756875
O O11 0.000000 0.280777 0.682058
O O12 0.095420 0.000000 0.696247
O O13 0.500000 0.222544 0.637713
O O14 0.402591 0.500000 0.653509
O O15 0.322237 0.213517 0.622580
O O16 0.242619 0.500000 0.595880
O O17 0.844916 0.716878 0.858822
O O18 0.819121 0.000000 0.802741
O O19 0.000000 0.272459 0.897030
O O20 0.100851 0.000000 0.906756
#
# Coordination Sequence:
#
# PCOD9356084 Si02
#       8
#     8   8   2   8   8   8   8   8
#     4   8  14  25  43  70  97 126 172 224 265 307
#     4  11  21  34  52  77 109 139 174 220 269 322
#     4  12  22  36  56  78 102 144 182 220 268 322
#     4  10  20  30  42  65 101 138 171 208 258 323
#     4   9  17  30  46  67  96 132 168 212 264 316
#     4  10  18  29  47  69  95 130 170 215 263 316
#     4  10  18  30  48  72 100 138 176 216 266 319
#     4   8  14  26  46  71  99 134 179 225 262 303
#
# _framework density 19.443100000000001
#
# number of rings (size 3 to 8) (size 9 to 14) (size 15 to 20)
#    0.000    2.483    2.759    1.862    0.000    2.483 
#    0.000    0.000    0.000    2.069    1.793    1.931 
#    0.000    0.000    0.000    0.276    0.000    0.276 
#
# Total GULP energy -161583.031258 kJ/mol
# GULP energy per Si atom -5571.828664 kJ/mol
# Density = 1.939885 g / cm^3
# Si number density = 19.443100 Si / 1000 Ang^3
#
#
#
# Elastic Constant Matrix: (Units=GPa)
#
#
# Indices 1 2 3 4 5 6 
#
# 1 158.2877 1.7622 65.9221 0.0000 0.0000 0.0000
# 2 1.7622 78.8820 1.0102 0.0000 0.0000 0.0000
# 3 65.9221 1.0102 96.8293 0.0000 0.0000 0.0000
# 4 0.0000 0.0000 0.0000 2.6937 0.0000 0.0000
# 5 0.0000 0.0000 0.0000 0.0000 30.4873 0.0000
# 6 0.0000 0.0000 0.0000 0.0000 0.0000 -2.1485
#
#
#
# Elastic Compliance Matrix: (Units=1/GPa)
#
#
# Indices 1 2 3 4 5 6 
#
# 1 0.008819 -0.000120 -0.006003 0.000000 0.000000 0.000000
# 2 -0.000120 0.012680 -0.000051 0.000000 0.000000 0.000000
# 3 -0.006003 -0.000051 0.014415 0.000000 0.000000 0.000000
# 4 0.000000 0.000000 0.000000 0.371243 0.000000 0.000000
# 5 0.000000 0.000000 0.000000 0.000000 0.032801 0.000000
# 6 0.000000 0.000000 0.000000 0.000000 0.000000 -0.465442
#
#
# Mechanical properties :
#
#
# Convention : Reuss Voigt Hill
#
# Bulk Modulus (GPa) = 42.43157 52.37643 47.40400
# Shear Modulus (GPa) = -946.60943 23.89346 -461.35799
#
# Velocity S-wave (km/s) = -22.08887 3.50936 -15.42081
# Velocity P-wave (km/s) = 25.07363 6.58920 17.10657
#
# Compressibility (1/GPa) = 0.02356736
#
# Stress axis : x y z
#
# Youngs Moduli (GPa) = 113.39288 78.86126 69.37374
#
# Poissons Ratio (x) = 0.00947 0.41643
# Poissons Ratio (y) = 0.01362 0.00350
# Poissons Ratio (z) = 0.68067 0.00398
#
# Static dielectric constant tensor:
#      x y z
#    x 1.665890 0.000000 0.000000 
#    y 0.000000 1.760100 0.000000 
#    z 0.000000 0.000000 1.665300 
# 
# From -- ./inp_files/23976.got.cif
#   From: 2010.05.17/outbox.cif.g08.bks.cpg/sg38_12_cif.got.tgz:23976.got - 2010.06.03 18:07:57.
