data_PCOD9356465
_publ_section_title
;
Structure prediction by ZEFSAII (Michael W. Deem and Ramdas Pophale) SiO2 
 PCOD9356465
Probable space group: A M M 2
;
_chemical_formula_sum "Si O2"
_cell_formula_units_Z 56
_cell_length_a 15.135179
_cell_length_b 14.678781
_cell_length_c 11.691726
_cell_angle_alpha 90.000000
_cell_angle_beta 90.000000
_cell_angle_gamma 90.000000
_cell_volume 2597.503741
_symmetry_space_group_name_H-M "A M M 2"
_symmetry_group_IT_number 38
_symmetry_cell_setting 'orthorhombic'
loop_
_space_group_symop_operation_xyz
x,y,z
-x,-y,z
-x,y,z
x,-y,z
x,1/2+y,1/2+z
-x,1/2-y,1/2+z
-x,1/2+y,1/2+z
x,1/2-y,1/2+z
loop_
_atom_site_type_symbol
_atom_site_label
_atom_site_fract_x
_atom_site_fract_y
_atom_site_fract_z
Si Si1 0.903098 0.253999 0.188220
Si Si2 0.602701 0.188859 0.216949
Si Si3 0.657986 0.899592 0.683290
Si Si4 0.164637 0.097154 0.836805
Si Si5 0.753755 0.659989 0.557785
Si Si6 0.283319 0.151353 0.435097
Si Si7 0.903692 0.396804 0.978683
O O1 0.890152 0.313523 0.302636
O O2 0.821828 0.189329 0.157196
O O3 0.000000 0.211328 0.184093
O O4 0.899404 0.328327 0.085188
O O5 0.500000 0.167751 0.209728
O O6 0.613655 0.300407 0.207311
O O7 0.661063 0.140601 0.118380
O O8 0.646843 0.154527 0.334104
O O9 0.748326 0.897253 0.756628
O O10 0.681922 0.898340 0.548915
O O11 0.616198 0.000000 0.708760
O O12 0.119771 0.000000 0.812679
O O13 0.196793 0.097474 0.967448
O O14 0.731796 0.746339 0.478107
O O15 0.185103 0.115878 0.406012
O O16 0.901354 0.500000 0.022389
O O17 0.000000 0.383514 0.922221
#
# Coordination Sequence:
#
# PCOD9356465 Si02
#       7
#     8   8   8   8   8   8   8
#     4  10  19  33  57  89 124 160 200 242 289 352
#     4  11  23  40  63  86 115 159 209 255 308 372
#     4  10  20  37  61  89 118 151 196 256 313 356
#     4  11  20  36  62  89 122 159 198 249 307 363
#     4  10  20  39  56  85 120 160 200 247 301 366
#     4  10  18  34  58  88 120 157 198 250 299 362
#     4   9  16  28  52  86 121 156 194 237 287 342
#
# _framework density 21.559159999999999
#
# number of rings (size 3 to 8) (size 9 to 14) (size 15 to 20)
#    0.000    1.857    5.714    0.857    0.000    4.000 
#    0.000    5.000    0.000    3.429    0.000    0.000 
#    0.000    0.000    0.000    0.000    0.000    0.000 
#
# Total GULP energy -156145.935611 kJ/mol
# GULP energy per Si atom -5576.640558 kJ/mol
# Density = 2.151009 g / cm^3
# Si number density = 21.559160 Si / 1000 Ang^3
#
#
#
# Elastic Constant Matrix: (Units=GPa)
#
#
# Indices 1 2 3 4 5 6 
#
# 1 165.9324 3.4456 46.3432 0.0000 0.0000 0.0000
# 2 3.4456 33.6331 21.7182 0.0000 0.0000 0.0000
# 3 46.3432 21.7182 93.5697 0.0000 0.0000 0.0000
# 4 0.0000 0.0000 0.0000 -11.0497 0.0000 0.0000
# 5 0.0000 0.0000 0.0000 0.0000 23.6643 0.0000
# 6 0.0000 0.0000 0.0000 0.0000 0.0000 9.8344
#
#
#
# Elastic Compliance Matrix: (Units=1/GPa)
#
#
# Indices 1 2 3 4 5 6 
#
# 1 0.007087 0.001812 -0.003930 0.000000 0.000000 0.000000
# 2 0.001812 0.035438 -0.009123 0.000000 0.000000 0.000000
# 3 -0.003930 -0.009123 0.014751 0.000000 0.000000 0.000000
# 4 0.000000 0.000000 0.000000 -0.090500 0.000000 0.000000
# 5 0.000000 0.000000 0.000000 0.000000 0.042258 0.000000
# 6 0.000000 0.000000 0.000000 0.000000 0.000000 0.101684
#
#
# Mechanical properties :
#
#
# Convention : Reuss Voigt Hill
#
# Bulk Modulus (GPa) = 28.74106 48.46103 38.60105
# Shear Modulus (GPa) = 34.53088 19.26502 26.89795
#
# Velocity S-wave (km/s) = 4.00644 2.99254 3.53602
# Velocity P-wave (km/s) = 5.89596 5.87089 5.88344
#
# Compressibility (1/GPa) = 0.03479343
#
# Stress axis : x y z
#
# Youngs Moduli (GPa) = 141.11011 28.21832 67.79023
#
# Poissons Ratio (x) = -0.05113 0.26645
# Poissons Ratio (y) = -0.25570 0.61844
# Poissons Ratio (z) = 0.55463 0.25743
#
# Static dielectric constant tensor:
#      x y z
#    x 1.785790 0.000000 0.000000 
#    y 0.000000 1.853140 0.000000 
#    z 0.000000 0.000000 1.807000 
# 
# From -- ./inp_files/10084.got.cif
#   From: 2010.05.17/outbox.cif.g08.bks.cpg/sg38_6_cif.got.tgz:10084.got - 2010.06.03 18:07:57.
