data_PCOD9356098
_publ_section_title
;
Structure prediction by ZEFSAII (Michael W. Deem and Ramdas Pophale) SiO2 
 PCOD9356098
Probable space group: A M M 2
;
_chemical_formula_sum "Si O2"
_cell_formula_units_Z 64
_cell_length_a 20.407008
_cell_length_b 7.950528
_cell_length_c 20.769179
_cell_angle_alpha 90.000000
_cell_angle_beta 90.000000
_cell_angle_gamma 90.000000
_cell_volume 3369.726362
_symmetry_space_group_name_H-M "A M M 2"
_symmetry_group_IT_number 38
_symmetry_cell_setting 'orthorhombic'
loop_
_space_group_symop_operation_xyz
x,y,z
-x,-y,z
-x,y,z
x,-y,z
x,1/2+y,1/2+z
-x,1/2-y,1/2+z
-x,1/2+y,1/2+z
x,1/2-y,1/2+z
loop_
_atom_site_type_symbol
_atom_site_label
_atom_site_fract_x
_atom_site_fract_y
_atom_site_fract_z
Si Si1 0.069992 0.701071 0.470450
Si Si2 0.425192 0.797314 0.791000
Si Si3 0.070865 0.203850 0.621264
Si Si4 0.644566 0.195526 0.159591
Si Si5 0.785467 0.200401 0.625096
Si Si6 0.787544 0.294780 0.474210
Si Si7 0.343476 0.804034 0.911073
Si Si8 0.575119 0.303986 0.030962
O O1 0.069374 0.500000 0.460824
O O2 0.070276 0.736642 0.547064
O O3 0.141280 0.762669 0.448504
O O4 0.000000 0.768652 0.445397
O O5 0.500000 0.733726 0.792321
O O6 0.390002 0.758000 0.724070
O O7 0.381934 0.730036 0.850364
O O8 0.428774 0.000000 0.797439
O O9 0.141886 0.259514 0.647286
O O10 0.000000 0.257134 0.649585
O O11 0.071790 0.000000 0.621379
O O12 0.722716 0.222270 0.159720
O O13 0.614513 0.285483 0.097176
O O14 0.630391 0.000000 0.151357
O O15 0.780066 0.239175 0.548564
O O16 0.782095 0.000000 0.633424
O O17 0.786614 0.500000 0.475224
O O18 0.726657 0.231665 0.432282
O O19 0.331390 0.000000 0.895897
O O20 0.389262 0.793084 0.973781
O O21 0.500000 0.248696 0.039745
O O22 0.575135 0.500000 0.012645
#
# Coordination Sequence:
#
# PCOD9356098 Si02
#       8
#     8   8   8   8   8   8   8   8
#     4   8  13  21  35  59  95 135 168 199 238 284
#     4  10  22  40  58  75  99 132 172 217 266 319
#     4   8  14  24  39  63  96 132 167 202 244 296
#     4  12  24  37  54  76 102 134 173 217 263 311
#     4  10  18  29  48  73 103 137 170 209 256 303
#     4   9  16  27  45  72 103 134 169 207 247 296
#     4  10  20  35  56  80 105 135 169 210 258 310
#     4  11  23  37  55  79 105 132 165 207 257 314
#
# _framework density 18.992640999999999
#
# number of rings (size 3 to 8) (size 9 to 14) (size 15 to 20)
#    0.000    2.250    1.250    2.625    0.000    4.250 
#    0.000    0.000    0.000    0.000    0.000    0.875 
#    0.000    5.000    0.000    0.000    0.000    1.000 
#
# Total GULP energy -178348.203501 kJ/mol
# GULP energy per Si atom -5573.381359 kJ/mol
# Density = 1.894941 g / cm^3
# Si number density = 18.992641 Si / 1000 Ang^3
#
#
#
# Elastic Constant Matrix: (Units=GPa)
#
#
# Indices 1 2 3 4 5 6 
#
# 1 171.3416 -3.1946 31.3252 0.0000 0.0000 0.0000
# 2 -3.1946 20.8833 -8.9597 0.0000 0.0000 0.0000
# 3 31.3252 -8.9597 57.1672 0.0000 0.0000 0.0000
# 4 0.0000 0.0000 0.0000 14.1031 0.0000 0.0000
# 5 0.0000 0.0000 0.0000 0.0000 -14.8950 0.0000
# 6 0.0000 0.0000 0.0000 0.0000 0.0000 17.0774
#
#
#
# Elastic Compliance Matrix: (Units=1/GPa)
#
#
# Indices 1 2 3 4 5 6 
#
# 1 0.006492 -0.000572 -0.003647 0.000000 0.000000 0.000000
# 2 -0.000572 0.051388 0.008367 0.000000 0.000000 0.000000
# 3 -0.003647 0.008367 0.020802 0.000000 0.000000 0.000000
# 4 0.000000 0.000000 0.000000 0.070906 0.000000 0.000000
# 5 0.000000 0.000000 0.000000 0.000000 -0.067137 0.000000
# 6 0.000000 0.000000 0.000000 0.000000 0.000000 0.058557
#
#
# Mechanical properties :
#
#
# Convention : Reuss Voigt Hill
#
# Bulk Modulus (GPa) = 11.49703 31.97043 21.73373
# Shear Modulus (GPa) = 30.92048 18.60519 24.76284
#
# Velocity S-wave (km/s) = 4.03926 3.13325 3.61475
# Velocity P-wave (km/s) = 5.27453 5.47351 5.37494
#
# Compressibility (1/GPa) = 0.08697896
#
# Stress axis : x y z
#
# Youngs Moduli (GPa) = 154.02576 19.45998 48.07142
#
# Poissons Ratio (x) = 0.01112 0.17532
# Poissons Ratio (y) = 0.08804 -0.40222
# Poissons Ratio (z) = 0.56176 -0.16282
#
# Static dielectric constant tensor:
#      x y z
#    x 1.741540 0.000000 0.000000 
#    y 0.000000 1.672380 0.000000 
#    z 0.000000 0.000000 1.615710 
# 
# From -- ./inp_files/18846.got.cif
#   From: 2010.05.17/outbox.cif.g08.bks.cpg/sg38_10_cif.got.tgz:18846.got - 2010.06.03 18:07:57.
