data_PCOD9356183
_publ_section_title
;
Structure prediction by ZEFSAII (Michael W. Deem and Ramdas Pophale) SiO2 
 PCOD9356183
Probable space group: A M M 2
;
_chemical_formula_sum "Si O2"
_cell_formula_units_Z 48
_cell_length_a 15.849188
_cell_length_b 17.841843
_cell_length_c 7.657706
_cell_angle_alpha 90.000000
_cell_angle_beta 90.000000
_cell_angle_gamma 90.000000
_cell_volume 2165.436331
_symmetry_space_group_name_H-M "A M M 2"
_symmetry_group_IT_number 38
_symmetry_cell_setting 'orthorhombic'
loop_
_space_group_symop_operation_xyz
x,y,z
-x,-y,z
-x,y,z
x,-y,z
x,1/2+y,1/2+z
-x,1/2-y,1/2+z
-x,1/2+y,1/2+z
x,1/2-y,1/2+z
loop_
_atom_site_type_symbol
_atom_site_label
_atom_site_fract_x
_atom_site_fract_y
_atom_site_fract_z
Si Si1 0.500000 0.699274 0.317791
Si Si2 0.321288 0.691723 0.483794
Si Si3 0.000000 0.686352 0.762731
Si Si4 0.178328 0.583413 0.401563
Si Si5 0.855492 0.581317 0.821756
Si Si6 0.500000 0.134849 0.432360
Si Si7 0.681824 0.861380 0.382549
Si Si8 0.000000 0.143556 0.852357
O O1 0.413972 0.674777 0.409873
O O2 0.500000 0.790051 0.312197
O O3 0.500000 0.667787 0.125603
O O4 0.247917 0.648385 0.378022
O O5 0.313823 0.781772 0.482116
O O6 0.315745 0.662990 0.680295
O O7 0.918262 0.649905 0.852972
O O8 0.000000 0.659347 0.561813
O O9 0.000000 0.775052 0.766479
O O10 0.207866 0.500000 0.351611
O O11 0.161514 0.581185 0.611940
O O12 0.087817 0.601567 0.315764
O O13 0.892468 0.500000 0.865094
O O14 0.766136 0.592462 0.915470
O O15 0.408347 0.098622 0.409114
#
# Coordination Sequence:
#
# PCOD9356183 Si02
#       8
#     4   8   4   8   8   4   8   4
#     4  10  18  30  49  72  99 129 165 207 249 294
#     4  10  18  30  50  74 100 129 165 208 249 292
#     4  10  19  33  55  79 103 130 164 206 246 290
#     4   9  18  32  51  75 101 132 169 205 242 288
#     4   9  18  32  51  75 101 132 169 205 242 288
#     4  10  18  30  49  72  99 129 165 207 249 294
#     4  10  18  30  50  74 100 129 165 208 249 292
#     4  10  19  33  55  79 103 130 164 206 246 290
#
# _framework density 22.166433999999999
#
# number of rings (size 3 to 8) (size 9 to 14) (size 15 to 20)
#    0.000    2.333    0.000    6.000    0.000    2.000 
#    0.000    2.500    0.000   15.000    0.000    0.000 
#    0.000    0.000    0.000    0.000    0.000    0.000 
#
# Total GULP energy -134038.494487 kJ/mol
# GULP energy per Si atom -5584.937270 kJ/mol
# Density = 2.211598 g / cm^3
# Si number density = 22.166434 Si / 1000 Ang^3
#
#
#
# Elastic Constant Matrix: (Units=GPa)
#
#
# Indices 1 2 3 4 5 6 
#
# 1 126.6553 31.9948 -5.4652 0.0000 0.0000 0.0000
# 2 31.9948 71.0332 -6.5051 0.0000 0.0000 0.0000
# 3 -5.4652 -6.5051 34.8945 0.0000 0.0000 0.0000
# 4 0.0000 0.0000 0.0000 -2.1924 0.0000 0.0000
# 5 0.0000 0.0000 0.0000 0.0000 14.9288 0.0000
# 6 0.0000 0.0000 0.0000 0.0000 0.0000 -59.2075
#
#
#
# Elastic Compliance Matrix: (Units=1/GPa)
#
#
# Indices 1 2 3 4 5 6 
#
# 1 0.008924 -0.003959 0.000660 0.000000 0.000000 0.000000
# 2 -0.003959 0.016079 0.002377 0.000000 0.000000 0.000000
# 3 0.000660 0.002377 0.029204 0.000000 0.000000 0.000000
# 4 0.000000 0.000000 0.000000 -0.456131 0.000000 0.000000
# 5 0.000000 0.000000 0.000000 0.000000 0.066985 0.000000
# 6 0.000000 0.000000 0.000000 0.000000 0.000000 -0.016890
#
#
# Mechanical properties :
#
#
# Convention : Reuss Voigt Hill
#
# Bulk Modulus (GPa) = 19.09744 30.29243 24.69493
# Shear Modulus (GPa) = -15.03621 4.87635 -5.07993
#
# Velocity S-wave (km/s) = -2.60731 1.48481 -1.51549
# Velocity P-wave (km/s) = 0.65566 4.07862 2.84651
#
# Compressibility (1/GPa) = 0.05236303
#
# Stress axis : x y z
#
# Youngs Moduli (GPa) = 112.05685 62.19320 34.24146
#
# Poissons Ratio (x) = 0.24623 -0.02259
# Poissons Ratio (y) = 0.44365 -0.08141
# Poissons Ratio (z) = -0.07391 -0.14786
#
# Static dielectric constant tensor:
#      x y z
#    x 1.850490 0.000000 0.000000 
#    y 0.000000 1.802680 0.000000 
#    z 0.000000 0.000000 1.860950 
# 
# From -- ./inp_files/5519.got.cif
#   From: 2010.05.17/outbox.cif.g08.bks.cpg/sg38_3_cif.got.tgz:5519.got - 2010.06.03 18:07:57.
