data_PCOD9356506
_publ_section_title
;
Structure prediction by ZEFSAII (Michael W. Deem and Ramdas Pophale) SiO2 
 PCOD9356506
Probable space group: A M M 2
;
_chemical_formula_sum "Si O2"
_cell_formula_units_Z 56
_cell_length_a 7.792331
_cell_length_b 13.813905
_cell_length_c 33.586319
_cell_angle_alpha 90.000000
_cell_angle_beta 90.000000
_cell_angle_gamma 90.000000
_cell_volume 3615.316020
_symmetry_space_group_name_H-M "A M M 2"
_symmetry_group_IT_number 38
_symmetry_cell_setting 'orthorhombic'
loop_
_space_group_symop_operation_xyz
x,y,z
-x,-y,z
-x,y,z
x,-y,z
x,1/2+y,1/2+z
-x,1/2-y,1/2+z
-x,1/2+y,1/2+z
x,1/2-y,1/2+z
loop_
_atom_site_type_symbol
_atom_site_label
_atom_site_fract_x
_atom_site_fract_y
_atom_site_fract_z
Si Si1 0.206640 0.891509 0.562670
Si Si2 0.500000 0.117499 0.796654
Si Si3 0.801867 0.881929 0.854643
Si Si4 0.500000 0.882807 0.703966
Si Si5 0.800312 0.304905 0.149069
Si Si6 0.708750 0.389432 0.607155
Si Si7 0.301497 0.696408 0.523874
Si Si8 0.796508 0.108622 0.941525
O O1 0.245084 0.862043 0.608229
O O2 0.281124 0.808821 0.534607
O O3 0.000000 0.888434 0.558889
O O4 0.266335 0.000000 0.554421
O O5 0.330237 0.149171 0.820638
O O6 0.500000 0.144512 0.750479
O O7 0.500000 0.000000 0.797696
O O8 0.735492 0.852512 0.898731
O O9 0.000000 0.851286 0.848126
O O10 0.802987 0.000000 0.855561
O O11 0.667720 0.839776 0.682223
O O12 0.500000 0.000000 0.700520
O O13 0.776935 0.192183 0.137112
O O14 0.000000 0.323869 0.158715
O O15 0.500000 0.382463 0.607442
O O16 0.756098 0.500000 0.616132
O O17 0.770509 0.360485 0.562514
O O18 0.500000 0.669880 0.521903
O O19 0.228372 0.669642 0.481176
O O20 0.000000 0.099968 0.935495
O O21 0.725976 0.000000 0.948202
#
# Coordination Sequence:
#
# PCOD9356506 Si02
#       8
#     8   4   8   4   8   8   8   8
#     4   9  18  32  47  61  83 121 162 196 230 266
#     4   9  18  30  46  66  87 117 151 184 228 279
#     4   8  15  28  44  63  88 118 151 183 219 270
#     4  11  22  34  49  70  95 123 158 198 241 279
#     4  10  20  34  50  71  95 122 161 199 236 283
#     4   9  17  31  48  67  97 131 160 194 235 278
#     4  10  19  27  40  67  94 119 156 194 227 266
#     4   9  17  28  42  61  89 124 155 185 221 262
#
# _framework density 15.489655000000001
#
# number of rings (size 3 to 8) (size 9 to 14) (size 15 to 20)
#    0.000    2.714    0.714    2.143    2.000    3.429 
#    0.000    1.429    0.000    0.000    0.000    0.000 
#    0.000    2.286    0.000    2.286    0.000    0.000 
#
# Total GULP energy -155998.242279 kJ/mol
# GULP energy per Si atom -5571.365796 kJ/mol
# Density = 1.545440 g / cm^3
# Si number density = 15.489655 Si / 1000 Ang^3
#
#
#
# Elastic Constant Matrix: (Units=GPa)
#
#
# Indices 1 2 3 4 5 6 
#
# 1 63.4173 16.4295 55.5031 0.0000 0.0000 0.0000
# 2 16.4295 63.4359 37.2153 0.0000 0.0000 0.0000
# 3 55.5031 37.2153 132.1334 0.0000 0.0000 0.0000
# 4 0.0000 0.0000 0.0000 16.2417 0.0000 0.0000
# 5 0.0000 0.0000 0.0000 0.0000 18.2817 0.0000
# 6 0.0000 0.0000 0.0000 0.0000 0.0000 15.4535
#
#
#
# Elastic Compliance Matrix: (Units=1/GPa)
#
#
# Indices 1 2 3 4 5 6 
#
# 1 0.024943 -0.000375 -0.010372 0.000000 0.000000 0.000000
# 2 -0.000375 0.018890 -0.005163 0.000000 0.000000 0.000000
# 3 -0.010372 -0.005163 0.013379 0.000000 0.000000 0.000000
# 4 0.000000 0.000000 0.000000 0.061570 0.000000 0.000000
# 5 0.000000 0.000000 0.000000 0.000000 0.054699 0.000000
# 6 0.000000 0.000000 0.000000 0.000000 0.000000 0.064710
#
#
# Mechanical properties :
#
#
# Convention : Reuss Voigt Hill
#
# Bulk Modulus (GPa) = 39.38195 53.03138 46.20667
# Shear Modulus (GPa) = 17.95492 19.98464 18.96978
#
# Velocity S-wave (km/s) = 3.40833 3.59582 3.50333
# Velocity P-wave (km/s) = 6.40069 7.17989 6.80146
#
# Compressibility (1/GPa) = 0.02539234
#
# Stress axis : x y z
#
# Youngs Moduli (GPa) = 40.09107 52.93839 74.74485
#
# Poissons Ratio (x) = 0.01987 0.77523
# Poissons Ratio (y) = 0.01505 0.38588
# Poissons Ratio (z) = 0.41581 0.27330
#
# Static dielectric constant tensor:
#      x y z
#    x 1.548050 0.000000 0.000000 
#    y 0.000000 1.501680 0.000000 
#    z 0.000000 0.000000 1.515970 
# 
# From -- ./inp_files/24671.got.cif
#   From: 2010.05.17/outbox.cif.g08.bks.cpg/sg38_13_cif.got.tgz:24671.got - 2010.06.03 18:07:57.
