data_PCOD9356045
_publ_section_title
;
Structure prediction by ZEFSAII (Michael W. Deem and Ramdas Pophale) SiO2 
 PCOD9356045
Probable space group: A M M 2
;
_chemical_formula_sum "Si O2"
_cell_formula_units_Z 48
_cell_length_a 8.186679
_cell_length_b 24.415288
_cell_length_c 14.234290
_cell_angle_alpha 90.000000
_cell_angle_beta 90.000000
_cell_angle_gamma 90.000000
_cell_volume 2845.151672
_symmetry_space_group_name_H-M "A M M 2"
_symmetry_group_IT_number 38
_symmetry_cell_setting 'orthorhombic'
loop_
_space_group_symop_operation_xyz
x,y,z
-x,-y,z
-x,y,z
x,-y,z
x,1/2+y,1/2+z
-x,1/2-y,1/2+z
-x,1/2+y,1/2+z
x,1/2-y,1/2+z
loop_
_atom_site_type_symbol
_atom_site_label
_atom_site_fract_x
_atom_site_fract_y
_atom_site_fract_z
Si Si1 0.807497 0.163649 0.484800
Si Si2 0.807497 0.336351 0.441074
Si Si3 0.199424 0.562467 0.320324
Si Si4 0.693124 0.734995 0.605595
Si Si5 0.199424 0.562467 0.105550
Si Si6 0.693124 0.234995 0.320279
O O1 0.781142 0.212879 0.559142
O O2 0.743670 0.108087 0.532345
O O3 0.726315 0.183885 0.388671
O O4 0.000000 0.157789 0.467402
O O5 0.743670 0.391913 0.393529
O O6 0.726315 0.316115 0.537203
O O7 0.781142 0.287121 0.366732
O O8 0.000000 0.342211 0.458471
O O9 0.248713 0.500000 0.341523
O O10 0.249602 0.575398 0.212937
O O11 0.000000 0.563680 0.320831
O O12 0.500000 0.746503 0.603907
O O13 0.744711 0.726176 0.712937
O O14 0.248713 0.500000 0.084350
O O15 0.000000 0.563680 0.105043
O O16 0.500000 0.246502 0.321967
#
# Coordination Sequence:
#
# PCOD9356045 Si02
#       6
#     8   8   8   8   8   8
#     4  10  18  28  47  71  91 113 145 185 222 258
#     4  10  18  28  47  71  91 113 145 185 222 258
#     4   8  14  25  42  66  94 118 139 170 217 267
#     4  10  20  32  45  62  89 123 151 178 218 265
#     4   8  14  25  42  66  94 118 139 170 217 267
#     4  10  20  32  45  62  89 123 151 178 218 265
#
# _framework density 16.870806000000002
#
# number of rings (size 3 to 8) (size 9 to 14) (size 15 to 20)
#    0.000    2.667    0.000    6.000    0.000    4.000 
#    0.000    0.000    0.000    5.000    0.000   18.667 
#    0.000    0.000    0.000    0.000    0.000    0.000 
#
# Total GULP energy -133791.579151 kJ/mol
# GULP energy per Si atom -5574.649131 kJ/mol
# Density = 1.683241 g / cm^3
# Si number density = 16.870806 Si / 1000 Ang^3
#
#
#
# Elastic Constant Matrix: (Units=GPa)
#
#
# Indices 1 2 3 4 5 6 
#
# 1 12.3318 -14.4776 -5.7987 0.0000 0.0000 0.0000
# 2 -14.4776 72.3251 41.3190 0.0000 0.0000 0.0000
# 3 -5.7987 41.3190 116.7101 0.0000 0.0000 0.0000
# 4 0.0000 0.0000 0.0000 25.4539 0.0000 0.0000
# 5 0.0000 0.0000 0.0000 0.0000 -10.8754 0.0000
# 6 0.0000 0.0000 0.0000 0.0000 0.0000 -19.8864
#
#
#
# Elastic Compliance Matrix: (Units=1/GPa)
#
#
# Indices 1 2 3 4 5 6 
#
# 1 0.106745 0.022987 -0.002835 0.000000 0.000000 0.000000
# 2 0.022987 0.022282 -0.006746 0.000000 0.000000 0.000000
# 3 -0.002835 -0.006746 0.010816 0.000000 0.000000 0.000000
# 4 0.000000 0.000000 0.000000 0.039287 0.000000 0.000000
# 5 0.000000 0.000000 0.000000 0.000000 -0.091951 0.000000
# 6 0.000000 0.000000 0.000000 0.000000 0.000000 -0.050286
#
#
# Mechanical properties :
#
#
# Convention : Reuss Voigt Hill
#
# Bulk Modulus (GPa) = 6.00042 27.05026 16.52534
# Shear Modulus (GPa) = 76.18158 10.96006 43.57082
#
# Velocity S-wave (km/s) = 6.72710 2.55158 5.08746
# Velocity P-wave (km/s) = 7.99393 4.97487 6.65779
#
# Compressibility (1/GPa) = 0.16665491
#
# Stress axis : x y z
#
# Youngs Moduli (GPa) = 9.36812 44.87914 92.45691
#
# Poissons Ratio (x) = -1.03163 0.26207
# Poissons Ratio (y) = -0.21534 0.62375
# Poissons Ratio (z) = 0.02655 0.30277
#
# Static dielectric constant tensor:
#      x y z
#    x 1.591180 0.000000 0.000000 
#    y 0.000000 1.569090 0.000000 
#    z 0.000000 0.000000 1.564760 
# 
# From -- ./inp_files/12535.got.cif
#   From: 2010.05.17/outbox.cif.g08.bks.cpg/sg38_7_cif.got.tgz:12535.got - 2010.06.03 18:07:57.
