data_PCOD9356128
_publ_section_title
;
Structure prediction by ZEFSAII (Michael W. Deem and Ramdas Pophale) SiO2 
 PCOD9356128
Probable space group: A M M 2
;
_chemical_formula_sum "Si O2"
_cell_formula_units_Z 64
_cell_length_a 8.781290
_cell_length_b 14.820392
_cell_length_c 29.131041
_cell_angle_alpha 90.000000
_cell_angle_beta 90.000000
_cell_angle_gamma 90.000000
_cell_volume 3791.176601
_symmetry_space_group_name_H-M "A M M 2"
_symmetry_group_IT_number 38
_symmetry_cell_setting 'orthorhombic'
loop_
_space_group_symop_operation_xyz
x,y,z
-x,-y,z
-x,y,z
x,-y,z
x,1/2+y,1/2+z
-x,1/2-y,1/2+z
-x,1/2+y,1/2+z
x,1/2-y,1/2+z
loop_
_atom_site_type_symbol
_atom_site_label
_atom_site_fract_x
_atom_site_fract_y
_atom_site_fract_z
Si Si1 0.818041 0.895423 0.777940
Si Si2 0.817709 0.216975 0.593693
Si Si3 0.685435 0.897324 0.406274
Si Si4 0.816502 0.897713 0.138044
Si Si5 0.315760 0.728399 0.823352
Si Si6 0.316357 0.896084 0.511536
Si Si7 0.317570 0.604963 0.737218
Si Si8 0.320661 0.107759 0.678366
O O1 0.753095 0.826607 0.815206
O O2 0.748358 0.870875 0.728207
O O3 0.000000 0.888738 0.775477
O O4 0.777212 0.000000 0.787024
O O5 0.768502 0.320408 0.602639
O O6 0.751830 0.172016 0.548117
O O7 0.760366 0.160370 0.637532
O O8 0.000000 0.213827 0.592113
O O9 0.500000 0.897931 0.405444
O O10 0.735101 0.824318 0.368992
O O11 0.730369 0.878123 0.458812
O O12 0.733192 0.000000 0.394525
O O13 0.758735 0.872172 0.188813
O O14 0.000000 0.898911 0.138996
O O15 0.763159 0.000000 0.128232
O O16 0.500000 0.734084 0.823923
O O17 0.271134 0.667909 0.779264
O O18 0.500000 0.891699 0.513604
O O19 0.273216 0.000000 0.522559
O O20 0.500000 0.612510 0.731979
O O21 0.282584 0.500000 0.747537
O O22 0.500000 0.129053 0.678406
O O23 0.303132 0.000000 0.671284
#
# Coordination Sequence:
#
# PCOD9356128 Si02
#       8
#     8   8   8   8   8   8   8   8
#     4  10  21  35  48  65  95 132 165 199 238 278
#     4  11  21  31  48  72  96 125 160 199 242 285
#     4   8  15  30  52  76 100 125 154 190 235 286
#     4   9  19  34  47  61  88 126 162 192 226 272
#     4  10  18  29  50  75  96 123 159 196 233 278
#     4   9  18  33  52  73  98 127 156 189 234 288
#     4   9  17  28  44  70 100 124 149 185 229 276
#     4  10  20  33  49  70  97 128 161 196 235 283
#
# _framework density 16.881302999999999
#
# number of rings (size 3 to 8) (size 9 to 14) (size 15 to 20)
#    0.000    2.500    0.000    3.375    0.000    8.250 
#    0.000    0.625    0.000    2.625    0.000    3.500 
#    0.000    0.000    0.000    0.000    0.000    0.000 
#
# Total GULP energy -178531.469050 kJ/mol
# GULP energy per Si atom -5579.108408 kJ/mol
# Density = 1.684288 g / cm^3
# Si number density = 16.881303 Si / 1000 Ang^3
#
#
#
# Elastic Constant Matrix: (Units=GPa)
#
#
# Indices 1 2 3 4 5 6 
#
# 1 18.1249 32.2230 27.8546 0.0000 0.0000 0.0000
# 2 32.2230 109.0617 94.1274 0.0000 0.0000 0.0000
# 3 27.8546 94.1274 114.7806 0.0000 0.0000 0.0000
# 4 0.0000 0.0000 0.0000 33.3919 0.0000 0.0000
# 5 0.0000 0.0000 0.0000 0.0000 -62.9037 0.0000
# 6 0.0000 0.0000 0.0000 0.0000 0.0000 22.8643
#
#
#
# Elastic Compliance Matrix: (Units=1/GPa)
#
#
# Indices 1 2 3 4 5 6 
#
# 1 0.116221 -0.034206 -0.000153 0.000000 0.000000 0.000000
# 2 -0.034206 0.041444 -0.025686 0.000000 0.000000 0.000000
# 3 -0.000153 -0.025686 0.029813 0.000000 0.000000 0.000000
# 4 0.000000 0.000000 0.000000 0.029947 0.000000 0.000000
# 5 0.000000 0.000000 0.000000 0.000000 -0.015897 0.000000
# 6 0.000000 0.000000 0.000000 0.000000 0.000000 0.043736
#
#
# Mechanical properties :
#
#
# Convention : Reuss Voigt Hill
#
# Bulk Modulus (GPa) = 14.83933 61.15303 37.99618
# Shear Modulus (GPa) = 12.89270 4.52132 8.70701
#
# Velocity S-wave (km/s) = 2.76656 1.63833 2.27354
# Velocity P-wave (km/s) = 4.36057 6.31528 5.42666
#
# Compressibility (1/GPa) = 0.06738850
#
# Stress axis : x y z
#
# Youngs Moduli (GPa) = 8.60432 24.12893 33.54222
#
# Poissons Ratio (x) = 0.82536 0.00512
# Poissons Ratio (y) = 0.29432 0.86155
# Poissons Ratio (z) = 0.00131 0.61977
#
# Static dielectric constant tensor:
#      x y z
#    x 1.568100 0.000000 0.000000 
#    y 0.000000 1.591010 0.000000 
#    z 0.000000 0.000000 1.545070 
# 
# From -- ./inp_files/24790.got.cif
#   From: 2010.05.17/outbox.cif.g08.bks.cpg/sg38_13_cif.got.tgz:24790.got - 2010.06.03 18:07:57.
