data_PCOD9356606
_publ_section_title
;
Structure prediction by ZEFSAII (Michael W. Deem and Ramdas Pophale) SiO2 
 PCOD9356606
Probable space group: A M M 2
;
_chemical_formula_sum "Si O2"
_cell_formula_units_Z 48
_cell_length_a 7.795893
_cell_length_b 14.283642
_cell_length_c 24.724015
_cell_angle_alpha 90.000000
_cell_angle_beta 90.000000
_cell_angle_gamma 90.000000
_cell_volume 2753.111654
_symmetry_space_group_name_H-M "A M M 2"
_symmetry_group_IT_number 38
_symmetry_cell_setting 'orthorhombic'
loop_
_space_group_symop_operation_xyz
x,y,z
-x,-y,z
-x,y,z
x,-y,z
x,1/2+y,1/2+z
-x,1/2-y,1/2+z
-x,1/2+y,1/2+z
x,1/2-y,1/2+z
loop_
_atom_site_type_symbol
_atom_site_label
_atom_site_fract_x
_atom_site_fract_y
_atom_site_fract_z
Si Si1 0.296228 0.604417 0.090580
Si Si2 0.795739 0.708062 0.200199
Si Si3 0.706721 0.894952 0.143008
Si Si4 0.793439 0.107536 0.807380
Si Si5 0.706008 0.892932 0.927884
Si Si6 0.710313 0.710856 0.534449
O O1 0.500000 0.598545 0.081110
O O2 0.223347 0.500000 0.085388
O O3 0.272945 0.644818 0.150980
O O4 0.229469 0.685124 0.050454
O O5 0.755319 0.815486 0.186034
O O6 0.730509 0.670799 0.257810
O O7 0.000000 0.697399 0.199574
O O8 0.500000 0.897985 0.141725
O O9 0.762186 0.856850 0.084023
O O10 0.770255 0.000000 0.153328
O O11 0.746838 0.140715 0.867476
O O12 0.000000 0.105021 0.804659
O O13 0.731032 0.000000 0.801520
O O14 0.500000 0.896931 0.932602
O O15 0.771206 0.000000 0.932914
O O16 0.768927 0.829108 0.977101
O O17 0.500000 0.712066 0.534306
#
# Coordination Sequence:
#
# PCOD9356606 Si02
#       6
#     8   8   8   8   8   8
#     4   9  17  29  46  67  90 117 148 181 218 261
#     4  10  19  30  45  65  90 119 148 180 220 263
#     4   9  17  30  48  68  91 118 145 176 216 261
#     4   9  18  31  44  60  86 118 147 177 217 260
#     4   9  16  26  43  65  85 109 144 182 217 257
#     4   8  14  26  44  66  90 114 140 173 216 261
#
# _framework density 17.434819000000001
#
# number of rings (size 3 to 8) (size 9 to 14) (size 15 to 20)
#    0.000    3.000    0.000    2.500    0.000    4.667 
#    0.000    5.000    0.000    5.000    0.000    2.333 
#    0.000    0.000    0.000    0.000    0.000    0.000 
#
# Total GULP energy -133745.979669 kJ/mol
# GULP energy per Si atom -5572.749153 kJ/mol
# Density = 1.739514 g / cm^3
# Si number density = 17.434819 Si / 1000 Ang^3
#
#
#
# Elastic Constant Matrix: (Units=GPa)
#
#
# Indices 1 2 3 4 5 6 
#
# 1 20.4252 2.5204 -0.2770 0.0000 0.0000 0.0000
# 2 2.5204 134.4305 92.0210 0.0000 0.0000 0.0000
# 3 -0.2770 92.0210 162.9865 0.0000 0.0000 0.0000
# 4 0.0000 0.0000 0.0000 13.2244 0.0000 0.0000
# 5 0.0000 0.0000 0.0000 0.0000 28.9516 0.0000
# 6 0.0000 0.0000 0.0000 0.0000 0.0000 11.3841
#
#
#
# Elastic Compliance Matrix: (Units=1/GPa)
#
#
# Indices 1 2 3 4 5 6 
#
# 1 0.049169 -0.001596 0.000985 0.000000 0.000000 0.000000
# 2 -0.001596 0.012177 -0.006877 0.000000 0.000000 0.000000
# 3 0.000985 -0.006877 0.010020 0.000000 0.000000 0.000000
# 4 0.000000 0.000000 0.000000 0.075618 0.000000 0.000000
# 5 0.000000 0.000000 0.000000 0.000000 0.034540 0.000000
# 6 0.000000 0.000000 0.000000 0.000000 0.000000 0.087842
#
#
# Mechanical properties :
#
#
# Convention : Reuss Voigt Hill
#
# Bulk Modulus (GPa) = 17.73411 56.26345 36.99878
# Shear Modulus (GPa) = 16.49406 25.61721 21.05563
#
# Velocity S-wave (km/s) = 3.07911 3.83732 3.47894
# Velocity P-wave (km/s) = 4.77860 7.20931 6.11593
#
# Compressibility (1/GPa) = 0.05638849
#
# Stress axis : x y z
#
# Youngs Moduli (GPa) = 20.33788 82.12527 99.79910
#
# Poissons Ratio (x) = 0.13105 -0.09825
# Poissons Ratio (y) = 0.03245 0.68637
# Poissons Ratio (z) = -0.02002 0.56482
#
# Static dielectric constant tensor:
#      x y z
#    x 1.635650 0.000000 0.000000 
#    y 0.000000 1.619710 0.000000 
#    z 0.000000 0.000000 1.579050 
# 
# From -- ./inp_files/19619.got.cif
#   From: 2010.05.17/outbox.cif.g08.bks.cpg/sg38_10_cif.got.tgz:19619.got - 2010.06.03 18:07:57.
