data_PCOD9356517
_publ_section_title
;
Structure prediction by ZEFSAII (Michael W. Deem and Ramdas Pophale) SiO2 
 PCOD9356517
Probable space group: A M M 2
;
_chemical_formula_sum "Si O2"
_cell_formula_units_Z 64
_cell_length_a 8.987539
_cell_length_b 26.786605
_cell_length_c 18.709187
_cell_angle_alpha 90.000000
_cell_angle_beta 90.000000
_cell_angle_gamma 90.000000
_cell_volume 4504.155518
_symmetry_space_group_name_H-M "A M M 2"
_symmetry_group_IT_number 38
_symmetry_cell_setting 'orthorhombic'
loop_
_space_group_symop_operation_xyz
x,y,z
-x,-y,z
-x,y,z
x,-y,z
x,1/2+y,1/2+z
-x,1/2-y,1/2+z
-x,1/2+y,1/2+z
x,1/2-y,1/2+z
loop_
_atom_site_type_symbol
_atom_site_label
_atom_site_fract_x
_atom_site_fract_y
_atom_site_fract_z
Si Si1 0.827872 0.698207 0.467620
Si Si2 0.821017 0.942899 0.591491
Si Si3 0.822551 0.941160 0.757241
Si Si4 0.675711 0.354771 0.004750
Si Si5 0.677755 0.351611 0.337263
Si Si6 0.179752 0.739319 0.248695
Si Si7 0.322036 0.246640 0.593524
Si Si8 0.170258 0.802746 0.379696
O O1 0.743253 0.660044 0.415769
O O2 0.744620 0.711325 0.540940
O O3 0.828135 0.750362 0.423245
O O4 0.000000 0.684044 0.478912
O O5 0.781939 0.931291 0.674167
O O6 0.753133 0.902740 0.538521
O O7 0.000000 0.941187 0.587389
O O8 0.774379 0.000000 0.576594
O O9 0.731475 0.904806 0.808021
O O10 0.000000 0.931653 0.764910
O O11 0.797921 0.000000 0.770510
O O12 0.500000 0.361849 0.003886
O O13 0.708279 0.306756 0.055237
O O14 0.732657 0.340468 0.925876
O O15 0.500000 0.347131 0.337292
O O16 0.748168 0.309828 0.284398
O O17 0.242777 0.746761 0.169872
O O18 0.218053 0.785967 0.300656
O O19 0.000000 0.734044 0.248884
O O20 0.500000 0.251872 0.600273
O O21 0.000000 0.820505 0.377598
#
# Coordination Sequence:
#
# PCOD9356517 Si02
#       8
#     8   8   8   8   8   8   8   8
#     4   9  17  30  45  60  81 112 146 176 208 251
#     4   9  18  31  45  60  80 109 144 179 211 244
#     4   9  18  32  47  62  82 111 147 182 214 253
#     4  10  19  28  41  61  84 111 140 171 211 254
#     4  11  20  29  43  63  87 114 144 180 220 256
#     4  10  19  30  44  62  84 114 149 178 209 253
#     4  10  19  29  42  64  90 113 140 176 217 255
#     4   8  16  29  43  58  78 107 142 176 206 242
#
# _framework density 14.209102
#
# number of rings (size 3 to 8) (size 9 to 14) (size 15 to 20)
#    0.000    2.500    0.000    4.875    0.000    8.000 
#    0.000    1.250    0.000    0.000    0.000    0.000 
#    0.000    1.000    0.000    8.750    0.000    4.875 
#
# Total GULP energy -178375.655489 kJ/mol
# GULP energy per Si atom -5574.239234 kJ/mol
# Density = 1.417676 g / cm^3
# Si number density = 14.209102 Si / 1000 Ang^3
#
#
#
# Elastic Constant Matrix: (Units=GPa)
#
#
# Indices 1 2 3 4 5 6 
#
# 1 70.4604 40.9097 48.5261 0.0000 0.0000 0.0000
# 2 40.9097 57.6236 35.8920 0.0000 0.0000 0.0000
# 3 48.5261 35.8920 89.8715 0.0000 0.0000 0.0000
# 4 0.0000 0.0000 0.0000 24.4052 0.0000 0.0000
# 5 0.0000 0.0000 0.0000 0.0000 19.8817 0.0000
# 6 0.0000 0.0000 0.0000 0.0000 0.0000 16.0649
#
#
#
# Elastic Compliance Matrix: (Units=1/GPa)
#
#
# Indices 1 2 3 4 5 6 
#
# 1 0.029805 -0.014824 -0.010173 0.000000 0.000000 0.000000
# 2 -0.014824 0.030473 -0.004166 0.000000 0.000000 0.000000
# 3 -0.010173 -0.004166 0.018284 0.000000 0.000000 0.000000
# 4 0.000000 0.000000 0.000000 0.040975 0.000000 0.000000
# 5 0.000000 0.000000 0.000000 0.000000 0.050298 0.000000
# 6 0.000000 0.000000 0.000000 0.000000 0.000000 0.062248
#
#
# Mechanical properties :
#
#
# Convention : Reuss Voigt Hill
#
# Bulk Modulus (GPa) = 49.41606 52.06789 50.74198
# Shear Modulus (GPa) = 16.82634 18.24552 17.53593
#
# Velocity S-wave (km/s) = 3.44495 3.58728 3.51684
# Velocity P-wave (km/s) = 7.11876 7.34042 7.23044
#
# Compressibility (1/GPa) = 0.02023634
#
# Stress axis : x y z
#
# Youngs Moduli (GPa) = 33.55102 32.81616 54.69314
#
# Poissons Ratio (x) = 0.48645 0.55641
# Poissons Ratio (y) = 0.49735 0.22785
# Poissons Ratio (z) = 0.34132 0.13671
#
# Static dielectric constant tensor:
#      x y z
#    x 1.472930 0.000000 0.000000 
#    y 0.000000 1.450170 0.000000 
#    z 0.000000 0.000000 1.464290 
# 
# From -- ./inp_files/17277.got.cif
#   From: 2010.05.17/outbox.cif.g08.bks.cpg/sg38_9_cif.got.tgz:17277.got - 2010.06.03 18:07:57.
