data_PCOD9356855
_publ_section_title
;
Structure prediction by ZEFSAII (Michael W. Deem and Ramdas Pophale) SiO2 
 PCOD9356855
Probable space group: A M M 2
;
_chemical_formula_sum "Si O2"
_cell_formula_units_Z 48
_cell_length_a 8.529616
_cell_length_b 14.488189
_cell_length_c 18.395274
_cell_angle_alpha 90.000000
_cell_angle_beta 90.000000
_cell_angle_gamma 90.000000
_cell_volume 2273.263839
_symmetry_space_group_name_H-M "A M M 2"
_symmetry_group_IT_number 38
_symmetry_cell_setting 'orthorhombic'
loop_
_space_group_symop_operation_xyz
x,y,z
-x,-y,z
-x,y,z
x,-y,z
x,1/2+y,1/2+z
-x,1/2-y,1/2+z
-x,1/2+y,1/2+z
x,1/2-y,1/2+z
loop_
_atom_site_type_symbol
_atom_site_label
_atom_site_fract_x
_atom_site_fract_y
_atom_site_fract_z
Si Si1 0.688265 0.200870 0.650210
Si Si2 0.185857 0.199463 0.804493
Si Si3 0.309052 0.099822 0.343100
Si Si4 0.321946 0.141459 0.499573
Si Si5 0.322647 0.143478 0.954373
Si Si6 0.814684 0.899364 0.105058
O O1 0.500000 0.195541 0.650412
O O2 0.755239 0.166709 0.726208
O O3 0.749441 0.143943 0.579883
O O4 0.733055 0.308728 0.637815
O O5 0.240383 0.306912 0.810051
O O6 0.257953 0.144192 0.872704
O O7 0.000000 0.195803 0.809462
O O8 0.500000 0.108735 0.343319
O O9 0.252238 0.097779 0.427287
O O10 0.269562 0.000000 0.309900
O O11 0.500000 0.106133 0.506394
O O12 0.330497 0.248806 0.476766
O O13 0.500000 0.107337 0.957389
O O14 0.217943 0.101872 0.018253
O O15 0.000000 0.891424 0.118389
O O16 0.759158 0.000000 0.132011
#
# Coordination Sequence:
#
# PCOD9356855 Si02
#       6
#     8   8   8   8   8   8
#     4  10  19  32  50  70  96 131 169 204 240 289
#     4  11  21  32  48  71 100 130 163 205 250 292
#     4   9  17  31  51  73  97 125 157 194 240 296
#     4   7  13  27  47  69  89 115 155 199 234 271
#     4   9  17  32  52  71  93 125 168 206 238 288
#     4  10  20  33  50  75 105 132 160 199 248 297
#
# _framework density 21.115013999999999
#
# number of rings (size 3 to 8) (size 9 to 14) (size 15 to 20)
#    0.000    2.667    0.000    5.000    0.000    2.333 
#    0.000    0.833    0.000    1.000    0.000    2.333 
#    0.000    0.000    0.000    0.000    0.000    0.000 
#
# Total GULP energy -133787.265157 kJ/mol
# GULP energy per Si atom -5574.469382 kJ/mol
# Density = 2.106696 g / cm^3
# Si number density = 21.115014 Si / 1000 Ang^3
#
#
#
# Elastic Constant Matrix: (Units=GPa)
#
#
# Indices 1 2 3 4 5 6 
#
# 1 48.9794 -8.1884 5.0239 0.0000 0.0000 0.0000
# 2 -8.1884 34.0016 -16.7879 0.0000 0.0000 0.0000
# 3 5.0239 -16.7879 137.5464 0.0000 0.0000 0.0000
# 4 0.0000 0.0000 0.0000 2.5993 0.0000 0.0000
# 5 0.0000 0.0000 0.0000 0.0000 25.6389 0.0000
# 6 0.0000 0.0000 0.0000 0.0000 0.0000 12.1987
#
#
#
# Elastic Compliance Matrix: (Units=1/GPa)
#
#
# Indices 1 2 3 4 5 6 
#
# 1 0.021277 0.005044 -0.000161 0.000000 0.000000 0.000000
# 2 0.005044 0.032492 0.003782 0.000000 0.000000 0.000000
# 3 -0.000161 0.003782 0.007738 0.000000 0.000000 0.000000
# 4 0.000000 0.000000 0.000000 0.384712 0.000000 0.000000
# 5 0.000000 0.000000 0.000000 0.000000 0.039003 0.000000
# 6 0.000000 0.000000 0.000000 0.000000 0.000000 0.081976
#
#
# Mechanical properties :
#
#
# Convention : Reuss Voigt Hill
#
# Bulk Modulus (GPa) = 12.68475 20.06920 16.37698
# Shear Modulus (GPa) = 8.67833 24.11937 16.39885
#
# Velocity S-wave (km/s) = 2.02952 3.38344 2.78986
# Velocity P-wave (km/s) = 3.39300 4.97884 4.26036
#
# Compressibility (1/GPa) = 0.07883483
#
# Stress axis : x y z
#
# Youngs Moduli (GPa) = 47.00004 30.77663 129.23714
#
# Poissons Ratio (x) = -0.15524 0.02087
# Poissons Ratio (y) = -0.23708 -0.48871
# Poissons Ratio (z) = 0.00759 -0.11638
#
# Static dielectric constant tensor:
#      x y z
#    x 1.719360 0.000000 0.000000 
#    y 0.000000 1.804500 0.000000 
#    z 0.000000 0.000000 1.804120 
# 
# From -- ./inp_files/16849.got.cif
#   From: 2010.05.17/outbox.cif.g08.bks.cpg/sg38_9_cif.got.tgz:16849.got - 2010.06.03 18:07:57.
