data_PCOD9356993
_publ_section_title
;
Structure prediction by ZEFSAII (Michael W. Deem and Ramdas Pophale) SiO2 
 PCOD9356993
Probable space group: A M M 2
;
_chemical_formula_sum "Si O2"
_cell_formula_units_Z 56
_cell_length_a 34.657105
_cell_length_b 15.014197
_cell_length_c 5.175978
_cell_angle_alpha 90.000000
_cell_angle_beta 90.000000
_cell_angle_gamma 90.000000
_cell_volume 2693.312916
_symmetry_space_group_name_H-M "A M M 2"
_symmetry_group_IT_number 38
_symmetry_cell_setting 'orthorhombic'
loop_
_space_group_symop_operation_xyz
x,y,z
-x,-y,z
-x,y,z
x,-y,z
x,1/2+y,1/2+z
-x,1/2-y,1/2+z
-x,1/2+y,1/2+z
x,1/2-y,1/2+z
loop_
_atom_site_type_symbol
_atom_site_label
_atom_site_fract_x
_atom_site_fract_y
_atom_site_fract_z
Si Si1 0.334252 0.392796 0.748370
Si Si2 0.746291 0.808622 0.387183
Si Si3 0.956030 0.609098 0.391935
Si Si4 0.457268 0.309063 0.387918
Si Si5 0.910278 0.107117 0.394621
Si Si6 0.377413 0.893299 0.748327
Si Si7 0.171084 0.808106 0.274450
O O1 0.335900 0.500000 0.741618
O O2 0.291427 0.364834 0.825173
O O3 0.348212 0.359630 0.469534
O O4 0.363874 0.360182 0.968777
O O5 0.745477 0.772543 0.679460
O O6 0.787705 0.854089 0.332031
O O7 0.956551 0.500000 0.387538
O O8 0.938841 0.636362 0.666369
O O9 0.000000 0.638484 0.352106
O O10 0.927342 0.639204 0.166212
O O11 0.500000 0.350573 0.354803
O O12 0.455113 0.270313 0.676825
O O13 0.420664 0.368928 0.325614
O O14 0.867142 0.137496 0.335646
O O15 0.910774 0.000000 0.399328
O O16 0.374463 0.000000 0.741437
O O17 0.170586 0.726459 0.480488
#
# Coordination Sequence:
#
# PCOD9356993 Si02
#       7
#     8   8   8   8   8   8   8
#     4  10  21  36  54  79 109 136 168 215 262 303
#     4  10  21  36  55  78 102 135 176 209 249 309
#     4   9  17  30  50  77 105 130 164 213 257 294
#     4  10  21  36  54  78 106 137 177 221 259 298
#     4  10  19  32  54  79  99 130 175 211 247 301
#     4  10  21  36  54  78 107 139 172 208 260 316
#     4  10  21  37  54  74 105 139 168 207 258 305
#
# _framework density 20.792238999999999
#
# number of rings (size 3 to 8) (size 9 to 14) (size 15 to 20)
#    0.000    2.143    0.000    3.000    0.000    6.000 
#    0.000    0.000    0.000   24.000    0.000    0.000 
#    0.000    0.000    0.000    0.000    0.000    0.000 
#
# Total GULP energy -156400.748512 kJ/mol
# GULP energy per Si atom -5585.741018 kJ/mol
# Density = 2.074491 g / cm^3
# Si number density = 20.792239 Si / 1000 Ang^3
#
#
#
# Elastic Constant Matrix: (Units=GPa)
#
#
# Indices 1 2 3 4 5 6 
#
# 1 104.6433 -0.0032 -8.0258 0.0000 0.0000 0.0000
# 2 -0.0032 18.3377 -2.6603 0.0000 0.0000 0.0000
# 3 -8.0258 -2.6603 69.0162 0.0000 0.0000 0.0000
# 4 0.0000 0.0000 0.0000 4.5654 0.0000 0.0000
# 5 0.0000 0.0000 0.0000 0.0000 35.6141 0.0000
# 6 0.0000 0.0000 0.0000 0.0000 0.0000 37.0332
#
#
#
# Elastic Compliance Matrix: (Units=1/GPa)
#
#
# Indices 1 2 3 4 5 6 
#
# 1 0.009643 0.000165 0.001128 0.000000 0.000000 0.000000
# 2 0.000165 0.054842 0.002133 0.000000 0.000000 0.000000
# 3 0.001128 0.002133 0.014703 0.000000 0.000000 0.000000
# 4 0.000000 0.000000 0.000000 0.219039 0.000000 0.000000
# 5 0.000000 0.000000 0.000000 0.000000 0.028079 0.000000
# 6 0.000000 0.000000 0.000000 0.000000 0.000000 0.027003
#
#
# Mechanical properties :
#
#
# Convention : Reuss Voigt Hill
#
# Bulk Modulus (GPa) = 11.62255 18.95761 15.29008
# Shear Modulus (GPa) = 13.32853 28.95499 21.14176
#
# Velocity S-wave (km/s) = 2.53461 3.73579 3.19221
# Velocity P-wave (km/s) = 3.76399 5.26741 4.57784
#
# Compressibility (1/GPa) = 0.08603964
#
# Stress axis : x y z
#
# Youngs Moduli (GPa) = 103.70461 18.23426 68.01463
#
# Poissons Ratio (x) = -0.00301 -0.07670
# Poissons Ratio (y) = -0.01714 -0.14509
# Poissons Ratio (z) = -0.11695 -0.03890
#
# Static dielectric constant tensor:
#      x y z
#    x 1.733510 0.000000 0.000000 
#    y 0.000000 1.739510 0.000000 
#    z 0.000000 0.000000 1.729200 
# 
# From -- ./inp_files/2279.got.cif
#   From: 2010.05.17/outbox.cif.g08.bks.cpg/sg38_2_cif.got.tgz:2279.got - 2010.06.03 18:07:57.
