data_PCOD9356107
_publ_section_title
;
Structure prediction by ZEFSAII (Michael W. Deem and Ramdas Pophale) SiO2 
 PCOD9356107
Probable space group: A M M 2
;
_chemical_formula_sum "Si O2"
_cell_formula_units_Z 64
_cell_length_a 20.250727
_cell_length_b 8.662428
_cell_length_c 20.815400
_cell_angle_alpha 90.000000
_cell_angle_beta 90.000000
_cell_angle_gamma 90.000000
_cell_volume 3651.447139
_symmetry_space_group_name_H-M "A M M 2"
_symmetry_group_IT_number 38
_symmetry_cell_setting 'orthorhombic'
loop_
_space_group_symop_operation_xyz
x,y,z
-x,-y,z
-x,y,z
x,-y,z
x,1/2+y,1/2+z
-x,1/2-y,1/2+z
-x,1/2+y,1/2+z
x,1/2-y,1/2+z
loop_
_atom_site_type_symbol
_atom_site_label
_atom_site_fract_x
_atom_site_fract_y
_atom_site_fract_z
Si Si1 0.076598 0.814994 0.757300
Si Si2 0.151623 0.184597 0.133889
Si Si3 0.283668 0.314625 0.434192
Si Si4 0.570964 0.313934 0.437749
Si Si5 0.847839 0.182155 0.379852
Si Si6 0.284016 0.685924 0.080100
Si Si7 0.429139 0.814098 0.582689
Si Si8 0.921904 0.316438 0.501280
O O1 0.114195 0.750823 0.695242
O O2 0.114525 0.759347 0.820606
O O3 0.000000 0.762943 0.758273
O O4 0.077008 0.000000 0.755461
O O5 0.224354 0.252803 0.122937
O O6 0.110328 0.222730 0.069534
O O7 0.155492 0.000000 0.138917
O O8 0.277789 0.500000 0.436318
O O9 0.357483 0.271757 0.409781
O O10 0.225647 0.246637 0.391162
O O11 0.276829 0.252473 0.507507
O O12 0.500000 0.271300 0.406887
O O13 0.571565 0.500000 0.444141
O O14 0.570529 0.240763 0.508717
O O15 0.887512 0.223711 0.444558
O O16 0.845593 0.000000 0.370319
O O17 0.281406 0.500000 0.076178
O O18 0.356592 0.734093 0.106593
O O19 0.500000 0.760434 0.611003
O O20 0.429629 0.000000 0.584592
O O21 0.910873 0.500000 0.489859
O O22 0.000000 0.289185 0.502520
#
# Coordination Sequence:
#
# PCOD9356107 Si02
#       8
#     8   8   8   8   8   8   8   8
#     4  11  25  44  63  81 106 139 177 223 273 327
#     4  11  22  37  58  82 110 144 179 219 270 323
#     4  10  18  30  49  74 107 144 180 221 269 316
#     4   8  14  24  40  65  98 136 176 216 259 309
#     4  12  24  37  56  81 109 142 181 223 268 321
#     4  10  18  29  48  76 108 142 182 224 266 314
#     4   8  14  24  39  63  99 140 177 215 260 308
#     4  10  21  37  57  80 107 139 174 215 267 322
#
# _framework density 17.527297999999998
#
# number of rings (size 3 to 8) (size 9 to 14) (size 15 to 20)
#    0.000    2.000    1.250    3.375    0.000    4.750 
#    0.000    0.000    0.000    0.000    0.000    0.875 
#    0.000    7.000    0.000    0.000    0.000    0.000 
#
# Total GULP energy -178424.980442 kJ/mol
# GULP energy per Si atom -5575.780639 kJ/mol
# Density = 1.748740 g / cm^3
# Si number density = 17.527298 Si / 1000 Ang^3
#
#
#
# Elastic Constant Matrix: (Units=GPa)
#
#
# Indices 1 2 3 4 5 6 
#
# 1 174.7347 33.9320 46.1858 0.0000 0.0000 0.0000
# 2 33.9320 39.0673 23.7732 0.0000 0.0000 0.0000
# 3 46.1858 23.7732 66.7570 0.0000 0.0000 0.0000
# 4 0.0000 0.0000 0.0000 24.9924 0.0000 0.0000
# 5 0.0000 0.0000 0.0000 0.0000 -56.3157 0.0000
# 6 0.0000 0.0000 0.0000 0.0000 0.0000 21.5567
#
#
#
# Elastic Compliance Matrix: (Units=1/GPa)
#
#
# Indices 1 2 3 4 5 6 
#
# 1 0.007531 -0.004303 -0.003678 0.000000 0.000000 0.000000
# 2 -0.004303 0.035137 -0.009536 0.000000 0.000000 0.000000
# 3 -0.003678 -0.009536 0.020920 0.000000 0.000000 0.000000
# 4 0.000000 0.000000 0.000000 0.040012 0.000000 0.000000
# 5 0.000000 0.000000 0.000000 0.000000 -0.017757 0.000000
# 6 0.000000 0.000000 0.000000 0.000000 0.000000 0.046389
#
#
# Mechanical properties :
#
#
# Convention : Reuss Voigt Hill
#
# Bulk Modulus (GPa) = 35.02063 54.26013 44.64038
# Shear Modulus (GPa) = 28.28328 9.82455 19.05392
#
# Velocity S-wave (km/s) = 4.02141 2.37012 3.30070
# Velocity P-wave (km/s) = 6.44875 6.20602 6.32854
#
# Compressibility (1/GPa) = 0.02855460
#
# Stress axis : x y z
#
# Youngs Moduli (GPa) = 132.79100 28.46020 47.80102
#
# Poissons Ratio (x) = 0.12246 0.17580
# Poissons Ratio (y) = 0.57137 0.45583
# Poissons Ratio (z) = 0.48838 0.27139
#
# Static dielectric constant tensor:
#      x y z
#    x 1.667850 0.000000 0.000000 
#    y 0.000000 1.589180 0.000000 
#    z 0.000000 0.000000 1.560560 
# 
# From -- ./inp_files/18847.got.cif
#   From: 2010.05.17/outbox.cif.g08.bks.cpg/sg38_10_cif.got.tgz:18847.got - 2010.06.03 18:07:57.
