data_PCOD9356834
_publ_section_title
;
Structure prediction by ZEFSAII (Michael W. Deem and Ramdas Pophale) SiO2 
 PCOD9356834
Probable space group: A M M 2
;
_chemical_formula_sum "Si O2"
_cell_formula_units_Z 40
_cell_length_a 7.743103
_cell_length_b 8.188030
_cell_length_c 29.629940
_cell_angle_alpha 90.000000
_cell_angle_beta 90.000000
_cell_angle_gamma 90.000000
_cell_volume 1878.560705
_symmetry_space_group_name_H-M "A M M 2"
_symmetry_group_IT_number 38
_symmetry_cell_setting 'orthorhombic'
loop_
_space_group_symop_operation_xyz
x,y,z
-x,-y,z
-x,y,z
x,-y,z
x,1/2+y,1/2+z
-x,1/2-y,1/2+z
-x,1/2+y,1/2+z
x,1/2-y,1/2+z
loop_
_atom_site_type_symbol
_atom_site_label
_atom_site_fract_x
_atom_site_fract_y
_atom_site_fract_z
Si Si1 0.201420 0.000000 0.112100
Si Si2 0.296844 0.323277 0.057236
Si Si3 0.212466 0.500000 0.713536
Si Si4 0.209031 0.813945 0.962090
Si Si5 0.210709 0.811725 0.364713
Si Si6 0.789051 0.819689 0.768984
O O1 0.237551 0.836464 0.083958
O O2 0.279147 0.000000 0.162249
O O3 0.000000 0.000000 0.120181
O O4 0.500000 0.330530 0.064556
O O5 0.220737 0.500000 0.070687
O O6 0.264490 0.294490 0.004173
O O7 0.266812 0.334864 0.739287
O O8 0.000000 0.500000 0.714867
O O9 0.269392 0.754072 0.913133
O O10 0.000000 0.812881 0.961469
O O11 0.266301 0.000000 0.969931
O O12 0.264579 0.710793 0.320863
O O13 0.000000 0.807012 0.365466
O O14 0.261449 0.000000 0.359013
O O15 0.000000 0.818708 0.768430
O O16 0.733308 0.000000 0.753672
#
# Coordination Sequence:
#
# PCOD9356834 Si02
#       6
#     4   8   4   8   8   8
#     4  11  23  39  61  87 115 149 193 249 300 343
#     4  11  24  41  60  82 112 152 195 238 291 354
#     4   9  18  31  47  73 107 143 183 227 286 339
#     4  10  19  31  51  82 115 148 188 234 283 332
#     4   9  15  24  41  69 108 148 183 221 267 326
#     4   9  15  25  42  66 103 146 181 217 267 331
#
# _framework density 21.292898000000001
#
# number of rings (size 3 to 8) (size 9 to 14) (size 15 to 20)
#    0.000    2.200    2.000    2.100    0.000    5.600 
#    0.000    2.000    0.000    0.000    0.000    2.800 
#    0.000    3.200    0.000    0.000    0.000    0.000 
#
# Total GULP energy -111673.241923 kJ/mol
# GULP energy per Si atom -5583.662096 kJ/mol
# Density = 2.124443 g / cm^3
# Si number density = 21.292898 Si / 1000 Ang^3
#
#
#
# Elastic Constant Matrix: (Units=GPa)
#
#
# Indices 1 2 3 4 5 6 
#
# 1 28.0873 7.9350 0.3593 0.0000 0.0000 0.0000
# 2 7.9350 208.0601 86.0878 0.0000 0.0000 0.0000
# 3 0.3593 86.0878 145.8718 0.0000 0.0000 0.0000
# 4 0.0000 0.0000 0.0000 28.3231 0.0000 0.0000
# 5 0.0000 0.0000 0.0000 0.0000 -50.5322 0.0000
# 6 0.0000 0.0000 0.0000 0.0000 0.0000 -103.1915
#
#
#
# Elastic Compliance Matrix: (Units=1/GPa)
#
#
# Indices 1 2 3 4 5 6 
#
# 1 0.036092 -0.001773 0.000957 0.000000 0.000000 0.000000
# 2 -0.001773 0.006446 -0.003800 0.000000 0.000000 0.000000
# 3 0.000957 -0.003800 0.009096 0.000000 0.000000 0.000000
# 4 0.000000 0.000000 0.000000 0.035307 0.000000 0.000000
# 5 0.000000 0.000000 0.000000 0.000000 -0.019789 0.000000
# 6 0.000000 0.000000 0.000000 0.000000 0.000000 -0.009691
#
#
# Mechanical properties :
#
#
# Convention : Reuss Voigt Hill
#
# Bulk Modulus (GPa) = 23.58325 63.42036 43.50181
# Shear Modulus (GPa) = 61.86200 -5.90431 27.97885
#
# Velocity S-wave (km/s) = 5.39592 -1.66701 3.62884
# Velocity P-wave (km/s) = 7.06548 5.11314 6.16705
#
# Compressibility (1/GPa) = 0.04240297
#
# Stress axis : x y z
#
# Youngs Moduli (GPa) = 27.70716 155.13087 109.94408
#
# Poissons Ratio (x) = 0.27497 -0.10524
# Poissons Ratio (y) = 0.04911 0.41778
# Poissons Ratio (z) = -0.02652 0.58948
#
# Static dielectric constant tensor:
#      x y z
#    x 1.785720 0.000000 0.000000 
#    y 0.000000 1.755530 0.000000 
#    z 0.000000 0.000000 1.751230 
# 
# From -- ./inp_files/23205.got.cif
#   From: 2010.05.17/outbox.cif.g08.bks.cpg/sg38_12_cif.got.tgz:23205.got - 2010.06.03 18:07:57.
