data_PCOD9356405
_publ_section_title
;
Structure prediction by ZEFSAII (Michael W. Deem and Ramdas Pophale) SiO2 
 PCOD9356405
Probable space group: A M M 2
;
_chemical_formula_sum "Si O2"
_cell_formula_units_Z 32
_cell_length_a 7.950332
_cell_length_b 8.635388
_cell_length_c 24.464190
_cell_angle_alpha 90.000000
_cell_angle_beta 90.000000
_cell_angle_gamma 90.000000
_cell_volume 1679.569431
_symmetry_space_group_name_H-M "A M M 2"
_symmetry_group_IT_number 38
_symmetry_cell_setting 'orthorhombic'
loop_
_space_group_symop_operation_xyz
x,y,z
-x,-y,z
-x,y,z
x,-y,z
x,1/2+y,1/2+z
-x,1/2-y,1/2+z
-x,1/2+y,1/2+z
x,1/2-y,1/2+z
loop_
_atom_site_type_symbol
_atom_site_label
_atom_site_fract_x
_atom_site_fract_y
_atom_site_fract_z
Si Si1 0.687890 0.311220 0.793390
Si Si2 0.000000 0.687770 0.719128
Si Si3 0.688796 0.315388 0.528863
Si Si4 0.798658 0.315613 0.914480
Si Si5 0.000000 0.183751 0.597082
O O1 0.500000 0.261636 0.777903
O O2 0.691052 0.500000 0.793321
O O3 0.728881 0.264914 0.855666
O O4 0.834581 0.260763 0.752524
O O5 0.000000 0.500000 0.718340
O O6 0.000000 0.747419 0.657744
O O7 0.500000 0.266452 0.544957
O O8 0.700871 0.500000 0.534796
O O9 0.719177 0.270306 0.465801
O O10 0.835215 0.239356 0.564424
O O11 0.765991 0.500000 0.920295
O O12 0.000000 0.294100 0.914961
O O13 0.000000 0.000000 0.599331
#
# Coordination Sequence:
#
# PCOD9356405 Si02
#       5
#     8   4   8   8   4
#     4   9  17  31  55  86 118 152 190 233 283 342
#     4  10  20  37  58  81 111 150 200 246 285 336
#     4  11  24  41  62  89 120 156 197 243 297 353
#     4  10  18  32  58  91 123 157 192 233 288 347
#     4  12  26  43  62  85 115 156 202 248 301 352
#
# _framework density 19.052503999999999
#
# number of rings (size 3 to 8) (size 9 to 14) (size 15 to 20)
#    0.000    1.750    2.500    2.625    0.000    4.000 
#    0.000    3.750    0.000    1.500    0.000    0.000 
#    0.000    0.000    0.000    0.000    0.000    0.000 
#
# Total GULP energy -89394.442801 kJ/mol
# GULP energy per Si atom -5587.152675 kJ/mol
# Density = 1.900914 g / cm^3
# Si number density = 19.052504 Si / 1000 Ang^3
#
#
#
# Elastic Constant Matrix: (Units=GPa)
#
#
# Indices 1 2 3 4 5 6 
#
# 1 177.4841 43.2737 92.3376 0.0000 0.0000 0.0000
# 2 43.2737 29.9032 25.4261 0.0000 0.0000 0.0000
# 3 92.3376 25.4261 150.3313 0.0000 0.0000 0.0000
# 4 0.0000 0.0000 0.0000 30.8931 0.0000 0.0000
# 5 0.0000 0.0000 0.0000 0.0000 -1.7789 0.0000
# 6 0.0000 0.0000 0.0000 0.0000 0.0000 2.8818
#
#
#
# Elastic Compliance Matrix: (Units=1/GPa)
#
#
# Indices 1 2 3 4 5 6 
#
# 1 0.011002 -0.011884 -0.004748 0.000000 0.000000 0.000000
# 2 -0.011884 0.051896 -0.001478 0.000000 0.000000 0.000000
# 3 -0.004748 -0.001478 0.009818 0.000000 0.000000 0.000000
# 4 0.000000 0.000000 0.000000 0.032370 0.000000 0.000000
# 5 0.000000 0.000000 0.000000 0.000000 -0.562150 0.000000
# 6 0.000000 0.000000 0.000000 0.000000 0.000000 0.347009
#
#
# Mechanical properties :
#
#
# Convention : Reuss Voigt Hill
#
# Bulk Modulus (GPa) = 27.39993 75.53259 51.46626
# Shear Modulus (GPa) = -81.07535 19.51127 -30.78204
#
# Velocity S-wave (km/s) = -6.53039 3.20360 -4.02387
# Velocity P-wave (km/s) = 6.51528 7.30852 2.34154
#
# Compressibility (1/GPa) = 0.03649645
#
# Stress axis : x y z
#
# Youngs Moduli (GPa) = 90.89337 19.26942 101.85348
#
# Poissons Ratio (x) = 0.22900 0.48356
# Poissons Ratio (y) = 1.08020 0.15050
# Poissons Ratio (z) = 0.43153 0.02847
#
# Static dielectric constant tensor:
#      x y z
#    x 1.670690 0.000000 0.000000 
#    y 0.000000 1.647820 0.000000 
#    z 0.000000 0.000000 1.623160 
# 
# From -- ./inp_files/21633.got.cif
#   From: 2010.05.17/outbox.cif.g08.bks.cpg/sg38_11_cif.got.tgz:21633.got - 2010.06.03 18:07:57.
