data_PCOD9356259
_publ_section_title
;
Structure prediction by ZEFSAII (Michael W. Deem and Ramdas Pophale) SiO2 
 PCOD9356259
Probable space group: A M M 2
;
_chemical_formula_sum "Si O2"
_cell_formula_units_Z 64
_cell_length_a 8.488337
_cell_length_b 31.369980
_cell_length_c 15.005589
_cell_angle_alpha 90.000000
_cell_angle_beta 90.000000
_cell_angle_gamma 90.000000
_cell_volume 3995.672662
_symmetry_space_group_name_H-M "A M M 2"
_symmetry_group_IT_number 38
_symmetry_cell_setting 'orthorhombic'
loop_
_space_group_symop_operation_xyz
x,y,z
-x,-y,z
-x,y,z
x,-y,z
x,1/2+y,1/2+z
-x,1/2-y,1/2+z
-x,1/2+y,1/2+z
x,1/2-y,1/2+z
loop_
_atom_site_type_symbol
_atom_site_label
_atom_site_fract_x
_atom_site_fract_y
_atom_site_fract_z
Si Si1 0.690368 0.048262 0.849550
Si Si2 0.309689 0.131566 0.121573
Si Si3 0.690454 0.274352 0.940418
Si Si4 0.690672 0.367159 0.258313
Si Si5 0.690853 0.712537 0.736868
Si Si6 0.813444 0.703700 0.129617
Si Si7 0.308771 0.323433 0.442029
Si Si8 0.811742 0.548699 0.549768
O O1 0.500000 0.049169 0.852394
O O2 0.739522 0.084112 0.778360
O O3 0.741831 0.000000 0.828439
O O4 0.746906 0.058293 0.950060
O O5 0.500000 0.130020 0.123325
O O6 0.260278 0.167803 0.191838
O O7 0.247642 0.083458 0.120603
O O8 0.254849 0.150000 0.026353
O O9 0.500000 0.276744 0.943402
O O10 0.756220 0.297260 0.027424
O O11 0.739919 0.287043 0.840493
O O12 0.739308 0.225178 0.951120
O O13 0.500000 0.366023 0.251760
O O14 0.758677 0.339474 0.178453
O O15 0.740041 0.342549 0.348310
O O16 0.500000 0.714537 0.734207
O O17 0.746532 0.754398 0.682045
O O18 0.000000 0.707005 0.132544
O O19 0.500000 0.324440 0.442942
O O20 0.762377 0.500000 0.570417
O O21 0.000000 0.550120 0.545887
#
# Coordination Sequence:
#
# PCOD9356259 Si02
#       8
#     8   8   8   8   8   8   8   8
#     4   9  17  30  50  74  97 125 165 209 248 288
#     4  10  18  31  50  74  97 125 168 208 242 287
#     4  10  19  35  53  68  94 132 171 207 242 287
#     4  10  18  32  50  70  97 134 170 199 241 293
#     4  10  20  35  55  74  94 128 171 208 246 293
#     4  12  24  33  46  73 104 132 165 204 245 291
#     4   9  15  26  49  73  94 124 163 201 238 282
#     4  10  20  31  44  68 103 137 164 194 241 299
#
# _framework density 16.017327999999999
#
# number of rings (size 3 to 8) (size 9 to 14) (size 15 to 20)
#    0.000    2.000    3.750    1.500    0.000    2.250 
#    0.000    0.000    0.000    0.000    0.000    0.875 
#    0.000    3.000    0.000    0.000    0.000    0.000 
#
# Total GULP energy -178355.952013 kJ/mol
# GULP energy per Si atom -5573.623500 kJ/mol
# Density = 1.598087 g / cm^3
# Si number density = 16.017328 Si / 1000 Ang^3
#
#
#
# Elastic Constant Matrix: (Units=GPa)
#
#
# Indices 1 2 3 4 5 6 
#
# 1 18.7982 23.0511 21.2600 0.0000 0.0000 0.0000
# 2 23.0511 120.8931 47.7382 0.0000 0.0000 0.0000
# 3 21.2600 47.7382 84.8550 0.0000 0.0000 0.0000
# 4 0.0000 0.0000 0.0000 23.8224 0.0000 0.0000
# 5 0.0000 0.0000 0.0000 0.0000 -0.4785 0.0000
# 6 0.0000 0.0000 0.0000 0.0000 0.0000 12.1174
#
#
#
# Elastic Compliance Matrix: (Units=1/GPa)
#
#
# Indices 1 2 3 4 5 6 
#
# 1 0.082212 -0.009696 -0.015143 0.000000 0.000000 0.000000
# 2 -0.009696 0.011778 -0.004197 0.000000 0.000000 0.000000
# 3 -0.015143 -0.004197 0.017940 0.000000 0.000000 0.000000
# 4 0.000000 0.000000 0.000000 0.041977 0.000000 0.000000
# 5 0.000000 0.000000 0.000000 0.000000 -2.089676 0.000000
# 6 0.000000 0.000000 0.000000 0.000000 0.000000 0.082526
#
#
# Mechanical properties :
#
#
# Convention : Reuss Voigt Hill
#
# Bulk Modulus (GPa) = 18.56719 45.40497 31.98608
# Shear Modulus (GPa) = -2.81339 15.92538 6.55600
#
# Velocity S-wave (km/s) = -1.32675 3.15661 2.02533
# Velocity P-wave (km/s) = 3.04468 6.45713 5.04800
#
# Compressibility (1/GPa) = 0.05385845
#
# Stress axis : x y z
#
# Youngs Moduli (GPa) = 12.16360 84.90603 55.74191
#
# Poissons Ratio (x) = 0.82325 0.84411
# Poissons Ratio (y) = 0.11794 0.23393
# Poissons Ratio (z) = 0.18419 0.35632
#
# Static dielectric constant tensor:
#      x y z
#    x 1.544300 0.000000 0.000000 
#    y 0.000000 1.564640 0.000000 
#    z 0.000000 0.000000 1.526730 
# 
# From -- ./inp_files/13059.got.cif
#   From: 2010.05.17/outbox.cif.g08.bks.cpg/sg38_7_cif.got.tgz:13059.got - 2010.06.03 18:07:57.
