data_PCOD9356121
_publ_section_title
;
Structure prediction by ZEFSAII (Michael W. Deem and Ramdas Pophale) SiO2 
 PCOD9356121
Probable space group: A M M 2
;
_chemical_formula_sum "Si O2"
_cell_formula_units_Z 56
_cell_length_a 20.060310
_cell_length_b 9.868565
_cell_length_c 14.901465
_cell_angle_alpha 90.000000
_cell_angle_beta 90.000000
_cell_angle_gamma 90.000000
_cell_volume 2949.990471
_symmetry_space_group_name_H-M "A M M 2"
_symmetry_group_IT_number 38
_symmetry_cell_setting 'orthorhombic'
loop_
_space_group_symop_operation_xyz
x,y,z
-x,-y,z
-x,y,z
x,-y,z
x,1/2+y,1/2+z
-x,1/2-y,1/2+z
-x,1/2+y,1/2+z
x,1/2-y,1/2+z
loop_
_atom_site_type_symbol
_atom_site_label
_atom_site_fract_x
_atom_site_fract_y
_atom_site_fract_z
Si Si1 0.422848 0.340103 0.506400
Si Si2 0.654926 0.342065 0.871142
Si Si3 0.678407 0.156449 0.168264
Si Si4 0.195527 0.155606 0.636645
Si Si5 0.804776 0.154860 0.418942
Si Si6 0.924156 0.654540 0.636268
Si Si7 0.074729 0.156017 0.917180
O O1 0.500000 0.310655 0.526447
O O2 0.417601 0.500000 0.484765
O O3 0.395398 0.249510 0.426008
O O4 0.374691 0.314355 0.590758
O O5 0.650301 0.500000 0.899478
O O6 0.644413 0.334480 0.765103
O O7 0.731483 0.298200 0.889441
O O8 0.739985 0.258577 0.163859
O O9 0.702193 0.000000 0.157144
O O10 0.194831 0.154083 0.527543
O O11 0.129593 0.236069 0.666475
O O12 0.197309 0.000000 0.667416
O O13 0.865222 0.248541 0.387418
O O14 0.813557 0.000000 0.387560
O O15 0.907073 0.500000 0.662839
O O16 0.924166 0.656382 0.526743
O O17 0.000000 0.683909 0.664611
O O18 0.000000 0.200290 0.890596
O O19 0.084233 0.000000 0.889216
#
# Coordination Sequence:
#
# PCOD9356121 Si02
#       7
#     8   8   8   8   8   8   8
#     4  10  22  40  61  87 116 144 179 224 273 327
#     4  10  21  38  59  85 114 148 189 228 272 328
#     4  10  21  37  59  83 112 150 188 226 270 328
#     4  10  18  29  49  76 109 144 183 234 284 329
#     4   9  17  29  47  73 105 139 179 226 274 324
#     4   8  14  25  42  67 101 141 186 232 279 334
#     4   8  14  24  40  66  99 136 180 225 271 326
#
# _framework density 18.983111999999998
#
# number of rings (size 3 to 8) (size 9 to 14) (size 15 to 20)
#    0.000    2.714    1.429    1.286    0.000    3.143 
#    0.000    4.286    0.000    0.857    0.000    2.000 
#    0.000    0.000    0.000    0.000    0.000    0.000 
#
# Total GULP energy -156265.526884 kJ/mol
# GULP energy per Si atom -5580.911674 kJ/mol
# Density = 1.893991 g / cm^3
# Si number density = 18.983112 Si / 1000 Ang^3
#
#
#
# Elastic Constant Matrix: (Units=GPa)
#
#
# Indices 1 2 3 4 5 6 
#
# 1 118.5239 87.6282 21.7577 0.0000 0.0000 0.0000
# 2 87.6282 102.4869 30.6126 0.0000 0.0000 0.0000
# 3 21.7577 30.6126 42.4816 0.0000 0.0000 0.0000
# 4 0.0000 0.0000 0.0000 14.4731 0.0000 0.0000
# 5 0.0000 0.0000 0.0000 0.0000 -9.7580 0.0000
# 6 0.0000 0.0000 0.0000 0.0000 0.0000 34.2667
#
#
#
# Elastic Compliance Matrix: (Units=1/GPa)
#
#
# Indices 1 2 3 4 5 6 
#
# 1 0.023248 -0.020797 0.003080 0.000000 0.000000 0.000000
# 2 -0.020797 0.031039 -0.011715 0.000000 0.000000 0.000000
# 3 0.003080 -0.011715 0.030404 0.000000 0.000000 0.000000
# 4 0.000000 0.000000 0.000000 0.069094 0.000000 0.000000
# 5 0.000000 0.000000 0.000000 0.000000 -0.102480 0.000000
# 6 0.000000 0.000000 0.000000 0.000000 0.000000 0.029183
#
#
# Mechanical properties :
#
#
# Convention : Reuss Voigt Hill
#
# Bulk Modulus (GPa) = 38.72095 60.38771 49.55433
# Shear Modulus (GPa) = 33.79288 16.02929 24.91109
#
# Velocity S-wave (km/s) = 4.22377 2.90900 3.62647
# Velocity P-wave (km/s) = 6.65047 6.56989 6.61030
#
# Compressibility (1/GPa) = 0.02582581
#
# Stress axis : x y z
#
# Youngs Moduli (GPa) = 43.01508 32.21798 32.89025
#
# Poissons Ratio (x) = 0.67004 -0.10130
# Poissons Ratio (y) = 0.89459 0.38531
# Poissons Ratio (z) = -0.13248 0.37744
#
# Static dielectric constant tensor:
#      x y z
#    x 1.633390 0.000000 0.000000 
#    y 0.000000 1.647510 0.000000 
#    z 0.000000 0.000000 1.678830 
# 
# From -- ./inp_files/15451.got.cif
#   From: 2010.05.17/outbox.cif.g08.bks.cpg/sg38_8_cif.got.tgz:15451.got - 2010.06.03 18:07:57.
