data_PCOD9356264
_publ_section_title
;
Structure prediction by ZEFSAII (Michael W. Deem and Ramdas Pophale) SiO2 
 PCOD9356264
Probable space group: A M M 2
;
_chemical_formula_sum "Si O2"
_cell_formula_units_Z 64
_cell_length_a 7.540342
_cell_length_b 20.103126
_cell_length_c 21.665442
_cell_angle_alpha 90.000000
_cell_angle_beta 90.000000
_cell_angle_gamma 90.000000
_cell_volume 3284.144008
_symmetry_space_group_name_H-M "A M M 2"
_symmetry_group_IT_number 38
_symmetry_cell_setting 'orthorhombic'
loop_
_space_group_symop_operation_xyz
x,y,z
-x,-y,z
-x,y,z
x,-y,z
x,1/2+y,1/2+z
-x,1/2-y,1/2+z
-x,1/2+y,1/2+z
x,1/2-y,1/2+z
loop_
_atom_site_type_symbol
_atom_site_label
_atom_site_fract_x
_atom_site_fract_y
_atom_site_fract_z
Si Si1 0.209951 0.926791 0.465090
Si Si2 0.783003 0.790411 0.034830
Si Si3 0.712314 0.925878 0.609714
Si Si4 0.785623 0.573546 0.591762
Si Si5 0.205006 0.282007 0.779066
Si Si6 0.791663 0.285460 0.156552
Si Si7 0.218385 0.212099 0.414025
Si Si8 0.291653 0.574316 0.736795
O O1 0.231321 0.915154 0.538533
O O2 0.279393 0.862943 0.429257
O O3 0.000000 0.929571 0.452829
O O4 0.285403 0.000000 0.450797
O O5 0.725821 0.759195 0.970241
O O6 0.000000 0.788772 0.034021
O O7 0.726766 0.865565 0.049513
O O8 0.720938 0.746375 0.093146
O O9 0.500000 0.925795 0.610840
O O10 0.774988 0.864583 0.650857
O O11 0.774638 0.000000 0.627688
O O12 0.725064 0.500000 0.572739
O O13 0.731107 0.583549 0.663002
O O14 0.000000 0.573914 0.591667
O O15 0.285348 0.246660 0.718744
O O16 0.281038 0.267077 0.846358
O O17 0.209127 0.361635 0.768977
O O18 0.000000 0.260490 0.781535
O O19 0.000000 0.267761 0.156533
O O20 0.000000 0.211179 0.413672
O O21 0.500000 0.574945 0.750829
O O22 0.221767 0.500000 0.751975
#
# Coordination Sequence:
#
# PCOD9356264 Si02
#       8
#     8   8   8   8   8   8   8   8
#     4   9  16  28  47  70  96 128 162 191 229 283
#     4   9  15  27  48  73  97 122 156 198 238 278
#     4  10  20  32  48  73 100 125 158 200 242 282
#     4   9  16  28  49  74  98 126 161 199 237 280
#     4  10  20  33  50  72  96 127 165 201 237 281
#     4  10  18  31  51  73  95 124 161 200 242 284
#     4   9  17  29  47  70  96 125 157 197 239 281
#     4  10  20  32  46  68 100 134 163 194 237 284
#
# _framework density 19.487575
#
# number of rings (size 3 to 8) (size 9 to 14) (size 15 to 20)
#    0.000    2.500    2.500    0.750    0.000    2.500 
#    0.000    1.875    0.000    2.250    0.000    3.500 
#    0.000    2.000    0.000    0.000    0.000    0.000 
#
# Total GULP energy -178530.182666 kJ/mol
# GULP energy per Si atom -5579.068208 kJ/mol
# Density = 1.944322 g / cm^3
# Si number density = 19.487575 Si / 1000 Ang^3
#
#
#
# Elastic Constant Matrix: (Units=GPa)
#
#
# Indices 1 2 3 4 5 6 
#
# 1 47.6036 -6.5692 1.8075 0.0000 0.0000 0.0000
# 2 -6.5692 106.6135 72.7392 0.0000 0.0000 0.0000
# 3 1.8075 72.7392 134.9843 0.0000 0.0000 0.0000
# 4 0.0000 0.0000 0.0000 23.4691 0.0000 0.0000
# 5 0.0000 0.0000 0.0000 0.0000 -97.0958 0.0000
# 6 0.0000 0.0000 0.0000 0.0000 0.0000 -9.2821
#
#
#
# Elastic Compliance Matrix: (Units=1/GPa)
#
#
# Indices 1 2 3 4 5 6 
#
# 1 0.021397 0.002394 -0.001577 0.000000 0.000000 0.000000
# 2 0.002394 0.015101 -0.008170 0.000000 0.000000 0.000000
# 3 -0.001577 -0.008170 0.011832 0.000000 0.000000 0.000000
# 4 0.000000 0.000000 0.000000 0.042609 0.000000 0.000000
# 5 0.000000 0.000000 0.000000 0.000000 -0.010299 0.000000
# 6 0.000000 0.000000 0.000000 0.000000 0.000000 -0.107735
#
#
# Mechanical properties :
#
#
# Convention : Reuss Voigt Hill
#
# Bulk Modulus (GPa) = 29.73924 47.23961 38.48943
# Shear Modulus (GPa) = -4230.02993 -1.83350 -2115.93172
#
# Velocity S-wave (km/s) = -46.64056 -0.97103 -32.98700
# Velocity P-wave (km/s) = 53.71370 4.79962 37.82939
#
# Compressibility (1/GPa) = 0.03362561
#
# Stress axis : x y z
#
# Youngs Moduli (GPa) = 46.73544 66.22055 84.51848
#
# Poissons Ratio (x) = -0.15854 0.13325
# Poissons Ratio (y) = -0.11189 0.69048
# Poissons Ratio (z) = 0.07368 0.54099
#
# Static dielectric constant tensor:
#      x y z
#    x 1.743510 0.000000 0.000000 
#    y 0.000000 1.694240 0.000000 
#    z 0.000000 0.000000 1.667370 
# 
# From -- ./inp_files/20212.got.cif
#   From: 2010.05.17/outbox.cif.g08.bks.cpg/sg38_11_cif.got.tgz:20212.got - 2010.06.03 18:07:57.
