data_PCOD9356445
_publ_section_title
;
Structure prediction by ZEFSAII (Michael W. Deem and Ramdas Pophale) SiO2 
 PCOD9356445
Probable space group: A M M 2
;
_chemical_formula_sum "Si O2"
_cell_formula_units_Z 64
_cell_length_a 7.569852
_cell_length_b 32.020667
_cell_length_c 12.162313
_cell_angle_alpha 90.000000
_cell_angle_beta 90.000000
_cell_angle_gamma 90.000000
_cell_volume 2948.043847
_symmetry_space_group_name_H-M "A M M 2"
_symmetry_group_IT_number 38
_symmetry_cell_setting 'orthorhombic'
loop_
_space_group_symop_operation_xyz
x,y,z
-x,-y,z
-x,y,z
x,-y,z
x,1/2+y,1/2+z
-x,1/2-y,1/2+z
-x,1/2+y,1/2+z
x,1/2-y,1/2+z
loop_
_atom_site_type_symbol
_atom_site_label
_atom_site_fract_x
_atom_site_fract_y
_atom_site_fract_z
Si Si1 0.207006 0.044998 0.297740
Si Si2 0.295289 0.695701 0.269221
Si Si3 0.285436 0.375421 0.431614
Si Si4 0.207270 0.871328 0.186864
Si Si5 0.715498 0.453344 0.281701
Si Si6 0.713126 0.572203 0.037309
Si Si7 0.202636 0.710332 0.804132
Si Si8 0.714327 0.330405 0.031690
O O1 0.284048 0.087061 0.243934
O O2 0.219828 0.049166 0.429272
O O3 0.000000 0.044286 0.267335
O O4 0.283851 0.000000 0.264250
O O5 0.500000 0.682785 0.260124
O O6 0.223283 0.665411 0.363963
O O7 0.287960 0.744400 0.295182
O O8 0.220923 0.686853 0.148461
O O9 0.500000 0.375524 0.436755
O O10 0.222026 0.374827 0.556420
O O11 0.229054 0.416448 0.363431
O O12 0.282236 0.827471 0.231642
O O13 0.000000 0.869909 0.218816
O O14 0.500000 0.452448 0.280681
O O15 0.770358 0.500000 0.314610
O O16 0.772366 0.444279 0.156154
O O17 0.500000 0.569017 0.035955
O O18 0.760719 0.620842 0.025816
O O19 0.000000 0.716723 0.769647
O O20 0.211310 0.694318 0.928678
O O21 0.500000 0.327086 0.025315
#
# Coordination Sequence:
#
# PCOD9356445 Si02
#       8
#     8   8   8   8   8   8   8   8
#     4  10  21  38  58  80 112 153 190 227 278 334
#     4  10  22  40  60  85 116 148 187 232 282 337
#     4  10  21  38  59  83 111 148 189 230 276 332
#     4  10  23  41  56  78 113 150 187 233 281 328
#     4   9  17  32  56  86 117 145 177 225 282 331
#     4  10  18  33  59  89 117 144 180 227 280 334
#     4  11  24  40  59  84 115 149 190 234 282 335
#     4  10  20  37  62  88 116 148 184 230 283 338
#
# _framework density 21.709309999999999
#
# number of rings (size 3 to 8) (size 9 to 14) (size 15 to 20)
#    0.000    2.000    2.500    0.750    1.750    3.750 
#    0.000    0.625    0.000    0.750    0.000    0.000 
#    0.000    0.000    0.000    0.000    0.000    0.000 
#
# Total GULP energy -178765.960913 kJ/mol
# GULP energy per Si atom -5586.436279 kJ/mol
# Density = 2.165990 g / cm^3
# Si number density = 21.709310 Si / 1000 Ang^3
#
#
#
# Elastic Constant Matrix: (Units=GPa)
#
#
# Indices 1 2 3 4 5 6 
#
# 1 45.2290 -5.1465 -15.8748 0.0000 0.0000 0.0000
# 2 -5.1465 165.6933 64.6880 0.0000 0.0000 0.0000
# 3 -15.8748 64.6880 126.5574 0.0000 0.0000 0.0000
# 4 0.0000 0.0000 0.0000 41.9285 0.0000 0.0000
# 5 0.0000 0.0000 0.0000 0.0000 27.4462 0.0000
# 6 0.0000 0.0000 0.0000 0.0000 0.0000 1.2866
#
#
#
# Elastic Compliance Matrix: (Units=1/GPa)
#
#
# Indices 1 2 3 4 5 6 
#
# 1 0.023164 -0.000518 0.003170 0.000000 0.000000 0.000000
# 2 -0.000518 0.007551 -0.003925 0.000000 0.000000 0.000000
# 3 0.003170 -0.003925 0.010305 0.000000 0.000000 0.000000
# 4 0.000000 0.000000 0.000000 0.023850 0.000000 0.000000
# 5 0.000000 0.000000 0.000000 0.000000 0.036435 0.000000
# 6 0.000000 0.000000 0.000000 0.000000 0.000000 0.777229
#
#
# Mechanical properties :
#
#
# Convention : Reuss Voigt Hill
#
# Bulk Modulus (GPa) = 25.99093 47.20146 36.59619
# Shear Modulus (GPa) = 5.59344 33.71980 19.65662
#
# Velocity S-wave (km/s) = 1.60689 3.94539 3.01233
# Velocity P-wave (km/s) = 3.92951 6.52262 5.38450
#
# Compressibility (1/GPa) = 0.03847496
#
# Stress axis : x y z
#
# Youngs Moduli (GPa) = 43.17133 132.42530 97.03696
#
# Poissons Ratio (x) = 0.06863 -0.30765
# Poissons Ratio (y) = 0.02238 0.38085
# Poissons Ratio (z) = -0.13687 0.51974
#
# Static dielectric constant tensor:
#      x y z
#    x 1.828010 0.000000 0.000000 
#    y 0.000000 1.778630 0.000000 
#    z 0.000000 0.000000 1.736540 
# 
# From -- ./inp_files/8629.got.cif
#   From: 2010.05.17/outbox.cif.g08.bks.cpg/sg38_5_cif.got.tgz:8629.got - 2010.06.03 18:07:57.
