data_PCOD9356033
_publ_section_title
;
Structure prediction by ZEFSAII (Michael W. Deem and Ramdas Pophale) SiO2 
 PCOD9356033
Probable space group: A M M 2
;
_chemical_formula_sum "Si O2"
_cell_formula_units_Z 64
_cell_length_a 7.518537
_cell_length_b 15.381728
_cell_length_c 28.512319
_cell_angle_alpha 90.000000
_cell_angle_beta 90.000000
_cell_angle_gamma 90.000000
_cell_volume 3297.395265
_symmetry_space_group_name_H-M "A M M 2"
_symmetry_group_IT_number 38
_symmetry_cell_setting 'orthorhombic'
loop_
_space_group_symop_operation_xyz
x,y,z
-x,-y,z
-x,y,z
x,-y,z
x,1/2+y,1/2+z
-x,1/2-y,1/2+z
-x,1/2+y,1/2+z
x,1/2-y,1/2+z
loop_
_atom_site_type_symbol
_atom_site_label
_atom_site_fract_x
_atom_site_fract_y
_atom_site_fract_z
Si Si1 0.788060 0.275198 0.208490
Si Si2 0.782959 0.902614 0.170752
Si Si3 0.713479 0.403049 0.292283
Si Si4 0.785486 0.097986 0.627799
Si Si5 0.712221 0.402466 0.019276
Si Si6 0.717467 0.401879 0.399615
Si Si7 0.708492 0.772987 0.978558
Si Si8 0.214706 0.401269 0.562564
O O1 0.721595 0.176660 0.203199
O O2 0.759670 0.327615 0.256200
O O3 0.717273 0.333791 0.165642
O O4 0.000000 0.269820 0.202002
O O5 0.732483 0.884263 0.116503
O O6 0.000000 0.905195 0.171462
O O7 0.722360 0.000000 0.183031
O O8 0.500000 0.407120 0.293620
O O9 0.777310 0.500000 0.277509
O O10 0.773054 0.387272 0.345765
O O11 0.739779 0.118510 0.574185
O O12 0.000000 0.096999 0.630700
O O13 0.721871 0.000000 0.638013
O O14 0.500000 0.406232 0.011891
O O15 0.783561 0.500000 0.010795
O O16 0.785024 0.322317 0.989131
O O17 0.500000 0.401032 0.400405
O O18 0.771007 0.500000 0.413351
O O19 0.783357 0.330056 0.435970
O O20 0.500000 0.760555 0.968127
O O21 0.720893 0.831247 0.025404
O O22 0.271515 0.500000 0.550438
O O23 0.000000 0.399479 0.561449
#
# Coordination Sequence:
#
# PCOD9356033 Si02
#       8
#     8   8   8   8   8   8   8   8
#     4  10  18  28  46  68  87 111 146 185 217 247
#     4   8  15  28  44  62  87 120 151 174 205 255
#     4   9  18  32  48  65  87 115 142 170 213 268
#     4   9  17  28  42  62  88 117 147 177 213 258
#     4   9  18  30  42  61  90 119 148 182 214 244
#     4   8  15  29  47  65  85 110 140 172 211 265
#     4  10  18  28  46  67  86 114 149 181 213 251
#     4   9  17  29  45  66  92 118 143 174 212 255
#
# _framework density 19.409261000000001
#
# number of rings (size 3 to 8) (size 9 to 14) (size 15 to 20)
#    0.000    3.000    0.000    3.000    0.000    3.500 
#    0.000    2.500    0.000    2.625    0.000    1.750 
#    0.000    0.000    0.000    0.000    0.000    0.000 
#
# Total GULP energy -178490.653832 kJ/mol
# GULP energy per Si atom -5577.832932 kJ/mol
# Density = 1.936508 g / cm^3
# Si number density = 19.409261 Si / 1000 Ang^3
#
#
#
# Elastic Constant Matrix: (Units=GPa)
#
#
# Indices 1 2 3 4 5 6 
#
# 1 48.6252 5.7284 -0.4056 0.0000 0.0000 0.0000
# 2 5.7284 178.4686 113.1075 0.0000 0.0000 0.0000
# 3 -0.4056 113.1075 95.7514 0.0000 0.0000 0.0000
# 4 0.0000 0.0000 0.0000 33.8456 0.0000 0.0000
# 5 0.0000 0.0000 0.0000 0.0000 18.6425 0.0000
# 6 0.0000 0.0000 0.0000 0.0000 0.0000 10.3378
#
#
#
# Elastic Compliance Matrix: (Units=1/GPa)
#
#
# Indices 1 2 3 4 5 6 
#
# 1 0.020936 -0.002897 0.003511 0.000000 0.000000 0.000000
# 2 -0.002897 0.022693 -0.026819 0.000000 0.000000 0.000000
# 3 0.003511 -0.026819 0.042138 0.000000 0.000000 0.000000
# 4 0.000000 0.000000 0.000000 0.029546 0.000000 0.000000
# 5 0.000000 0.000000 0.000000 0.000000 0.053641 0.000000
# 6 0.000000 0.000000 0.000000 0.000000 0.000000 0.096733
#
#
# Mechanical properties :
#
#
# Convention : Reuss Voigt Hill
#
# Bulk Modulus (GPa) = 29.97792 62.18952 46.08372
# Shear Modulus (GPa) = 15.18760 26.19284 20.69022
#
# Velocity S-wave (km/s) = 2.80034 3.67754 3.26850
# Velocity P-wave (km/s) = 5.09260 7.08118 6.16756
#
# Compressibility (1/GPa) = 0.03335789
#
# Stress axis : x y z
#
# Youngs Moduli (GPa) = 47.76447 44.06645 23.73128
#
# Poissons Ratio (x) = 0.12767 -0.08332
# Poissons Ratio (y) = 0.13838 0.63644
# Poissons Ratio (z) = -0.16770 1.18180
#
# Static dielectric constant tensor:
#      x y z
#    x 1.737860 0.000000 0.000000 
#    y 0.000000 1.713450 0.000000 
#    z 0.000000 0.000000 1.647130 
# 
# From -- ./inp_files/24702.got.cif
#   From: 2010.05.17/outbox.cif.g08.bks.cpg/sg38_13_cif.got.tgz:24702.got - 2010.06.03 18:07:57.
