data_PCOD9356671
_publ_section_title
;
Structure prediction by ZEFSAII (Michael W. Deem and Ramdas Pophale) SiO2 
 PCOD9356671
Probable space group: A M M 2
;
_chemical_formula_sum "Si O2"
_cell_formula_units_Z 56
_cell_length_a 10.257521
_cell_length_b 15.047064
_cell_length_c 17.141134
_cell_angle_alpha 90.000000
_cell_angle_beta 90.000000
_cell_angle_gamma 90.000000
_cell_volume 2645.658183
_symmetry_space_group_name_H-M "A M M 2"
_symmetry_group_IT_number 38
_symmetry_cell_setting 'orthorhombic'
loop_
_space_group_symop_operation_xyz
x,y,z
-x,-y,z
-x,y,z
x,-y,z
x,1/2+y,1/2+z
-x,1/2-y,1/2+z
-x,1/2+y,1/2+z
x,1/2-y,1/2+z
loop_
_atom_site_type_symbol
_atom_site_label
_atom_site_fract_x
_atom_site_fract_y
_atom_site_fract_z
Si Si1 0.851827 0.865007 0.947540
Si Si2 0.351827 0.865008 0.397014
Si Si3 0.859809 0.403138 0.769604
Si Si4 0.640191 0.596862 0.574950
Si Si5 0.355136 0.666790 0.328133
Si Si6 0.144864 0.833210 0.516421
Si Si7 0.750000 0.249585 0.672277
O O1 0.765849 0.880954 0.870280
O O2 0.000000 0.897954 0.943615
O O3 0.762281 0.900539 0.017507
O O4 0.862646 0.760071 0.968617
O O5 0.500000 0.897955 0.400939
O O6 0.262281 0.900539 0.327046
O O7 0.362646 0.760071 0.375937
O O8 0.265849 0.880954 0.474274
O O9 0.860530 0.500000 0.730041
O O10 0.848157 0.319211 0.713226
O O11 0.000000 0.395502 0.812066
O O12 0.500000 0.604498 0.532487
O O13 0.639470 0.500000 0.614513
O O14 0.651843 0.680789 0.631328
O O15 0.500000 0.625919 0.331290
O O16 0.317112 0.692444 0.239833
O O17 0.182889 0.807556 0.604720
O O18 0.000000 0.874081 0.513264
#
# Coordination Sequence:
#
# PCOD9356671 Si02
#       7
#     8   8   8   8   8   8   8
#     4   9  18  31  47  66  90 124 165 205 241 280
#     4   9  18  31  47  66  90 124 165 205 241 280
#     4  10  20  33  49  70  99 134 167 198 235 284
#     4  10  20  33  49  70  99 134 167 198 235 284
#     4   9  17  29  46  67  93 125 160 200 243 286
#     4   9  17  29  46  67  93 125 160 200 243 286
#     4  10  19  30  48  74 103 130 160 196 240 290
#
# _framework density 21.166755999999999
#
# number of rings (size 3 to 8) (size 9 to 14) (size 15 to 20)
#    0.000    2.571    0.000    2.143    0.000    9.714 
#    0.000    0.000    0.000    0.000    0.000    1.000 
#    0.000    0.000    0.000    0.000    0.000    0.000 
#
# Total GULP energy -156004.017365 kJ/mol
# GULP energy per Si atom -5571.572049 kJ/mol
# Density = 2.111858 g / cm^3
# Si number density = 21.166756 Si / 1000 Ang^3
#
#
#
# Elastic Constant Matrix: (Units=GPa)
#
#
# Indices 1 2 3 4 5 6 
#
# 1 231.2939 11.5334 69.5721 0.0000 0.0000 0.0000
# 2 11.5334 14.9500 -0.9684 0.0000 0.0000 0.0000
# 3 69.5721 -0.9684 115.1200 0.0000 0.0000 0.0000
# 4 0.0000 0.0000 0.0000 -10.0947 0.0000 0.0000
# 5 0.0000 0.0000 0.0000 0.0000 11.7601 0.0000
# 6 0.0000 0.0000 0.0000 0.0000 0.0000 3.0706
#
#
#
# Elastic Compliance Matrix: (Units=1/GPa)
#
#
# Indices 1 2 3 4 5 6 
#
# 1 0.005574 -0.004520 -0.003406 0.000000 0.000000 0.000000
# 2 -0.004520 0.070592 0.003326 0.000000 0.000000 0.000000
# 3 -0.003406 0.003326 0.010773 0.000000 0.000000 0.000000
# 4 0.000000 0.000000 0.000000 -0.099062 0.000000 0.000000
# 5 0.000000 0.000000 0.000000 0.000000 0.085034 0.000000
# 6 0.000000 0.000000 0.000000 0.000000 0.000000 0.325668
#
#
# Mechanical properties :
#
#
# Convention : Reuss Voigt Hill
#
# Bulk Modulus (GPa) = 12.86393 57.95982 35.41187
# Shear Modulus (GPa) = 11.52888 19.69564 15.61226
#
# Velocity S-wave (km/s) = 2.33635 3.05372 2.71880
# Velocity P-wave (km/s) = 3.65631 6.31471 5.15966
#
# Compressibility (1/GPa) = 0.07773677
#
# Stress axis : x y z
#
# Youngs Moduli (GPa) = 179.41949 14.16586 92.82319
#
# Poissons Ratio (x) = 0.06404 0.31619
# Poissons Ratio (y) = 0.81105 -0.30870
# Poissons Ratio (z) = 0.61117 -0.04711
#
# Static dielectric constant tensor:
#      x y z
#    x 1.809630 0.000000 0.000000 
#    y 0.000000 1.779120 0.000000 
#    z 0.000000 0.000000 1.763060 
# 
# From -- ./inp_files/12355.got.cif
#   From: 2010.05.17/outbox.cif.g08.bks.cpg/sg38_7_cif.got.tgz:12355.got - 2010.06.03 18:07:57.
