data_PCOD9356226
_publ_section_title
;
Structure prediction by ZEFSAII (Michael W. Deem and Ramdas Pophale) SiO2 
 PCOD9356226
Probable space group: A M M 2
;
_chemical_formula_sum "Si O2"
_cell_formula_units_Z 40
_cell_length_a 8.228843
_cell_length_b 10.062381
_cell_length_c 26.658598
_cell_angle_alpha 90.000000
_cell_angle_beta 90.000000
_cell_angle_gamma 90.000000
_cell_volume 2207.378659
_symmetry_space_group_name_H-M "A M M 2"
_symmetry_group_IT_number 38
_symmetry_cell_setting 'orthorhombic'
loop_
_space_group_symop_operation_xyz
x,y,z
-x,-y,z
-x,y,z
x,-y,z
x,1/2+y,1/2+z
-x,1/2-y,1/2+z
-x,1/2+y,1/2+z
x,1/2-y,1/2+z
loop_
_atom_site_type_symbol
_atom_site_label
_atom_site_fract_x
_atom_site_fract_y
_atom_site_fract_z
Si Si1 0.301771 0.787315 0.545320
Si Si2 0.694391 0.500000 0.691240
Si Si3 0.693777 0.000000 0.741644
Si Si4 0.696004 0.000000 0.464782
Si Si5 0.805946 0.713679 0.770575
Si Si6 0.698042 0.500000 0.127280
Si Si7 0.699095 0.000000 0.075573
Si Si8 0.804032 0.500000 0.850577
O O1 0.500000 0.786806 0.544976
O O2 0.249155 0.871371 0.496842
O O3 0.253600 0.871510 0.594669
O O4 0.246778 0.636021 0.549459
O O5 0.500000 0.500000 0.690681
O O6 0.750789 0.629321 0.722022
O O7 0.750651 0.500000 0.633807
O O8 0.747146 0.135837 0.767878
O O9 0.757742 0.000000 0.684120
O O10 0.500000 0.000000 0.739089
O O11 0.500000 0.000000 0.465791
O O12 0.750026 0.000000 0.407703
O O13 0.747930 0.628691 0.818734
O O14 0.000000 0.713278 0.771220
O O15 0.500000 0.500000 0.128721
O O16 0.500000 0.000000 0.075404
O O17 0.000000 0.500000 0.849629
#
# Coordination Sequence:
#
# PCOD9356226 Si02
#       8
#     8   4   4   4   8   4   4   4
#     4   8  14  25  42  68  98 126 154 190 240 294
#     4  10  18  30  52  79 102 134 178 214 236 276
#     4  11  20  31  52  81 106 131 166 209 244 284
#     4   9  17  30  51  72  90 117 158 207 250 285
#     4  10  21  36  51  71 102 139 169 201 254 312
#     4   8  14  25  42  67 100 130 156 186 230 285
#     4   9  15  24  43  71 102 129 156 195 243 289
#     4   9  20  38  56  68  88 129 172 203 247 309
#
# _framework density 18.121041000000002
#
# number of rings (size 3 to 8) (size 9 to 14) (size 15 to 20)
#    0.000    2.800    0.000    4.200    0.000    5.600 
#    0.000    1.000    0.000   13.200    0.000    0.000 
#    0.000    0.000    0.000    0.000    0.000    0.000 
#
# Total GULP energy -111530.203626 kJ/mol
# GULP energy per Si atom -5576.510181 kJ/mol
# Density = 1.807980 g / cm^3
# Si number density = 18.121041 Si / 1000 Ang^3
#
#
#
# Elastic Constant Matrix: (Units=GPa)
#
#
# Indices 1 2 3 4 5 6 
#
# 1 19.1426 21.0674 15.6981 0.0000 0.0000 0.0000
# 2 21.0674 207.3857 97.6050 0.0000 0.0000 0.0000
# 3 15.6981 97.6050 151.6200 0.0000 0.0000 0.0000
# 4 0.0000 0.0000 0.0000 6.2115 0.0000 0.0000
# 5 0.0000 0.0000 0.0000 0.0000 117.9469 0.0000
# 6 0.0000 0.0000 0.0000 0.0000 0.0000 19.4410
#
#
#
# Elastic Compliance Matrix: (Units=1/GPa)
#
#
# Indices 1 2 3 4 5 6 
#
# 1 0.059930 -0.004545 -0.003279 0.000000 0.000000 0.000000
# 2 -0.004545 0.007263 -0.004205 0.000000 0.000000 0.000000
# 3 -0.003279 -0.004205 0.009642 0.000000 0.000000 0.000000
# 4 0.000000 0.000000 0.000000 0.160992 0.000000 0.000000
# 5 0.000000 0.000000 0.000000 0.000000 0.008478 0.000000
# 6 0.000000 0.000000 0.000000 0.000000 0.000000 0.051438
#
#
# Mechanical properties :
#
#
# Convention : Reuss Voigt Hill
#
# Bulk Modulus (GPa) = 18.94753 71.87658 45.41205
# Shear Modulus (GPa) = 14.73221 44.97173 29.85197
#
# Velocity S-wave (km/s) = 2.85439 4.98711 4.06318
# Velocity P-wave (km/s) = 4.61976 8.53888 6.86494
#
# Compressibility (1/GPa) = 0.05277732
#
# Stress axis : x y z
#
# Youngs Moduli (GPa) = 16.68601 137.69325 103.71584
#
# Poissons Ratio (x) = 0.62577 0.34012
# Poissons Ratio (y) = 0.07583 0.43609
# Poissons Ratio (z) = 0.05472 0.57896
#
# Static dielectric constant tensor:
#      x y z
#    x 1.630540 0.000000 0.000000 
#    y 0.000000 1.620390 0.000000 
#    z 0.000000 0.000000 1.602150 
# 
# From -- ./inp_files/23323.got.cif
#   From: 2010.05.17/outbox.cif.g08.bks.cpg/sg38_12_cif.got.tgz:23323.got - 2010.06.03 18:07:57.
