data_PCOD9356407
_publ_section_title
;
Structure prediction by ZEFSAII (Michael W. Deem and Ramdas Pophale) SiO2 
 PCOD9356407
Probable space group: A M M 2
;
_chemical_formula_sum "Si O2"
_cell_formula_units_Z 58
_cell_length_a 15.353117
_cell_length_b 8.748690
_cell_length_c 25.717524
_cell_angle_alpha 90.000000
_cell_angle_beta 90.000000
_cell_angle_gamma 90.000000
_cell_volume 3454.369110
_symmetry_space_group_name_H-M "A M M 2"
_symmetry_group_IT_number 38
_symmetry_cell_setting 'orthorhombic'
loop_
_space_group_symop_operation_xyz
x,y,z
-x,-y,z
-x,y,z
x,-y,z
x,1/2+y,1/2+z
-x,1/2-y,1/2+z
-x,1/2+y,1/2+z
x,1/2-y,1/2+z
loop_
_atom_site_type_symbol
_atom_site_label
_atom_site_fract_x
_atom_site_fract_y
_atom_site_fract_z
Si Si1 0.101080 0.317688 0.803140
Si Si2 0.103375 0.679986 0.191358
Si Si3 0.174054 0.817841 0.581185
Si Si4 0.655452 0.330211 0.537957
Si Si5 0.904180 0.816261 0.979947
Si Si6 0.226937 0.183308 0.889934
Si Si7 0.400546 0.816808 0.428997
Si Si8 0.500000 0.000000 0.083498
O O1 0.105570 0.500000 0.809293
O O2 0.122179 0.271290 0.743884
O O3 0.168362 0.238483 0.841971
O O4 0.000000 0.269327 0.812944
O O5 0.122872 0.500000 0.200020
O O6 0.152038 0.733968 0.139532
O O7 0.000000 0.692153 0.181207
O O8 0.270268 0.768812 0.564065
O O9 0.112189 0.745370 0.537528
O O10 0.163716 0.000000 0.579839
O O11 0.692220 0.500000 0.523284
O O12 0.618368 0.254880 0.485728
O O13 0.576674 0.369387 0.576445
O O14 0.826968 0.766082 0.941503
O O15 0.000000 0.766453 0.961004
O O16 0.903479 0.000000 0.980577
O O17 0.323407 0.253537 0.892705
O O18 0.232853 0.000000 0.889743
O O19 0.500000 0.775902 0.413761
O O20 0.394658 0.000000 0.431696
#
# Coordination Sequence:
#
# PCOD9356407 Si02
#       8
#     8   8   8   8   8   8   8   2
#     4  10  21  37  57  81 108 140 183 231 273 315
#     4   9  19  36  55  76 106 143 182 221 265 319
#     4  11  21  32  51  80 110 143 179 221 273 320
#     4  10  18  33  50  73 104 140 179 217 260 322
#     4  10  21  34  48  72 109 150 184 213 255 320
#     4  11  22  35  55  79 108 146 184 219 267 326
#     4  11  21  34  53  80 109 140 178 226 274 320
#     4   8  20  32  54  72 102 144 186 220 264 328
#
# _framework density 16.790330999999998
#
# number of rings (size 3 to 8) (size 9 to 14) (size 15 to 20)
#    0.414    1.379    2.069    2.897    0.000    4.690 
#    0.000    1.379    0.000    0.000    1.793    0.000 
#    0.000    0.000    0.000    0.000    0.000    0.000 
#
# Total GULP energy -161465.527652 kJ/mol
# GULP energy per Si atom -5567.776816 kJ/mol
# Density = 1.675212 g / cm^3
# Si number density = 16.790331 Si / 1000 Ang^3
#
#
#
# Elastic Constant Matrix: (Units=GPa)
#
#
# Indices 1 2 3 4 5 6 
#
# 1 106.1109 19.9570 44.3508 0.0000 0.0000 0.0000
# 2 19.9570 32.1302 20.7411 0.0000 0.0000 0.0000
# 3 44.3508 20.7411 81.5150 0.0000 0.0000 0.0000
# 4 0.0000 0.0000 0.0000 24.8445 0.0000 0.0000
# 5 0.0000 0.0000 0.0000 0.0000 18.2129 0.0000
# 6 0.0000 0.0000 0.0000 0.0000 0.0000 28.7529
#
#
#
# Elastic Compliance Matrix: (Units=1/GPa)
#
#
# Indices 1 2 3 4 5 6 
#
# 1 0.012629 -0.004079 -0.005834 0.000000 0.000000 0.000000
# 2 -0.004079 0.038557 -0.007592 0.000000 0.000000 0.000000
# 3 -0.005834 -0.007592 0.017373 0.000000 0.000000 0.000000
# 4 0.000000 0.000000 0.000000 0.040250 0.000000 0.000000
# 5 0.000000 0.000000 0.000000 0.000000 0.054906 0.000000
# 6 0.000000 0.000000 0.000000 0.000000 0.000000 0.034779
#
#
# Mechanical properties :
#
#
# Convention : Reuss Voigt Hill
#
# Bulk Modulus (GPa) = 29.80424 43.31710 36.56067
# Shear Modulus (GPa) = 20.43420 23.34254 21.88837
#
# Velocity S-wave (km/s) = 3.49237 3.73263 3.61450
# Velocity P-wave (km/s) = 5.83537 6.66570 6.26431
#
# Compressibility (1/GPa) = 0.03355228
#
# Stress axis : x y z
#
# Youngs Moduli (GPa) = 79.17971 25.93534 57.55951
#
# Poissons Ratio (x) = 0.10578 0.33578
# Poissons Ratio (y) = 0.32295 0.43697
# Poissons Ratio (z) = 0.46191 0.19689
#
# Static dielectric constant tensor:
#      x y z
#    x 1.576320 0.000000 0.000000 
#    y 0.000000 1.573210 0.000000 
#    z 0.000000 0.000000 1.550860 
# 
# From -- ./inp_files/22851.got.cif
#   From: 2010.05.17/outbox.cif.g08.bks.cpg/sg38_12_cif.got.tgz:22851.got - 2010.06.03 18:07:57.
