data_PCOD9356124
_publ_section_title
;
Structure prediction by ZEFSAII (Michael W. Deem and Ramdas Pophale) SiO2 
 PCOD9356124
Probable space group: A M M 2
;
_chemical_formula_sum "Si O2"
_cell_formula_units_Z 56
_cell_length_a 8.533500
_cell_length_b 14.699868
_cell_length_c 23.366415
_cell_angle_alpha 90.000000
_cell_angle_beta 90.000000
_cell_angle_gamma 90.000000
_cell_volume 2931.114025
_symmetry_space_group_name_H-M "A M M 2"
_symmetry_group_IT_number 38
_symmetry_cell_setting 'orthorhombic'
loop_
_space_group_symop_operation_xyz
x,y,z
-x,-y,z
-x,y,z
x,-y,z
x,1/2+y,1/2+z
-x,1/2-y,1/2+z
-x,1/2+y,1/2+z
x,1/2-y,1/2+z
loop_
_atom_site_type_symbol
_atom_site_label
_atom_site_fract_x
_atom_site_fract_y
_atom_site_fract_z
Si Si1 0.812613 0.202426 0.434630
Si Si2 0.816105 0.330917 0.808755
Si Si3 0.679627 0.643602 0.276157
Si Si4 0.187215 0.199467 0.659385
Si Si5 0.313343 0.105309 0.546323
Si Si6 0.812576 0.597238 0.395814
Si Si7 0.186580 0.402886 0.687438
O O1 0.788065 0.147492 0.374996
O O2 0.730806 0.155791 0.487777
O O3 0.757944 0.306988 0.423023
O O4 0.000000 0.204537 0.444998
O O5 0.701122 0.249483 0.792442
O O6 0.799407 0.399787 0.756618
O O7 0.000000 0.298495 0.806134
O O8 0.500000 0.615188 0.276931
O O9 0.747348 0.639960 0.212290
O O10 0.771228 0.598452 0.328507
O O11 0.235521 0.156253 0.599685
O O12 0.245334 0.304948 0.664944
O O13 0.000000 0.201893 0.665332
O O14 0.500000 0.107099 0.554101
O O15 0.261769 0.000000 0.544062
O O16 0.754359 0.500000 0.419775
O O17 0.000000 0.598713 0.401455
O O18 0.252373 0.500000 0.666580
O O19 0.000000 0.403348 0.674813
#
# Coordination Sequence:
#
# PCOD9356124 Si02
#       7
#     8   8   8   8   8   8   8
#     4   9  18  34  56  81 107 137 176 219 260 305
#     4   8  15  29  50  76 106 140 176 209 246 299
#     4  10  18  29  49  77 110 143 173 211 260 309
#     4  10  20  36  57  78 104 140 181 224 267 312
#     4  11  25  42  57  74  99 134 177 225 275 323
#     4   9  18  34  56  82 112 144 178 215 255 307
#     4   8  14  27  51  83 112 135 164 206 255 307
#
# _framework density 19.105363000000001
#
# number of rings (size 3 to 8) (size 9 to 14) (size 15 to 20)
#    0.000    2.714    0.000    3.857    0.000    4.857 
#    0.000    2.143    0.000   15.000    0.000    0.000 
#    0.000    0.000    0.000    0.000    0.000    0.000 
#
# Total GULP energy -155900.251539 kJ/mol
# GULP energy per Si atom -5567.866126 kJ/mol
# Density = 1.906188 g / cm^3
# Si number density = 19.105363 Si / 1000 Ang^3
#
#
#
# Elastic Constant Matrix: (Units=GPa)
#
#
# Indices 1 2 3 4 5 6 
#
# 1 13.3049 6.7355 12.0641 0.0000 0.0000 0.0000
# 2 6.7355 119.5288 40.3279 0.0000 0.0000 0.0000
# 3 12.0641 40.3279 103.7922 0.0000 0.0000 0.0000
# 4 0.0000 0.0000 0.0000 -2.0660 0.0000 0.0000
# 5 0.0000 0.0000 0.0000 0.0000 4.7486 0.0000
# 6 0.0000 0.0000 0.0000 0.0000 0.0000 9.8326
#
#
#
# Elastic Compliance Matrix: (Units=1/GPa)
#
#
# Indices 1 2 3 4 5 6 
#
# 1 0.084301 -0.001662 -0.009153 0.000000 0.000000 0.000000
# 2 -0.001662 0.009661 -0.003561 0.000000 0.000000 0.000000
# 3 -0.009153 -0.003561 0.012082 0.000000 0.000000 0.000000
# 4 0.000000 0.000000 0.000000 -0.484037 0.000000 0.000000
# 5 0.000000 0.000000 0.000000 0.000000 0.210590 0.000000
# 6 0.000000 0.000000 0.000000 0.000000 0.000000 0.101702
#
#
# Mechanical properties :
#
#
# Convention : Reuss Voigt Hill
#
# Bulk Modulus (GPa) = 12.93779 39.43122 26.18450
# Shear Modulus (GPa) = -446.99707 14.33628 -216.33039
#
# Velocity S-wave (km/s) = -15.31248 2.74228 -10.65251
# Velocity P-wave (km/s) = 17.48837 5.54170 11.72886
#
# Compressibility (1/GPa) = 0.07729298
#
# Stress axis : x y z
#
# Youngs Moduli (GPa) = 11.86222 103.50727 82.76830
#
# Poissons Ratio (x) = 0.17207 0.75755
# Poissons Ratio (y) = 0.01972 0.29470
# Poissons Ratio (z) = 0.10857 0.36854
#
# Static dielectric constant tensor:
#      x y z
#    x 1.659140 0.000000 0.000000 
#    y 0.000000 1.736280 0.000000 
#    z 0.000000 0.000000 1.646890 
# 
# From -- ./inp_files/19824.got.cif
#   From: 2010.05.17/outbox.cif.g08.bks.cpg/sg38_10_cif.got.tgz:19824.got - 2010.06.03 18:07:57.
