data_PCOD9356031
_publ_section_title
;
Structure prediction by ZEFSAII (Michael W. Deem and Ramdas Pophale) SiO2 
 PCOD9356031
Probable space group: A M M 2
;
_chemical_formula_sum "Si O2"
_cell_formula_units_Z 64
_cell_length_a 20.416025
_cell_length_b 8.029657
_cell_length_c 21.199434
_cell_angle_alpha 90.000000
_cell_angle_beta 90.000000
_cell_angle_gamma 90.000000
_cell_volume 3475.301188
_symmetry_space_group_name_H-M "A M M 2"
_symmetry_group_IT_number 38
_symmetry_cell_setting 'orthorhombic'
loop_
_space_group_symop_operation_xyz
x,y,z
-x,-y,z
-x,y,z
x,-y,z
x,1/2+y,1/2+z
-x,1/2-y,1/2+z
-x,1/2+y,1/2+z
x,1/2-y,1/2+z
loop_
_atom_site_type_symbol
_atom_site_label
_atom_site_fract_x
_atom_site_fract_y
_atom_site_fract_z
Si Si1 0.286700 0.199457 0.473720
Si Si2 0.923787 0.704169 0.649633
Si Si3 0.429700 0.299684 0.975832
Si Si4 0.925861 0.299704 0.898753
Si Si5 0.429622 0.201579 0.828358
Si Si6 0.149894 0.800119 0.275449
Si Si7 0.850011 0.301871 0.524106
Si Si8 0.286348 0.300989 0.326447
O O1 0.358152 0.261449 0.497295
O O2 0.225917 0.256710 0.515431
O O3 0.277364 0.251711 0.400274
O O4 0.287559 0.000000 0.473757
O O5 0.923713 0.500000 0.649616
O O6 0.884856 0.760466 0.711882
O O7 0.885640 0.761454 0.587083
O O8 0.000000 0.755222 0.650004
O O9 0.500000 0.237070 0.001677
O O10 0.429929 0.500000 0.982798
O O11 0.430082 0.256721 0.901467
O O12 0.928550 0.500000 0.893194
O O13 0.887727 0.235112 0.837436
O O14 0.000000 0.235839 0.901332
O O15 0.887367 0.260345 0.962189
O O16 0.500000 0.257859 0.800792
O O17 0.358562 0.259249 0.804329
O O18 0.429364 0.000000 0.826283
O O19 0.226128 0.761495 0.285042
O O20 0.143385 0.000000 0.275151
O O21 0.855130 0.500000 0.525019
O O22 0.286057 0.500000 0.324392
#
# Coordination Sequence:
#
# PCOD9356031 Si02
#       8
#     8   8   8   8   8   8   8   8
#     4  10  18  29  46  69  99 132 164 199 241 291
#     4   9  19  36  55  73  94 125 165 204 243 291
#     4   8  14  24  39  61  90 124 160 197 236 278
#     4  10  20  33  51  74  97 123 157 196 242 297
#     4   8  14  24  38  59  91 129 161 189 229 281
#     4  10  19  33  53  73  96 128 163 199 241 293
#     4  11  21  33  51  74 100 129 162 203 246 289
#     4  10  18  28  45  71 101 129 160 201 243 284
#
# _framework density 18.415669999999999
#
# number of rings (size 3 to 8) (size 9 to 14) (size 15 to 20)
#    0.000    2.500    1.250    1.875    0.000    3.250 
#    0.000    1.250    0.000    2.625    0.000    0.875 
#    0.000    7.000    0.000    0.000    0.000    0.000 
#
# Total GULP energy -178276.234055 kJ/mol
# GULP energy per Si atom -5571.132314 kJ/mol
# Density = 1.837376 g / cm^3
# Si number density = 18.415670 Si / 1000 Ang^3
#
#
#
# Elastic Constant Matrix: (Units=GPa)
#
#
# Indices 1 2 3 4 5 6 
#
# 1 222.4619 3.6451 83.0591 0.0000 0.0000 0.0000
# 2 3.6451 14.2628 6.5824 0.0000 0.0000 0.0000
# 3 83.0591 6.5824 105.2645 0.0000 0.0000 0.0000
# 4 0.0000 0.0000 0.0000 12.8055 0.0000 0.0000
# 5 0.0000 0.0000 0.0000 0.0000 20.6124 0.0000
# 6 0.0000 0.0000 0.0000 0.0000 0.0000 15.2682
#
#
#
# Elastic Compliance Matrix: (Units=1/GPa)
#
#
# Indices 1 2 3 4 5 6 
#
# 1 0.006380 0.000713 -0.005078 0.000000 0.000000 0.000000
# 2 0.000713 0.072276 -0.005082 0.000000 0.000000 0.000000
# 3 -0.005078 -0.005082 0.013825 0.000000 0.000000 0.000000
# 4 0.000000 0.000000 0.000000 0.078091 0.000000 0.000000
# 5 0.000000 0.000000 0.000000 0.000000 0.048515 0.000000
# 6 0.000000 0.000000 0.000000 0.000000 0.000000 0.065496
#
#
# Mechanical properties :
#
#
# Convention : Reuss Voigt Hill
#
# Bulk Modulus (GPa) = 13.58969 58.72914 36.15941
# Shear Modulus (GPa) = 15.24368 26.31740 20.78054
#
# Velocity S-wave (km/s) = 2.88020 3.78441 3.36283
# Velocity P-wave (km/s) = 4.29606 7.14533 5.89542
#
# Compressibility (1/GPa) = 0.07358522
#
# Stress axis : x y z
#
# Youngs Moduli (GPa) = 156.75084 13.83588 72.33373
#
# Poissons Ratio (x) = -0.00987 0.36734
# Poissons Ratio (y) = -0.11182 0.36763
# Poissons Ratio (z) = 0.79604 0.07032
#
# Static dielectric constant tensor:
#      x y z
#    x 1.707500 0.000000 0.000000 
#    y 0.000000 1.673770 0.000000 
#    z 0.000000 0.000000 1.599580 
# 
# From -- ./inp_files/18920.got.cif
#   From: 2010.05.17/outbox.cif.g08.bks.cpg/sg38_10_cif.got.tgz:18920.got - 2010.06.03 18:07:57.
