data_PCOD9356823
_publ_section_title
;
Structure prediction by ZEFSAII (Michael W. Deem and Ramdas Pophale) SiO2 
 PCOD9356823
Probable space group: A M M 2
;
_chemical_formula_sum "Si O2"
_cell_formula_units_Z 64
_cell_length_a 8.621855
_cell_length_b 21.391480
_cell_length_c 20.124030
_cell_angle_alpha 90.000000
_cell_angle_beta 90.000000
_cell_angle_gamma 90.000000
_cell_volume 3711.560155
_symmetry_space_group_name_H-M "A M M 2"
_symmetry_group_IT_number 38
_symmetry_cell_setting 'orthorhombic'
loop_
_space_group_symop_operation_xyz
x,y,z
-x,-y,z
-x,y,z
x,-y,z
x,1/2+y,1/2+z
-x,1/2-y,1/2+z
-x,1/2+y,1/2+z
x,1/2-y,1/2+z
loop_
_atom_site_type_symbol
_atom_site_label
_atom_site_fract_x
_atom_site_fract_y
_atom_site_fract_z
Si Si1 0.689042 0.431285 0.080460
Si Si2 0.815021 0.262741 0.716805
Si Si3 0.312111 0.190493 0.499098
Si Si4 0.314674 0.812927 0.083802
Si Si5 0.685469 0.118011 0.868220
Si Si6 0.687396 0.122315 0.719743
Si Si7 0.185219 0.430367 0.503775
Si Si8 0.185472 0.258224 0.866800
O O1 0.500000 0.430851 0.079312
O O2 0.740991 0.500000 0.058604
O O3 0.735074 0.418762 0.156889
O O4 0.738883 0.372843 0.035760
O O5 0.744640 0.304485 0.658671
O O6 0.751393 0.192150 0.709598
O O7 0.776711 0.281912 0.792561
O O8 0.000000 0.261776 0.710119
O O9 0.500000 0.190746 0.495763
O O10 0.264247 0.251325 0.542124
O O11 0.243562 0.198246 0.425914
O O12 0.500000 0.813334 0.083597
O O13 0.254777 0.874944 0.047931
O O14 0.500000 0.112314 0.874187
O O15 0.733141 0.099311 0.793227
O O16 0.763845 0.080947 0.927746
O O17 0.733134 0.190776 0.875285
O O18 0.500000 0.126201 0.719612
O O19 0.235497 0.500000 0.524593
O O20 0.000000 0.426862 0.507723
O O21 0.000000 0.249312 0.870860
#
# Coordination Sequence:
#
# PCOD9356823 Si02
#       8
#     8   8   8   8   8   8   8   8
#     4   9  17  31  51  75 105 139 174 213 258 308
#     4  10  20  33  52  79 108 139 175 217 268 320
#     4  10  19  32  53  80 105 135 177 223 267 309
#     4  11  21  35  57  82 106 136 177 227 270 312
#     4  10  19  31  51  77 107 142 179 221 261 306
#     4   9  17  31  50  75 107 142 181 218 256 306
#     4  11  24  39  54  75 107 145 180 218 268 327
#     4  10  20  33  52  78 108 141 177 218 265 317
#
# _framework density 17.243421999999999
#
# number of rings (size 3 to 8) (size 9 to 14) (size 15 to 20)
#    0.000    2.000    2.500    1.875    0.000    4.000 
#    0.000    1.250    0.000    2.250    0.000    3.500 
#    0.000    0.000    0.000    0.000    0.000    0.000 
#
# Total GULP energy -178577.143629 kJ/mol
# GULP energy per Si atom -5580.535738 kJ/mol
# Density = 1.720418 g / cm^3
# Si number density = 17.243422 Si / 1000 Ang^3
#
#
#
# Elastic Constant Matrix: (Units=GPa)
#
#
# Indices 1 2 3 4 5 6 
#
# 1 17.9516 18.9968 21.8260 0.0000 0.0000 0.0000
# 2 18.9968 114.2153 66.8914 0.0000 0.0000 0.0000
# 3 21.8260 66.8914 113.3447 0.0000 0.0000 0.0000
# 4 0.0000 0.0000 0.0000 21.3008 0.0000 0.0000
# 5 0.0000 0.0000 0.0000 0.0000 26.4929 0.0000
# 6 0.0000 0.0000 0.0000 0.0000 0.0000 16.3491
#
#
#
# Elastic Compliance Matrix: (Units=1/GPa)
#
#
# Indices 1 2 3 4 5 6 
#
# 1 0.075482 -0.006177 -0.010890 0.000000 0.000000 0.000000
# 2 -0.006177 0.013885 -0.007005 0.000000 0.000000 0.000000
# 3 -0.010890 -0.007005 0.015054 0.000000 0.000000 0.000000
# 4 0.000000 0.000000 0.000000 0.046947 0.000000 0.000000
# 5 0.000000 0.000000 0.000000 0.000000 0.037746 0.000000
# 6 0.000000 0.000000 0.000000 0.000000 0.000000 0.061165
#
#
# Mechanical properties :
#
#
# Convention : Reuss Voigt Hill
#
# Bulk Modulus (GPa) = 17.76911 51.21557 34.49234
# Shear Modulus (GPa) = 15.76386 22.01505 18.88946
#
# Velocity S-wave (km/s) = 3.02685 3.57700 3.31336
# Velocity P-wave (km/s) = 4.74794 6.84295 5.88935
#
# Compressibility (1/GPa) = 0.05627744
#
# Stress axis : x y z
#
# Youngs Moduli (GPa) = 13.24826 72.01802 66.42848
#
# Poissons Ratio (x) = 0.44484 0.72339
# Poissons Ratio (y) = 0.08183 0.46534
# Poissons Ratio (z) = 0.14427 0.50450
#
# Static dielectric constant tensor:
#      x y z
#    x 1.582630 0.000000 0.000000 
#    y 0.000000 1.572330 0.000000 
#    z 0.000000 0.000000 1.594760 
# 
# From -- ./inp_files/17234.got.cif
#   From: 2010.05.17/outbox.cif.g08.bks.cpg/sg38_9_cif.got.tgz:17234.got - 2010.06.03 18:07:57.
