data_PCOD9356864
_publ_section_title
;
Structure prediction by ZEFSAII (Michael W. Deem and Ramdas Pophale) SiO2 
 PCOD9356864
Probable space group: A M M 2
;
_chemical_formula_sum "Si O2"
_cell_formula_units_Z 64
_cell_length_a 19.669005
_cell_length_b 7.386653
_cell_length_c 20.532118
_cell_angle_alpha 90.000000
_cell_angle_beta 90.000000
_cell_angle_gamma 90.000000
_cell_volume 2983.072717
_symmetry_space_group_name_H-M "A M M 2"
_symmetry_group_IT_number 38
_symmetry_cell_setting 'orthorhombic'
loop_
_space_group_symop_operation_xyz
x,y,z
-x,-y,z
-x,y,z
x,-y,z
x,1/2+y,1/2+z
-x,1/2-y,1/2+z
-x,1/2+y,1/2+z
x,1/2-y,1/2+z
loop_
_atom_site_type_symbol
_atom_site_label
_atom_site_fract_x
_atom_site_fract_y
_atom_site_fract_z
Si Si1 0.077323 0.283585 0.644960
Si Si2 0.422333 0.786742 0.713822
Si Si3 0.808772 0.221358 0.044770
Si Si4 0.807906 0.278574 0.392846
Si Si5 0.336377 0.220643 0.834782
Si Si6 0.077270 0.216310 0.793367
Si Si7 0.576957 0.220597 0.958634
Si Si8 0.660210 0.718059 0.583471
O O1 0.074070 0.500000 0.637617
O O2 0.128349 0.217275 0.589299
O O3 0.101172 0.249717 0.719158
O O4 0.000000 0.213144 0.639342
O O5 0.500000 0.713846 0.713889
O O6 0.370282 0.713819 0.768097
O O7 0.384803 0.768948 0.645127
O O8 0.428978 0.000000 0.727922
O O9 0.738239 0.278588 0.078810
O O10 0.809496 0.000000 0.044109
O O11 0.810490 0.277193 0.968765
O O12 0.807645 0.500000 0.393723
O O13 0.738595 0.220551 0.356740
O O14 0.871454 0.218129 0.348874
O O15 0.388048 0.272606 0.891739
O O16 0.332717 0.000000 0.832335
O O17 0.000000 0.287070 0.798984
O O18 0.073970 0.000000 0.800860
O O19 0.500000 0.282512 0.963944
O O20 0.576339 0.000000 0.959896
O O21 0.622088 0.281311 0.018788
O O22 0.661950 0.500000 0.582118
#
# Coordination Sequence:
#
# PCOD9356864 Si02
#       8
#     8   8   8   8   8   8   8   8
#     4   9  18  32  50  72  99 132 165 195 234 287
#     4  10  21  34  48  70  99 128 160 199 242 290
#     4   9  17  30  48  73 101 126 159 203 244 282
#     4   9  16  28  47  71  98 125 156 199 244 280
#     4   9  16  28  45  68  95 122 155 196 238 279
#     4   9  18  31  49  75 102 127 158 197 240 285
#     4   9  15  25  45  69  90 116 154 197 235 272
#     4  10  19  32  50  73  98 124 158 201 243 287
#
# _framework density 21.45439
#
# number of rings (size 3 to 8) (size 9 to 14) (size 15 to 20)
#    0.000    2.750    1.250    0.750    1.750    2.750 
#    0.000    2.500    0.000    2.250    0.000    3.500 
#    0.000    0.000    0.000    0.000    0.000    0.000 
#
# Total GULP energy -178638.745548 kJ/mol
# GULP energy per Si atom -5582.460798 kJ/mol
# Density = 2.140556 g / cm^3
# Si number density = 21.454390 Si / 1000 Ang^3
#
#
#
# Elastic Constant Matrix: (Units=GPa)
#
#
# Indices 1 2 3 4 5 6 
#
# 1 127.3635 2.3672 51.0343 0.0000 0.0000 0.0000
# 2 2.3672 73.9234 -7.5737 0.0000 0.0000 0.0000
# 3 51.0343 -7.5737 98.8074 0.0000 0.0000 0.0000
# 4 0.0000 0.0000 0.0000 7.9358 0.0000 0.0000
# 5 0.0000 0.0000 0.0000 0.0000 43.8681 0.0000
# 6 0.0000 0.0000 0.0000 0.0000 0.0000 -4.1204
#
#
#
# Elastic Compliance Matrix: (Units=1/GPa)
#
#
# Indices 1 2 3 4 5 6 
#
# 1 0.009954 -0.000852 -0.005206 0.000000 0.000000 0.000000
# 2 -0.000852 0.013708 0.001491 0.000000 0.000000 0.000000
# 3 -0.005206 0.001491 0.012924 0.000000 0.000000 0.000000
# 4 0.000000 0.000000 0.000000 0.126012 0.000000 0.000000
# 5 0.000000 0.000000 0.000000 0.000000 0.022796 0.000000
# 6 0.000000 0.000000 0.000000 0.000000 0.000000 -0.242696
#
#
# Mechanical properties :
#
#
# Convention : Reuss Voigt Hill
#
# Bulk Modulus (GPa) = 36.43008 43.52775 39.97892
# Shear Modulus (GPa) = -128.14570 26.48780 -50.82895
#
# Velocity S-wave (km/s) = -7.73686 3.51751 -4.87269
# Velocity P-wave (km/s) = 7.92433 6.06875 3.60314
#
# Compressibility (1/GPa) = 0.02744984
#
# Stress axis : x y z
#
# Youngs Moduli (GPa) = 100.46663 72.95254 77.37503
#
# Poissons Ratio (x) = 0.06217 0.40284
# Poissons Ratio (y) = 0.08561 -0.11535
# Poissons Ratio (z) = 0.52306 -0.10876
#
# Static dielectric constant tensor:
#      x y z
#    x 1.757440 0.000000 0.000000 
#    y 0.000000 1.850370 0.000000 
#    z 0.000000 0.000000 1.725940 
# 
# From -- ./inp_files/18786.got.cif
#   From: 2010.05.17/outbox.cif.g08.bks.cpg/sg38_10_cif.got.tgz:18786.got - 2010.06.03 18:07:57.
