data_PCOD9356583
_publ_section_title
;
Structure prediction by ZEFSAII (Michael W. Deem and Ramdas Pophale) SiO2 
 PCOD9356583
Probable space group: A M M 2
;
_chemical_formula_sum "Si O2"
_cell_formula_units_Z 40
_cell_length_a 8.224709
_cell_length_b 7.313844
_cell_length_c 29.605474
_cell_angle_alpha 90.000000
_cell_angle_beta 90.000000
_cell_angle_gamma 90.000000
_cell_volume 1780.894746
_symmetry_space_group_name_H-M "A M M 2"
_symmetry_group_IT_number 38
_symmetry_cell_setting 'orthorhombic'
loop_
_space_group_symop_operation_xyz
x,y,z
-x,-y,z
-x,y,z
x,-y,z
x,1/2+y,1/2+z
-x,1/2-y,1/2+z
-x,1/2+y,1/2+z
x,1/2-y,1/2+z
loop_
_atom_site_type_symbol
_atom_site_label
_atom_site_fract_x
_atom_site_fract_y
_atom_site_fract_z
Si Si1 0.825193 0.287146 0.282610
Si Si2 0.188603 0.222961 0.992834
Si Si3 0.500000 0.276295 0.330228
Si Si4 0.189246 0.721121 0.594560
Si Si5 0.500000 0.722575 0.434840
Si Si6 0.680193 0.720757 0.689534
O O1 0.829556 0.500000 0.295517
O O2 0.663513 0.210529 0.305598
O O3 0.802045 0.277703 0.228656
O O4 0.000000 0.206914 0.295166
O O5 0.333136 0.281133 0.959613
O O6 0.000000 0.278670 0.983466
O O7 0.185822 0.000000 0.992298
O O8 0.233705 0.280718 0.044078
O O9 0.500000 0.500000 0.327763
O O10 0.500000 0.224717 0.382591
O O11 0.204039 0.500000 0.594047
O O12 0.282361 0.785266 0.638906
O O13 0.000000 0.765133 0.600940
O O14 0.500000 0.500000 0.436597
O O15 0.500000 0.780965 0.703070
O O16 0.683450 0.500000 0.688492
#
# Coordination Sequence:
#
# PCOD9356583 Si02
#       6
#     8   8   4   8   4   8
#     4  10  20  34  51  67  90 127 161 192 235 279
#     4   8  14  23  35  55  83 114 147 179 216 267
#     4   9  18  32  44  61  87 115 155 199 234 275
#     4   8  14  24  37  57  89 123 150 181 222 267
#     4   9  16  24  39  57  79 113 147 185 228 267
#     4  10  19  29  46  72  98 125 157 192 230 274
#
# _framework density 22.460622000000001
#
# number of rings (size 3 to 8) (size 9 to 14) (size 15 to 20)
#    0.000    3.000    1.000    1.800    1.400    2.000 
#    0.000    4.000    0.000    0.000    0.000    0.000 
#    0.000    3.200    0.000    3.200    0.000    2.000 
#
# Total GULP energy -111628.243247 kJ/mol
# GULP energy per Si atom -5581.412162 kJ/mol
# Density = 2.240950 g / cm^3
# Si number density = 22.460622 Si / 1000 Ang^3
#
#
#
# Elastic Constant Matrix: (Units=GPa)
#
#
# Indices 1 2 3 4 5 6 
#
# 1 190.4592 9.1286 106.7526 0.0000 0.0000 0.0000
# 2 9.1286 90.5200 -3.3639 0.0000 0.0000 0.0000
# 3 106.7526 -3.3639 141.6632 0.0000 0.0000 0.0000
# 4 0.0000 0.0000 0.0000 0.7532 0.0000 0.0000
# 5 0.0000 0.0000 0.0000 0.0000 -8.0631 0.0000
# 6 0.0000 0.0000 0.0000 0.0000 0.0000 -8.5974
#
#
#
# Elastic Compliance Matrix: (Units=1/GPa)
#
#
# Indices 1 2 3 4 5 6 
#
# 1 0.009216 -0.001189 -0.006973 0.000000 0.000000 0.000000
# 2 -0.001189 0.011210 0.001162 0.000000 0.000000 0.000000
# 3 -0.006973 0.001162 0.012341 0.000000 0.000000 0.000000
# 4 0.000000 0.000000 0.000000 1.327699 0.000000 0.000000
# 5 0.000000 0.000000 0.000000 0.000000 -0.124022 0.000000
# 6 0.000000 0.000000 0.000000 0.000000 0.000000 -0.116314
#
#
# Mechanical properties :
#
#
# Convention : Reuss Voigt Hill
#
# Bulk Modulus (GPa) = 53.28212 71.96411 62.62312
# Shear Modulus (GPa) = 4.38448 17.49354 10.93901
#
# Velocity S-wave (km/s) = 1.39868 2.79382 2.20927
# Velocity P-wave (km/s) = 5.13638 6.52050 5.86938
#
# Compressibility (1/GPa) = 0.01876802
#
# Stress axis : x y z
#
# Youngs Moduli (GPa) = 108.50983 89.20355 81.02981
#
# Poissons Ratio (x) = 0.10602 0.56501
# Poissons Ratio (y) = 0.12896 -0.09414
# Poissons Ratio (z) = 0.75663 -0.10364
#
# Static dielectric constant tensor:
#      x y z
#    x 1.811030 0.000000 0.000000 
#    y 0.000000 1.987330 0.000000 
#    z 0.000000 0.000000 1.782570 
# 
# From -- ./inp_files/23214.got.cif
#   From: 2010.05.17/outbox.cif.g08.bks.cpg/sg38_12_cif.got.tgz:23214.got - 2010.06.03 18:07:57.
