data_PCOD9356406
_publ_section_title
;
Structure prediction by ZEFSAII (Michael W. Deem and Ramdas Pophale) SiO2 
 PCOD9356406
Probable space group: A M M 2
;
_chemical_formula_sum "Si O2"
_cell_formula_units_Z 38
_cell_length_a 8.621274
_cell_length_b 21.807363
_cell_length_c 9.279403
_cell_angle_alpha 90.000000
_cell_angle_beta 90.000000
_cell_angle_gamma 90.000000
_cell_volume 1744.595055
_symmetry_space_group_name_H-M "A M M 2"
_symmetry_group_IT_number 38
_symmetry_cell_setting 'orthorhombic'
loop_
_space_group_symop_operation_xyz
x,y,z
-x,-y,z
-x,y,z
x,-y,z
x,1/2+y,1/2+z
-x,1/2-y,1/2+z
-x,1/2+y,1/2+z
x,1/2-y,1/2+z
loop_
_atom_site_type_symbol
_atom_site_label
_atom_site_fract_x
_atom_site_fract_y
_atom_site_fract_z
Si Si1 0.833163 0.000000 0.682081
Si Si2 0.171733 0.630036 0.024937
Si Si3 0.825807 0.771302 0.779349
Si Si4 0.672116 0.185855 0.066838
Si Si5 0.500000 0.603947 0.932571
Si Si6 0.500000 0.000000 0.677720
Si Si7 0.500000 0.069652 0.105179
O O1 0.831907 0.939782 0.581972
O O2 0.665103 0.000000 0.758603
O O3 0.000000 0.000000 0.762050
O O4 0.334597 0.638488 0.941979
O O5 0.000000 0.640862 0.957528
O O6 0.183021 0.674220 0.162698
O O7 0.786306 0.711095 0.687475
O O8 0.000000 0.769559 0.837007
O O9 0.717292 0.786918 0.913058
O O10 0.500000 0.208985 0.109090
O O11 0.645831 0.112488 0.058246
O O12 0.500000 0.570819 0.779031
O O13 0.500000 0.558364 0.069796
O O14 0.500000 0.000000 0.056948
#
# Coordination Sequence:
#
# PCOD9356406 Si02
#       7
#     4   8   8   8   4   2   4
#     4   8  14  30  46  77 121 165 207 267 323 382
#     4   9  20  33  57  93 133 173 225 281 338 406
#     4  11  23  43  66 100 139 178 229 287 348 417
#     4  10  25  42  70  98 134 177 234 284 346 416
#     4  10  18  32  63  87 127 168 220 269 345 389
#     4   8  14  26  46  80 110 152 206 258 310 392
#     4  10  24  44  67  97 137 183 234 287 344 431
#
# _framework density 21.781559000000001
#
# number of rings (size 3 to 8) (size 9 to 14) (size 15 to 20)
#    0.632    1.684    0.526    1.263    5.895    0.000 
#    1.895    1.053    2.316    4.421    0.000    0.000 
#    0.000    0.000    0.000    0.000    0.000    0.000 
#
# Total GULP energy -105901.371846 kJ/mol
# GULP energy per Si atom -5573.756413 kJ/mol
# Density = 2.173198 g / cm^3
# Si number density = 21.781559 Si / 1000 Ang^3
#
#
#
# Elastic Constant Matrix: (Units=GPa)
#
#
# Indices 1 2 3 4 5 6 
#
# 1 163.2518 9.9560 28.4664 0.0000 0.0000 0.0000
# 2 9.9560 151.2386 37.3076 0.0000 0.0000 0.0000
# 3 28.4664 37.3076 53.8801 0.0000 0.0000 0.0000
# 4 0.0000 0.0000 0.0000 -11.7391 0.0000 0.0000
# 5 0.0000 0.0000 0.0000 0.0000 -24.0368 0.0000
# 6 0.0000 0.0000 0.0000 0.0000 0.0000 -0.0074
#
#
#
# Elastic Compliance Matrix: (Units=1/GPa)
#
#
# Indices 1 2 3 4 5 6 
#
# 1 0.006782 0.000528 -0.003948 0.000000 0.000000 0.000000
# 2 0.000528 0.008015 -0.005829 0.000000 0.000000 0.000000
# 3 -0.003948 -0.005829 0.024682 0.000000 0.000000 0.000000
# 4 0.000000 0.000000 0.000000 -0.085186 0.000000 0.000000
# 5 0.000000 0.000000 0.000000 0.000000 -0.041603 0.000000
# 6 0.000000 0.000000 0.000000 0.000000 0.000000**********
#
#
# Mechanical properties :
#
#
# Convention : Reuss Voigt Hill
#
# Bulk Modulus (GPa) = 47.66476 57.75892 52.71184
# Shear Modulus (GPa) = -0.03685 12.35272 6.15793
#
# Velocity S-wave (km/s) = -0.13022 2.38401 1.68323
# Velocity P-wave (km/s) = 4.68060 5.84405 5.29438
#
# Compressibility (1/GPa) = 0.02097986
#
# Stress axis : x y z
#
# Youngs Moduli (GPa) = 147.45350 124.76412 40.51616
#
# Poissons Ratio (x) = -0.06582 0.15997
# Poissons Ratio (y) = -0.07778 0.23615
# Poissons Ratio (z) = 0.58219 0.72719
#
# Static dielectric constant tensor:
#      x y z
#    x 1.839150 0.000000 0.000000 
#    y 0.000000 1.820440 0.000000 
#    z 0.000000 0.000000 1.718850 
# 
# From -- ./inp_files/3357.got.cif
#   From: 2010.05.17/outbox.cif.g08.bks.cpg/sg38_2_cif.got.tgz:3357.got - 2010.06.03 18:07:57.
