data_PCOD9356948
_publ_section_title
;
Structure prediction by ZEFSAII (Michael W. Deem and Ramdas Pophale) SiO2 
 PCOD9356948
Probable space group: A M M 2
;
_chemical_formula_sum "Si O2"
_cell_formula_units_Z 64
_cell_length_a 9.169958
_cell_length_b 27.804836
_cell_length_c 14.906559
_cell_angle_alpha 90.000000
_cell_angle_beta 90.000000
_cell_angle_gamma 90.000000
_cell_volume 3800.713100
_symmetry_space_group_name_H-M "A M M 2"
_symmetry_group_IT_number 38
_symmetry_cell_setting 'orthorhombic'
loop_
_space_group_symop_operation_xyz
x,y,z
-x,-y,z
-x,y,z
x,-y,z
x,1/2+y,1/2+z
-x,1/2-y,1/2+z
-x,1/2+y,1/2+z
x,1/2-y,1/2+z
loop_
_atom_site_type_symbol
_atom_site_label
_atom_site_fract_x
_atom_site_fract_y
_atom_site_fract_z
Si Si1 0.173861 0.866653 0.348990
Si Si2 0.671561 0.722108 0.528192
Si Si3 0.327906 0.442712 0.727182
Si Si4 0.173728 0.323041 0.036396
Si Si5 0.325003 0.629181 0.409926
Si Si6 0.171533 0.557292 0.540027
Si Si7 0.325396 0.327576 0.223492
Si Si8 0.328740 0.215875 0.238548
O O1 0.253257 0.912030 0.304950
O O2 0.207955 0.858034 0.453573
O O3 0.231459 0.819872 0.295743
O O4 0.000000 0.870967 0.338767
O O5 0.500000 0.733666 0.515354
O O6 0.763139 0.770231 0.513467
O O7 0.709746 0.678318 0.463549
O O8 0.689376 0.706757 0.632089
O O9 0.500000 0.432234 0.722738
O O10 0.308712 0.500000 0.740212
O O11 0.253609 0.429620 0.632353
O O12 0.245262 0.337843 0.130554
O O13 0.000000 0.320033 0.045917
O O14 0.500000 0.622121 0.416933
O O15 0.241663 0.586426 0.458630
O O16 0.287869 0.637980 0.306071
O O17 0.188863 0.500000 0.527392
O O18 0.000000 0.567877 0.548601
O O19 0.500000 0.329143 0.208903
O O20 0.292815 0.272209 0.251274
O O21 0.500000 0.208910 0.260973
#
# Coordination Sequence:
#
# PCOD9356948 Si02
#       8
#     8   8   8   8   8   8   8   8
#     4  11  22  33  49  75 103 132 167 206 251 301
#     4   9  18  32  49  71 101 134 167 204 247 295
#     4  10  21  37  57  79 101 128 163 202 246 297
#     4  10  21  34  48  70 101 136 172 208 248 295
#     4  10  19  32  53  78 101 130 171 212 249 293
#     4  10  21  36  54  78 107 135 161 195 245 301
#     4   9  19  34  51  72  99 134 174 213 251 288
#     4   9  17  30  49  73 101 134 169 203 243 294
#
# _framework density 16.838944999999999
#
# number of rings (size 3 to 8) (size 9 to 14) (size 15 to 20)
#    0.000    2.250    0.000    3.750    0.000    8.500 
#    0.000    0.000    0.000    0.750    0.000    0.000 
#    0.000    0.000    0.000    0.000    0.000    0.000 
#
# Total GULP energy -178660.546462 kJ/mol
# GULP energy per Si atom -5583.142077 kJ/mol
# Density = 1.680062 g / cm^3
# Si number density = 16.838945 Si / 1000 Ang^3
#
#
#
# Elastic Constant Matrix: (Units=GPa)
#
#
# Indices 1 2 3 4 5 6 
#
# 1 75.1354 54.1261 68.9289 0.0000 0.0000 0.0000
# 2 54.1261 57.6988 65.0089 0.0000 0.0000 0.0000
# 3 68.9289 65.0089 100.7633 0.0000 0.0000 0.0000
# 4 0.0000 0.0000 0.0000 30.3019 0.0000 0.0000
# 5 0.0000 0.0000 0.0000 0.0000 28.0733 0.0000
# 6 0.0000 0.0000 0.0000 0.0000 0.0000 26.1754
#
#
#
# Elastic Compliance Matrix: (Units=1/GPa)
#
#
# Indices 1 2 3 4 5 6 
#
# 1 0.045317 -0.027769 -0.013084 0.000000 0.000000 0.000000
# 2 -0.027769 0.080479 -0.032926 0.000000 0.000000 0.000000
# 3 -0.013084 -0.032926 0.040118 0.000000 0.000000 0.000000
# 4 0.000000 0.000000 0.000000 0.033001 0.000000 0.000000
# 5 0.000000 0.000000 0.000000 0.000000 0.035621 0.000000
# 6 0.000000 0.000000 0.000000 0.000000 0.000000 0.038204
#
#
# Mechanical properties :
#
#
# Convention : Reuss Voigt Hill
#
# Bulk Modulus (GPa) = 54.48286 67.74725 61.11505
# Shear Modulus (GPa) = 11.72564 19.94570 15.83567
#
# Velocity S-wave (km/s) = 2.64169 3.44539 3.06995
# Velocity P-wave (km/s) = 6.45989 7.49316 6.99563
#
# Compressibility (1/GPa) = 0.01835440
#
# Stress axis : x y z
#
# Youngs Moduli (GPa) = 22.06676 12.42568 24.92670
#
# Poissons Ratio (x) = 0.34505 0.32615
# Poissons Ratio (y) = 0.61277 0.82074
# Poissons Ratio (z) = 0.28873 0.40913
#
# Static dielectric constant tensor:
#      x y z
#    x 1.559020 0.000000 0.000000 
#    y 0.000000 1.553290 0.000000 
#    z 0.000000 0.000000 1.567790 
# 
# From -- ./inp_files/12813.got.cif
#   From: 2010.05.17/outbox.cif.g08.bks.cpg/sg38_7_cif.got.tgz:12813.got - 2010.06.03 18:07:57.
