data_PCOD9356648
_publ_section_title
;
Structure prediction by ZEFSAII (Michael W. Deem and Ramdas Pophale) SiO2 
 PCOD9356648
Probable space group: A M M 2
;
_chemical_formula_sum "Si O2"
_cell_formula_units_Z 64
_cell_length_a 20.350625
_cell_length_b 8.024843
_cell_length_c 21.163816
_cell_angle_alpha 90.000000
_cell_angle_beta 90.000000
_cell_angle_gamma 90.000000
_cell_volume 3456.274867
_symmetry_space_group_name_H-M "A M M 2"
_symmetry_group_IT_number 38
_symmetry_cell_setting 'orthorhombic'
loop_
_space_group_symop_operation_xyz
x,y,z
-x,-y,z
-x,y,z
x,-y,z
x,1/2+y,1/2+z
-x,1/2-y,1/2+z
-x,1/2+y,1/2+z
x,1/2-y,1/2+z
loop_
_atom_site_type_symbol
_atom_site_label
_atom_site_fract_x
_atom_site_fract_y
_atom_site_fract_z
Si Si1 0.286747 0.201619 0.537870
Si Si2 0.570792 0.304315 0.029618
Si Si3 0.152775 0.299503 0.736980
Si Si4 0.075640 0.296168 0.612850
Si Si5 0.288413 0.301575 0.184169
Si Si6 0.851004 0.301137 0.486734
Si Si7 0.428950 0.801920 0.174091
Si Si8 0.924752 0.299908 0.859928
O O1 0.357384 0.263625 0.511727
O O2 0.278479 0.260573 0.611176
O O3 0.224724 0.252840 0.496567
O O4 0.289506 0.000000 0.539860
O O5 0.500000 0.231192 0.008956
O O6 0.569842 0.500000 0.013163
O O7 0.571930 0.287808 0.105943
O O8 0.147963 0.500000 0.737552
O O9 0.114875 0.238745 0.674442
O O10 0.228866 0.256113 0.727783
O O11 0.116546 0.236379 0.799723
O O12 0.076917 0.500000 0.612871
O O13 0.110498 0.238475 0.548884
O O14 0.000000 0.244946 0.615093
O O15 0.287674 0.500000 0.181493
O O16 0.360695 0.245664 0.206385
O O17 0.855543 0.500000 0.486200
O O18 0.885790 0.237530 0.423878
O O19 0.500000 0.761536 0.204312
O O20 0.427729 0.000000 0.162615
O O21 0.928775 0.500000 0.853766
O O22 0.000000 0.236194 0.861476
#
# Coordination Sequence:
#
# PCOD9356648 Si02
#       8
#     8   8   8   8   8   8   8   8
#     4   9  17  29  46  70 102 136 170 208 250 302
#     4   8  14  25  41  64  97 135 169 204 252 303
#     4  10  19  34  55  76  99 131 170 211 255 307
#     4   9  17  30  50  75  98 123 161 206 252 302
#     4  10  19  30  47  72 104 137 168 209 258 305
#     4  11  21  33  52  76 103 135 169 211 257 303
#     4   9  16  25  40  65  98 135 173 210 247 293
#     4  10  22  39  57  76 101 134 170 211 259 311
#
# _framework density 18.517047000000002
#
# number of rings (size 3 to 8) (size 9 to 14) (size 15 to 20)
#    0.000    2.500    1.250    2.625    0.000    5.500 
#    0.000    0.000    0.000    1.875    0.000    0.875 
#    0.000    3.000    0.000    0.000    0.000    0.000 
#
# Total GULP energy -178330.273037 kJ/mol
# GULP energy per Si atom -5572.821032 kJ/mol
# Density = 1.847490 g / cm^3
# Si number density = 18.517047 Si / 1000 Ang^3
#
#
#
# Elastic Constant Matrix: (Units=GPa)
#
#
# Indices 1 2 3 4 5 6 
#
# 1 218.4416 8.1309 78.9247 0.0000 0.0000 0.0000
# 2 8.1309 18.0913 9.6905 0.0000 0.0000 0.0000
# 3 78.9247 9.6905 100.0495 0.0000 0.0000 0.0000
# 4 0.0000 0.0000 0.0000 13.9260 0.0000 0.0000
# 5 0.0000 0.0000 0.0000 0.0000 14.1189 0.0000
# 6 0.0000 0.0000 0.0000 0.0000 0.0000 17.0036
#
#
#
# Elastic Compliance Matrix: (Units=1/GPa)
#
#
# Indices 1 2 3 4 5 6 
#
# 1 0.006403 -0.000182 -0.005034 0.000000 0.000000 0.000000
# 2 -0.000182 0.058305 -0.005504 0.000000 0.000000 0.000000
# 3 -0.005034 -0.005504 0.014499 0.000000 0.000000 0.000000
# 4 0.000000 0.000000 0.000000 0.071808 0.000000 0.000000
# 5 0.000000 0.000000 0.000000 0.000000 0.070827 0.000000
# 6 0.000000 0.000000 0.000000 0.000000 0.000000 0.058811
#
#
# Mechanical properties :
#
#
# Convention : Reuss Voigt Hill
#
# Bulk Modulus (GPa) = 17.31043 58.89719 38.10381
# Shear Modulus (GPa) = 15.55942 24.99878 20.27910
#
# Velocity S-wave (km/s) = 2.90190 3.67828 3.31291
# Velocity P-wave (km/s) = 4.53836 7.06510 5.93769
#
# Compressibility (1/GPa) = 0.05776865
#
# Stress axis : x y z
#
# Youngs Moduli (GPa) = 156.16761 17.15121 68.97001
#
# Poissons Ratio (x) = 0.00311 0.34718
# Poissons Ratio (y) = 0.02836 0.37961
# Poissons Ratio (z) = 0.78611 0.09440
#
# Static dielectric constant tensor:
#      x y z
#    x 1.690220 0.000000 0.000000 
#    y 0.000000 1.660950 0.000000 
#    z 0.000000 0.000000 1.609920 
# 
# From -- ./inp_files/18844.got.cif
#   From: 2010.05.17/outbox.cif.g08.bks.cpg/sg38_10_cif.got.tgz:18844.got - 2010.06.03 18:07:57.
