data_PCOD9356161
_publ_section_title
;
Structure prediction by ZEFSAII (Michael W. Deem and Ramdas Pophale) SiO2 
 PCOD9356161
Probable space group: A M M 2
;
_chemical_formula_sum "Si O2"
_cell_formula_units_Z 64
_cell_length_a 14.760334
_cell_length_b 8.771906
_cell_length_c 32.113709
_cell_angle_alpha 90.000000
_cell_angle_beta 90.000000
_cell_angle_gamma 90.000000
_cell_volume 4157.963012
_symmetry_space_group_name_H-M "A M M 2"
_symmetry_group_IT_number 38
_symmetry_cell_setting 'orthorhombic'
loop_
_space_group_symop_operation_xyz
x,y,z
-x,-y,z
-x,y,z
x,-y,z
x,1/2+y,1/2+z
-x,1/2-y,1/2+z
-x,1/2+y,1/2+z
x,1/2-y,1/2+z
loop_
_atom_site_type_symbol
_atom_site_label
_atom_site_fract_x
_atom_site_fract_y
_atom_site_fract_z
Si Si1 0.394829 0.318360 0.723370
Si Si2 0.102901 0.683556 0.013314
Si Si3 0.390032 0.824047 0.810441
Si Si4 0.604703 0.813919 0.901990
Si Si5 0.710084 0.684202 0.145533
Si Si6 0.605747 0.816090 0.560974
Si Si7 0.284803 0.817324 0.982980
Si Si8 0.100723 0.814638 0.610719
O O1 0.500000 0.266960 0.718231
O O2 0.393386 0.500000 0.720790
O O3 0.363722 0.267012 0.769328
O O4 0.334628 0.248833 0.686923
O O5 0.110861 0.500000 0.011095
O O6 0.114799 0.726132 0.062137
O O7 0.000000 0.724793 0.001307
O O8 0.182465 0.758809 0.987259
O O9 0.500000 0.823334 0.812059
O O10 0.362355 0.764645 0.856075
O O11 0.361212 0.000000 0.805869
O O12 0.500000 0.766081 0.908372
O O13 0.666583 0.765732 0.940398
O O14 0.604019 0.000000 0.900806
O O15 0.709146 0.500000 0.147709
O O16 0.651921 0.728248 0.104693
O O17 0.813434 0.735884 0.137477
O O18 0.500000 0.773308 0.560286
O O19 0.659165 0.745242 0.522359
O O20 0.612103 0.000000 0.557895
O O21 0.286348 0.000000 0.983991
O O22 0.000000 0.762830 0.623453
O O23 0.100109 0.000000 0.611764
#
# Coordination Sequence:
#
# PCOD9356161 Si02
#       8
#     8   8   8   8   8   8   8   8
#     4  10  20  31  43  64  95 122 146 183 231 276
#     4   9  17  32  51  66  86 119 157 196 234 271
#     4   8  14  28  49  66  82 112 155 193 222 261
#     4   8  15  28  45  66  92 122 154 185 220 267
#     4  10  18  30  48  66  86 117 158 192 218 260
#     4  10  20  32  44  61  90 127 165 195 216 255
#     4  11  20  29  45  69  97 124 151 188 234 279
#     4   8  14  27  48  68  84 108 147 194 232 259
#
# _framework density 15.392153
#
# number of rings (size 3 to 8) (size 9 to 14) (size 15 to 20)
#    0.000    2.750    1.250    3.000    0.000    2.750 
#    0.000    1.250    0.000    3.375    0.000    0.875 
#    0.000    3.000    0.000    0.000    0.000    0.000 
#
# Total GULP energy -178300.284171 kJ/mol
# GULP energy per Si atom -5571.883880 kJ/mol
# Density = 1.535712 g / cm^3
# Si number density = 15.392153 Si / 1000 Ang^3
#
#
#
# Elastic Constant Matrix: (Units=GPa)
#
#
# Indices 1 2 3 4 5 6 
#
# 1 117.8447 26.3391 77.6087 0.0000 0.0000 0.0000
# 2 26.3391 12.6993 27.6107 0.0000 0.0000 0.0000
# 3 77.6087 27.6107 140.6151 0.0000 0.0000 0.0000
# 4 0.0000 0.0000 0.0000 20.5971 0.0000 0.0000
# 5 0.0000 0.0000 0.0000 0.0000 8.4236 0.0000
# 6 0.0000 0.0000 0.0000 0.0000 0.0000 17.8783
#
#
#
# Elastic Compliance Matrix: (Units=1/GPa)
#
#
# Indices 1 2 3 4 5 6 
#
# 1 0.017217 -0.026261 -0.004346 0.000000 0.000000 0.000000
# 2 -0.026261 0.177459 -0.020351 0.000000 0.000000 0.000000
# 3 -0.004346 -0.020351 0.013507 0.000000 0.000000 0.000000
# 4 0.000000 0.000000 0.000000 0.048551 0.000000 0.000000
# 5 0.000000 0.000000 0.000000 0.000000 0.118714 0.000000
# 6 0.000000 0.000000 0.000000 0.000000 0.000000 0.055934
#
#
# Mechanical properties :
#
#
# Convention : Reuss Voigt Hill
#
# Bulk Modulus (GPa) = 9.41030 59.36402 34.38716
# Shear Modulus (GPa) = 8.79167 18.68650 13.73909
#
# Velocity S-wave (km/s) = 2.39253 3.48807 2.99089
# Velocity P-wave (km/s) = 3.70934 7.40767 5.85802
#
# Compressibility (1/GPa) = 0.10626651
#
# Stress axis : x y z
#
# Youngs Moduli (GPa) = 58.08049 5.63510 74.03800
#
# Poissons Ratio (x) = 0.14798 0.32179
# Poissons Ratio (y) = 1.52522 1.50678
# Poissons Ratio (z) = 0.25243 0.11468
#
# Static dielectric constant tensor:
#      x y z
#    x 1.512570 0.000000 0.000000 
#    y 0.000000 1.523750 0.000000 
#    z 0.000000 0.000000 1.503380 
# 
# From -- ./inp_files/25058.got.cif
#   From: 2010.05.17/outbox.cif.g08.bks.cpg/sg38_13_cif.got.tgz:25058.got - 2010.06.03 18:07:57.
