data_PCOD9356716
_publ_section_title
;
Structure prediction by ZEFSAII (Michael W. Deem and Ramdas Pophale) SiO2 
 PCOD9356716
Probable space group: A M M 2
;
_chemical_formula_sum "Si O2"
_cell_formula_units_Z 56
_cell_length_a 9.021671
_cell_length_b 18.832633
_cell_length_c 20.822422
_cell_angle_alpha 90.000000
_cell_angle_beta 90.000000
_cell_angle_gamma 90.000000
_cell_volume 3537.767374
_symmetry_space_group_name_H-M "A M M 2"
_symmetry_group_IT_number 38
_symmetry_cell_setting 'orthorhombic'
loop_
_space_group_symop_operation_xyz
x,y,z
-x,-y,z
-x,y,z
x,-y,z
x,1/2+y,1/2+z
-x,1/2-y,1/2+z
-x,1/2+y,1/2+z
x,1/2-y,1/2+z
loop_
_atom_site_type_symbol
_atom_site_label
_atom_site_fract_x
_atom_site_fract_y
_atom_site_fract_z
Si Si1 0.823027 0.652799 0.603980
Si Si2 0.175895 0.650717 0.354122
Si Si3 0.321644 0.417875 0.728722
Si Si4 0.670002 0.782242 0.299504
Si Si5 0.329801 0.712731 0.156698
Si Si6 0.676012 0.415474 0.479159
Si Si7 0.822482 0.417989 0.215354
O O1 0.759629 0.607718 0.664201
O O2 0.763568 0.732972 0.613745
O O3 0.758587 0.619805 0.539138
O O4 0.000000 0.651420 0.604593
O O5 0.227782 0.731562 0.341729
O O6 0.262122 0.616993 0.413361
O O7 0.209746 0.607649 0.288324
O O8 0.000000 0.647192 0.364865
O O9 0.500000 0.410376 0.718586
O O10 0.289720 0.500000 0.742172
O O11 0.282658 0.363178 0.785897
O O12 0.500000 0.780332 0.322963
O O13 0.670765 0.747987 0.227967
O O14 0.500000 0.708934 0.135198
O O15 0.258531 0.635800 0.167323
O O16 0.500000 0.403187 0.484529
O O17 0.701834 0.500000 0.479707
O O18 0.779981 0.500000 0.207357
O O19 0.000000 0.411585 0.207109
#
# Coordination Sequence:
#
# PCOD9356716 Si02
#       7
#     8   8   8   8   8   8   8
#     4  11  21  32  47  67  93 124 157 192 231 276
#     4  10  19  31  47  67  93 124 157 192 228 269
#     4   9  17  30  48  70  96 124 154 190 231 273
#     4   8  15  28  45  65  90 121 154 187 226 272
#     4   9  17  30  47  66  90 121 157 193 229 274
#     4  11  23  36  49  66  91 124 159 192 226 269
#     4   9  17  29  46  70  99 126 152 189 236 278
#
# _framework density 15.829192000000001
#
# number of rings (size 3 to 8) (size 9 to 14) (size 15 to 20)
#    0.000    2.429    0.000    4.286    0.000    8.000 
#    0.000    0.000    0.000    0.000    0.000    1.000 
#    0.000    5.714    0.000    0.000    0.000    0.000 
#
# Total GULP energy -156123.751093 kJ/mol
# GULP energy per Si atom -5575.848253 kJ/mol
# Density = 1.579316 g / cm^3
# Si number density = 15.829192 Si / 1000 Ang^3
#
#
#
# Elastic Constant Matrix: (Units=GPa)
#
#
# Indices 1 2 3 4 5 6 
#
# 1 83.5236 67.8324 45.2191 0.0000 0.0000 0.0000
# 2 67.8324 154.1585 46.1084 0.0000 0.0000 0.0000
# 3 45.2191 46.1084 49.1443 0.0000 0.0000 0.0000
# 4 0.0000 0.0000 0.0000 23.5250 0.0000 0.0000
# 5 0.0000 0.0000 0.0000 0.0000 23.3954 0.0000
# 6 0.0000 0.0000 0.0000 0.0000 0.0000 22.3053
#
#
#
# Elastic Compliance Matrix: (Units=1/GPa)
#
#
# Indices 1 2 3 4 5 6 
#
# 1 0.027704 -0.006347 -0.019537 0.000000 0.000000 0.000000
# 2 -0.006347 0.010471 -0.003984 0.000000 0.000000 0.000000
# 3 -0.019537 -0.003984 0.042063 0.000000 0.000000 0.000000
# 4 0.000000 0.000000 0.000000 0.042508 0.000000 0.000000
# 5 0.000000 0.000000 0.000000 0.000000 0.042744 0.000000
# 6 0.000000 0.000000 0.000000 0.000000 0.000000 0.044832
#
#
# Mechanical properties :
#
#
# Convention : Reuss Voigt Hill
#
# Bulk Modulus (GPa) = 48.77500 67.23845 58.00673
# Shear Modulus (GPa) = 18.05756 22.35622 20.20689
#
# Velocity S-wave (km/s) = 3.38120 3.76219 3.57677
# Velocity P-wave (km/s) = 6.79143 7.83848 7.33367
#
# Compressibility (1/GPa) = 0.02050231
#
# Stress axis : x y z
#
# Youngs Moduli (GPa) = 36.09555 95.49868 23.77404
#
# Poissons Ratio (x) = 0.60613 0.46446
# Poissons Ratio (y) = 0.22910 0.09473
# Poissons Ratio (z) = 0.70518 0.38051
#
# Static dielectric constant tensor:
#      x y z
#    x 1.531350 0.000000 0.000000 
#    y 0.000000 1.543660 0.000000 
#    z 0.000000 0.000000 1.498250 
# 
# From -- ./inp_files/17068.got.cif
#   From: 2010.05.17/outbox.cif.g08.bks.cpg/sg38_9_cif.got.tgz:17068.got - 2010.06.03 18:07:57.
