data_PCOD9356297
_publ_section_title
;
Structure prediction by ZEFSAII (Michael W. Deem and Ramdas Pophale) SiO2 
 PCOD9356297
Probable space group: A M M 2
;
_chemical_formula_sum "Si O2"
_cell_formula_units_Z 56
_cell_length_a 17.129162
_cell_length_b 17.152632
_cell_length_c 10.590071
_cell_angle_alpha 90.000000
_cell_angle_beta 90.000000
_cell_angle_gamma 90.000000
_cell_volume 3111.471008
_symmetry_space_group_name_H-M "A M M 2"
_symmetry_group_IT_number 38
_symmetry_cell_setting 'orthorhombic'
loop_
_space_group_symop_operation_xyz
x,y,z
-x,-y,z
-x,y,z
x,-y,z
x,1/2+y,1/2+z
-x,1/2-y,1/2+z
-x,1/2+y,1/2+z
x,1/2-y,1/2+z
loop_
_atom_site_type_symbol
_atom_site_label
_atom_site_fract_x
_atom_site_fract_y
_atom_site_fract_z
Si Si1 0.000000 0.681748 0.946880
Si Si2 0.162120 0.907319 0.444665
Si Si3 0.589590 0.844744 0.298880
Si Si4 0.317310 0.655695 0.549043
Si Si5 0.162120 0.092681 0.153095
Si Si6 0.682690 0.655695 0.048718
Si Si7 0.590288 0.845552 0.798880
Si Si8 0.000000 0.318252 0.650880
O O1 0.921808 0.631342 0.966259
O O2 0.000000 0.707728 0.798880
O O3 0.000000 0.750000 0.048880
O O4 0.184586 0.888463 0.298880
O O5 0.229850 0.875649 0.534730
O O6 0.155899 0.000000 0.455709
O O7 0.500000 0.870731 0.298880
O O8 0.634393 0.869558 0.172770
O O9 0.634393 0.869558 0.424990
O O10 0.588913 0.749635 0.298880
O O11 0.229850 0.624351 0.563030
O O12 0.314287 0.750000 0.548880
O O13 0.362994 0.630306 0.423842
O O14 0.078192 0.131342 0.131502
O O15 0.155899 0.000000 0.142051
O O16 0.637006 0.630306 0.173919
O O17 0.500000 0.871127 0.798880
#
# Coordination Sequence:
#
# PCOD9356297 Si02
#       8
#     4   8   8   8   8   8   8   4
#     4  10  21  39  63  89 113 140 176 222 270 320
#     4  10  20  36  58  82 110 145 185 222 264 319
#     4   9  16  28  49  76 105 138 181 233 276 315
#     4  10  18  31  52  79 109 141 184 229 272 323
#     4  10  20  36  58  82 110 145 185 222 264 319
#     4  10  18  31  52  79 109 141 184 229 272 323
#     4   9  18  30  49  78 109 142 181 231 284 323
#     4  10  21  39  63  89 113 140 176 222 270 320
#
# _framework density 17.997917999999999
#
# number of rings (size 3 to 8) (size 9 to 14) (size 15 to 20)
#    0.000    2.286    1.429    2.143    0.000    5.143 
#    2.571    0.714    0.000    6.000    0.000    0.000 
#    0.000    0.000    0.000    0.000    0.000    0.000 
#
# Total GULP energy -156235.359673 kJ/mol
# GULP energy per Si atom -5579.834274 kJ/mol
# Density = 1.795695 g / cm^3
# Si number density = 17.997918 Si / 1000 Ang^3
#
#
#
# Elastic Constant Matrix: (Units=GPa)
#
#
# Indices 1 2 3 4 5 6 
#
# 1 182.8079 34.5226 99.4802 0.0000 0.0000 0.0000
# 2 34.5226 23.2721 34.5127 0.0000 0.0000 0.0000
# 3 99.4802 34.5127 148.8959 0.0000 0.0000 0.0000
# 4 0.0000 0.0000 0.0000 13.5100 0.0000 0.0000
# 5 0.0000 0.0000 0.0000 0.0000 34.3162 0.0000
# 6 0.0000 0.0000 0.0000 0.0000 0.0000 -20.0523
#
#
#
# Elastic Compliance Matrix: (Units=1/GPa)
#
#
# Indices 1 2 3 4 5 6 
#
# 1 0.009282 -0.006967 -0.004586 0.000000 0.000000 0.000000
# 2 -0.006967 0.070708 -0.011734 0.000000 0.000000 0.000000
# 3 -0.004586 -0.011734 0.012500 0.000000 0.000000 0.000000
# 4 0.000000 0.000000 0.000000 0.074019 0.000000 0.000000
# 5 0.000000 0.000000 0.000000 0.000000 0.029141 0.000000
# 6 0.000000 0.000000 0.000000 0.000000 0.000000 -0.049869
#
#
# Mechanical properties :
#
#
# Convention : Reuss Voigt Hill
#
# Bulk Modulus (GPa) = 21.78005 76.88966 49.33486
# Shear Modulus (GPa) = 24.07771 17.98547 21.03159
#
# Velocity S-wave (km/s) = 3.66157 3.16461 3.42212
# Velocity P-wave (km/s) = 5.47758 7.49448 6.56396
#
# Compressibility (1/GPa) = 0.04591357
#
# Stress axis : x y z
#
# Youngs Moduli (GPa) = 107.73793 14.14274 79.99821
#
# Poissons Ratio (x) = 0.09854 0.36690
# Poissons Ratio (y) = 0.75064 0.93873
# Poissons Ratio (z) = 0.49413 0.16596
#
# Static dielectric constant tensor:
#      x y z
#    x 1.597620 0.000000 0.000000 
#    y 0.000000 1.593970 0.000000 
#    z 0.000000 0.000000 1.612830 
# 
# From -- ./inp_files/5757.got.cif
#   From: 2010.05.17/outbox.cif.g08.bks.cpg/sg38_3_cif.got.tgz:5757.got - 2010.06.03 18:07:57.
