data_PCOD9356328
_publ_section_title
;
Structure prediction by ZEFSAII (Michael W. Deem and Ramdas Pophale) SiO2 
 PCOD9356328
Probable space group: A M M 2
;
_chemical_formula_sum "Si O2"
_cell_formula_units_Z 48
_cell_length_a 7.589569
_cell_length_b 15.167084
_cell_length_c 20.857014
_cell_angle_alpha 90.000000
_cell_angle_beta 90.000000
_cell_angle_gamma 90.000000
_cell_volume 2400.884890
_symmetry_space_group_name_H-M "A M M 2"
_symmetry_group_IT_number 38
_symmetry_cell_setting 'orthorhombic'
loop_
_space_group_symop_operation_xyz
x,y,z
-x,-y,z
-x,y,z
x,-y,z
x,1/2+y,1/2+z
-x,1/2-y,1/2+z
-x,1/2+y,1/2+z
x,1/2-y,1/2+z
loop_
_atom_site_type_symbol
_atom_site_label
_atom_site_fract_x
_atom_site_fract_y
_atom_site_fract_z
Si Si1 0.708038 0.311192 0.464080
Si Si2 0.783954 0.191256 0.200632
Si Si3 0.213235 0.500000 0.659336
Si Si4 0.207354 0.690603 0.081747
Si Si5 0.785357 0.000000 0.766791
Si Si6 0.788011 0.688395 0.317855
Si Si7 0.784856 0.000000 0.616517
Si Si8 0.708540 0.000000 0.008399
O O1 0.500000 0.315343 0.474897
O O2 0.775028 0.239526 0.514413
O O3 0.741608 0.288946 0.390407
O O4 0.782693 0.408814 0.479974
O O5 0.722910 0.247229 0.138800
O O6 0.726787 0.241642 0.264749
O O7 0.000000 0.190362 0.200460
O O8 0.726524 0.090361 0.192435
O O9 0.267050 0.500000 0.584834
O O10 0.000000 0.500000 0.660121
O O11 0.278785 0.591301 0.085438
O O12 0.000000 0.682830 0.095693
O O13 0.723776 0.089964 0.800096
O O14 0.738254 0.000000 0.691802
O O15 0.000000 0.000000 0.769262
O O16 0.000000 0.685959 0.313217
O O17 0.000000 0.000000 0.612902
O O18 0.500000 0.000000 0.994012
#
# Coordination Sequence:
#
# PCOD9356328 Si02
#       8
#     8   8   4   8   4   8   4   4
#     4  11  23  37  51  74 110 147 180 218 262 312
#     4   9  17  30  53  81 106 131 169 218 261 308
#     4  10  18  31  54  83 107 131 170 219 266 314
#     4  10  18  33  57  82 106 137 175 217 264 316
#     4   9  15  27  52  82 106 128 164 218 272 318
#     4  10  19  33  53  78 106 137 173 216 266 319
#     4   9  16  29  55  87 111 129 165 220 271 312
#     4  10  21  35  51  74 108 142 175 219 267 310
#
# _framework density 19.992629999999998
#
# number of rings (size 3 to 8) (size 9 to 14) (size 15 to 20)
#    0.000    2.167    3.333    1.000    0.000    0.667 
#    0.000    2.917    0.000    4.000    0.000    0.000 
#    0.000    0.000    0.000    0.000    0.000    0.000 
#
# Total GULP energy -134011.493069 kJ/mol
# GULP energy per Si atom -5583.812211 kJ/mol
# Density = 1.994713 g / cm^3
# Si number density = 19.992630 Si / 1000 Ang^3
#
#
#
# Elastic Constant Matrix: (Units=GPa)
#
#
# Indices 1 2 3 4 5 6 
#
# 1 37.5079 2.6799 -23.2512 0.0000 0.0000 0.0000
# 2 2.6799 191.7301 92.7040 0.0000 0.0000 0.0000
# 3 -23.2512 92.7040 127.1699 0.0000 0.0000 0.0000
# 4 0.0000 0.0000 0.0000 15.1852 0.0000 0.0000
# 5 0.0000 0.0000 0.0000 0.0000 116.1945 0.0000
# 6 0.0000 0.0000 0.0000 0.0000 0.0000 2.2094
#
#
#
# Elastic Compliance Matrix: (Units=1/GPa)
#
#
# Indices 1 2 3 4 5 6 
#
# 1 0.033164 -0.005244 0.009886 0.000000 0.000000 0.000000
# 2 -0.005244 0.008884 -0.007435 0.000000 0.000000 0.000000
# 3 0.009886 -0.007435 0.015091 0.000000 0.000000 0.000000
# 4 0.000000 0.000000 0.000000 0.065853 0.000000 0.000000
# 5 0.000000 0.000000 0.000000 0.000000 0.008606 0.000000
# 6 0.000000 0.000000 0.000000 0.000000 0.000000 0.452621
#
#
# Mechanical properties :
#
#
# Convention : Reuss Voigt Hill
#
# Bulk Modulus (GPa) = 19.39717 55.63036 37.51377
# Shear Modulus (GPa) = 8.23739 45.66951 26.95345
#
# Velocity S-wave (km/s) = 2.03203 4.78464 3.67573
# Velocity P-wave (km/s) = 3.90241 7.64261 6.06788
#
# Compressibility (1/GPa) = 0.05155391
#
# Stress axis : x y z
#
# Youngs Moduli (GPa) = 30.15316 112.56488 66.26556
#
# Poissons Ratio (x) = 0.59024 -0.65510
# Poissons Ratio (y) = 0.15811 0.49267
# Poissons Ratio (z) = -0.29809 0.83689
#
# Static dielectric constant tensor:
#      x y z
#    x 1.742020 0.000000 0.000000 
#    y 0.000000 1.728770 0.000000 
#    z 0.000000 0.000000 1.655510 
# 
# From -- ./inp_files/16715.got.cif
#   From: 2010.05.17/outbox.cif.g08.bks.cpg/sg38_9_cif.got.tgz:16715.got - 2010.06.03 18:07:57.
