data_PCOD9356979
_publ_section_title
;
Structure prediction by ZEFSAII (Michael W. Deem and Ramdas Pophale) SiO2 
 PCOD9356979
Probable space group: A M M 2
;
_chemical_formula_sum "Si O2"
_cell_formula_units_Z 64
_cell_length_a 20.444844
_cell_length_b 8.346674
_cell_length_c 20.862189
_cell_angle_alpha 90.000000
_cell_angle_beta 90.000000
_cell_angle_gamma 90.000000
_cell_volume 3560.058447
_symmetry_space_group_name_H-M "A M M 2"
_symmetry_group_IT_number 38
_symmetry_cell_setting 'orthorhombic'
loop_
_space_group_symop_operation_xyz
x,y,z
-x,-y,z
-x,y,z
x,-y,z
x,1/2+y,1/2+z
-x,1/2-y,1/2+z
-x,1/2+y,1/2+z
x,1/2-y,1/2+z
loop_
_atom_site_type_symbol
_atom_site_label
_atom_site_fract_x
_atom_site_fract_y
_atom_site_fract_z
Si Si1 0.837388 0.695063 0.500000
Si Si2 0.573960 0.806674 0.720330
Si Si3 0.341606 0.307993 0.101342
Si Si4 0.676862 0.809084 0.325230
Si Si5 0.310433 0.808611 0.965047
Si Si6 0.821397 0.193896 0.280844
Si Si7 0.803155 0.693765 0.637740
Si Si8 0.074346 0.193660 0.884077
O O1 0.838064 0.500000 0.499770
O O2 0.765394 0.744530 0.474999
O O3 0.842061 0.746685 0.574090
O O4 0.892268 0.749991 0.450507
O O5 0.500000 0.748095 0.729848
O O6 0.604068 0.753341 0.652171
O O7 0.623118 0.756330 0.776407
O O8 0.572511 0.000000 0.719212
O O9 0.341334 0.500000 0.099193
O O10 0.271388 0.249523 0.127724
O O11 0.347889 0.244095 0.029154
O O12 0.664123 0.760229 0.398435
O O13 0.749894 0.751350 0.305720
O O14 0.677214 0.000000 0.319968
O O15 0.310562 0.000000 0.961500
O O16 0.828533 0.246701 0.206923
O O17 0.878297 0.255186 0.326666
O O18 0.821947 0.000000 0.282461
O O19 0.802513 0.500000 0.637843
O O20 0.000000 0.251008 0.876992
O O21 0.073169 0.000000 0.885715
#
# Coordination Sequence:
#
# PCOD9356979 Si02
#       8
#     8   8   8   8   8   8   8   8
#     4   8  15  29  50  74  99 130 172 217 263 314
#     4  10  22  39  57  79 111 150 185 219 271 338
#     4  10  19  32  53  81 109 138 177 227 273 322
#     4  11  21  34  55  84 113 142 182 233 280 325
#     4  10  19  33  55  79 108 143 180 227 276 325
#     4  10  20  33  52  79 111 140 176 226 276 328
#     4   9  17  32  52  76 105 137 174 221 272 323
#     4  10  20  34  52  75 105 142 185 228 273 330
#
# _framework density 17.977232999999998
#
# number of rings (size 3 to 8) (size 9 to 14) (size 15 to 20)
#    0.000    2.250    2.500    1.875    0.000    2.000 
#    0.000    1.250    0.000    4.500    0.000    0.000 
#    0.000    0.000    0.000    0.000    0.000    0.000 
#
# Total GULP energy -178498.547308 kJ/mol
# GULP energy per Si atom -5578.079603 kJ/mol
# Density = 1.793632 g / cm^3
# Si number density = 17.977233 Si / 1000 Ang^3
#
#
#
# Elastic Constant Matrix: (Units=GPa)
#
#
# Indices 1 2 3 4 5 6 
#
# 1 128.3074 17.7620 94.4075 0.0000 0.0000 0.0000
# 2 17.7620 9.9553 19.3029 0.0000 0.0000 0.0000
# 3 94.4075 19.3029 165.5936 0.0000 0.0000 0.0000
# 4 0.0000 0.0000 0.0000 22.7167 0.0000 0.0000
# 5 0.0000 0.0000 0.0000 0.0000 24.7552 0.0000
# 6 0.0000 0.0000 0.0000 0.0000 0.0000 17.8643
#
#
#
# Elastic Compliance Matrix: (Units=1/GPa)
#
#
# Indices 1 2 3 4 5 6 
#
# 1 0.014586 -0.012791 -0.006825 0.000000 0.000000 0.000000
# 2 -0.012791 0.140999 -0.009144 0.000000 0.000000 0.000000
# 3 -0.006825 -0.009144 0.010996 0.000000 0.000000 0.000000
# 4 0.000000 0.000000 0.000000 0.044020 0.000000 0.000000
# 5 0.000000 0.000000 0.000000 0.000000 0.040396 0.000000
# 6 0.000000 0.000000 0.000000 0.000000 0.000000 0.055977
#
#
# Mechanical properties :
#
#
# Convention : Reuss Voigt Hill
#
# Bulk Modulus (GPa) = 9.16911 62.97791 36.07351
# Shear Modulus (GPa) = 12.47359 24.55951 18.51655
#
# Velocity S-wave (km/s) = 2.63697 3.70015 3.21284
# Velocity P-wave (km/s) = 3.79249 7.30499 5.82005
#
# Compressibility (1/GPa) = 0.10906181
#
# Stress axis : x y z
#
# Youngs Moduli (GPa) = 68.55864 7.09225 90.94552
#
# Poissons Ratio (x) = 0.09072 0.62068
# Poissons Ratio (y) = 0.87694 0.83156
# Poissons Ratio (z) = 0.46789 0.06485
#
# Static dielectric constant tensor:
#      x y z
#    x 1.595330 0.000000 0.000000 
#    y 0.000000 1.622110 0.000000 
#    z 0.000000 0.000000 1.625990 
# 
# From -- ./inp_files/21441.got.cif
#   From: 2010.05.17/outbox.cif.g08.bks.cpg/sg38_11_cif.got.tgz:21441.got - 2010.06.03 18:07:57.
