data_PCOD9356455
_publ_section_title
;
Structure prediction by ZEFSAII (Michael W. Deem and Ramdas Pophale) SiO2 
 PCOD9356455
Probable space group: A M M 2
;
_chemical_formula_sum "Si O2"
_cell_formula_units_Z 48
_cell_length_a 7.529327
_cell_length_b 16.743929
_cell_length_c 20.481117
_cell_angle_alpha 90.000000
_cell_angle_beta 90.000000
_cell_angle_gamma 90.000000
_cell_volume 2582.065003
_symmetry_space_group_name_H-M "A M M 2"
_symmetry_group_IT_number 38
_symmetry_cell_setting 'orthorhombic'
loop_
_space_group_symop_operation_xyz
x,y,z
-x,-y,z
-x,y,z
x,-y,z
x,1/2+y,1/2+z
-x,1/2-y,1/2+z
-x,1/2+y,1/2+z
x,1/2-y,1/2+z
loop_
_atom_site_type_symbol
_atom_site_label
_atom_site_fract_x
_atom_site_fract_y
_atom_site_fract_z
Si Si1 0.714479 0.788412 0.191950
Si Si2 0.285978 0.719501 0.922474
Si Si3 0.000000 0.090271 0.402178
Si Si4 0.000000 0.090938 0.245453
Si Si5 0.801455 0.500000 0.363290
Si Si6 0.296858 0.500000 0.510382
Si Si7 0.287284 0.167515 0.800831
Si Si8 0.284597 0.826489 0.045720
O O1 0.500000 0.799474 0.198703
O O2 0.826259 0.860925 0.222308
O O3 0.764644 0.708746 0.232552
O O4 0.760459 0.788950 0.115466
O O5 0.500000 0.707549 0.922004
O O6 0.174516 0.638862 0.923000
O O7 0.236721 0.770768 0.858223
O O8 0.233281 0.772176 0.984851
O O9 0.000000 0.089069 0.323603
O O10 0.000000 0.000000 0.426640
O O11 0.000000 0.000000 0.220762
O O12 0.694298 0.500000 0.431178
O O13 0.775131 0.420564 0.320417
O O14 0.000000 0.500000 0.388752
O O15 0.500000 0.500000 0.534855
O O16 0.216912 0.416798 0.535378
O O17 0.500000 0.162692 0.801248
O O18 0.500000 0.830377 0.042899
#
# Coordination Sequence:
#
# PCOD9356455 Si02
#       8
#     8   8   4   4   4   4   8   8
#     4  10  22  40  61  84 117 161 198 235 292 356
#     4  10  20  37  63  87 113 151 194 246 301 351
#     4  11  24  39  60  84 114 150 201 249 292 342
#     4  11  24  37  54  86 120 152 191 243 280 336
#     4  12  24  32  56  90 122 153 194 249 292 347
#     4  10  18  34  56  86 126 153 184 233 294 359
#     4  10  20  37  59  83 113 154 197 237 290 350
#     4   9  19  35  59  88 118 154 193 238 295 360
#
# _framework density 18.589773000000001
#
# number of rings (size 3 to 8) (size 9 to 14) (size 15 to 20)
#    0.000    1.833    3.333    0.750    3.500    1.333 
#    1.500    1.667    1.833    0.000    0.000    0.000 
#    0.000    0.000    0.000    0.000    0.000    0.000 
#
# Total GULP energy -133928.409471 kJ/mol
# GULP energy per Si atom -5580.350395 kJ/mol
# Density = 1.854746 g / cm^3
# Si number density = 18.589773 Si / 1000 Ang^3
#
#
#
# Elastic Constant Matrix: (Units=GPa)
#
#
# Indices 1 2 3 4 5 6 
#
# 1 64.0059 33.4713 14.4063 0.0000 0.0000 0.0000
# 2 33.4713 149.0497 58.8389 0.0000 0.0000 0.0000
# 3 14.4063 58.8389 120.5292 0.0000 0.0000 0.0000
# 4 0.0000 0.0000 0.0000 23.9598 0.0000 0.0000
# 5 0.0000 0.0000 0.0000 0.0000 -2.5943 0.0000
# 6 0.0000 0.0000 0.0000 0.0000 0.0000 16.4828
#
#
#
# Elastic Compliance Matrix: (Units=1/GPa)
#
#
# Indices 1 2 3 4 5 6 
#
# 1 0.017707 -0.003891 -0.000217 0.000000 0.000000 0.000000
# 2 -0.003891 0.009166 -0.004009 0.000000 0.000000 0.000000
# 3 -0.000217 -0.004009 0.010280 0.000000 0.000000 0.000000
# 4 0.000000 0.000000 0.000000 0.041737 0.000000 0.000000
# 5 0.000000 0.000000 0.000000 0.000000 -0.385457 0.000000
# 6 0.000000 0.000000 0.000000 0.000000 0.000000 0.060669
#
#
# Mechanical properties :
#
#
# Convention : Reuss Voigt Hill
#
# Bulk Modulus (GPa) = 47.80504 60.77974 54.29239
# Shear Modulus (GPa) = -22.45261 22.69422 0.12080
#
# Velocity S-wave (km/s) = -3.47910 3.49777 0.25520
# Velocity P-wave (km/s) = 3.10366 7.00562 5.41809
#
# Compressibility (1/GPa) = 0.02091829
#
# Stress axis : x y z
#
# Youngs Moduli (GPa) = 56.47482 109.10352 97.27675
#
# Poissons Ratio (x) = 0.42448 0.02112
# Poissons Ratio (y) = 0.21972 0.39002
# Poissons Ratio (z) = 0.01226 0.43743
#
# Static dielectric constant tensor:
#      x y z
#    x 1.672220 0.000000 0.000000 
#    y 0.000000 1.627950 0.000000 
#    z 0.000000 0.000000 1.635630 
# 
# From -- ./inp_files/16765.got.cif
#   From: 2010.05.17/outbox.cif.g08.bks.cpg/sg38_9_cif.got.tgz:16765.got - 2010.06.03 18:07:57.
