data_PCOD9356696
_publ_section_title
;
Structure prediction by ZEFSAII (Michael W. Deem and Ramdas Pophale) SiO2 
 PCOD9356696
Probable space group: A M M 2
;
_chemical_formula_sum "Si O2"
_cell_formula_units_Z 48
_cell_length_a 10.602009
_cell_length_b 24.491916
_cell_length_c 9.564005
_cell_angle_alpha 90.000000
_cell_angle_beta 90.000000
_cell_angle_gamma 90.000000
_cell_volume 2483.423145
_symmetry_space_group_name_H-M "A M M 2"
_symmetry_group_IT_number 38
_symmetry_cell_setting 'orthorhombic'
loop_
_space_group_symop_operation_xyz
x,y,z
-x,-y,z
-x,y,z
x,-y,z
x,1/2+y,1/2+z
-x,1/2-y,1/2+z
-x,1/2+y,1/2+z
x,1/2-y,1/2+z
loop_
_atom_site_type_symbol
_atom_site_label
_atom_site_fract_x
_atom_site_fract_y
_atom_site_fract_z
Si Si1 0.364381 0.722100 0.336480
Si Si2 0.142453 0.368975 0.619444
Si Si3 0.140533 0.131620 0.453666
Si Si4 0.646707 0.562512 0.111509
Si Si5 0.358662 0.904369 0.921809
Si Si6 0.790129 0.245123 0.574595
O O1 0.500000 0.739189 0.279328
O O2 0.366163 0.658197 0.368879
O O3 0.335807 0.751758 0.481118
O O4 0.251150 0.734224 0.232244
O O5 0.163628 0.368855 0.786699
O O6 0.249522 0.403074 0.537990
O O7 0.150406 0.305425 0.569620
O O8 0.000000 0.388653 0.591842
O O9 0.251991 0.100097 0.533508
O O10 0.138400 0.193583 0.511556
O O11 0.000000 0.107932 0.478311
O O12 0.500000 0.580476 0.091734
O O13 0.657316 0.500000 0.062579
O O14 0.669967 0.563835 0.278861
O O15 0.500000 0.919730 0.972558
#
# Coordination Sequence:
#
# PCOD9356696 Si02
#       6
#     8   8   8   8   8   8
#     4  10  19  30  50  79 114 152 189 230 279 333
#     4  10  22  38  55  83 120 159 196 229 273 336
#     4  11  23  38  57  85 120 158 196 238 285 338
#     4  10  22  42  66  89 112 142 187 245 301 350
#     4   9  19  37  58  84 112 144 187 237 286 338
#     4  11  19  35  50  80 118 158 194 231 272 334
#
# _framework density 19.32816
#
# number of rings (size 3 to 8) (size 9 to 14) (size 15 to 20)
#    0.000    1.833    3.333    1.000    0.000    3.000 
#    0.000    0.833    0.000    3.000    0.000    0.000 
#    0.000    0.000    0.000    0.000    0.000    0.000 
#
# Total GULP energy -133769.204188 kJ/mol
# GULP energy per Si atom -5573.716841 kJ/mol
# Density = 1.928417 g / cm^3
# Si number density = 19.328160 Si / 1000 Ang^3
#
#
#
# Elastic Constant Matrix: (Units=GPa)
#
#
# Indices 1 2 3 4 5 6 
#
# 1 138.8989 38.1884 69.1786 0.0000 0.0000 0.0000
# 2 38.1884 46.4918 19.6317 0.0000 0.0000 0.0000
# 3 69.1786 19.6317 90.7014 0.0000 0.0000 0.0000
# 4 0.0000 0.0000 0.0000 16.4406 0.0000 0.0000
# 5 0.0000 0.0000 0.0000 0.0000 71.0479 0.0000
# 6 0.0000 0.0000 0.0000 0.0000 0.0000 23.6816
#
#
#
# Elastic Compliance Matrix: (Units=1/GPa)
#
#
# Indices 1 2 3 4 5 6 
#
# 1 0.013628 -0.007490 -0.008773 0.000000 0.000000 0.000000
# 2 -0.007490 0.027789 -0.000302 0.000000 0.000000 0.000000
# 3 -0.008773 -0.000302 0.017782 0.000000 0.000000 0.000000
# 4 0.000000 0.000000 0.000000 0.060825 0.000000 0.000000
# 5 0.000000 0.000000 0.000000 0.000000 0.014075 0.000000
# 6 0.000000 0.000000 0.000000 0.000000 0.000000 0.042227
#
#
# Mechanical properties :
#
#
# Convention : Reuss Voigt Hill
#
# Bulk Modulus (GPa) = 38.36018 58.89882 48.62950
# Shear Modulus (GPa) = 22.92044 32.17357 27.54701
#
# Velocity S-wave (km/s) = 3.44736 4.08437 3.77931
# Velocity P-wave (km/s) = 5.97793 7.26512 6.65273
#
# Compressibility (1/GPa) = 0.02606870
#
# Stress axis : x y z
#
# Youngs Moduli (GPa) = 73.37752 35.98576 56.23652
#
# Poissons Ratio (x) = 0.26952 0.49338
# Poissons Ratio (y) = 0.54957 0.01700
# Poissons Ratio (z) = 0.64376 0.01088
#
# Static dielectric constant tensor:
#      x y z
#    x 1.296030 0.000000 0.000000 
#    y 0.000000 1.674420 0.000000 
#    z 0.000000 0.000000 1.646680 
# 
# From -- ./inp_files/4623.got.cif
#   From: 2010.05.17/outbox.cif.g08.bks.cpg/sg38_3_cif.got.tgz:4623.got - 2010.06.03 18:07:57.
