data_PCOD9356484
_publ_section_title
;
Structure prediction by ZEFSAII (Michael W. Deem and Ramdas Pophale) SiO2 
 PCOD9356484
Probable space group: A M M 2
;
_chemical_formula_sum "Si O2"
_cell_formula_units_Z 24
_cell_length_a 10.794597
_cell_length_b 7.586909
_cell_length_c 16.923834
_cell_angle_alpha 90.000000
_cell_angle_beta 90.000000
_cell_angle_gamma 90.000000
_cell_volume 1386.021813
_symmetry_space_group_name_H-M "A M M 2"
_symmetry_group_IT_number 38
_symmetry_cell_setting 'orthorhombic'
loop_
_space_group_symop_operation_xyz
x,y,z
-x,-y,z
-x,y,z
x,-y,z
x,1/2+y,1/2+z
-x,1/2-y,1/2+z
-x,1/2+y,1/2+z
x,1/2-y,1/2+z
loop_
_atom_site_type_symbol
_atom_site_label
_atom_site_fract_x
_atom_site_fract_y
_atom_site_fract_z
Si Si1 0.500000 0.202910 0.838660
Si Si2 0.271884 0.000000 0.089346
Si Si3 0.000000 0.794567 0.459904
Si Si4 0.500000 0.500000 0.707550
Si Si5 0.272723 0.708081 0.953355
Si Si6 0.000000 0.000000 0.093086
O O1 0.500000 0.331677 0.764592
O O2 0.620493 0.240774 0.892465
O O3 0.500000 0.000000 0.814748
O O4 0.380111 0.000000 0.152221
O O5 0.282848 0.168593 0.030676
O O6 0.136105 0.000000 0.130824
O O7 0.132973 0.761720 0.419510
O O8 0.000000 0.669708 0.535866
O O9 0.000000 0.000000 0.482542
O O10 0.284732 0.500000 0.971934
#
# Coordination Sequence:
#
# PCOD9356484 Si02
#       6
#     4   4   4   2   8   2
#     4  12  23  37  53  77 114 151 184 226 271 320
#     4  10  20  36  60  84 109 142 185 224 273 328
#     4   8  16  28  53  89 109 125 174 231 272 316
#     4  12  26  38  50  78 118 150 186 224 272 322
#     4  10  18  35  61  85 107 140 182 227 272 326
#     4   8  16  32  54  82 110 136 172 228 272 318
#
# _framework density 17.315746000000001
#
# number of rings (size 3 to 8) (size 9 to 14) (size 15 to 20)
#    0.000    2.000    3.333    1.000    0.000    1.333 
#    0.000    1.667    0.000    0.000    0.000    0.000 
#    0.000    0.000    0.000    0.000    0.000    0.000 
#
# Total GULP energy -66839.637774 kJ/mol
# GULP energy per Si atom -5569.969815 kJ/mol
# Density = 1.727634 g / cm^3
# Si number density = 17.315746 Si / 1000 Ang^3
#
#
#
# Elastic Constant Matrix: (Units=GPa)
#
#
# Indices 1 2 3 4 5 6 
#
# 1 207.8199 56.6488 75.5472 0.0000 0.0000 0.0000
# 2 56.6488 123.8887 43.1546 0.0000 0.0000 0.0000
# 3 75.5472 43.1546 67.9215 0.0000 0.0000 0.0000
# 4 0.0000 0.0000 0.0000 22.4140 0.0000 0.0000
# 5 0.0000 0.0000 0.0000 0.0000 -7.2787 0.0000
# 6 0.0000 0.0000 0.0000 0.0000 0.0000 22.4515
#
#
#
# Elastic Compliance Matrix: (Units=1/GPa)
#
#
# Indices 1 2 3 4 5 6 
#
# 1 0.008129 -0.000729 -0.008579 0.000000 0.000000 0.000000
# 2 -0.000729 0.010431 -0.005817 0.000000 0.000000 0.000000
# 3 -0.008579 -0.005817 0.027961 0.000000 0.000000 0.000000
# 4 0.000000 0.000000 0.000000 0.044615 0.000000 0.000000
# 5 0.000000 0.000000 0.000000 0.000000 -0.137387 0.000000
# 6 0.000000 0.000000 0.000000 0.000000 0.000000 0.044540
#
#
# Mechanical properties :
#
#
# Convention : Reuss Voigt Hill
#
# Bulk Modulus (GPa) = 61.45531 83.37013 72.41272
# Shear Modulus (GPa) = 147.22537 22.46934 84.84735
#
# Velocity S-wave (km/s) = 9.23085 3.60616 7.00760
# Velocity P-wave (km/s) = 12.21390 8.09881 10.36268
#
# Compressibility (1/GPa) = 0.01627199
#
# Stress axis : x y z
#
# Youngs Moduli (GPa) = 123.01539 95.86569 35.76471
#
# Poissons Ratio (x) = 0.06987 0.30681
# Poissons Ratio (y) = 0.08966 0.20804
# Poissons Ratio (z) = 1.05531 0.55765
#
# Static dielectric constant tensor:
#      x y z
#    x 1.648950 0.000000 0.000000 
#    y 0.000000 1.593120 0.000000 
#    z 0.000000 0.000000 1.517800 
# 
# From -- ./inp_files/8777.got.cif
#   From: 2010.05.17/outbox.cif.g08.bks.cpg/sg38_5_cif.got.tgz:8777.got - 2010.06.03 18:07:57.
