data_PCOD9356090
_publ_section_title
;
Structure prediction by ZEFSAII (Michael W. Deem and Ramdas Pophale) SiO2 
 PCOD9356090
Probable space group: A M M 2
;
_chemical_formula_sum "Si O2"
_cell_formula_units_Z 64
_cell_length_a 7.753376
_cell_length_b 14.948848
_cell_length_c 24.837405
_cell_angle_alpha 90.000000
_cell_angle_beta 90.000000
_cell_angle_gamma 90.000000
_cell_volume 2878.755565
_symmetry_space_group_name_H-M "A M M 2"
_symmetry_group_IT_number 38
_symmetry_cell_setting 'orthorhombic'
loop_
_space_group_symop_operation_xyz
x,y,z
-x,-y,z
-x,y,z
x,-y,z
x,1/2+y,1/2+z
-x,1/2-y,1/2+z
-x,1/2+y,1/2+z
x,1/2-y,1/2+z
loop_
_atom_site_type_symbol
_atom_site_label
_atom_site_fract_x
_atom_site_fract_y
_atom_site_fract_z
Si Si1 0.802900 0.838400 0.568220
Si Si2 0.301432 0.595671 0.691028
Si Si3 0.199001 0.125591 0.074003
Si Si4 0.700783 0.098172 0.953864
Si Si5 0.797577 0.899343 0.342837
Si Si6 0.193497 0.253892 0.761188
Si Si7 0.210374 0.897863 0.684805
Si Si8 0.703376 0.302102 0.948033
O O1 0.801510 0.732423 0.577929
O O2 0.727034 0.878761 0.623519
O O3 0.726158 0.842304 0.508149
O O4 0.000000 0.871474 0.564034
O O5 0.500000 0.609450 0.706787
O O6 0.241013 0.500000 0.712605
O O7 0.290712 0.593024 0.627133
O O8 0.187997 0.675695 0.712231
O O9 0.000000 0.096987 0.073020
O O10 0.286680 0.098267 0.018650
O O11 0.500000 0.098863 0.937614
O O12 0.773077 0.198750 0.941535
O O13 0.773281 0.000000 0.935836
O O14 0.723708 0.816661 0.307312
O O15 0.783332 0.867395 0.404150
O O16 0.000000 0.903766 0.327948
O O17 0.724889 0.000000 0.336281
O O18 0.275158 0.168015 0.731997
O O19 0.000000 0.228598 0.779499
O O20 0.000000 0.885093 0.682881
O O21 0.246542 0.000000 0.698197
O O22 0.500000 0.296622 0.938094
#
# Coordination Sequence:
#
# PCOD9356090 Si02
#       8
#     8   8   8   8   8   8   8   8
#     4   9  17  32  53  80 115 152 188 225 273 329
#     4  11  22  32  46  73 108 145 182 222 274 331
#     4  10  18  29  47  74 108 146 187 227 266 318
#     4   9  18  33  51  74 109 150 186 222 274 333
#     4  10  22  40  61  83 110 146 186 234 291 344
#     4  10  20  38  60  82 108 141 185 232 278 333
#     4   9  17  32  57  87 116 146 180 222 277 338
#     4  10  21  36  57  84 113 148 191 238 281 329
#
# _framework density 22.231828
#
# number of rings (size 3 to 8) (size 9 to 14) (size 15 to 20)
#    0.000    2.250    1.250    1.875    0.000    5.500 
#    0.000    1.875    0.000    1.875    0.000    0.000 
#    0.000    0.000    0.000    0.000    0.000    0.000 
#
# Total GULP energy -178317.235019 kJ/mol
# GULP energy per Si atom -5572.413594 kJ/mol
# Density = 2.218123 g / cm^3
# Si number density = 22.231828 Si / 1000 Ang^3
#
#
#
# Elastic Constant Matrix: (Units=GPa)
#
#
# Indices 1 2 3 4 5 6 
#
# 1 42.5476 5.6765 -0.7756 0.0000 0.0000 0.0000
# 2 5.6765 139.8011 56.0801 0.0000 0.0000 0.0000
# 3 -0.7756 56.0801 100.4712 0.0000 0.0000 0.0000
# 4 0.0000 0.0000 0.0000 12.6601 0.0000 0.0000
# 5 0.0000 0.0000 0.0000 0.0000 -21.9127 0.0000
# 6 0.0000 0.0000 0.0000 0.0000 0.0000 8.5748
#
#
#
# Elastic Compliance Matrix: (Units=1/GPa)
#
#
# Indices 1 2 3 4 5 6 
#
# 1 0.023698 -0.001334 0.000928 0.000000 0.000000 0.000000
# 2 -0.001334 0.009292 -0.005197 0.000000 0.000000 0.000000
# 3 0.000928 -0.005197 0.012861 0.000000 0.000000 0.000000
# 4 0.000000 0.000000 0.000000 0.078988 0.000000 0.000000
# 5 0.000000 0.000000 0.000000 0.000000 -0.045636 0.000000
# 6 0.000000 0.000000 0.000000 0.000000 0.000000 0.116621
#
#
# Mechanical properties :
#
#
# Convention : Reuss Voigt Hill
#
# Bulk Modulus (GPa) = 28.86500 44.97577 36.92038
# Shear Modulus (GPa) = 22.87501 14.65370 18.76435
#
# Velocity S-wave (km/s) = 3.21117 2.57014 2.90837
# Velocity P-wave (km/s) = 5.17307 5.39275 5.28405
#
# Compressibility (1/GPa) = 0.03464404
#
# Stress axis : x y z
#
# Youngs Moduli (GPa) = 42.19762 107.62147 77.75490
#
# Poissons Ratio (x) = 0.14361 -0.07214
# Poissons Ratio (y) = 0.05631 0.40407
# Poissons Ratio (z) = -0.03915 0.55928
#
# Static dielectric constant tensor:
#      x y z
#    x 1.851760 0.000000 0.000000 
#    y 0.000000 1.857020 0.000000 
#    z 0.000000 0.000000 1.826950 
# 
# From -- ./inp_files/22144.got.cif
#   From: 2010.05.17/outbox.cif.g08.bks.cpg/sg38_12_cif.got.tgz:22144.got - 2010.06.03 18:07:57.
