data_PCOD9356866
_publ_section_title
;
Structure prediction by ZEFSAII (Michael W. Deem and Ramdas Pophale) SiO2 
 PCOD9356866
Probable space group: A M M 2
;
_chemical_formula_sum "Si O2"
_cell_formula_units_Z 56
_cell_length_a 30.587741
_cell_length_b 18.748871
_cell_length_c 5.169963
_cell_angle_alpha 90.000000
_cell_angle_beta 90.000000
_cell_angle_gamma 90.000000
_cell_volume 2964.899386
_symmetry_space_group_name_H-M "A M M 2"
_symmetry_group_IT_number 38
_symmetry_cell_setting 'orthorhombic'
loop_
_space_group_symop_operation_xyz
x,y,z
-x,-y,z
-x,y,z
x,-y,z
x,1/2+y,1/2+z
-x,1/2-y,1/2+z
-x,1/2+y,1/2+z
x,1/2-y,1/2+z
loop_
_atom_site_type_symbol
_atom_site_label
_atom_site_fract_x
_atom_site_fract_y
_atom_site_fract_z
Si Si1 0.638616 0.202412 0.515630
Si Si2 0.868052 0.915138 0.910376
Si Si3 0.947392 0.709855 0.092827
Si Si4 0.812753 0.413877 0.924619
Si Si5 0.452533 0.700374 0.896417
Si Si6 0.736069 0.800935 0.450137
Si Si7 0.950128 0.416225 0.741859
O O1 0.637500 0.268242 0.308768
O O2 0.593528 0.161385 0.450392
O O3 0.686170 0.169793 0.465478
O O4 0.834234 0.902163 0.144502
O O5 0.915021 0.895607 0.027986
O O6 0.871503 0.000000 0.872256
O O7 0.847048 0.888340 0.645053
O O8 0.929819 0.756180 0.853021
O O9 0.941760 0.629134 0.998331
O O10 0.000000 0.719051 0.111373
O O11 0.805304 0.500000 0.952813
O O12 0.769946 0.365777 0.953309
O O13 0.500000 0.663747 0.925516
O O14 0.451809 0.736927 0.614225
O O15 0.741501 0.752690 0.193215
O O16 0.946151 0.500000 0.796845
O O17 0.000000 0.401375 0.655050
#
# Coordination Sequence:
#
# PCOD9356866 Si02
#       7
#     8   8   8   8   8   8   8
#     4   8  14  23  36  56  84 116 145 183 234 273
#     4   9  19  35  54  75  98 123 152 189 231 273
#     4   9  18  33  50  69  96 125 148 175 216 259
#     4  10  20  36  54  70  94 128 159 187 228 281
#     4   8  12  18  29  47  74 110 148 179 214 268
#     4  10  19  32  50  73  99 123 155 200 243 278
#     4   9  18  35  58  80  99 123 157 191 223 269
#
# _framework density 18.887657000000001
#
# number of rings (size 3 to 8) (size 9 to 14) (size 15 to 20)
#    0.000    3.000    0.000    0.857    0.000    1.143 
#    0.000    8.571    0.000   12.000    0.000    0.000 
#    0.000    0.571    0.000    0.000    0.000  145.143 
#
# Total GULP energy -155988.643218 kJ/mol
# GULP energy per Si atom -5571.022972 kJ/mol
# Density = 1.884467 g / cm^3
# Si number density = 18.887657 Si / 1000 Ang^3
#
#
#
# Elastic Constant Matrix: (Units=GPa)
#
#
# Indices 1 2 3 4 5 6 
#
# 1 144.3581 39.7547 14.7200 0.0000 0.0000 0.0000
# 2 39.7547 49.7474 24.2341 0.0000 0.0000 0.0000
# 3 14.7200 24.2341 90.2728 0.0000 0.0000 0.0000
# 4 0.0000 0.0000 0.0000 17.2088 0.0000 0.0000
# 5 0.0000 0.0000 0.0000 0.0000 -62.5156 0.0000
# 6 0.0000 0.0000 0.0000 0.0000 0.0000 9.0180
#
#
#
# Elastic Compliance Matrix: (Units=1/GPa)
#
#
# Indices 1 2 3 4 5 6 
#
# 1 0.008904 -0.007372 0.000527 0.000000 0.000000 0.000000
# 2 -0.007372 0.029230 -0.006645 0.000000 0.000000 0.000000
# 3 0.000527 -0.006645 0.012775 0.000000 0.000000 0.000000
# 4 0.000000 0.000000 0.000000 0.058110 0.000000 0.000000
# 5 0.000000 0.000000 0.000000 0.000000 -0.015996 0.000000
# 6 0.000000 0.000000 0.000000 0.000000 0.000000 0.110889
#
#
# Mechanical properties :
#
#
# Convention : Reuss Voigt Hill
#
# Bulk Modulus (GPa) = 41.78923 49.08845 45.43884
# Shear Modulus (GPa) = 20.93212 6.45354 13.69283
#
# Velocity S-wave (km/s) = 3.33264 1.85046 2.69543
# Velocity P-wave (km/s) = 6.08127 5.53279 5.81350
#
# Compressibility (1/GPa) = 0.02392961
#
# Stress axis : x y z
#
# Youngs Moduli (GPa) = 112.31385 34.21183 78.27551
#
# Poissons Ratio (x) = 0.25221 -0.04127
# Poissons Ratio (y) = 0.82798 0.52012
# Poissons Ratio (z) = -0.05921 0.22733
#
# Static dielectric constant tensor:
#      x y z
#    x 1.748280 0.000000 0.000000 
#    y 0.000000 1.655560 0.000000 
#    z 0.000000 0.000000 1.701930 
# 
# From -- ./inp_files/2244.got.cif
#   From: 2010.05.17/outbox.cif.g08.bks.cpg/sg38_2_cif.got.tgz:2244.got - 2010.06.03 18:07:57.
