data_PCOD9356577
_publ_section_title
;
Structure prediction by ZEFSAII (Michael W. Deem and Ramdas Pophale) SiO2 
 PCOD9356577
Probable space group: A M M 2
;
_chemical_formula_sum "Si O2"
_cell_formula_units_Z 56
_cell_length_a 8.753842
_cell_length_b 14.273913
_cell_length_c 25.060135
_cell_angle_alpha 90.000000
_cell_angle_beta 90.000000
_cell_angle_gamma 90.000000
_cell_volume 3131.303441
_symmetry_space_group_name_H-M "A M M 2"
_symmetry_group_IT_number 38
_symmetry_cell_setting 'orthorhombic'
loop_
_space_group_symop_operation_xyz
x,y,z
-x,-y,z
-x,y,z
x,-y,z
x,1/2+y,1/2+z
-x,1/2-y,1/2+z
-x,1/2+y,1/2+z
x,1/2-y,1/2+z
loop_
_atom_site_type_symbol
_atom_site_label
_atom_site_fract_x
_atom_site_fract_y
_atom_site_fract_z
Si Si1 0.677189 0.250823 0.302360
Si Si2 0.827585 0.394589 0.372361
Si Si3 0.683809 0.390641 0.210479
Si Si4 0.680397 0.810921 0.493578
Si Si5 0.321289 0.399586 0.484717
Si Si6 0.183068 0.890147 0.383163
Si Si7 0.171013 0.388517 0.098551
O O1 0.500000 0.227950 0.293626
O O2 0.699675 0.329802 0.347481
O O3 0.739011 0.309524 0.251282
O O4 0.759802 0.162018 0.329383
O O5 0.818352 0.500000 0.350681
O O6 0.791482 0.400155 0.434600
O O7 0.000000 0.358638 0.362929
O O8 0.500000 0.392481 0.214732
O O9 0.734933 0.500000 0.220708
O O10 0.733144 0.362179 0.150918
O O11 0.500000 0.828678 0.489623
O O12 0.703419 0.701747 0.509619
O O13 0.752289 0.838430 0.436276
O O14 0.752956 0.866806 0.542174
O O15 0.500000 0.398721 0.466870
O O16 0.300433 0.500000 0.513693
O O17 0.000000 0.885201 0.385313
O O18 0.228401 0.000000 0.384212
O O19 0.159618 0.500000 0.101893
O O20 0.000000 0.348184 0.100866
#
# Coordination Sequence:
#
# PCOD9356577 Si02
#       7
#     8   8   8   8   8   8   8
#     4  11  21  34  54  79 107 141 178 220 272 325
#     4  10  19  29  45  72 105 140 174 209 254 312
#     4   9  19  36  57  82 111 141 176 220 269 324
#     4  11  21  34  56  82 108 145 185 224 272 325
#     4   9  18  32  49  72 104 139 175 216 262 314
#     4  11  24  39  54  76 109 146 184 228 275 325
#     4  10  21  36  55  80 110 144 181 224 273 322
#
# _framework density 17.883927
#
# number of rings (size 3 to 8) (size 9 to 14) (size 15 to 20)
#    0.000    1.857    1.429    3.000    0.000    6.857 
#    0.000    1.429    0.000    0.857    0.000    2.000 
#    0.000    0.000    0.000    0.000    0.000    0.000 
#
# Total GULP energy -155894.414967 kJ/mol
# GULP energy per Si atom -5567.657677 kJ/mol
# Density = 1.784322 g / cm^3
# Si number density = 17.883927 Si / 1000 Ang^3
#
#
#
# Elastic Constant Matrix: (Units=GPa)
#
#
# Indices 1 2 3 4 5 6 
#
# 1 34.9679 22.8233 19.5932 0.0000 0.0000 0.0000
# 2 22.8233 80.6849 27.2337 0.0000 0.0000 0.0000
# 3 19.5932 27.2337 81.8277 0.0000 0.0000 0.0000
# 4 0.0000 0.0000 0.0000 29.4378 0.0000 0.0000
# 5 0.0000 0.0000 0.0000 0.0000 -17.1400 0.0000
# 6 0.0000 0.0000 0.0000 0.0000 0.0000 16.9751
#
#
#
# Elastic Compliance Matrix: (Units=1/GPa)
#
#
# Indices 1 2 3 4 5 6 
#
# 1 0.037643 -0.008568 -0.006162 0.000000 0.000000 0.000000
# 2 -0.008568 0.015913 -0.003244 0.000000 0.000000 0.000000
# 3 -0.006162 -0.003244 0.014776 0.000000 0.000000 0.000000
# 4 0.000000 0.000000 0.000000 0.033970 0.000000 0.000000
# 5 0.000000 0.000000 0.000000 0.000000 -0.058343 0.000000
# 6 0.000000 0.000000 0.000000 0.000000 0.000000 0.058910
#
#
# Mechanical properties :
#
#
# Convention : Reuss Voigt Hill
#
# Bulk Modulus (GPa) = 30.88069 37.42009 34.15039
# Shear Modulus (GPa) = 33.42006 14.37659 23.89832
#
# Velocity S-wave (km/s) = 4.32756 2.83836 3.65951
# Velocity P-wave (km/s) = 6.50193 5.63125 6.08219
#
# Compressibility (1/GPa) = 0.03238270
#
# Stress axis : x y z
#
# Youngs Moduli (GPa) = 26.56567 62.84311 67.67738
#
# Poissons Ratio (x) = 0.53845 0.41701
# Poissons Ratio (y) = 0.22762 0.21957
# Poissons Ratio (z) = 0.16369 0.20389
#
# Static dielectric constant tensor:
#      x y z
#    x 1.626380 0.000000 0.000000 
#    y 0.000000 1.666340 0.000000 
#    z 0.000000 0.000000 1.592270 
# 
# From -- ./inp_files/19748.got.cif
#   From: 2010.05.17/outbox.cif.g08.bks.cpg/sg38_10_cif.got.tgz:19748.got - 2010.06.03 18:07:57.
