data_PCOD9356473
_publ_section_title
;
Structure prediction by ZEFSAII (Michael W. Deem and Ramdas Pophale) SiO2 
 PCOD9356473
Probable space group: A M M 2
;
_chemical_formula_sum "Si O2"
_cell_formula_units_Z 40
_cell_length_a 8.787515
_cell_length_b 11.910090
_cell_length_c 20.427805
_cell_angle_alpha 90.000000
_cell_angle_beta 90.000000
_cell_angle_gamma 90.000000
_cell_volume 2137.976002
_symmetry_space_group_name_H-M "A M M 2"
_symmetry_group_IT_number 38
_symmetry_cell_setting 'orthorhombic'
loop_
_space_group_symop_operation_xyz
x,y,z
-x,-y,z
-x,y,z
x,-y,z
x,1/2+y,1/2+z
-x,1/2-y,1/2+z
-x,1/2+y,1/2+z
x,1/2-y,1/2+z
loop_
_atom_site_type_symbol
_atom_site_label
_atom_site_fract_x
_atom_site_fract_y
_atom_site_fract_z
Si Si1 0.179568 0.778918 0.047550
Si Si2 0.817534 0.261008 0.794971
Si Si3 0.681481 0.630941 0.417004
Si Si4 0.814487 0.628279 0.164963
Si Si5 0.174693 0.500000 0.636478
Si Si6 0.678593 0.000000 0.275409
O O1 0.233143 0.679204 0.095191
O O2 0.193153 0.890821 0.091794
O O3 0.000000 0.763416 0.032767
O O4 0.267912 0.799908 0.980820
O O5 0.760260 0.182286 0.853253
O O6 0.767328 0.207003 0.725462
O O7 0.752136 0.385819 0.802206
O O8 0.000000 0.265649 0.794909
O O9 0.500000 0.635977 0.409494
O O10 0.725788 0.500000 0.425806
O O11 0.765480 0.500000 0.174437
O O12 0.000000 0.630071 0.164746
O O13 0.285492 0.500000 0.697776
O O14 0.000000 0.500000 0.662336
O O15 0.500000 0.000000 0.287711
#
# Coordination Sequence:
#
# PCOD9356473 Si02
#       6
#     8   8   8   8   4   4
#     4  10  19  35  60  86 116 153 200 251 294 348
#     4  11  22  40  64  88 116 156 205 250 294 355
#     4  11  24  40  58  86 123 159 198 247 306 365
#     4   9  18  34  59  90 118 146 191 249 298 342
#     4  10  18  34  60  90 116 147 200 251 292 350
#     4  12  24  38  60  90 124 155 190 245 312 368
#
# _framework density 18.709284
#
# number of rings (size 3 to 8) (size 9 to 14) (size 15 to 20)
#    0.000    1.600    3.000    2.700    0.000    2.800 
#    1.800    0.000    0.000    2.400    0.000    0.000 
#    0.000    0.000    0.000    0.000    0.000    0.000 
#
# Total GULP energy -111721.763050 kJ/mol
# GULP energy per Si atom -5586.088153 kJ/mol
# Density = 1.866670 g / cm^3
# Si number density = 18.709284 Si / 1000 Ang^3
#
#
#
# Elastic Constant Matrix: (Units=GPa)
#
#
# Indices 1 2 3 4 5 6 
#
# 1 53.5183 29.9282 34.7156 0.0000 0.0000 0.0000
# 2 29.9282 113.2633 40.7470 0.0000 0.0000 0.0000
# 3 34.7156 40.7470 103.2586 0.0000 0.0000 0.0000
# 4 0.0000 0.0000 0.0000 26.0590 0.0000 0.0000
# 5 0.0000 0.0000 0.0000 0.0000 9.7473 0.0000
# 6 0.0000 0.0000 0.0000 0.0000 0.0000 21.0359
#
#
#
# Elastic Compliance Matrix: (Units=1/GPa)
#
#
# Indices 1 2 3 4 5 6 
#
# 1 0.025551 -0.004267 -0.006907 0.000000 0.000000 0.000000
# 2 -0.004267 0.011002 -0.002907 0.000000 0.000000 0.000000
# 3 -0.006907 -0.002907 0.013154 0.000000 0.000000 0.000000
# 4 0.000000 0.000000 0.000000 0.038374 0.000000 0.000000
# 5 0.000000 0.000000 0.000000 0.000000 0.102592 0.000000
# 6 0.000000 0.000000 0.000000 0.000000 0.000000 0.047538
#
#
# Mechanical properties :
#
#
# Convention : Reuss Voigt Hill
#
# Bulk Modulus (GPa) = 46.41217 53.42463 49.91840
# Shear Modulus (GPa) = 18.27786 22.34508 20.31147
#
# Velocity S-wave (km/s) = 3.12900 3.45966 3.29847
# Velocity P-wave (km/s) = 6.15752 6.67654 6.42227
#
# Compressibility (1/GPa) = 0.02154607
#
# Stress axis : x y z
#
# Youngs Moduli (GPa) = 39.13675 90.89016 76.02483
#
# Poissons Ratio (x) = 0.38782 0.52508
# Poissons Ratio (y) = 0.16699 0.22101
# Poissons Ratio (z) = 0.27030 0.26423
#
# Static dielectric constant tensor:
#      x y z
#    x 1.634080 0.000000 0.000000 
#    y 0.000000 1.642000 0.000000 
#    z 0.000000 0.000000 1.619380 
# 
# From -- ./inp_files/19496.got.cif
#   From: 2010.05.17/outbox.cif.g08.bks.cpg/sg38_10_cif.got.tgz:19496.got - 2010.06.03 18:07:57.
