data_PCOD9356295
_publ_section_title
;
Structure prediction by ZEFSAII (Michael W. Deem and Ramdas Pophale) SiO2 
 PCOD9356295
Probable space group: A M M 2
;
_chemical_formula_sum "Si O2"
_cell_formula_units_Z 40
_cell_length_a 11.444022
_cell_length_b 21.250775
_cell_length_c 7.494816
_cell_angle_alpha 90.000000
_cell_angle_beta 90.000000
_cell_angle_gamma 90.000000
_cell_volume 1822.696805
_symmetry_space_group_name_H-M "A M M 2"
_symmetry_group_IT_number 38
_symmetry_cell_setting 'orthorhombic'
loop_
_space_group_symop_operation_xyz
x,y,z
-x,-y,z
-x,y,z
x,-y,z
x,1/2+y,1/2+z
-x,1/2-y,1/2+z
-x,1/2+y,1/2+z
x,1/2-y,1/2+z
loop_
_atom_site_type_symbol
_atom_site_label
_atom_site_fract_x
_atom_site_fract_y
_atom_site_fract_z
Si Si1 0.500000 0.356309 0.834010
Si Si2 0.259033 0.192794 0.772500
Si Si3 0.500000 0.272396 0.474224
Si Si4 0.360609 0.929841 0.772159
Si Si5 0.133745 0.187169 0.121420
Si Si6 0.714567 0.927769 0.193577
O O1 0.500000 0.311024 0.657756
O O2 0.610511 0.401340 0.815002
O O3 0.500000 0.303560 0.987784
O O4 0.289059 0.126501 0.682256
O O5 0.215786 0.253364 0.667279
O O6 0.380715 0.209544 0.872553
O O7 0.155308 0.179418 0.911501
O O8 0.500000 0.922485 0.750812
O O9 0.328532 0.000000 0.712511
O O10 0.332185 0.926027 0.986256
O O11 0.182656 0.123282 0.207234
O O12 0.000000 0.199079 0.167336
O O13 0.744468 0.000000 0.231833
#
# Coordination Sequence:
#
# PCOD9356295 Si02
#       6
#     4   8   4   8   8   8
#     4  12  19  32  54  88 115 133 175 217 284 324
#     4  11  19  35  54  81 109 135 178 221 271 320
#     4  12  18  32  54  88 108 137 169 225 273 318
#     4   9  15  26  49  80 110 134 163 211 274 324
#     4  11  23  36  53  77 107 146 184 220 260 316
#     4  10  18  31  52  78 108 139 174 224 270 313
#
# _framework density 21.945504
#
# number of rings (size 3 to 8) (size 9 to 14) (size 15 to 20)
#    0.000    1.400    8.000    0.900    0.000    0.400 
#    0.000    0.000    0.000    3.000    0.000    2.800 
#    0.000    0.000    0.000    0.000    0.000    0.000 
#
# Total GULP energy -111804.312630 kJ/mol
# GULP energy per Si atom -5590.215632 kJ/mol
# Density = 2.189555 g / cm^3
# Si number density = 21.945504 Si / 1000 Ang^3
#
#
#
# Elastic Constant Matrix: (Units=GPa)
#
#
# Indices 1 2 3 4 5 6 
#
# 1 113.7093 66.1539 20.4660 0.0000 0.0000 0.0000
# 2 66.1539 240.7429 27.3570 0.0000 0.0000 0.0000
# 3 20.4660 27.3570 42.8218 0.0000 0.0000 0.0000
# 4 0.0000 0.0000 0.0000 26.9838 0.0000 0.0000
# 5 0.0000 0.0000 0.0000 0.0000 20.5154 0.0000
# 6 0.0000 0.0000 0.0000 0.0000 0.0000 20.4070
#
#
#
# Elastic Compliance Matrix: (Units=1/GPa)
#
#
# Indices 1 2 3 4 5 6 
#
# 1 0.010952 -0.002604 -0.003571 0.000000 0.000000 0.000000
# 2 -0.002604 0.005098 -0.002012 0.000000 0.000000 0.000000
# 3 -0.003571 -0.002012 0.026345 0.000000 0.000000 0.000000
# 4 0.000000 0.000000 0.000000 0.037059 0.000000 0.000000
# 5 0.000000 0.000000 0.000000 0.000000 0.048744 0.000000
# 6 0.000000 0.000000 0.000000 0.000000 0.000000 0.049003
#
#
# Mechanical properties :
#
#
# Convention : Reuss Voigt Hill
#
# Bulk Modulus (GPa) = 38.43105 69.46975 53.95040
# Shear Modulus (GPa) = 24.72208 32.46770 28.59489
#
# Velocity S-wave (km/s) = 3.36001 3.85056 3.61362
# Velocity P-wave (km/s) = 5.70990 7.17589 6.48446
#
# Compressibility (1/GPa) = 0.02602063
#
# Stress axis : x y z
#
# Youngs Moduli (GPa) = 91.30890 196.15667 37.95802
#
# Poissons Ratio (x) = 0.51073 0.13554
# Poissons Ratio (y) = 0.23774 0.07639
# Poissons Ratio (z) = 0.32605 0.39476
#
# Static dielectric constant tensor:
#      x y z
#    x 1.746040 0.000000 0.000000 
#    y 0.000000 1.861380 0.000000 
#    z 0.000000 0.000000 1.920480 
# 
# From -- ./inp_files/4490.got.cif
#   From: 2010.05.17/outbox.cif.g08.bks.cpg/sg38_3_cif.got.tgz:4490.got - 2010.06.03 18:07:57.
