data_PCOD9356377
_publ_section_title
;
Structure prediction by ZEFSAII (Michael W. Deem and Ramdas Pophale) SiO2 
 PCOD9356377
Probable space group: A M M 2
;
_chemical_formula_sum "Si O2"
_cell_formula_units_Z 64
_cell_length_a 16.019300
_cell_length_b 7.463979
_cell_length_c 24.650890
_cell_angle_alpha 90.000000
_cell_angle_beta 90.000000
_cell_angle_gamma 90.000000
_cell_volume 2947.450684
_symmetry_space_group_name_H-M "A M M 2"
_symmetry_group_IT_number 38
_symmetry_cell_setting 'orthorhombic'
loop_
_space_group_symop_operation_xyz
x,y,z
-x,-y,z
-x,y,z
x,-y,z
x,1/2+y,1/2+z
-x,1/2-y,1/2+z
-x,1/2+y,1/2+z
x,1/2-y,1/2+z
loop_
_atom_site_type_symbol
_atom_site_label
_atom_site_fract_x
_atom_site_fract_y
_atom_site_fract_z
Si Si1 0.140125 0.707588 0.926180
Si Si2 0.593314 0.715820 0.546027
Si Si3 0.092676 0.280861 0.045101
Si Si4 0.908989 0.292648 0.306166
Si Si5 0.663987 0.282852 0.430574
Si Si6 0.246073 0.212281 0.618402
Si Si7 0.406728 0.218628 0.814806
Si Si8 0.252147 0.720139 0.241794
O O1 0.115803 0.500000 0.923013
O O2 0.108542 0.790842 0.870455
O O3 0.240198 0.722829 0.928921
O O4 0.105533 0.779892 0.983003
O O5 0.500000 0.779288 0.560010
O O6 0.590596 0.500000 0.544068
O O7 0.620105 0.777923 0.485883
O O8 0.666533 0.763294 0.587538
O O9 0.096408 0.500000 0.043867
O O10 0.169135 0.217121 0.082281
O O11 0.000000 0.231122 0.064306
O O12 0.913077 0.500000 0.289177
O O13 0.829315 0.217196 0.274745
O O14 0.000000 0.211557 0.295449
O O15 0.664496 0.500000 0.430904
O O16 0.617763 0.225872 0.375776
O O17 0.249463 0.280967 0.679699
O O18 0.231639 0.000000 0.622866
O O19 0.500000 0.277023 0.800816
O O20 0.335368 0.277157 0.773323
O O21 0.406445 0.000000 0.814790
O O22 0.253093 0.500000 0.242682
#
# Coordination Sequence:
#
# PCOD9356377 Si02
#       8
#     8   8   8   8   8   8   8   8
#     4  11  20  32  53  79 108 140 174 212 266 322
#     4  10  21  36  55  80 109 141 176 217 270 326
#     4   9  18  32  50  74 105 138 172 212 261 314
#     4  10  20  35  55  80 108 138 174 218 266 314
#     4  10  18  32  55  78 103 135 175 217 262 315
#     4  10  20  35  55  78 105 140 183 224 262 309
#     4   9  16  28  50  77 102 128 163 211 261 306
#     4   9  18  32  51  78 106 133 173 221 260 301
#
# _framework density 21.713681000000001
#
# number of rings (size 3 to 8) (size 9 to 14) (size 15 to 20)
#    0.000    2.250    2.500    1.125    0.000    3.500 
#    0.000    4.375    0.000    2.250    0.000    0.000 
#    0.000    0.000    0.000    0.000    0.000    0.000 
#
# Total GULP energy -178792.118783 kJ/mol
# GULP energy per Si atom -5587.253712 kJ/mol
# Density = 2.166426 g / cm^3
# Si number density = 21.713681 Si / 1000 Ang^3
#
#
#
# Elastic Constant Matrix: (Units=GPa)
#
#
# Indices 1 2 3 4 5 6 
#
# 1 220.2491 -3.8015 106.3139 0.0000 0.0000 0.0000
# 2 -3.8015 62.0985 1.6376 0.0000 0.0000 0.0000
# 3 106.3139 1.6376 175.2522 0.0000 0.0000 0.0000
# 4 0.0000 0.0000 0.0000 -20.0736 0.0000 0.0000
# 5 0.0000 0.0000 0.0000 0.0000 0.8574 0.0000
# 6 0.0000 0.0000 0.0000 0.0000 0.0000 2.2204
#
#
#
# Elastic Compliance Matrix: (Units=1/GPa)
#
#
# Indices 1 2 3 4 5 6 
#
# 1 0.006436 0.000497 -0.003909 0.000000 0.000000 0.000000
# 2 0.000497 0.016146 -0.000452 0.000000 0.000000 0.000000
# 3 -0.003909 -0.000452 0.008081 0.000000 0.000000 0.000000
# 4 0.000000 0.000000 0.000000 -0.049817 0.000000 0.000000
# 5 0.000000 0.000000 0.000000 0.000000 1.166270 0.000000
# 6 0.000000 0.000000 0.000000 0.000000 0.000000 0.450366
#
#
# Mechanical properties :
#
#
# Convention : Reuss Voigt Hill
#
# Bulk Modulus (GPa) = 43.60197 73.98887 58.79542
# Shear Modulus (GPa) = 3.10009 20.16417 11.63213
#
# Velocity S-wave (km/s) = 1.19617 3.05066 2.31704
# Velocity P-wave (km/s) = 4.69380 6.82330 5.85616
#
# Compressibility (1/GPa) = 0.02293474
#
# Stress axis : x y z
#
# Youngs Moduli (GPa) = 155.38523 61.93564 123.74028
#
# Poissons Ratio (x) = -0.03078 0.48366
# Poissons Ratio (y) = -0.07723 0.05598
# Poissons Ratio (z) = 0.60736 0.02802
#
# Static dielectric constant tensor:
#      x y z
#    x 1.768030 0.000000 0.000000 
#    y 0.000000 1.881020 0.000000 
#    z 0.000000 0.000000 1.743860 
# 
# From -- ./inp_files/22880.got.cif
#   From: 2010.05.17/outbox.cif.g08.bks.cpg/sg38_12_cif.got.tgz:22880.got - 2010.06.03 18:07:57.
