data_PCOD9356074
_publ_section_title
;
Structure prediction by ZEFSAII (Michael W. Deem and Ramdas Pophale) SiO2 
 PCOD9356074
Probable space group: A M M 2
;
_chemical_formula_sum "Si O2"
_cell_formula_units_Z 56
_cell_length_a 7.790761
_cell_length_b 33.381548
_cell_length_c 14.049636
_cell_angle_alpha 90.000000
_cell_angle_beta 90.000000
_cell_angle_gamma 90.000000
_cell_volume 3653.855990
_symmetry_space_group_name_H-M "A M M 2"
_symmetry_group_IT_number 38
_symmetry_cell_setting 'orthorhombic'
loop_
_space_group_symop_operation_xyz
x,y,z
-x,-y,z
-x,y,z
x,-y,z
x,1/2+y,1/2+z
-x,1/2-y,1/2+z
-x,1/2+y,1/2+z
x,1/2-y,1/2+z
loop_
_atom_site_type_symbol
_atom_site_label
_atom_site_fract_x
_atom_site_fract_y
_atom_site_fract_z
Si Si1 0.708073 0.269363 0.328930
Si Si2 0.797790 0.893337 0.103830
Si Si3 0.806529 0.103479 0.331666
Si Si4 0.797598 0.307388 0.525080
Si Si5 0.500000 0.454134 0.601905
Si Si6 0.500000 0.045585 0.333166
Si Si7 0.298820 0.275170 0.118091
Si Si8 0.708839 0.186635 0.425006
O O1 0.500000 0.269760 0.327828
O O2 0.765122 0.298165 0.414232
O O3 0.773968 0.279659 0.223842
O O4 0.759508 0.224253 0.358769
O O5 0.784402 0.888929 0.218381
O O6 0.669841 0.928997 0.074727
O O7 0.000000 0.900670 0.081906
O O8 0.741095 0.851397 0.057037
O O9 0.666949 0.070811 0.361712
O O10 0.777338 0.145118 0.385622
O O11 0.000000 0.089041 0.346656
O O12 0.714790 0.270960 0.583932
O O13 0.000000 0.305149 0.544161
O O14 0.500000 0.500000 0.567641
O O15 0.500000 0.455694 0.717544
O O16 0.500000 0.000000 0.367575
O O17 0.500000 0.285022 0.124507
O O18 0.229430 0.301784 0.031189
O O19 0.500000 0.184971 0.425014
#
# Coordination Sequence:
#
# PCOD9356074 Si02
#       8
#     8   8   8   8   4   4   8   8
#     4   9  18  30  44  62  86 120 156 189 222 255
#     4   9  19  30  43  67  93 117 149 185 217 261
#     4  10  18  29  46  66  90 120 150 181 219 262
#     4  10  19  29  42  63  89 119 152 185 224 261
#     4   9  18  30  48  67  85 119 149 173 222 270
#     4   9  18  32  46  65  91 115 145 181 218 266
#     4   9  18  30  44  62  86 119 156 190 222 255
#     4   9  16  27  42  62  89 119 152 189 224 257
#
# _framework density 15.326274
#
# number of rings (size 3 to 8) (size 9 to 14) (size 15 to 20)
#    0.000    2.714    0.714    2.143    2.000    3.429 
#    0.000    2.857    0.000    0.000    0.000    0.000 
#    0.000    2.286    0.000    3.143    0.000    0.286 
#
# Total GULP energy -156036.554368 kJ/mol
# GULP energy per Si atom -5572.734085 kJ/mol
# Density = 1.529139 g / cm^3
# Si number density = 15.326274 Si / 1000 Ang^3
#
#
#
# Elastic Constant Matrix: (Units=GPa)
#
#
# Indices 1 2 3 4 5 6 
#
# 1 58.1593 48.0279 21.6669 0.0000 0.0000 0.0000
# 2 48.0279 121.7155 31.1694 0.0000 0.0000 0.0000
# 3 21.6669 31.1694 59.4369 0.0000 0.0000 0.0000
# 4 0.0000 0.0000 0.0000 17.8660 0.0000 0.0000
# 5 0.0000 0.0000 0.0000 0.0000 11.7954 0.0000
# 6 0.0000 0.0000 0.0000 0.0000 0.0000 1.1291
#
#
#
# Elastic Compliance Matrix: (Units=1/GPa)
#
#
# Indices 1 2 3 4 5 6 
#
# 1 0.026665 -0.009279 -0.004855 0.000000 0.000000 0.000000
# 2 -0.009279 0.012719 -0.003288 0.000000 0.000000 0.000000
# 3 -0.004855 -0.003288 0.020318 0.000000 0.000000 0.000000
# 4 0.000000 0.000000 0.000000 0.055972 0.000000 0.000000
# 5 0.000000 0.000000 0.000000 0.000000 0.084778 0.000000
# 6 0.000000 0.000000 0.000000 0.000000 0.000000 0.885656
#
#
# Mechanical properties :
#
#
# Convention : Reuss Voigt Hill
#
# Bulk Modulus (GPa) = 40.22402 49.00446 44.61424
# Shear Modulus (GPa) = 4.42777 15.38794 9.90785
#
# Velocity S-wave (km/s) = 1.70155 3.17207 2.54532
# Velocity P-wave (km/s) = 5.49204 6.74237 6.14907
#
# Compressibility (1/GPa) = 0.02486077
#
# Stress axis : x y z
#
# Youngs Moduli (GPa) = 37.50245 78.62223 49.21673
#
# Poissons Ratio (x) = 0.72950 0.23892
# Poissons Ratio (y) = 0.34797 0.16181
# Poissons Ratio (z) = 0.18206 0.25848
#
# Static dielectric constant tensor:
#      x y z
#    x 1.551400 0.000000 0.000000 
#    y 0.000000 1.483380 0.000000 
#    z 0.000000 0.000000 1.510050 
# 
# From -- ./inp_files/13029.got.cif
#   From: 2010.05.17/outbox.cif.g08.bks.cpg/sg38_7_cif.got.tgz:13029.got - 2010.06.03 18:07:57.
