data_PCOD9356642
_publ_section_title
;
Structure prediction by ZEFSAII (Michael W. Deem and Ramdas Pophale) SiO2 
 PCOD9356642
Probable space group: A M M 2
;
_chemical_formula_sum "Si O2"
_cell_formula_units_Z 64
_cell_length_a 7.603947
_cell_length_b 17.078291
_cell_length_c 22.984277
_cell_angle_alpha 90.000000
_cell_angle_beta 90.000000
_cell_angle_gamma 90.000000
_cell_volume 2984.793824
_symmetry_space_group_name_H-M "A M M 2"
_symmetry_group_IT_number 38
_symmetry_cell_setting 'orthorhombic'
loop_
_space_group_symop_operation_xyz
x,y,z
-x,-y,z
-x,y,z
x,-y,z
x,1/2+y,1/2+z
-x,1/2-y,1/2+z
-x,1/2+y,1/2+z
x,1/2-y,1/2+z
loop_
_atom_site_type_symbol
_atom_site_label
_atom_site_fract_x
_atom_site_fract_y
_atom_site_fract_z
Si Si1 0.299641 0.088112 0.486250
Si Si2 0.715061 0.265646 0.506683
Si Si3 0.211015 0.877313 0.797931
Si Si4 0.707843 0.582233 0.168420
Si Si5 0.707449 0.086764 0.930344
Si Si6 0.211286 0.794016 0.260271
Si Si7 0.290549 0.748124 0.633598
Si Si8 0.795200 0.911292 0.354948
O O1 0.500000 0.087068 0.509186
O O2 0.224147 0.174320 0.501557
O O3 0.300716 0.092389 0.416222
O O4 0.224456 0.000000 0.499782
O O5 0.500000 0.262163 0.500742
O O6 0.776234 0.333607 0.461868
O O7 0.766635 0.287994 0.572623
O O8 0.271028 0.917267 0.738257
O O9 0.273682 0.905831 0.860519
O O10 0.270111 0.788404 0.786929
O O11 0.000000 0.881615 0.798955
O O12 0.500000 0.582589 0.156079
O O13 0.782018 0.500000 0.145730
O O14 0.782530 0.663700 0.144236
O O15 0.500000 0.085064 0.943919
O O16 0.779452 0.000000 0.947019
O O17 0.257419 0.798640 0.192702
O O18 0.278954 0.858969 0.303838
O O19 0.000000 0.795259 0.262453
O O20 0.500000 0.756347 0.628807
O O21 0.000000 0.889322 0.366919
O O22 0.794413 0.000000 0.334607
#
# Coordination Sequence:
#
# PCOD9356642 Si02
#       8
#     8   8   8   8   8   8   8   8
#     4   9  17  29  48  74  99 121 148 186 232 279
#     4   9  18  33  50  68  93 124 157 194 233 270
#     4  10  19  30  47  71  97 122 149 187 234 279
#     4   9  17  29  46  69  95 121 149 182 223 275
#     4  10  20  33  49  68  92 125 161 193 228 273
#     4   9  18  32  48  68  94 122 151 186 232 279
#     4   9  18  32  49  67  88 119 158 193 225 267
#     4   9  17  30  48  69  94 122 150 183 227 280
#
# _framework density 21.442015999999999
#
# number of rings (size 3 to 8) (size 9 to 14) (size 15 to 20)
#    0.000    2.750    0.000    1.500    0.000    3.500 
#    0.000    4.375    0.000    0.750    0.000    1.750 
#    0.000    0.000    0.000    0.000    0.000    0.000 
#
# Total GULP energy -178298.161218 kJ/mol
# GULP energy per Si atom -5571.817538 kJ/mol
# Density = 2.139321 g / cm^3
# Si number density = 21.442016 Si / 1000 Ang^3
#
#
#
# Elastic Constant Matrix: (Units=GPa)
#
#
# Indices 1 2 3 4 5 6 
#
# 1 45.4334 10.8980 -5.3233 0.0000 0.0000 0.0000
# 2 10.8980 83.6526 64.1106 0.0000 0.0000 0.0000
# 3 -5.3233 64.1106 110.7650 0.0000 0.0000 0.0000
# 4 0.0000 0.0000 0.0000 12.1799 0.0000 0.0000
# 5 0.0000 0.0000 0.0000 0.0000 24.3223 0.0000
# 6 0.0000 0.0000 0.0000 0.0000 0.0000 2.4115
#
#
#
# Elastic Compliance Matrix: (Units=1/GPa)
#
#
# Indices 1 2 3 4 5 6 
#
# 1 0.024403 -0.007329 0.005415 0.000000 0.000000 0.000000
# 2 -0.007329 0.023686 -0.014061 0.000000 0.000000 0.000000
# 3 0.005415 -0.014061 0.017427 0.000000 0.000000 0.000000
# 4 0.000000 0.000000 0.000000 0.082102 0.000000 0.000000
# 5 0.000000 0.000000 0.000000 0.000000 0.041114 0.000000
# 6 0.000000 0.000000 0.000000 0.000000 0.000000 0.414678
#
#
# Mechanical properties :
#
#
# Convention : Reuss Voigt Hill
#
# Bulk Modulus (GPa) = 29.79370 42.13572 35.96471
# Shear Modulus (GPa) = 7.73337 19.12713 13.43025
#
# Velocity S-wave (km/s) = 1.90118 2.98994 2.50542
# Velocity P-wave (km/s) = 4.32949 5.62258 5.01786
#
# Compressibility (1/GPa) = 0.03356415
#
# Stress axis : x y z
#
# Youngs Moduli (GPa) = 40.97915 42.21992 57.38202
#
# Poissons Ratio (x) = 0.30943 -0.31071
# Poissons Ratio (y) = 0.30033 0.80687
# Poissons Ratio (z) = -0.22189 0.59367
#
# Static dielectric constant tensor:
#      x y z
#    x 1.817790 0.000000 0.000000 
#    y 0.000000 1.833420 0.000000 
#    z 0.000000 0.000000 1.758250 
# 
# From -- ./inp_files/20076.got.cif
#   From: 2010.05.17/outbox.cif.g08.bks.cpg/sg38_11_cif.got.tgz:20076.got - 2010.06.03 18:07:57.
