data_PCOD9356092
_publ_section_title
;
Structure prediction by ZEFSAII (Michael W. Deem and Ramdas Pophale) SiO2 
 PCOD9356092
Probable space group: A M M 2
;
_chemical_formula_sum "Si O2"
_cell_formula_units_Z 56
_cell_length_a 7.408813
_cell_length_b 14.814337
_cell_length_c 23.666769
_cell_angle_alpha 90.000000
_cell_angle_beta 90.000000
_cell_angle_gamma 90.000000
_cell_volume 2597.585342
_symmetry_space_group_name_H-M "A M M 2"
_symmetry_group_IT_number 38
_symmetry_cell_setting 'orthorhombic'
loop_
_space_group_symop_operation_xyz
x,y,z
-x,-y,z
-x,y,z
x,-y,z
x,1/2+y,1/2+z
-x,1/2-y,1/2+z
-x,1/2+y,1/2+z
x,1/2-y,1/2+z
loop_
_atom_site_type_symbol
_atom_site_label
_atom_site_fract_x
_atom_site_fract_y
_atom_site_fract_z
Si Si1 0.286725 0.712361 0.716440
Si Si2 0.720883 0.102348 0.451788
Si Si3 0.719228 0.396245 0.823348
Si Si4 0.721384 0.395945 0.606828
Si Si5 0.709011 0.781984 0.001230
Si Si6 0.217673 0.395691 0.391329
Si Si7 0.216689 0.398226 0.263804
O O1 0.500000 0.694258 0.716862
O O2 0.213078 0.669019 0.774357
O O3 0.218159 0.662021 0.660918
O O4 0.263859 0.819598 0.720501
O O5 0.500000 0.103338 0.451807
O O6 0.778395 0.123251 0.387266
O O7 0.786084 0.182065 0.492144
O O8 0.775391 0.000000 0.465535
O O9 0.500000 0.391697 0.824564
O O10 0.766479 0.500000 0.810065
O O11 0.500000 0.397767 0.606411
O O12 0.778970 0.500000 0.609759
O O13 0.784364 0.346377 0.549776
O O14 0.500000 0.768768 0.016657
O O15 0.715685 0.831811 0.940860
O O16 0.269206 0.500000 0.402322
O O17 0.279535 0.373364 0.327559
O O18 0.000000 0.391438 0.391904
O O19 0.280213 0.500000 0.250912
O O20 0.000000 0.402000 0.266463
#
# Coordination Sequence:
#
# PCOD9356092 Si02
#       7
#     8   8   8   8   8   8   8
#     4  10  18  29  48  71  92 120 162 203 234 274
#     4   8  14  24  39  63  92 117 147 191 237 277
#     4   8  13  22  39  64  91 117 147 188 238 284
#     4   9  18  31  46  69 102 132 156 191 241 286
#     4  10  18  29  48  72  97 129 167 200 231 273
#     4   9  18  32  49  70  97 127 156 191 242 296
#     4   9  19  35  51  68  95 128 156 189 243 301
#
# _framework density 21.558482000000001
#
# number of rings (size 3 to 8) (size 9 to 14) (size 15 to 20)
#    0.000    3.000    0.000    3.429    0.000    4.571 
#    0.000    2.857    0.000    5.571    0.000    6.000 
#    0.000    0.000    0.000    0.000    0.000    0.000 
#
# Total GULP energy -156293.027280 kJ/mol
# GULP energy per Si atom -5581.893831 kJ/mol
# Density = 2.150941 g / cm^3
# Si number density = 21.558482 Si / 1000 Ang^3
#
#
#
# Elastic Constant Matrix: (Units=GPa)
#
#
# Indices 1 2 3 4 5 6 
#
# 1 69.2475 -2.3529 2.8344 0.0000 0.0000 0.0000
# 2 -2.3529 181.7769 117.2171 0.0000 0.0000 0.0000
# 3 2.8344 117.2171 97.6472 0.0000 0.0000 0.0000
# 4 0.0000 0.0000 0.0000 38.1890 0.0000 0.0000
# 5 0.0000 0.0000 0.0000 0.0000 -28.1168 0.0000
# 6 0.0000 0.0000 0.0000 0.0000 0.0000 47.7299
#
#
#
# Elastic Compliance Matrix: (Units=1/GPa)
#
#
# Indices 1 2 3 4 5 6 
#
# 1 0.014629 0.002050 -0.002886 0.000000 0.000000 0.000000
# 2 0.002050 0.024637 -0.029635 0.000000 0.000000 0.000000
# 3 -0.002886 -0.029635 0.045898 0.000000 0.000000 0.000000
# 4 0.000000 0.000000 0.000000 0.026186 0.000000 0.000000
# 5 0.000000 0.000000 0.000000 0.000000 -0.035566 0.000000
# 6 0.000000 0.000000 0.000000 0.000000 0.000000 0.020951
#
#
# Mechanical properties :
#
#
# Convention : Reuss Voigt Hill
#
# Bulk Modulus (GPa) = 41.28065 64.89654 53.08860
# Shear Modulus (GPa) = 30.16586 26.95862 28.56224
#
# Velocity S-wave (km/s) = 3.74472 3.54006 3.64383
# Velocity P-wave (km/s) = 6.15525 6.84670 6.51016
#
# Compressibility (1/GPa) = 0.02422442
#
# Stress axis : x y z
#
# Youngs Moduli (GPa) = 68.35869 40.58879 21.78722
#
# Poissons Ratio (x) = -0.08321 0.06287
# Poissons Ratio (y) = -0.14014 0.64565
# Poissons Ratio (z) = 0.19726 1.20283
#
# Static dielectric constant tensor:
#      x y z
#    x 1.850720 0.000000 0.000000 
#    y 0.000000 1.778700 0.000000 
#    z 0.000000 0.000000 1.752410 
# 
# From -- ./inp_files/19813.got.cif
#   From: 2010.05.17/outbox.cif.g08.bks.cpg/sg38_10_cif.got.tgz:19813.got - 2010.06.03 18:07:57.
