data_PCOD9356983
_publ_section_title
;
Structure prediction by ZEFSAII (Michael W. Deem and Ramdas Pophale) SiO2 
 PCOD9356983
Probable space group: A M M 2
;
_chemical_formula_sum "Si O2"
_cell_formula_units_Z 64
_cell_length_a 8.563225
_cell_length_b 25.910999
_cell_length_c 15.471731
_cell_angle_alpha 90.000000
_cell_angle_beta 90.000000
_cell_angle_gamma 90.000000
_cell_volume 3432.894199
_symmetry_space_group_name_H-M "A M M 2"
_symmetry_group_IT_number 38
_symmetry_cell_setting 'orthorhombic'
loop_
_space_group_symop_operation_xyz
x,y,z
-x,-y,z
-x,y,z
x,-y,z
x,1/2+y,1/2+z
-x,1/2-y,1/2+z
-x,1/2+y,1/2+z
x,1/2-y,1/2+z
loop_
_atom_site_type_symbol
_atom_site_label
_atom_site_fract_x
_atom_site_fract_y
_atom_site_fract_z
Si Si1 0.186232 0.647248 0.363290
Si Si2 0.311350 0.558438 0.241311
Si Si3 0.683810 0.724896 0.034789
Si Si4 0.311741 0.860043 0.236619
Si Si5 0.316251 0.257154 0.830110
Si Si6 0.690632 0.890227 0.562780
Si Si7 0.814872 0.335409 0.558839
Si Si8 0.690887 0.559318 0.881494
O O1 0.254582 0.599640 0.310881
O O2 0.234514 0.702068 0.321755
O O3 0.242731 0.648659 0.463198
O O4 0.000000 0.643979 0.364161
O O5 0.500000 0.558448 0.241314
O O6 0.257928 0.500000 0.257886
O O7 0.260480 0.577602 0.146281
O O8 0.500000 0.730771 0.056223
O O9 0.740058 0.669508 0.067893
O O10 0.772158 0.774990 0.068333
O O11 0.697017 0.725359 0.930371
O O12 0.500000 0.858999 0.240188
O O13 0.256525 0.804354 0.272421
O O14 0.259231 0.865785 0.138358
O O15 0.258498 0.904709 0.301995
O O16 0.500000 0.249539 0.811679
O O17 0.500000 0.889408 0.561033
O O18 0.740735 0.915885 0.472694
O O19 0.000000 0.341583 0.561005
O O20 0.500000 0.559589 0.881879
O O21 0.740908 0.500000 0.874005
#
# Coordination Sequence:
#
# PCOD9356983 Si02
#       8
#     8   8   8   8   8   8   8   8
#     4  10  22  39  56  75 104 143 186 228 275 323
#     4  10  21  36  56  83 111 140 180 228 273 319
#     4   9  16  30  52  78 108 141 176 211 255 316
#     4  10  19  32  53  82 111 142 179 219 265 317
#     4   9  17  31  52  78 108 140 175 216 263 318
#     4   9  16  29  51  81 113 143 171 207 261 321
#     4  10  22  37  52  74 107 144 182 225 272 320
#     4   9  16  29  52  82 114 143 174 215 262 317
#
# _framework density 18.643160999999999
#
# number of rings (size 3 to 8) (size 9 to 14) (size 15 to 20)
#    0.000    2.500    1.250    1.125    1.750    3.750 
#    0.000    0.625    0.000    3.375    0.000    0.000 
#    0.000    0.000    0.000    0.000    0.000    0.000 
#
# Total GULP energy -178569.871000 kJ/mol
# GULP energy per Si atom -5580.308469 kJ/mol
# Density = 1.860073 g / cm^3
# Si number density = 18.643161 Si / 1000 Ang^3
#
#
#
# Elastic Constant Matrix: (Units=GPa)
#
#
# Indices 1 2 3 4 5 6 
#
# 1 6.3606 19.5402 16.4150 0.0000 0.0000 0.0000
# 2 19.5402 150.8924 84.2790 0.0000 0.0000 0.0000
# 3 16.4150 84.2790 114.5523 0.0000 0.0000 0.0000
# 4 0.0000 0.0000 0.0000 25.9659 0.0000 0.0000
# 5 0.0000 0.0000 0.0000 0.0000 13.9839 0.0000
# 6 0.0000 0.0000 0.0000 0.0000 0.0000 -22.3837
#
#
#
# Elastic Compliance Matrix: (Units=1/GPa)
#
#
# Indices 1 2 3 4 5 6 
#
# 1 0.295706 -0.024829 -0.024107 0.000000 0.000000 0.000000
# 2 -0.024829 0.013335 -0.006253 0.000000 0.000000 0.000000
# 3 -0.024107 -0.006253 0.016785 0.000000 0.000000 0.000000
# 4 0.000000 0.000000 0.000000 0.038512 0.000000 0.000000
# 5 0.000000 0.000000 0.000000 0.000000 0.071511 0.000000
# 6 0.000000 0.000000 0.000000 0.000000 0.000000 -0.044675
#
#
# Mechanical properties :
#
#
# Convention : Reuss Voigt Hill
#
# Bulk Modulus (GPa) = 4.64149 56.91930 30.78039
# Shear Modulus (GPa) = 8.72044 13.61797 11.16920
#
# Velocity S-wave (km/s) = 2.16511 2.70562 2.45032
# Velocity P-wave (km/s) = 2.95725 6.35277 4.95495
#
# Compressibility (1/GPa) = 0.21544825
#
# Stress axis : x y z
#
# Youngs Moduli (GPa) = 3.38174 74.99041 59.57839
#
# Poissons Ratio (x) = 1.86190 1.43625
# Poissons Ratio (y) = 0.08396 0.37255
# Poissons Ratio (z) = 0.08152 0.46892
#
# Static dielectric constant tensor:
#      x y z
#    x 1.633930 0.000000 0.000000 
#    y 0.000000 1.626220 0.000000 
#    z 0.000000 0.000000 1.654980 
# 
# From -- ./inp_files/12750.got.cif
#   From: 2010.05.17/outbox.cif.g08.bks.cpg/sg38_7_cif.got.tgz:12750.got - 2010.06.03 18:07:57.
