data_PCOD9356127
_publ_section_title
;
Structure prediction by ZEFSAII (Michael W. Deem and Ramdas Pophale) SiO2 
 PCOD9356127
Probable space group: A M M 2
;
_chemical_formula_sum "Si O2"
_cell_formula_units_Z 56
_cell_length_a 14.019139
_cell_length_b 15.058329
_cell_length_c 14.600129
_cell_angle_alpha 90.000000
_cell_angle_beta 90.000000
_cell_angle_gamma 90.000000
_cell_volume 3082.157420
_symmetry_space_group_name_H-M "A M M 2"
_symmetry_group_IT_number 38
_symmetry_cell_setting 'orthorhombic'
loop_
_space_group_symop_operation_xyz
x,y,z
-x,-y,z
-x,y,z
x,-y,z
x,1/2+y,1/2+z
-x,1/2-y,1/2+z
-x,1/2+y,1/2+z
x,1/2-y,1/2+z
loop_
_atom_site_type_symbol
_atom_site_label
_atom_site_fract_x
_atom_site_fract_y
_atom_site_fract_z
Si Si1 0.785643 0.275404 0.527420
Si Si2 0.609107 0.601640 0.487692
Si Si3 0.599812 0.397992 0.913763
Si Si4 0.699526 0.097626 0.596098
Si Si5 0.389645 0.844813 0.777273
Si Si6 0.113997 0.895135 0.174870
Si Si7 0.769313 0.205934 0.330787
O O1 0.683571 0.326431 0.524323
O O2 0.769948 0.180610 0.577818
O O3 0.853280 0.341091 0.584246
O O4 0.812568 0.255429 0.420809
O O5 0.500000 0.619725 0.516587
O O6 0.633336 0.500000 0.513608
O O7 0.611741 0.609667 0.377135
O O8 0.500000 0.351685 0.887500
O O9 0.592280 0.500000 0.888851
O O10 0.697823 0.365554 0.873078
O O11 0.615573 0.390289 0.021883
O O12 0.650141 0.098186 0.694143
O O13 0.743632 0.000000 0.579182
O O14 0.500000 0.818674 0.759870
O O15 0.308741 0.768968 0.782643
O O16 0.160489 0.841333 0.260002
O O17 0.000000 0.893160 0.182278
O O18 0.143377 0.000000 0.173013
#
# Coordination Sequence:
#
# PCOD9356127 Si02
#       7
#     8   8   8   8   8   8   8
#     4  10  21  38  60  85 115 154 193 240 287 353
#     4   9  18  32  51  79 117 156 193 233 279 336
#     4   9  17  29  47  75 114 153 187 225 269 324
#     4  10  19  31  50  78 113 153 193 232 272 325
#     4  10  18  29  49  79 114 153 191 228 269 326
#     4  11  24  43  66  90 114 144 191 250 309 364
#     4  10  20  36  57  84 113 152 189 236 283 346
#
# _framework density 18.169091000000002
#
# number of rings (size 3 to 8) (size 9 to 14) (size 15 to 20)
#    0.000    2.143    1.429    2.143    0.000    6.571 
#    0.000    0.000    0.000    3.000    0.000    0.000 
#    0.000    0.000    0.000    0.000    0.000    0.000 
#
# Total GULP energy -155884.519817 kJ/mol
# GULP energy per Si atom -5567.304279 kJ/mol
# Density = 1.812774 g / cm^3
# Si number density = 18.169091 Si / 1000 Ang^3
#
#
#
# Elastic Constant Matrix: (Units=GPa)
#
#
# Indices 1 2 3 4 5 6 
#
# 1 68.7560 43.1197 36.4736 0.0000 0.0000 0.0000
# 2 43.1197 121.5300 36.1050 0.0000 0.0000 0.0000
# 3 36.4736 36.1050 68.2089 0.0000 0.0000 0.0000
# 4 0.0000 0.0000 0.0000 -7.1596 0.0000 0.0000
# 5 0.0000 0.0000 0.0000 0.0000 22.9403 0.0000
# 6 0.0000 0.0000 0.0000 0.0000 0.0000 -20.7491
#
#
#
# Elastic Compliance Matrix: (Units=1/GPa)
#
#
# Indices 1 2 3 4 5 6 
#
# 1 0.022875 -0.005319 -0.009417 0.000000 0.000000 0.000000
# 2 -0.005319 0.011000 -0.002979 0.000000 0.000000 0.000000
# 3 -0.009417 -0.002979 0.021273 0.000000 0.000000 0.000000
# 4 0.000000 0.000000 0.000000 -0.139672 0.000000 0.000000
# 5 0.000000 0.000000 0.000000 0.000000 0.043591 0.000000
# 6 0.000000 0.000000 0.000000 0.000000 0.000000 -0.048195
#
#
# Mechanical properties :
#
#
# Convention : Reuss Voigt Hill
#
# Bulk Modulus (GPa) = 50.70944 54.43239 52.57092
# Shear Modulus (GPa) = -106.10106 8.52609 -48.78749
#
# Velocity S-wave (km/s) = -7.65005 2.16860 -5.18751
# Velocity P-wave (km/s) = 7.07536 6.02447 2.62359
#
# Compressibility (1/GPa) = 0.01972019
#
# Stress axis : x y z
#
# Youngs Moduli (GPa) = 43.71553 90.90504 47.00767
#
# Poissons Ratio (x) = 0.48349 0.44266
# Poissons Ratio (y) = 0.23251 0.14003
# Poissons Ratio (z) = 0.41166 0.27079
#
# Static dielectric constant tensor:
#      x y z
#    x 1.587880 0.000000 0.000000 
#    y 0.000000 1.765920 0.000000 
#    z 0.000000 0.000000 1.686460 
# 
# From -- ./inp_files/13771.got.cif
#   From: 2010.05.17/outbox.cif.g08.bks.cpg/sg38_7_cif.got.tgz:13771.got - 2010.06.03 18:07:57.
