data_PCOD9356360
_publ_section_title
;
Structure prediction by ZEFSAII (Michael W. Deem and Ramdas Pophale) SiO2 
 PCOD9356360
Probable space group: A M M 2
;
_chemical_formula_sum "Si O2"
_cell_formula_units_Z 56
_cell_length_a 7.510358
_cell_length_b 19.419730
_cell_length_c 17.182169
_cell_angle_alpha 90.000000
_cell_angle_beta 90.000000
_cell_angle_gamma 90.000000
_cell_volume 2506.004307
_symmetry_space_group_name_H-M "A M M 2"
_symmetry_group_IT_number 38
_symmetry_cell_setting 'orthorhombic'
loop_
_space_group_symop_operation_xyz
x,y,z
-x,-y,z
-x,y,z
x,-y,z
x,1/2+y,1/2+z
-x,1/2-y,1/2+z
-x,1/2+y,1/2+z
x,1/2-y,1/2+z
loop_
_atom_site_type_symbol
_atom_site_label
_atom_site_fract_x
_atom_site_fract_y
_atom_site_fract_z
Si Si1 0.715693 0.079873 0.320620
Si Si2 0.785925 0.794188 0.728186
Si Si3 0.218118 0.078288 0.629034
Si Si4 0.291052 0.150012 0.161635
Si Si5 0.207566 0.422657 0.501389
Si Si6 0.780661 0.795777 0.905135
Si Si7 0.206353 0.841623 0.478325
O O1 0.500000 0.083907 0.322518
O O2 0.779091 0.116220 0.241540
O O3 0.783842 0.117640 0.397273
O O4 0.766667 0.000000 0.320712
O O5 0.727409 0.867735 0.695180
O O6 0.734619 0.731614 0.671592
O O7 0.723415 0.782575 0.816460
O O8 0.000000 0.794664 0.730164
O O9 0.280030 0.111864 0.547613
O O10 0.000000 0.076014 0.628630
O O11 0.278821 0.000000 0.638512
O O12 0.500000 0.135418 0.158354
O O13 0.214821 0.114919 0.084924
O O14 0.283736 0.500000 0.504298
O O15 0.281622 0.368694 0.438737
O O16 0.000000 0.429604 0.481416
O O17 0.717818 0.733754 0.960530
O O18 0.000000 0.794681 0.905542
O O19 0.000000 0.830284 0.499355
#
# Coordination Sequence:
#
# PCOD9356360 Si02
#       7
#     8   8   8   8   8   8   8
#     4  10  21  35  51  74 106 140 173 217 271 322
#     4  10  19  35  59  82 110 145 184 227 273 330
#     4   9  18  31  51  81 112 141 174 218 270 321
#     4  11  22  37  56  79 111 147 186 230 279 335
#     4  10  21  37  58  84 113 146 187 233 281 334
#     4   9  18  33  55  83 110 139 177 226 275 319
#     4  10  18  32  53  77 106 138 175 215 260 318
#
# _framework density 22.346330999999999
#
# number of rings (size 3 to 8) (size 9 to 14) (size 15 to 20)
#    0.000    2.143    1.429    2.143    0.000    5.143 
#    0.000    6.429    0.000    1.286    0.000    0.000 
#    0.000    0.000    0.000    0.000    0.000    0.000 
#
# Total GULP energy -156468.171499 kJ/mol
# GULP energy per Si atom -5588.148982 kJ/mol
# Density = 2.229547 g / cm^3
# Si number density = 22.346331 Si / 1000 Ang^3
#
#
#
# Elastic Constant Matrix: (Units=GPa)
#
#
# Indices 1 2 3 4 5 6 
#
# 1 57.7501 -2.9712 -9.9269 0.0000 0.0000 0.0000
# 2 -2.9712 179.5120 24.7623 0.0000 0.0000 0.0000
# 3 -9.9269 24.7623 32.9745 0.0000 0.0000 0.0000
# 4 0.0000 0.0000 0.0000 26.6670 0.0000 0.0000
# 5 0.0000 0.0000 0.0000 0.0000 -96.7549 0.0000
# 6 0.0000 0.0000 0.0000 0.0000 0.0000 -14.4813
#
#
#
# Elastic Compliance Matrix: (Units=1/GPa)
#
#
# Indices 1 2 3 4 5 6 
#
# 1 0.018303 -0.000510 0.005893 0.000000 0.000000 0.000000
# 2 -0.000510 0.006229 -0.004831 0.000000 0.000000 0.000000
# 3 0.005893 -0.004831 0.035728 0.000000 0.000000 0.000000
# 4 0.000000 0.000000 0.000000 0.037500 0.000000 0.000000
# 5 0.000000 0.000000 0.000000 0.000000 -0.010335 0.000000
# 6 0.000000 0.000000 0.000000 0.000000 0.000000 -0.069055
#
#
# Mechanical properties :
#
#
# Convention : Reuss Voigt Hill
#
# Bulk Modulus (GPa) = 16.29626 32.66278 24.47952
# Shear Modulus (GPa) = 132.55705 0.31098 66.43402
#
# Velocity S-wave (km/s) = 7.71026 0.37345 5.45837
# Velocity P-wave (km/s) = 9.30444 3.85153 7.12064
#
# Compressibility (1/GPa) = 0.06136378
#
# Stress axis : x y z
#
# Youngs Moduli (GPa) = 54.63668 160.54964 27.98901
#
# Poissons Ratio (x) = 0.08187 -0.16494
# Poissons Ratio (y) = 0.02786 0.13521
# Poissons Ratio (z) = -0.32197 0.77560
#
# Static dielectric constant tensor:
#      x y z
#    x 1.872420 0.000000 0.000000 
#    y 0.000000 1.812050 0.000000 
#    z 0.000000 0.000000 1.785080 
# 
# From -- ./inp_files/12410.got.cif
#   From: 2010.05.17/outbox.cif.g08.bks.cpg/sg38_7_cif.got.tgz:12410.got - 2010.06.03 18:07:57.
