data_PCOD9356902
_publ_section_title
;
Structure prediction by ZEFSAII (Michael W. Deem and Ramdas Pophale) SiO2 
 PCOD9356902
Probable space group: A M M 2
;
_chemical_formula_sum "Si O2"
_cell_formula_units_Z 56
_cell_length_a 8.616341
_cell_length_b 22.274752
_cell_length_c 15.075360
_cell_angle_alpha 90.000000
_cell_angle_beta 90.000000
_cell_angle_gamma 90.000000
_cell_volume 2893.366492
_symmetry_space_group_name_H-M "A M M 2"
_symmetry_group_IT_number 38
_symmetry_cell_setting 'orthorhombic'
loop_
_space_group_symop_operation_xyz
x,y,z
-x,-y,z
-x,y,z
x,-y,z
x,1/2+y,1/2+z
-x,1/2-y,1/2+z
-x,1/2+y,1/2+z
x,1/2-y,1/2+z
loop_
_atom_site_type_symbol
_atom_site_label
_atom_site_fract_x
_atom_site_fract_y
_atom_site_fract_z
Si Si1 0.312099 0.115070 0.546860
Si Si2 0.313751 0.856678 0.354314
Si Si3 0.185881 0.888804 0.974597
Si Si4 0.314263 0.216284 0.859131
Si Si5 0.689289 0.500000 0.160181
Si Si6 0.813623 0.142879 0.166134
Si Si7 0.813928 0.217174 0.668328
Si Si8 0.314145 0.500000 0.363994
O O1 0.500000 0.118232 0.549098
O O2 0.265103 0.109848 0.443996
O O3 0.261540 0.059157 0.606834
O O4 0.246477 0.175581 0.589795
O O5 0.500000 0.858473 0.348501
O O6 0.269004 0.786370 0.366178
O O7 0.247914 0.878766 0.260855
O O8 0.236253 0.825546 0.932147
O O9 0.000000 0.893205 0.972667
O O10 0.256374 0.941487 0.915705
O O11 0.238221 0.890877 0.077273
O O12 0.500000 0.211697 0.866040
O O13 0.259936 0.195911 0.761319
O O14 0.500000 0.500000 0.160783
O O15 0.741784 0.500000 0.261978
O O16 0.767693 0.213140 0.156547
O O17 0.000000 0.141098 0.168632
O O18 0.000000 0.214205 0.674144
O O19 0.500000 0.500000 0.362388
#
# Coordination Sequence:
#
# PCOD9356902 Si02
#       8
#     8   8   8   8   4   8   8   4
#     4  10  19  34  54  77 105 140 177 219 268 316
#     4   9  19  33  53  80 109 140 178 221 268 321
#     4  11  22  37  56  79 107 143 182 224 272 324
#     4  10  19  32  51  79 111 142 175 219 271 324
#     4   9  20  37  56  75 102 136 171 211 260 313
#     4   9  20  36  54  77 109 143 175 215 269 323
#     4  10  19  32  52  80 109 141 178 218 265 323
#     4  11  23  39  58  81 106 140 181 221 268 325
#
# _framework density 19.354617999999999
#
# number of rings (size 3 to 8) (size 9 to 14) (size 15 to 20)
#    0.000    2.143    0.000    3.214    0.000    4.000 
#    0.000    1.786    0.000    0.857    0.000    0.000 
#    0.000    0.000    0.000    0.000    0.000    0.000 
#
# Total GULP energy -156358.033631 kJ/mol
# GULP energy per Si atom -5584.215487 kJ/mol
# Density = 1.931057 g / cm^3
# Si number density = 19.354618 Si / 1000 Ang^3
#
#
#
# Elastic Constant Matrix: (Units=GPa)
#
#
# Indices 1 2 3 4 5 6 
#
# 1 25.1635 16.1491 29.9352 0.0000 0.0000 0.0000
# 2 16.1491 43.7320 56.4714 0.0000 0.0000 0.0000
# 3 29.9352 56.4714 200.8416 0.0000 0.0000 0.0000
# 4 0.0000 0.0000 0.0000 32.0707 0.0000 0.0000
# 5 0.0000 0.0000 0.0000 0.0000 26.5013 0.0000
# 6 0.0000 0.0000 0.0000 0.0000 0.0000 19.8232
#
#
#
# Elastic Compliance Matrix: (Units=1/GPa)
#
#
# Indices 1 2 3 4 5 6 
#
# 1 0.053893 -0.014961 -0.003826 0.000000 0.000000 0.000000
# 2 -0.014961 0.040055 -0.009033 0.000000 0.000000 0.000000
# 3 -0.003826 -0.009033 0.008089 0.000000 0.000000 0.000000
# 4 0.000000 0.000000 0.000000 0.031181 0.000000 0.000000
# 5 0.000000 0.000000 0.000000 0.000000 0.037734 0.000000
# 6 0.000000 0.000000 0.000000 0.000000 0.000000 0.050446
#
#
# Mechanical properties :
#
#
# Convention : Reuss Voigt Hill
#
# Bulk Modulus (GPa) = 21.55251 52.76096 37.15674
# Shear Modulus (GPa) = 17.09385 26.82445 21.95915
#
# Velocity S-wave (km/s) = 2.97508 3.72687 3.37199
# Velocity P-wave (km/s) = 4.79179 6.77043 5.86515
#
# Compressibility (1/GPa) = 0.04639832
#
# Stress axis : x y z
#
# Youngs Moduli (GPa) = 18.55531 24.96571 123.62402
#
# Poissons Ratio (x) = 0.37350 0.47300
# Poissons Ratio (y) = 0.27760 1.11664
# Poissons Ratio (z) = 0.07100 0.22550
#
# Static dielectric constant tensor:
#      x y z
#    x 1.656920 0.000000 0.000000 
#    y 0.000000 1.663990 0.000000 
#    z 0.000000 0.000000 1.689120 
# 
# From -- ./inp_files/12479.got.cif
#   From: 2010.05.17/outbox.cif.g08.bks.cpg/sg38_7_cif.got.tgz:12479.got - 2010.06.03 18:07:57.
