data_PCOD9356570
_publ_section_title
;
Structure prediction by ZEFSAII (Michael W. Deem and Ramdas Pophale) SiO2 
 PCOD9356570
Probable space group: A M M 2
;
_chemical_formula_sum "Si O2"
_cell_formula_units_Z 56
_cell_length_a 8.834500
_cell_length_b 14.047222
_cell_length_c 29.841741
_cell_angle_alpha 90.000000
_cell_angle_beta 90.000000
_cell_angle_gamma 90.000000
_cell_volume 3703.365512
_symmetry_space_group_name_H-M "A M M 2"
_symmetry_group_IT_number 38
_symmetry_cell_setting 'orthorhombic'
loop_
_space_group_symop_operation_xyz
x,y,z
-x,-y,z
-x,y,z
x,-y,z
x,1/2+y,1/2+z
-x,1/2-y,1/2+z
-x,1/2+y,1/2+z
x,1/2-y,1/2+z
loop_
_atom_site_type_symbol
_atom_site_label
_atom_site_fract_x
_atom_site_fract_y
_atom_site_fract_z
Si Si1 0.816478 0.106426 0.851420
Si Si2 0.181837 0.785834 0.942135
Si Si3 0.680459 0.113134 0.216068
Si Si4 0.825471 0.115533 0.122052
Si Si5 0.817803 0.702476 0.804466
Si Si6 0.681326 0.109997 0.392722
Si Si7 0.681004 0.112248 0.027729
O O1 0.775023 0.143657 0.900999
O O2 0.771672 0.189178 0.816883
O O3 0.000000 0.103221 0.850450
O O4 0.759384 0.000000 0.842866
O O5 0.248635 0.683717 0.928166
O O6 0.000000 0.780792 0.943680
O O7 0.246117 0.827254 0.988008
O O8 0.500000 0.124443 0.217269
O O9 0.744124 0.145210 0.167893
O O10 0.756468 0.167975 0.257052
O O11 0.713756 0.000000 0.220988
O O12 0.742188 0.143663 0.076326
O O13 0.000000 0.146088 0.121633
O O14 0.822850 0.000000 0.122383
O O15 0.750208 0.638249 0.844441
O O16 0.000000 0.696304 0.805754
O O17 0.500000 0.121554 0.391107
O O18 0.715683 0.000000 0.402754
O O19 0.500000 0.119843 0.026653
O O20 0.720839 0.000000 0.021796
#
# Coordination Sequence:
#
# PCOD9356570 Si02
#       7
#     8   8   8   8   8   8   8
#     4   8  15  28  44  63  88 116 147 184 222 258
#     4  10  19  30  47  69  91 119 155 191 226 267
#     4  10  19  30  44  63  90 122 151 182 224 271
#     4   9  17  29  45  65  89 117 150 187 224 265
#     4  10  19  29  45  68  90 117 153 188 223 267
#     4  10  20  33  47  64  90 122 153 188 230 273
#     4  10  19  30  45  67  96 126 153 183 222 270
#
# _framework density 15.121381
#
# number of rings (size 3 to 8) (size 9 to 14) (size 15 to 20)
#    0.000    2.429    0.000    4.286    0.000    6.857 
#    0.000    0.000    0.000    8.571    0.000    1.000 
#    0.000    5.714    0.000    0.000    0.000    0.000 
#
# Total GULP energy -156126.718056 kJ/mol
# GULP energy per Si atom -5575.954216 kJ/mol
# Density = 1.508696 g / cm^3
# Si number density = 15.121381 Si / 1000 Ang^3
#
#
#
# Elastic Constant Matrix: (Units=GPa)
#
#
# Indices 1 2 3 4 5 6 
#
# 1 66.0631 48.8926 60.3372 0.0000 0.0000 0.0000
# 2 48.8926 97.9221 70.1907 0.0000 0.0000 0.0000
# 3 60.3372 70.1907 152.9452 0.0000 0.0000 0.0000
# 4 0.0000 0.0000 0.0000 23.2584 0.0000 0.0000
# 5 0.0000 0.0000 0.0000 0.0000 29.5179 0.0000
# 6 0.0000 0.0000 0.0000 0.0000 0.0000 18.4380
#
#
#
# Elastic Compliance Matrix: (Units=1/GPa)
#
#
# Indices 1 2 3 4 5 6 
#
# 1 0.028234 -0.009110 -0.006957 0.000000 0.000000 0.000000
# 2 -0.009110 0.018158 -0.004739 0.000000 0.000000 0.000000
# 3 -0.006957 -0.004739 0.011458 0.000000 0.000000 0.000000
# 4 0.000000 0.000000 0.000000 0.042995 0.000000 0.000000
# 5 0.000000 0.000000 0.000000 0.000000 0.033878 0.000000
# 6 0.000000 0.000000 0.000000 0.000000 0.000000 0.054236
#
#
# Mechanical properties :
#
#
# Convention : Reuss Voigt Hill
#
# Bulk Modulus (GPa) = 61.59067 75.08571 68.33819
# Shear Modulus (GPa) = 21.18790 23.41019 22.29904
#
# Velocity S-wave (km/s) = 3.74731 3.93892 3.84431
# Velocity P-wave (km/s) = 7.71637 8.39345 8.06202
#
# Compressibility (1/GPa) = 0.01623623
#
# Stress axis : x y z
#
# Youngs Moduli (GPa) = 35.41880 55.07235 87.27546
#
# Poissons Ratio (x) = 0.50171 0.60721
# Poissons Ratio (y) = 0.32266 0.41362
# Poissons Ratio (z) = 0.24642 0.26100
#
# Static dielectric constant tensor:
#      x y z
#    x 1.505670 0.000000 0.000000 
#    y 0.000000 1.494590 0.000000 
#    z 0.000000 0.000000 1.480830 
# 
# From -- ./inp_files/24641.got.cif
#   From: 2010.05.17/outbox.cif.g08.bks.cpg/sg38_13_cif.got.tgz:24641.got - 2010.06.03 18:07:57.
