data_PCOD9356011
_publ_section_title
;
Structure prediction by ZEFSAII (Michael W. Deem and Ramdas Pophale) SiO2 
 PCOD9356011
Probable space group: A M M 2
;
_chemical_formula_sum "Si O2"
_cell_formula_units_Z 56
_cell_length_a 8.770756
_cell_length_b 30.342351
_cell_length_c 13.975628
_cell_angle_alpha 90.000000
_cell_angle_beta 90.000000
_cell_angle_gamma 90.000000
_cell_volume 3719.268992
_symmetry_space_group_name_H-M "A M M 2"
_symmetry_group_IT_number 38
_symmetry_cell_setting 'orthorhombic'
loop_
_space_group_symop_operation_xyz
x,y,z
-x,-y,z
-x,y,z
x,-y,z
x,1/2+y,1/2+z
-x,1/2-y,1/2+z
-x,1/2+y,1/2+z
x,1/2-y,1/2+z
loop_
_atom_site_type_symbol
_atom_site_label
_atom_site_fract_x
_atom_site_fract_y
_atom_site_fract_z
Si Si1 0.816460 0.314140 0.575490
Si Si2 0.182460 0.680966 0.157800
Si Si3 0.819243 0.000000 0.985661
Si Si4 0.185156 0.904324 0.975782
Si Si5 0.182818 0.730867 0.771603
Si Si6 0.681572 0.097573 0.761515
Si Si7 0.680982 0.728709 0.978052
Si Si8 0.318561 0.000000 0.776312
O O1 0.773467 0.362666 0.540599
O O2 0.778615 0.302372 0.685078
O O3 0.740540 0.276910 0.509918
O O4 0.000000 0.309366 0.565967
O O5 0.224280 0.720433 0.231785
O O6 0.243260 0.634868 0.196849
O O7 0.249495 0.695076 0.055565
O O8 0.000000 0.680424 0.151679
O O9 0.763013 0.048199 0.017841
O O10 0.780519 0.000000 0.872790
O O11 0.000000 0.000000 0.001588
O O12 0.254117 0.898938 0.869716
O O13 0.000000 0.905036 0.966872
O O14 0.000000 0.730201 0.785643
O O15 0.263047 0.720412 0.870717
O O16 0.500000 0.104070 0.763602
O O17 0.711657 0.047084 0.727630
O O18 0.500000 0.727367 0.983566
O O19 0.500000 0.000000 0.801891
#
# Coordination Sequence:
#
# PCOD9356011 Si02
#       8
#     8   8   4   8   8   8   8   4
#     4   9  18  31  46  63  86 118 150 177 213 262
#     4  10  20  33  48  65  87 117 149 179 215 260
#     4   8  14  24  40  62  87 114 147 184 215 252
#     4   9  16  27  43  64  90 120 151 181 217 258
#     4   9  18  32  46  60  83 115 147 177 214 260
#     4  10  18  28  43  65  92 120 149 180 216 257
#     4  11  21  31  45  65  88 112 142 182 220 256
#     4   8  16  28  40  58  89 122 145 172 215 262
#
# _framework density 15.056722000000001
#
# number of rings (size 3 to 8) (size 9 to 14) (size 15 to 20)
#    0.000    2.571    0.000    3.857    0.000    7.429 
#    0.000    0.000    0.000    0.000    0.000    1.000 
#    0.000    2.286    0.000    0.000    0.000    0.000 
#
# Total GULP energy -155997.260761 kJ/mol
# GULP energy per Si atom -5571.330741 kJ/mol
# Density = 1.502245 g / cm^3
# Si number density = 15.056722 Si / 1000 Ang^3
#
#
#
# Elastic Constant Matrix: (Units=GPa)
#
#
# Indices 1 2 3 4 5 6 
#
# 1 35.2661 40.3163 35.3035 0.0000 0.0000 0.0000
# 2 40.3163 150.2629 67.6108 0.0000 0.0000 0.0000
# 3 35.3035 67.6108 87.9365 0.0000 0.0000 0.0000
# 4 0.0000 0.0000 0.0000 22.6926 0.0000 0.0000
# 5 0.0000 0.0000 0.0000 0.0000 -35.4578 0.0000
# 6 0.0000 0.0000 0.0000 0.0000 0.0000 17.8887
#
#
#
# Elastic Compliance Matrix: (Units=1/GPa)
#
#
# Indices 1 2 3 4 5 6 
#
# 1 0.051740 -0.006935 -0.015440 0.000000 0.000000 0.000000
# 2 -0.006935 0.011105 -0.005754 0.000000 0.000000 0.000000
# 3 -0.015440 -0.005754 0.021994 0.000000 0.000000 0.000000
# 4 0.000000 0.000000 0.000000 0.044067 0.000000 0.000000
# 5 0.000000 0.000000 0.000000 0.000000 -0.028203 0.000000
# 6 0.000000 0.000000 0.000000 0.000000 0.000000 0.055901
#
#
# Mechanical properties :
#
#
# Convention : Reuss Voigt Hill
#
# Bulk Modulus (GPa) = 34.98719 62.21407 48.60063
# Shear Modulus (GPa) = 22.48306 9.70701 16.09504
#
# Velocity S-wave (km/s) = 3.86842 2.54184 3.27304
# Velocity P-wave (km/s) = 6.57573 7.07277 6.82878
#
# Compressibility (1/GPa) = 0.02858189
#
# Stress axis : x y z
#
# Youngs Moduli (GPa) = 19.32729 90.05300 45.46648
#
# Poissons Ratio (x) = 0.62452 0.70200
# Poissons Ratio (y) = 0.13403 0.26160
# Poissons Ratio (z) = 0.29841 0.51814
#
# Static dielectric constant tensor:
#      x y z
#    x 1.506540 0.000000 0.000000 
#    y 0.000000 1.527790 0.000000 
#    z 0.000000 0.000000 1.467590 
# 
# From -- ./inp_files/13034.got.cif
#   From: 2010.05.17/outbox.cif.g08.bks.cpg/sg38_7_cif.got.tgz:13034.got - 2010.06.03 18:07:57.
