data_PCOD9356831
_publ_section_title
;
Structure prediction by ZEFSAII (Michael W. Deem and Ramdas Pophale) SiO2 
 PCOD9356831
Probable space group: A M M 2
;
_chemical_formula_sum "Si O2"
_cell_formula_units_Z 48
_cell_length_a 8.255281
_cell_length_b 14.139116
_cell_length_c 19.350566
_cell_angle_alpha 90.000000
_cell_angle_beta 90.000000
_cell_angle_gamma 90.000000
_cell_volume 2258.644034
_symmetry_space_group_name_H-M "A M M 2"
_symmetry_group_IT_number 38
_symmetry_cell_setting 'orthorhombic'
loop_
_space_group_symop_operation_xyz
x,y,z
-x,-y,z
-x,y,z
x,-y,z
x,1/2+y,1/2+z
-x,1/2-y,1/2+z
-x,1/2+y,1/2+z
x,1/2-y,1/2+z
loop_
_atom_site_type_symbol
_atom_site_label
_atom_site_fract_x
_atom_site_fract_y
_atom_site_fract_z
Si Si1 0.694321 0.891956 0.413910
Si Si2 0.816927 0.752869 0.302618
Si Si3 0.316960 0.392319 0.400268
Si Si4 0.193124 0.897344 0.055362
Si Si5 0.693961 0.195291 0.559531
Si Si6 0.804409 0.604685 0.193999
O O1 0.500000 0.894690 0.418716
O O2 0.737743 0.840993 0.341920
O O3 0.750511 0.832777 0.481841
O O4 0.754870 0.000000 0.416951
O O5 0.809944 0.672118 0.361537
O O6 0.740804 0.693632 0.239068
O O7 0.000000 0.779325 0.284205
O O8 0.500000 0.355318 0.389041
O O9 0.308732 0.500000 0.375928
O O10 0.280594 0.394687 0.481228
O O11 0.243328 0.797137 0.086153
O O12 0.000000 0.896400 0.045792
O O13 0.234765 0.000000 0.088166
O O14 0.500000 0.197546 0.558567
O O15 0.755158 0.119978 0.614971
O O16 0.749011 0.500000 0.216640
O O17 0.000000 0.606588 0.200349
#
# Coordination Sequence:
#
# PCOD9356831 Si02
#       6
#     8   8   8   8   8   8
#     4  10  22  40  61  87 120 157 199 249 304 363
#     4  11  22  37  59  87 118 155 200 248 300 358
#     4  10  19  31  51  81 116 152 190 235 288 345
#     4  10  20  34  55  85 119 155 196 242 293 348
#     4  11  22  38  62  91 123 159 202 249 301 362
#     4  10  23  42  62  87 122 162 203 249 302 362
#
# _framework density 21.251688000000001
#
# number of rings (size 3 to 8) (size 9 to 14) (size 15 to 20)
#    0.000    1.667    1.667    3.000    0.000    6.000 
#    0.000    0.833    0.000    1.000    0.000    0.000 
#    0.000    0.000    0.000    0.000    0.000    0.000 
#
# Total GULP energy -133851.565215 kJ/mol
# GULP energy per Si atom -5577.148551 kJ/mol
# Density = 2.120332 g / cm^3
# Si number density = 21.251688 Si / 1000 Ang^3
#
#
#
# Elastic Constant Matrix: (Units=GPa)
#
#
# Indices 1 2 3 4 5 6 
#
# 1 29.6556 18.1290 5.5506 0.0000 0.0000 0.0000
# 2 18.1290 139.7272 33.9642 0.0000 0.0000 0.0000
# 3 5.5506 33.9642 70.8950 0.0000 0.0000 0.0000
# 4 0.0000 0.0000 0.0000 29.9371 0.0000 0.0000
# 5 0.0000 0.0000 0.0000 0.0000 17.7538 0.0000
# 6 0.0000 0.0000 0.0000 0.0000 0.0000 19.4037
#
#
#
# Elastic Compliance Matrix: (Units=1/GPa)
#
#
# Indices 1 2 3 4 5 6 
#
# 1 0.036653 -0.004593 -0.000669 0.000000 0.000000 0.000000
# 2 -0.004593 0.008676 -0.003797 0.000000 0.000000 0.000000
# 3 -0.000669 -0.003797 0.015977 0.000000 0.000000 0.000000
# 4 0.000000 0.000000 0.000000 0.033403 0.000000 0.000000
# 5 0.000000 0.000000 0.000000 0.000000 0.056326 0.000000
# 6 0.000000 0.000000 0.000000 0.000000 0.000000 0.051537
#
#
# Mechanical properties :
#
#
# Convention : Reuss Voigt Hill
#
# Bulk Modulus (GPa) = 23.15470 39.50728 31.33099
# Shear Modulus (GPa) = 21.26884 25.59451 23.43168
#
# Velocity S-wave (km/s) = 3.16699 3.47414 3.32411
# Velocity P-wave (km/s) = 4.92871 5.89266 5.43211
#
# Compressibility (1/GPa) = 0.04318778
#
# Stress axis : x y z
#
# Youngs Moduli (GPa) = 27.28258 115.26587 62.59126
#
# Poissons Ratio (x) = 0.52941 0.04189
# Poissons Ratio (y) = 0.12531 0.23764
# Poissons Ratio (z) = 0.01826 0.43763
#
# Static dielectric constant tensor:
#      x y z
#    x 1.786080 0.000000 0.000000 
#    y 0.000000 1.733620 0.000000 
#    z 0.000000 0.000000 1.762910 
# 
# From -- ./inp_files/16652.got.cif
#   From: 2010.05.17/outbox.cif.g08.bks.cpg/sg38_9_cif.got.tgz:16652.got - 2010.06.03 18:07:57.
