data_PCOD9356709
_publ_section_title
;
Structure prediction by ZEFSAII (Michael W. Deem and Ramdas Pophale) SiO2 
 PCOD9356709
Probable space group: A M M 2
;
_chemical_formula_sum "Si O2"
_cell_formula_units_Z 56
_cell_length_a 16.346388
_cell_length_b 7.248950
_cell_length_c 20.653227
_cell_angle_alpha 90.000000
_cell_angle_beta 90.000000
_cell_angle_gamma 90.000000
_cell_volume 2447.286564
_symmetry_space_group_name_H-M "A M M 2"
_symmetry_group_IT_number 38
_symmetry_cell_setting 'orthorhombic'
loop_
_space_group_symop_operation_xyz
x,y,z
-x,-y,z
-x,y,z
x,-y,z
x,1/2+y,1/2+z
-x,1/2-y,1/2+z
-x,1/2+y,1/2+z
x,1/2-y,1/2+z
loop_
_atom_site_type_symbol
_atom_site_label
_atom_site_fract_x
_atom_site_fract_y
_atom_site_fract_z
Si Si1 0.586923 0.224144 0.675850
Si Si2 0.184759 0.723653 0.278392
Si Si3 0.090985 0.774657 0.900451
Si Si4 0.767806 0.712709 0.495521
Si Si5 0.588794 0.724492 0.462245
Si Si6 0.633796 0.776988 0.818460
Si Si7 0.233882 0.777593 0.638552
O O1 0.500000 0.285566 0.648059
O O2 0.591862 0.278756 0.751489
O O3 0.671469 0.285836 0.644227
O O4 0.588159 0.000000 0.673986
O O5 0.184302 0.500000 0.276631
O O6 0.113857 0.780053 0.327101
O O7 0.271328 0.776533 0.311015
O O8 0.187796 0.784299 0.203737
O O9 0.000000 0.715175 0.918729
O O10 0.091116 0.000000 0.902502
O O11 0.163661 0.710211 0.947596
O O12 0.758424 0.500000 0.475063
O O13 0.674955 0.788926 0.492652
O O14 0.798434 0.719974 0.569076
O O15 0.500000 0.787476 0.487549
O O16 0.587459 0.500000 0.466178
O O17 0.596201 0.778835 0.386477
O O18 0.631135 0.000000 0.818874
O O19 0.234258 0.000000 0.639670
#
# Coordination Sequence:
#
# PCOD9356709 Si02
#       7
#     8   8   8   8   8   8   8
#     4   8  13  21  36  60  87 116 154 194 227 262
#     4   8  13  25  44  66  88 111 146 193 232 263
#     4   9  16  28  49  73  93 116 150 193 237 273
#     4  10  19  31  46  68  98 125 152 188 227 272
#     4   9  15  22  36  61  92 122 150 185 230 270
#     4   8  11  18  34  58  87 111 138 188 239 263
#     4   9  18  30  46  66  93 127 155 184 228 275
#
# _framework density 22.882486
#
# number of rings (size 3 to 8) (size 9 to 14) (size 15 to 20)
#    0.000    3.286    1.429    2.143    0.000    2.286 
#    0.000    0.714    0.000    2.143    0.000    0.000 
#    0.000    2.571    0.000    0.000    0.000    0.000 
#
# Total GULP energy -156242.690350 kJ/mol
# GULP energy per Si atom -5580.096084 kJ/mol
# Density = 2.283040 g / cm^3
# Si number density = 22.882486 Si / 1000 Ang^3
#
#
#
# Elastic Constant Matrix: (Units=GPa)
#
#
# Indices 1 2 3 4 5 6 
#
# 1 132.6188 8.1923 65.8410 0.0000 0.0000 0.0000
# 2 8.1923 103.9414 -7.5717 0.0000 0.0000 0.0000
# 3 65.8410 -7.5717 131.2878 0.0000 0.0000 0.0000
# 4 0.0000 0.0000 0.0000 3.5864 0.0000 0.0000
# 5 0.0000 0.0000 0.0000 0.0000 -4.7500 0.0000
# 6 0.0000 0.0000 0.0000 0.0000 0.0000 -26.7564
#
#
#
# Elastic Compliance Matrix: (Units=1/GPa)
#
#
# Indices 1 2 3 4 5 6 
#
# 1 0.010182 -0.001179 -0.005174 0.000000 0.000000 0.000000
# 2 -0.001179 0.009798 0.001157 0.000000 0.000000 0.000000
# 3 -0.005174 0.001157 0.010279 0.000000 0.000000 0.000000
# 4 0.000000 0.000000 0.000000 0.278830 0.000000 0.000000
# 5 0.000000 0.000000 0.000000 0.000000 -0.210526 0.000000
# 6 0.000000 0.000000 0.000000 0.000000 0.000000 -0.037374
#
#
# Mechanical properties :
#
#
# Convention : Reuss Voigt Hill
#
# Bulk Modulus (GPa) = 50.34191 55.64124 52.99158
# Shear Modulus (GPa) = 63.93475 14.50844 39.22159
#
# Velocity S-wave (km/s) = 5.29161 2.52075 4.14459
# Velocity P-wave (km/s) = 7.70602 5.73072 6.79058
#
# Compressibility (1/GPa) = 0.01986416
#
# Stress axis : x y z
#
# Youngs Moduli (GPa) = 98.21067 102.06150 97.29023
#
# Poissons Ratio (x) = 0.12038 0.50342
# Poissons Ratio (y) = 0.11584 -0.11252
# Poissons Ratio (z) = 0.50818 -0.11804
#
# Static dielectric constant tensor:
#      x y z
#    x 1.835900 0.000000 0.000000 
#    y 0.000000 1.919850 0.000000 
#    z 0.000000 0.000000 1.823190 
# 
# From -- ./inp_files/18712.got.cif
#   From: 2010.05.17/outbox.cif.g08.bks.cpg/sg38_10_cif.got.tgz:18712.got - 2010.06.03 18:07:57.
