data_PCOD9356505
_publ_section_title
;
Structure prediction by ZEFSAII (Michael W. Deem and Ramdas Pophale) SiO2 
 PCOD9356505
Probable space group: A M M 2
;
_chemical_formula_sum "Si O2"
_cell_formula_units_Z 64
_cell_length_a 9.311484
_cell_length_b 26.216523
_cell_length_c 18.609624
_cell_angle_alpha 90.000000
_cell_angle_beta 90.000000
_cell_angle_gamma 90.000000
_cell_volume 4542.883421
_symmetry_space_group_name_H-M "A M M 2"
_symmetry_group_IT_number 38
_symmetry_cell_setting 'orthorhombic'
loop_
_space_group_symop_operation_xyz
x,y,z
-x,-y,z
-x,y,z
x,-y,z
x,1/2+y,1/2+z
-x,1/2-y,1/2+z
-x,1/2+y,1/2+z
x,1/2-y,1/2+z
loop_
_atom_site_type_symbol
_atom_site_label
_atom_site_fract_x
_atom_site_fract_y
_atom_site_fract_z
Si Si1 0.331743 0.560785 0.062160
Si Si2 0.669482 0.756900 0.712538
Si Si3 0.830752 0.060822 0.710944
Si Si4 0.172144 0.759244 0.561158
Si Si5 0.827836 0.360537 0.967880
Si Si6 0.835108 0.298895 0.831521
Si Si7 0.330120 0.640483 0.306573
Si Si8 0.165359 0.195247 0.926946
O O1 0.500000 0.573640 0.069876
O O2 0.319841 0.500000 0.051082
O O3 0.247281 0.573302 0.135660
O O4 0.259122 0.592010 0.998183
O O5 0.500000 0.750115 0.703789
O O6 0.747833 0.757079 0.636338
O O7 0.735149 0.713711 0.764585
O O8 0.692772 0.811024 0.753270
O O9 0.754867 0.093345 0.772659
O O10 0.000000 0.072921 0.706345
O O11 0.815851 0.000000 0.722525
O O12 0.203547 0.812353 0.520045
O O13 0.210627 0.713426 0.506248
O O14 0.000000 0.757311 0.571525
O O15 0.791142 0.343253 0.886808
O O16 0.000000 0.369102 0.970590
O O17 0.835602 0.247738 0.880662
O O18 0.000000 0.307375 0.808442
O O19 0.500000 0.630771 0.310389
O O20 0.266222 0.657015 0.383528
O O21 0.000000 0.176985 0.928869
#
# Coordination Sequence:
#
# PCOD9356505 Si02
#       8
#     8   8   8   8   8   8   8   8
#     4  10  20  31  42  59  84 111 138 171 210 246
#     4  10  19  27  38  60  86 111 139 168 202 245
#     4  10  20  32  45  60  79 107 143 178 207 237
#     4   9  17  28  42  60  82 109 140 172 205 240
#     4   9  17  29  45  62  79 106 143 175 205 242
#     4   8  15  28  43  58  78 105 137 171 204 239
#     4  10  19  29  42  61  84 110 138 169 208 247
#     4   8  15  28  43  58  78 106 138 169 201 240
#
# _framework density 14.087968999999999
#
# number of rings (size 3 to 8) (size 9 to 14) (size 15 to 20)
#    0.000    2.750    0.000    3.750    0.000    6.500 
#    0.000    2.500    0.000    0.000    0.000    0.000 
#    0.000    1.000    0.000    5.500    0.000    4.125 
#
# Total GULP energy -178313.913658 kJ/mol
# GULP energy per Si atom -5572.309802 kJ/mol
# Density = 1.405590 g / cm^3
# Si number density = 14.087969 Si / 1000 Ang^3
#
#
#
# Elastic Constant Matrix: (Units=GPa)
#
#
# Indices 1 2 3 4 5 6 
#
# 1 69.4015 34.4031 47.3111 0.0000 0.0000 0.0000
# 2 34.4031 32.3741 18.2503 0.0000 0.0000 0.0000
# 3 47.3111 18.2503 74.5812 0.0000 0.0000 0.0000
# 4 0.0000 0.0000 0.0000 26.5905 0.0000 0.0000
# 5 0.0000 0.0000 0.0000 0.0000 10.9554 0.0000
# 6 0.0000 0.0000 0.0000 0.0000 0.0000 20.9162
#
#
#
# Elastic Compliance Matrix: (Units=1/GPa)
#
#
# Indices 1 2 3 4 5 6 
#
# 1 0.048262 -0.039473 -0.020956 0.000000 0.000000 0.000000
# 2 -0.039473 0.068117 0.008372 0.000000 0.000000 0.000000
# 3 -0.020956 0.008372 0.024653 0.000000 0.000000 0.000000
# 4 0.000000 0.000000 0.000000 0.037607 0.000000 0.000000
# 5 0.000000 0.000000 0.000000 0.000000 0.091279 0.000000
# 6 0.000000 0.000000 0.000000 0.000000 0.000000 0.047810
#
#
# Mechanical properties :
#
#
# Convention : Reuss Voigt Hill
#
# Bulk Modulus (GPa) = 27.08802 41.80955 34.44878
# Shear Modulus (GPa) = 11.51680 16.78527 14.15104
#
# Velocity S-wave (km/s) = 2.86228 3.45550 3.17279
# Velocity P-wave (km/s) = 5.49482 6.75741 6.15856
#
# Compressibility (1/GPa) = 0.03691669
#
# Stress axis : x y z
#
# Youngs Moduli (GPa) = 20.72028 14.68071 40.56268
#
# Poissons Ratio (x) = 0.57949 0.85003
# Poissons Ratio (y) = 0.81789 -0.33957
# Poissons Ratio (z) = 0.43421 -0.12290
#
# Static dielectric constant tensor:
#      x y z
#    x 1.464980 0.000000 0.000000 
#    y 0.000000 1.454460 0.000000 
#    z 0.000000 0.000000 1.454980 
# 
# From -- ./inp_files/17297.got.cif
#   From: 2010.05.17/outbox.cif.g08.bks.cpg/sg38_9_cif.got.tgz:17297.got - 2010.06.03 18:07:57.
