data_PCOD9356076
_publ_section_title
;
Structure prediction by ZEFSAII (Michael W. Deem and Ramdas Pophale) SiO2 
 PCOD9356076
Probable space group: A M M 2
;
_chemical_formula_sum "Si O2"
_cell_formula_units_Z 64
_cell_length_a 14.727428
_cell_length_b 8.869133
_cell_length_c 32.106363
_cell_angle_alpha 90.000000
_cell_angle_beta 90.000000
_cell_angle_gamma 90.000000
_cell_volume 4193.717650
_symmetry_space_group_name_H-M "A M M 2"
_symmetry_group_IT_number 38
_symmetry_cell_setting 'orthorhombic'
loop_
_space_group_symop_operation_xyz
x,y,z
-x,-y,z
-x,y,z
x,-y,z
x,1/2+y,1/2+z
-x,1/2-y,1/2+z
-x,1/2+y,1/2+z
x,1/2-y,1/2+z
loop_
_atom_site_type_symbol
_atom_site_label
_atom_site_fract_x
_atom_site_fract_y
_atom_site_fract_z
Si Si1 0.389748 0.825804 0.100670
Si Si2 0.604919 0.318741 0.186942
Si Si3 0.394163 0.317517 0.508639
Si Si4 0.103449 0.181403 0.297932
Si Si5 0.606452 0.818607 0.345434
Si Si6 0.715453 0.319168 0.268047
Si Si7 0.899086 0.816783 0.395383
Si Si8 0.290407 0.182183 0.430812
O O1 0.500000 0.822873 0.099635
O O2 0.362036 0.737681 0.141956
O O3 0.361901 0.000000 0.104687
O O4 0.362363 0.768258 0.054906
O O5 0.500000 0.267910 0.192809
O O6 0.604254 0.500000 0.186660
O O7 0.666108 0.268271 0.225586
O O8 0.500000 0.272777 0.502969
O O9 0.391735 0.500000 0.508384
O O10 0.334538 0.252494 0.471608
O O11 0.182436 0.258649 0.272009
O O12 0.115079 0.223392 0.346794
O O13 0.000000 0.220284 0.285995
O O14 0.112682 0.000000 0.295509
O O15 0.500000 0.779547 0.344896
O O16 0.659328 0.742725 0.307468
O O17 0.651601 0.777456 0.389608
O O18 0.614941 0.000000 0.341188
O O19 0.715076 0.500000 0.269147
O O20 0.813162 0.767538 0.422281
O O21 0.000000 0.765350 0.408110
O O22 0.899708 0.000000 0.396377
O O23 0.291978 0.000000 0.434212
#
# Coordination Sequence:
#
# PCOD9356076 Si02
#       8
#     8   8   8   8   8   8   8   8
#     4   8  15  29  47  65  85 113 150 190 228 266
#     4   9  18  31  45  64  92 123 153 185 223 269
#     4   9  18  31  45  64  93 123 149 181 226 276
#     4   9  17  32  52  68  86 117 156 196 234 271
#     4  10  20  32  44  61  90 126 163 196 220 256
#     4  11  21  31  45  67  96 125 152 187 232 279
#     4   8  14  27  47  66  85 112 147 190 232 263
#     4  10  18  29  46  67  89 116 155 193 222 260
#
# _framework density 15.260923
#
# number of rings (size 3 to 8) (size 9 to 14) (size 15 to 20)
#    0.000    2.750    1.250    2.625    0.000    3.750 
#    0.000    2.500    0.000    0.375    0.000    0.875 
#    0.000    3.000    0.000    0.000    0.000    0.000 
#
# Total GULP energy -178292.215259 kJ/mol
# GULP energy per Si atom -5571.631727 kJ/mol
# Density = 1.522619 g / cm^3
# Si number density = 15.260923 Si / 1000 Ang^3
#
#
#
# Elastic Constant Matrix: (Units=GPa)
#
#
# Indices 1 2 3 4 5 6 
#
# 1 114.5989 28.6712 77.2705 0.0000 0.0000 0.0000
# 2 28.6712 12.2427 31.6645 0.0000 0.0000 0.0000
# 3 77.2705 31.6645 142.6949 0.0000 0.0000 0.0000
# 4 0.0000 0.0000 0.0000 27.3828 0.0000 0.0000
# 5 0.0000 0.0000 0.0000 0.0000 8.2893 0.0000
# 6 0.0000 0.0000 0.0000 0.0000 0.0000 19.0932
#
#
#
# Elastic Compliance Matrix: (Units=1/GPa)
#
#
# Indices 1 2 3 4 5 6 
#
# 1 0.021144 -0.046715 -0.001083 0.000000 0.000000 0.000000
# 2 -0.046715 0.294920 -0.040147 0.000000 0.000000 0.000000
# 3 -0.001083 -0.040147 0.016503 0.000000 0.000000 0.000000
# 4 0.000000 0.000000 0.000000 0.036519 0.000000 0.000000
# 5 0.000000 0.000000 0.000000 0.000000 0.120637 0.000000
# 6 0.000000 0.000000 0.000000 0.000000 0.000000 0.052375
#
#
# Mechanical properties :
#
#
# Convention : Reuss Voigt Hill
#
# Bulk Modulus (GPa) = 6.38260 60.52768 33.45514
# Shear Modulus (GPa) = 6.49168 19.74842 13.12005
#
# Velocity S-wave (km/s) = 2.06471 3.60120 2.93527
# Velocity P-wave (km/s) = 3.14252 7.55245 5.78424
#
# Compressibility (1/GPa) = 0.15667608
#
# Stress axis : x y z
#
# Youngs Moduli (GPa) = 47.29421 3.39075 60.59337
#
# Poissons Ratio (x) = 0.15840 0.06565
# Poissons Ratio (y) = 2.20937 2.43265
# Poissons Ratio (z) = 0.05124 0.13613
#
# Static dielectric constant tensor:
#      x y z
#    x 1.508360 0.000000 0.000000 
#    y 0.000000 1.516260 0.000000 
#    z 0.000000 0.000000 1.495850 
# 
# From -- ./inp_files/25043.got.cif
#   From: 2010.05.17/outbox.cif.g08.bks.cpg/sg38_13_cif.got.tgz:25043.got - 2010.06.03 18:07:57.
