data_PCOD9356938
_publ_section_title
;
Structure prediction by ZEFSAII (Michael W. Deem and Ramdas Pophale) SiO2 
 PCOD9356938
Probable space group: A M M 2
;
_chemical_formula_sum "Si O2"
_cell_formula_units_Z 64
_cell_length_a 20.294986
_cell_length_b 8.808081
_cell_length_c 20.536076
_cell_angle_alpha 90.000000
_cell_angle_beta 90.000000
_cell_angle_gamma 90.000000
_cell_volume 3671.026493
_symmetry_space_group_name_H-M "A M M 2"
_symmetry_group_IT_number 38
_symmetry_cell_setting 'orthorhombic'
loop_
_space_group_symop_operation_xyz
x,y,z
-x,-y,z
-x,y,z
x,-y,z
x,1/2+y,1/2+z
-x,1/2-y,1/2+z
-x,1/2+y,1/2+z
x,1/2-y,1/2+z
loop_
_atom_site_type_symbol
_atom_site_label
_atom_site_fract_x
_atom_site_fract_y
_atom_site_fract_z
Si Si1 0.923649 0.180963 0.139800
Si Si2 0.191552 0.818171 0.898581
Si Si3 0.824146 0.819135 0.534762
Si Si4 0.152951 0.180679 0.754593
Si Si5 0.333686 0.818654 0.363771
Si Si6 0.424424 0.816677 0.970580
Si Si7 0.683639 0.317377 0.576270
Si Si8 0.706178 0.681312 0.721677
O O1 0.876175 0.258933 0.087302
O O2 0.900767 0.236288 0.210896
O O3 0.000000 0.218515 0.128459
O O4 0.915203 0.000000 0.135333
O O5 0.153659 0.781974 0.831411
O O6 0.265523 0.753536 0.889861
O O7 0.195193 0.000000 0.905169
O O8 0.161253 0.746005 0.963057
O O9 0.751643 0.758617 0.553999
O O10 0.823816 0.000000 0.533941
O O11 0.224555 0.232325 0.728220
O O12 0.146369 0.000000 0.747392
O O13 0.393067 0.751243 0.405236
O O14 0.335392 0.784493 0.286551
O O15 0.330678 0.000000 0.372062
O O16 0.500000 0.769929 0.980013
O O17 0.422577 0.000000 0.966668
O O18 0.376478 0.770839 0.029979
O O19 0.691519 0.500000 0.570080
O O20 0.673497 0.282783 0.652567
O O21 0.720205 0.500000 0.722593
#
# Coordination Sequence:
#
# PCOD9356938 Si02
#       8
#     8   8   8   8   8   8   8   8
#     4  11  24  41  60  82 114 156 193 229 283 346
#     4  10  20  35  56  83 115 149 184 229 283 336
#     4  12  23  35  57  88 116 147 190 241 286 332
#     4  10  20  34  56  85 113 144 184 230 279 331
#     4  10  19  32  52  81 111 141 181 233 284 332
#     4  10  21  36  54  77 109 152 195 235 287 350
#     4  10  19  34  56  80 110 149 188 233 283 338
#     4   9  18  32  53  80 110 142 179 226 281 331
#
# _framework density 17.433817000000001
#
# number of rings (size 3 to 8) (size 9 to 14) (size 15 to 20)
#    0.000    1.750    2.500    2.625    0.000    3.250 
#    0.000    1.250    0.000    3.000    0.000    0.000 
#    0.000    0.000    0.000    0.000    0.000    0.000 
#
# Total GULP energy -178660.806697 kJ/mol
# GULP energy per Si atom -5583.150209 kJ/mol
# Density = 1.739414 g / cm^3
# Si number density = 17.433817 Si / 1000 Ang^3
#
#
#
# Elastic Constant Matrix: (Units=GPa)
#
#
# Indices 1 2 3 4 5 6 
#
# 1 105.5126 47.0118 70.1056 0.0000 0.0000 0.0000
# 2 47.0118 48.5860 52.1469 0.0000 0.0000 0.0000
# 3 70.1056 52.1469 142.0439 0.0000 0.0000 0.0000
# 4 0.0000 0.0000 0.0000 29.3667 0.0000 0.0000
# 5 0.0000 0.0000 0.0000 0.0000 24.8974 0.0000
# 6 0.0000 0.0000 0.0000 0.0000 0.0000 18.0300
#
#
#
# Elastic Compliance Matrix: (Units=1/GPa)
#
#
# Indices 1 2 3 4 5 6 
#
# 1 0.018005 -0.013011 -0.004110 0.000000 0.000000 0.000000
# 2 -0.013011 0.043367 -0.009499 0.000000 0.000000 0.000000
# 3 -0.004110 -0.009499 0.012556 0.000000 0.000000 0.000000
# 4 0.000000 0.000000 0.000000 0.034052 0.000000 0.000000
# 5 0.000000 0.000000 0.000000 0.000000 0.040165 0.000000
# 6 0.000000 0.000000 0.000000 0.000000 0.000000 0.055463
#
#
# Mechanical properties :
#
#
# Convention : Reuss Voigt Hill
#
# Bulk Modulus (GPa) = 48.33740 70.51903 59.42822
# Shear Modulus (GPa) = 18.95776 22.91736 20.93756
#
# Velocity S-wave (km/s) = 3.30117 3.62958 3.46927
# Velocity P-wave (km/s) = 6.50513 7.62250 7.08588
#
# Compressibility (1/GPa) = 0.02068791
#
# Stress axis : x y z
#
# Youngs Moduli (GPa) = 55.53890 23.05918 79.64345
#
# Poissons Ratio (x) = 0.30002 0.32734
# Poissons Ratio (y) = 0.72260 0.75656
# Poissons Ratio (z) = 0.22827 0.21905
#
# Static dielectric constant tensor:
#      x y z
#    x 1.557510 0.000000 0.000000 
#    y 0.000000 1.583630 0.000000 
#    z 0.000000 0.000000 1.614010 
# 
# From -- ./inp_files/21354.got.cif
#   From: 2010.05.17/outbox.cif.g08.bks.cpg/sg38_11_cif.got.tgz:21354.got - 2010.06.03 18:07:57.
