data_PCOD9356581
_publ_section_title
;
Structure prediction by ZEFSAII (Michael W. Deem and Ramdas Pophale) SiO2 
 PCOD9356581
Probable space group: A M M 2
;
_chemical_formula_sum "Si O2"
_cell_formula_units_Z 64
_cell_length_a 9.290500
_cell_length_b 21.354949
_cell_length_c 15.377682
_cell_angle_alpha 90.000000
_cell_angle_beta 90.000000
_cell_angle_gamma 90.000000
_cell_volume 3050.903717
_symmetry_space_group_name_H-M "A M M 2"
_symmetry_group_IT_number 38
_symmetry_cell_setting 'orthorhombic'
loop_
_space_group_symop_operation_xyz
x,y,z
-x,-y,z
-x,y,z
x,-y,z
x,1/2+y,1/2+z
-x,1/2-y,1/2+z
-x,1/2+y,1/2+z
x,1/2-y,1/2+z
loop_
_atom_site_type_symbol
_atom_site_label
_atom_site_fract_x
_atom_site_fract_y
_atom_site_fract_z
Si Si1 0.838232 0.923947 0.497140
Si Si2 0.665507 0.315939 0.265677
Si Si3 0.167113 0.074035 0.699805
Si Si4 0.332447 0.738623 0.592302
Si Si5 0.662113 0.924412 0.333299
Si Si6 0.827352 0.709092 0.427174
Si Si7 0.169130 0.881465 0.165666
Si Si8 0.170301 0.432418 0.478975
O O1 0.805235 0.911818 0.597888
O O2 0.726145 0.901865 0.425227
O O3 0.000000 0.900891 0.477999
O O4 0.842719 0.000000 0.490945
O O5 0.500000 0.314366 0.293568
O O6 0.729249 0.385471 0.258728
O O7 0.675238 0.289765 0.167953
O O8 0.762173 0.276850 0.332989
O O9 0.000000 0.090486 0.717932
O O10 0.183050 0.000000 0.712482
O O11 0.500000 0.728053 0.570694
O O12 0.242248 0.749409 0.504502
O O13 0.260335 0.678329 0.636699
O O14 0.500000 0.900681 0.318557
O O15 0.766761 0.906811 0.254830
O O16 0.655770 0.000000 0.336738
O O17 0.781094 0.636107 0.446161
O O18 0.000000 0.712936 0.429452
O O19 0.183317 0.928295 0.083759
O O20 0.000000 0.866267 0.173650
O O21 0.231135 0.500000 0.449221
O O22 0.000000 0.433434 0.457737
#
# Coordination Sequence:
#
# PCOD9356581 Si02
#       8
#     8   8   8   8   8   8   8   8
#     4   8  15  30  50  72 103 144 188 235 285 336
#     4  11  24  41  63  90 120 159 199 242 299 360
#     4   9  19  37  61  88 118 152 192 241 294 350
#     4  10  22  42  62  82 115 156 198 248 303 356
#     4  10  19  29  45  74 112 153 195 240 294 355
#     4  10  21  38  63  91 119 155 199 247 293 349
#     4  10  19  32  53  79 108 148 198 247 295 346
#     4   8  15  29  51  81 114 146 182 227 283 342
#
# _framework density 20.977391000000001
#
# number of rings (size 3 to 8) (size 9 to 14) (size 15 to 20)
#    0.000    2.500    0.000    3.750    0.000    4.500 
#    2.250    2.500    0.000    7.125    0.000    0.000 
#    0.000    0.000    0.000    0.000    0.000    0.000 
#
# Total GULP energy -178587.072628 kJ/mol
# GULP energy per Si atom -5580.846020 kJ/mol
# Density = 2.092965 g / cm^3
# Si number density = 20.977391 Si / 1000 Ang^3
#
#
#
# Elastic Constant Matrix: (Units=GPa)
#
#
# Indices 1 2 3 4 5 6 
#
# 1 119.5389 21.0576 69.0371 0.0000 0.0000 0.0000
# 2 21.0576 23.3599 1.1711 0.0000 0.0000 0.0000
# 3 69.0371 1.1711 87.5167 0.0000 0.0000 0.0000
# 4 0.0000 0.0000 0.0000 17.2475 0.0000 0.0000
# 5 0.0000 0.0000 0.0000 0.0000 29.7433 0.0000
# 6 0.0000 0.0000 0.0000 0.0000 0.0000 20.4307
#
#
#
# Elastic Compliance Matrix: (Units=1/GPa)
#
#
# Indices 1 2 3 4 5 6 
#
# 1 0.020958 -0.018076 -0.016291 0.000000 0.000000 0.000000
# 2 -0.018076 0.058427 0.013477 0.000000 0.000000 0.000000
# 3 -0.016291 0.013477 0.024097 0.000000 0.000000 0.000000
# 4 0.000000 0.000000 0.000000 0.057980 0.000000 0.000000
# 5 0.000000 0.000000 0.000000 0.000000 0.033621 0.000000
# 6 0.000000 0.000000 0.000000 0.000000 0.000000 0.048946
#
#
# Mechanical properties :
#
#
# Convention : Reuss Voigt Hill
#
# Bulk Modulus (GPa) = 16.20658 45.88301 31.04479
# Shear Modulus (GPa) = 16.31985 22.76093 19.54039
#
# Velocity S-wave (km/s) = 2.79224 3.29754 3.05536
# Velocity P-wave (km/s) = 4.25887 6.03477 5.22286
#
# Compressibility (1/GPa) = 0.06170335
#
# Stress axis : x y z
#
# Youngs Moduli (GPa) = 47.71438 17.11534 41.49899
#
# Poissons Ratio (x) = 0.30937 0.67605
# Poissons Ratio (y) = 0.86248 -0.55929
# Poissons Ratio (z) = 0.77730 -0.23067
#
# Static dielectric constant tensor:
#      x y z
#    x 1.724800 0.000000 0.000000 
#    y 0.000000 1.790430 0.000000 
#    z 0.000000 0.000000 1.770290 
# 
# From -- ./inp_files/12856.got.cif
#   From: 2010.05.17/outbox.cif.g08.bks.cpg/sg38_7_cif.got.tgz:12856.got - 2010.06.03 18:07:57.
