data_PCOD9356103
_publ_section_title
;
Structure prediction by ZEFSAII (Michael W. Deem and Ramdas Pophale) SiO2 
 PCOD9356103
Probable space group: A M M 2
;
_chemical_formula_sum "Si O2"
_cell_formula_units_Z 56
_cell_length_a 20.718840
_cell_length_b 14.680714
_cell_length_c 8.027913
_cell_angle_alpha 90.000000
_cell_angle_beta 90.000000
_cell_angle_gamma 90.000000
_cell_volume 2441.829139
_symmetry_space_group_name_H-M "A M M 2"
_symmetry_group_IT_number 38
_symmetry_cell_setting 'orthorhombic'
loop_
_space_group_symop_operation_xyz
x,y,z
-x,-y,z
-x,y,z
x,-y,z
x,1/2+y,1/2+z
-x,1/2-y,1/2+z
-x,1/2+y,1/2+z
x,1/2-y,1/2+z
loop_
_atom_site_type_symbol
_atom_site_label
_atom_site_fract_x
_atom_site_fract_y
_atom_site_fract_z
Si Si1 0.430570 0.643168 0.164920
Si Si2 0.074751 0.612063 0.366139
Si Si3 0.849968 0.105404 0.546222
Si Si4 0.569430 0.143169 0.067354
Si Si5 0.290495 0.643819 0.165742
Si Si6 0.709504 0.643819 0.566534
Si Si7 0.849968 0.605404 0.686055
O O1 0.500000 0.606111 0.105568
O O2 0.430637 0.750000 0.116136
O O3 0.430473 0.636249 0.366137
O O4 0.360723 0.606819 0.110044
O O5 0.078183 0.500000 0.366139
O O6 0.111917 0.645051 0.530280
O O7 0.000000 0.637318 0.366139
O O8 0.111917 0.645051 0.201996
O O9 0.773751 0.105304 0.584563
O O10 0.861521 0.148590 0.366138
O O11 0.870377 0.000000 0.536210
O O12 0.500000 0.106112 0.126707
O O13 0.639277 0.106820 0.122232
O O14 0.285687 0.633615 0.366138
O O15 0.290371 0.750000 0.116138
O O16 0.773751 0.605304 0.647715
O O17 0.870376 0.500000 0.696066
#
# Coordination Sequence:
#
# PCOD9356103 Si02
#       7
#     8   8   8   8   8   8   8
#     4   8  14  24  39  62  93 126 163 207 250 291
#     4   9  18  34  56  80 103 129 164 204 249 300
#     4  10  20  34  53  78 105 133 167 208 251 296
#     4   8  14  24  39  62  93 126 163 207 250 291
#     4  10  18  29  48  74 102 135 172 210 254 301
#     4  10  18  29  48  74 102 135 172 210 254 301
#     4  10  20  34  53  78 105 133 167 208 251 296
#
# _framework density 22.933626
#
# number of rings (size 3 to 8) (size 9 to 14) (size 15 to 20)
#    0.000    2.714    1.429    0.857    0.000    1.714 
#    0.000    2.857    0.000    1.714    0.000    6.000 
#    0.000    0.000    0.000    0.000    0.000    0.000 
#
# Total GULP energy -156201.578000 kJ/mol
# GULP energy per Si atom -5578.627786 kJ/mol
# Density = 2.288143 g / cm^3
# Si number density = 22.933626 Si / 1000 Ang^3
#
#
#
# Elastic Constant Matrix: (Units=GPa)
#
#
# Indices 1 2 3 4 5 6 
#
# 1 184.8732 1.3380 95.6165 0.0000 0.0000 0.0000
# 2 1.3380 61.1270 9.5300 0.0000 0.0000 0.0000
# 3 95.6165 9.5300 150.5103 0.0000 0.0000 0.0000
# 4 0.0000 0.0000 0.0000 8.4802 0.0000 0.0000
# 5 0.0000 0.0000 0.0000 0.0000 1.9615 0.0000
# 6 0.0000 0.0000 0.0000 0.0000 0.0000 19.0367
#
#
#
# Elastic Compliance Matrix: (Units=1/GPa)
#
#
# Indices 1 2 3 4 5 6 
#
# 1 0.008080 0.000630 -0.005173 0.000000 0.000000 0.000000
# 2 0.000630 0.016572 -0.001449 0.000000 0.000000 0.000000
# 3 -0.005173 -0.001449 0.010022 0.000000 0.000000 0.000000
# 4 0.000000 0.000000 0.000000 0.117922 0.000000 0.000000
# 5 0.000000 0.000000 0.000000 0.000000 0.509804 0.000000
# 6 0.000000 0.000000 0.000000 0.000000 0.000000 0.052530
#
#
# Mechanical properties :
#
#
# Convention : Reuss Voigt Hill
#
# Bulk Modulus (GPa) = 44.07521 67.71994 55.89758
# Shear Modulus (GPa) = 6.80756 25.23075 16.01916
#
# Velocity S-wave (km/s) = 1.72477 3.32047 2.64578
# Velocity P-wave (km/s) = 4.81941 6.65533 5.81034
#
# Compressibility (1/GPa) = 0.02268849
#
# Stress axis : x y z
#
# Youngs Moduli (GPa) = 123.76227 60.34435 99.77939
#
# Poissons Ratio (x) = -0.03799 0.51615
# Poissons Ratio (y) = -0.07792 0.14461
# Poissons Ratio (z) = 0.64022 0.08746
#
# Static dielectric constant tensor:
#      x y z
#    x 1.857090 0.000000 0.000000 
#    y 0.000000 2.029000 0.000000 
#    z 0.000000 0.000000 1.857920 
# 
# From -- ./inp_files/6415.got.cif
#   From: 2010.05.17/outbox.cif.g08.bks.cpg/sg38_4_cif.got.tgz:6415.got - 2010.06.03 18:07:57.
