data_PCOD9356860
_publ_section_title
;
Structure prediction by ZEFSAII (Michael W. Deem and Ramdas Pophale) SiO2 
 PCOD9356860
Probable space group: A M M 2
;
_chemical_formula_sum "Si O2"
_cell_formula_units_Z 40
_cell_length_a 7.545690
_cell_length_b 26.893239
_cell_length_c 9.648037
_cell_angle_alpha 90.000000
_cell_angle_beta 90.000000
_cell_angle_gamma 90.000000
_cell_volume 1957.857283
_symmetry_space_group_name_H-M "A M M 2"
_symmetry_group_IT_number 38
_symmetry_cell_setting 'orthorhombic'
loop_
_space_group_symop_operation_xyz
x,y,z
-x,-y,z
-x,y,z
x,-y,z
x,1/2+y,1/2+z
-x,1/2-y,1/2+z
-x,1/2+y,1/2+z
x,1/2-y,1/2+z
loop_
_atom_site_type_symbol
_atom_site_label
_atom_site_fract_x
_atom_site_fract_y
_atom_site_fract_z
Si Si1 0.704060 0.000000 0.556440
Si Si2 0.716775 0.906283 0.725386
Si Si3 0.713507 0.908381 0.045514
Si Si4 0.716058 0.795169 0.731452
Si Si5 0.201320 0.000000 0.244109
Si Si6 0.716098 0.297446 0.552000
O O1 0.779994 0.949665 0.623631
O O2 0.700652 0.000000 0.390690
O O3 0.500000 0.000000 0.603977
O O4 0.500000 0.905003 0.724194
O O5 0.773429 0.850370 0.685644
O O6 0.770176 0.916354 0.885425
O O7 0.500000 0.907811 0.042371
O O8 0.765539 0.951978 0.148814
O O9 0.773245 0.853275 0.091649
O O10 0.500000 0.794791 0.725387
O O11 0.779552 0.748351 0.643705
O O12 0.765196 0.789848 0.892070
O O13 0.000000 0.000000 0.288501
O O14 0.500000 0.297469 0.558270
#
# Coordination Sequence:
#
# PCOD9356860 Si02
#       6
#     4   8   8   8   4   8
#     4  10  19  32  50  72  96 128 163 198 240 284
#     4   8  15  28  49  74 100 127 160 198 235 277
#     4   9  17  33  54  74  95 125 162 198 234 283
#     4   8  13  22  37  67 104 128 147 183 231 276
#     4  12  25  36  46  68  98 126 157 202 250 290
#     4   8  14  23  40  67  99 127 151 183 229 277
#
# _framework density 20.430496999999999
#
# number of rings (size 3 to 8) (size 9 to 14) (size 15 to 20)
#    0.000    3.200    0.000    3.900    0.000    3.200 
#    0.000    8.000    0.000    0.000    0.000   12.600 
#    0.000    0.000    0.000    0.000    0.000    0.000 
#
# Total GULP energy -111516.858892 kJ/mol
# GULP energy per Si atom -5575.842945 kJ/mol
# Density = 2.038400 g / cm^3
# Si number density = 20.430497 Si / 1000 Ang^3
#
#
#
# Elastic Constant Matrix: (Units=GPa)
#
#
# Indices 1 2 3 4 5 6 
#
# 1 46.1925 2.3553 -5.0689 0.0000 0.0000 0.0000
# 2 2.3553 232.4009 119.2831 0.0000 0.0000 0.0000
# 3 -5.0689 119.2831 90.1226 0.0000 0.0000 0.0000
# 4 0.0000 0.0000 0.0000 42.5056 0.0000 0.0000
# 5 0.0000 0.0000 0.0000 0.0000 -28.3155 0.0000
# 6 0.0000 0.0000 0.0000 0.0000 0.0000 -27.7569
#
#
#
# Elastic Compliance Matrix: (Units=1/GPa)
#
#
# Indices 1 2 3 4 5 6 
#
# 1 0.022319 -0.002715 0.004848 0.000000 0.000000 0.000000
# 2 -0.002715 0.013749 -0.018350 0.000000 0.000000 0.000000
# 3 0.004848 -0.018350 0.035657 0.000000 0.000000 0.000000
# 4 0.000000 0.000000 0.000000 0.023526 0.000000 0.000000
# 5 0.000000 0.000000 0.000000 0.000000 -0.035316 0.000000
# 6 0.000000 0.000000 0.000000 0.000000 0.000000 -0.036027
#
#
# Mechanical properties :
#
#
# Convention : Reuss Voigt Hill
#
# Bulk Modulus (GPa) = 25.45095 66.87277 46.16186
# Shear Modulus (GPa) = 72.00637 14.09640 43.05138
#
# Velocity S-wave (km/s) = 5.94315 2.62957 4.59542
# Velocity P-wave (km/s) = 7.71875 6.48247 7.12747
#
# Compressibility (1/GPa) = 0.03929126
#
# Stress axis : x y z
#
# Youngs Moduli (GPa) = 44.80487 72.73228 28.04521
#
# Poissons Ratio (x) = 0.19745 -0.13597
# Poissons Ratio (y) = 0.12163 0.51464
# Poissons Ratio (z) = -0.21723 1.33467
#
# Static dielectric constant tensor:
#      x y z
#    x 1.754460 0.000000 0.000000 
#    y 0.000000 1.742500 0.000000 
#    z 0.000000 0.000000 1.683500 
# 
# From -- ./inp_files/3502.got.cif
#   From: 2010.05.17/outbox.cif.g08.bks.cpg/sg38_2_cif.got.tgz:3502.got - 2010.06.03 18:07:57.
