data_PCOD9356345
_publ_section_title
;
Structure prediction by ZEFSAII (Michael W. Deem and Ramdas Pophale) SiO2 
 PCOD9356345
Probable space group: A M M 2
;
_chemical_formula_sum "Si O2"
_cell_formula_units_Z 56
_cell_length_a 8.693319
_cell_length_b 19.518222
_cell_length_c 18.617949
_cell_angle_alpha 90.000000
_cell_angle_beta 90.000000
_cell_angle_gamma 90.000000
_cell_volume 3159.058774
_symmetry_space_group_name_H-M "A M M 2"
_symmetry_group_IT_number 38
_symmetry_cell_setting 'orthorhombic'
loop_
_space_group_symop_operation_xyz
x,y,z
-x,-y,z
-x,y,z
x,-y,z
x,1/2+y,1/2+z
-x,1/2-y,1/2+z
-x,1/2+y,1/2+z
x,1/2-y,1/2+z
loop_
_atom_site_type_symbol
_atom_site_label
_atom_site_fract_x
_atom_site_fract_y
_atom_site_fract_z
Si Si1 0.179735 0.576398 0.563490
Si Si2 0.684000 0.706875 0.206373
Si Si3 0.324801 0.923925 0.214929
Si Si4 0.821653 0.659544 0.980799
Si Si5 0.317888 0.303226 0.827887
Si Si6 0.685887 0.921431 0.611357
Si Si7 0.678673 0.716906 0.560383
O O1 0.225982 0.500000 0.539024
O O2 0.207392 0.577916 0.649310
O O3 0.280624 0.640071 0.538299
O O4 0.000000 0.586414 0.547524
O O5 0.500000 0.698955 0.215399
O O6 0.742340 0.737227 0.282223
O O7 0.740545 0.635720 0.170082
O O8 0.702836 0.765263 0.144725
O O9 0.500000 0.915367 0.184947
O O10 0.301576 0.866329 0.273217
O O11 0.317622 0.000000 0.247481
O O12 0.759450 0.673238 0.901243
O O13 0.737511 0.604783 0.032643
O O14 0.789833 0.731463 0.020044
O O15 0.000000 0.642118 0.978705
O O16 0.500000 0.292544 0.841794
O O17 0.500000 0.919827 0.612968
O O18 0.735310 0.000000 0.624659
O O19 0.500000 0.732983 0.544920
#
# Coordination Sequence:
#
# PCOD9356345 Si02
#       7
#     8   8   8   8   8   8   8
#     4  10  19  29  45  73 106 134 160 199 253 304
#     4   8  15  29  52  78  99 125 170 223 265 301
#     4   9  17  29  46  69  97 132 172 207 240 287
#     4  11  23  35  49  75 107 139 173 216 272 324
#     4  10  18  32  50  72 102 139 178 217 259 310
#     4   9  18  35  58  81 105 138 180 223 269 323
#     4  10  18  34  55  74  96 130 176 220 256 304
#
# _framework density 17.726800000000001
#
# number of rings (size 3 to 8) (size 9 to 14) (size 15 to 20)
#    0.000    2.429    1.429    3.000    0.000    2.286 
#    0.000    2.143    0.000    0.857    0.000    2.000 
#    0.000    0.000    0.000    0.000    0.000    0.000 
#
# Total GULP energy -155882.239871 kJ/mol
# GULP energy per Si atom -5567.222853 kJ/mol
# Density = 1.768645 g / cm^3
# Si number density = 17.726800 Si / 1000 Ang^3
#
#
#
# Elastic Constant Matrix: (Units=GPa)
#
#
# Indices 1 2 3 4 5 6 
#
# 1 16.9572 11.2291 9.1750 0.0000 0.0000 0.0000
# 2 11.2291 109.0085 13.2454 0.0000 0.0000 0.0000
# 3 9.1750 13.2454 32.4099 0.0000 0.0000 0.0000
# 4 0.0000 0.0000 0.0000 9.6021 0.0000 0.0000
# 5 0.0000 0.0000 0.0000 0.0000 20.1275 0.0000
# 6 0.0000 0.0000 0.0000 0.0000 0.0000 18.1860
#
#
#
# Elastic Compliance Matrix: (Units=1/GPa)
#
#
# Indices 1 2 3 4 5 6 
#
# 1 0.072360 -0.005224 -0.018350 0.000000 0.000000 0.000000
# 2 -0.005224 0.010030 -0.002620 0.000000 0.000000 0.000000
# 3 -0.018350 -0.002620 0.037120 0.000000 0.000000 0.000000
# 4 0.000000 0.000000 0.000000 0.104144 0.000000 0.000000
# 5 0.000000 0.000000 0.000000 0.000000 0.049683 0.000000
# 6 0.000000 0.000000 0.000000 0.000000 0.000000 0.054987
#
#
# Mechanical properties :
#
#
# Convention : Reuss Voigt Hill
#
# Bulk Modulus (GPa) = 14.89818 25.07496 19.98657
# Shear Modulus (GPa) = 12.40427 17.89818 15.15122
#
# Velocity S-wave (km/s) = 2.64814 3.18097 2.92671
# Velocity P-wave (km/s) = 4.21578 5.25998 4.76656
#
# Compressibility (1/GPa) = 0.06712228
#
# Stress axis : x y z
#
# Youngs Moduli (GPa) = 13.81982 99.69963 26.93946
#
# Poissons Ratio (x) = 0.52086 0.49433
# Poissons Ratio (y) = 0.07220 0.07059
# Poissons Ratio (z) = 0.25359 0.26123
#
# Static dielectric constant tensor:
#      x y z
#    x 1.588410 0.000000 0.000000 
#    y 0.000000 1.653290 0.000000 
#    z 0.000000 0.000000 1.614100 
# 
# From -- ./inp_files/19988.got.cif
#   From: 2010.05.17/outbox.cif.g08.bks.cpg/sg38_10_cif.got.tgz:19988.got - 2010.06.03 18:07:57.
