data_PCOD9356934
_publ_section_title
;
Structure prediction by ZEFSAII (Michael W. Deem and Ramdas Pophale) SiO2 
 PCOD9356934
Probable space group: A M M 2
;
_chemical_formula_sum "Si O2"
_cell_formula_units_Z 56
_cell_length_a 16.909184
_cell_length_b 14.625147
_cell_length_c 10.078405
_cell_angle_alpha 90.000000
_cell_angle_beta 90.000000
_cell_angle_gamma 90.000000
_cell_volume 2492.382518
_symmetry_space_group_name_H-M "A M M 2"
_symmetry_group_IT_number 38
_symmetry_cell_setting 'orthorhombic'
loop_
_space_group_symop_operation_xyz
x,y,z
-x,-y,z
-x,y,z
x,-y,z
x,1/2+y,1/2+z
-x,1/2-y,1/2+z
-x,1/2+y,1/2+z
x,1/2-y,1/2+z
loop_
_atom_site_type_symbol
_atom_site_label
_atom_site_fract_x
_atom_site_fract_y
_atom_site_fract_z
Si Si1 0.686154 0.357048 0.839080
Si Si2 0.864886 0.394080 0.408709
Si Si3 0.000000 0.612216 0.209333
Si Si4 0.000000 0.887955 0.401478
Si Si5 0.142790 0.108272 0.212065
Si Si6 0.591339 0.864387 0.591649
Si Si7 0.687101 0.636964 0.347762
Si Si8 0.411887 0.858559 0.093549
O O1 0.771228 0.381525 0.779351
O O2 0.686996 0.247086 0.844922
O O3 0.618697 0.386110 0.736415
O O4 0.655074 0.391145 0.980107
O O5 0.888259 0.500000 0.425536
O O6 0.925310 0.357366 0.298544
O O7 0.862340 0.353961 0.559834
O O8 0.777703 0.391421 0.346206
O O9 0.000000 0.500000 0.201642
O O10 0.000000 0.643555 0.055458
O O11 0.923588 0.858656 0.315618
O O12 0.000000 0.000000 0.406336
O O13 0.129309 0.000000 0.199218
O O14 0.500000 0.893679 0.572561
O O15 0.629416 0.892970 0.730504
O O16 0.588311 0.752823 0.590136
O O17 0.649657 0.607670 0.485986
O O18 0.500000 0.888816 0.064039
#
# Coordination Sequence:
#
# PCOD9356934 Si02
#       8
#     8   8   4   4   8   8   8   8
#     4  10  19  32  52  79 108 138 174 217 262 306
#     4  10  20  36  57  79 105 137 174 213 257 310
#     4   9  19  35  56  81 104 133 173 213 254 309
#     4   9  19  35  56  81 104 133 173 213 254 309
#     4  10  20  36  57  79 105 137 174 213 257 310
#     4   9  18  30  49  76 103 138 180 221 259 297
#     4  10  19  32  52  79 108 138 174 217 262 306
#     4   9  16  30  51  74 103 138 180 219 251 301
#
# _framework density 22.468461000000001
#
# number of rings (size 3 to 8) (size 9 to 14) (size 15 to 20)
#    0.000    2.429    1.429    1.286    2.000    5.143 
#    0.000    0.714    0.000    5.143    0.000    0.000 
#    0.000    0.000    0.000    0.000    0.000    0.000 
#
# Total GULP energy -156306.210878 kJ/mol
# GULP energy per Si atom -5582.364674 kJ/mol
# Density = 2.241732 g / cm^3
# Si number density = 22.468461 Si / 1000 Ang^3
#
#
#
# Elastic Constant Matrix: (Units=GPa)
#
#
# Indices 1 2 3 4 5 6 
#
# 1 132.1126 -4.4767 28.5743 0.0000 0.0000 0.0000
# 2 -4.4767 69.2791 7.5262 0.0000 0.0000 0.0000
# 3 28.5743 7.5262 115.0363 0.0000 0.0000 0.0000
# 4 0.0000 0.0000 0.0000 -0.5619 0.0000 0.0000
# 5 0.0000 0.0000 0.0000 0.0000 33.5462 0.0000
# 6 0.0000 0.0000 0.0000 0.0000 0.0000 14.7774
#
#
#
# Elastic Compliance Matrix: (Units=1/GPa)
#
#
# Indices 1 2 3 4 5 6 
#
# 1 0.008037 0.000741 -0.002045 0.000000 0.000000 0.000000
# 2 0.000741 0.014606 -0.001140 0.000000 0.000000 0.000000
# 3 -0.002045 -0.001140 0.009275 0.000000 0.000000 0.000000
# 4 0.000000 0.000000 0.000000 -1.779544 0.000000 0.000000
# 5 0.000000 0.000000 0.000000 0.000000 0.029810 0.000000
# 6 0.000000 0.000000 0.000000 0.000000 0.000000 0.067671
#
#
# Mechanical properties :
#
#
# Convention : Reuss Voigt Hill
#
# Bulk Modulus (GPa) = 36.99319 42.18616 39.58967
# Shear Modulus (GPa) = -3.05577 28.53927 12.74175
#
# Velocity S-wave (km/s) = -1.16747 3.56784 2.38396
# Velocity P-wave (km/s) = 3.83183 5.98240 5.02355
#
# Compressibility (1/GPa) = 0.02703200
#
# Stress axis : x y z
#
# Youngs Moduli (GPa) = 124.42944 68.46456 107.81231
#
# Poissons Ratio (x) = -0.05076 0.22045
# Poissons Ratio (y) = -0.09226 0.12288
# Poissons Ratio (z) = 0.25443 0.07803
#
# Static dielectric constant tensor:
#      x y z
#    x 1.775610 0.000000 0.000000 
#    y 0.000000 1.896580 0.000000 
#    z 0.000000 0.000000 1.801210 
# 
# From -- ./inp_files/5756.got.cif
#   From: 2010.05.17/outbox.cif.g08.bks.cpg/sg38_3_cif.got.tgz:5756.got - 2010.06.03 18:07:57.
