data_PCOD9356944
_publ_section_title
;
Structure prediction by ZEFSAII (Michael W. Deem and Ramdas Pophale) SiO2 
 PCOD9356944
Probable space group: A M M 2
;
_chemical_formula_sum "Si O2"
_cell_formula_units_Z 64
_cell_length_a 19.629569
_cell_length_b 20.932442
_cell_length_c 8.864298
_cell_angle_alpha 90.000000
_cell_angle_beta 90.000000
_cell_angle_gamma 90.000000
_cell_volume 3642.294083
_symmetry_space_group_name_H-M "A M M 2"
_symmetry_group_IT_number 38
_symmetry_cell_setting 'orthorhombic'
loop_
_space_group_symop_operation_xyz
x,y,z
-x,-y,z
-x,y,z
x,-y,z
x,1/2+y,1/2+z
-x,1/2-y,1/2+z
-x,1/2+y,1/2+z
x,1/2-y,1/2+z
loop_
_atom_site_type_symbol
_atom_site_label
_atom_site_fract_x
_atom_site_fract_y
_atom_site_fract_z
Si Si1 0.343626 0.926808 0.040070
Si Si2 0.815057 0.924438 0.992207
Si Si3 0.133992 0.223717 0.459511
Si Si4 0.418956 0.428926 0.856997
Si Si5 0.421899 0.200980 0.520017
Si Si6 0.790806 0.674911 0.246581
Si Si7 0.364225 0.311449 0.332544
Si Si8 0.922236 0.336022 0.662940
O O1 0.262458 0.914315 0.051107
O O2 0.378600 0.920351 0.201829
O O3 0.352241 0.000000 0.988466
O O4 0.375201 0.876213 0.925383
O O5 0.868689 0.887255 0.097213
O O6 0.828210 0.000000 0.985470
O O7 0.814321 0.890371 0.828308
O O8 0.180850 0.269101 0.355469
O O9 0.178437 0.184557 0.580794
O O10 0.088713 0.271930 0.561349
O O11 0.093858 0.181611 0.336944
O O12 0.500000 0.427202 0.826016
O O13 0.403067 0.500000 0.917882
O O14 0.403438 0.370032 0.964903
O O15 0.500000 0.214719 0.474392
O O16 0.371772 0.252832 0.447599
O O17 0.416163 0.201660 0.698954
O O18 0.709706 0.681546 0.255675
O O19 0.000000 0.357531 0.647170
#
# Coordination Sequence:
#
# PCOD9356944 Si02
#       8
#     8   8   8   8   8   8   8   8
#     4   9  19  36  56  77 101 132 172 217 264 312
#     4   9  19  35  53  75 104 136 170 210 254 303
#     4   9  18  32  51  78 106 128 164 214 259 299
#     4   9  19  36  55  74  99 133 171 211 259 316
#     4  11  23  35  49  73 106 139 172 215 263 312
#     4   9  18  33  53  76 101 132 170 213 259 306
#     4  11  21  33  52  74 101 136 174 215 261 313
#     4  10  19  32  53  77 104 137 169 206 252 306
#
# _framework density 17.571342999999999
#
# number of rings (size 3 to 8) (size 9 to 14) (size 15 to 20)
#    0.000    2.375    0.000    2.250    0.000    7.750 
#    0.000    1.250    0.000    0.000    0.000    0.000 
#    0.000    0.000    0.000    0.000    0.000    0.000 
#
# Total GULP energy -178426.621034 kJ/mol
# GULP energy per Si atom -5575.831907 kJ/mol
# Density = 1.753135 g / cm^3
# Si number density = 17.571343 Si / 1000 Ang^3
#
#
#
# Elastic Constant Matrix: (Units=GPa)
#
#
# Indices 1 2 3 4 5 6 
#
# 1 31.3855 30.3188 22.8280 0.0000 0.0000 0.0000
# 2 30.3188 92.7611 46.5416 0.0000 0.0000 0.0000
# 3 22.8280 46.5416 88.5378 0.0000 0.0000 0.0000
# 4 0.0000 0.0000 0.0000 25.5287 0.0000 0.0000
# 5 0.0000 0.0000 0.0000 0.0000 21.0360 0.0000
# 6 0.0000 0.0000 0.0000 0.0000 0.0000 20.2708
#
#
#
# Elastic Compliance Matrix: (Units=1/GPa)
#
#
# Indices 1 2 3 4 5 6 
#
# 1 0.048577 -0.013030 -0.005675 0.000000 0.000000 0.000000
# 2 -0.013030 0.018137 -0.006175 0.000000 0.000000 0.000000
# 3 -0.005675 -0.006175 0.016004 0.000000 0.000000 0.000000
# 4 0.000000 0.000000 0.000000 0.039172 0.000000 0.000000
# 5 0.000000 0.000000 0.000000 0.000000 0.047538 0.000000
# 6 0.000000 0.000000 0.000000 0.000000 0.000000 0.049332
#
#
# Mechanical properties :
#
#
# Convention : Reuss Voigt Hill
#
# Bulk Modulus (GPa) = 30.34152 45.78457 38.06304
# Shear Modulus (GPa) = 17.88881 20.90016 19.39448
#
# Velocity S-wave (km/s) = 3.19418 3.45258 3.32589
# Velocity P-wave (km/s) = 5.55957 6.48125 6.03802
#
# Compressibility (1/GPa) = 0.03295814
#
# Stress axis : x y z
#
# Youngs Moduli (GPa) = 20.58599 55.13547 62.48535
#
# Poissons Ratio (x) = 0.71840 0.35463
# Poissons Ratio (y) = 0.26823 0.38583
# Poissons Ratio (z) = 0.11683 0.34044
#
# Static dielectric constant tensor:
#      x y z
#    x 1.598740 0.000000 0.000000 
#    y 0.000000 1.598980 0.000000 
#    z 0.000000 0.000000 1.571480 
# 
# From -- ./inp_files/6479.got.cif
#   From: 2010.05.17/outbox.cif.g08.bks.cpg/sg38_4_cif.got.tgz:6479.got - 2010.06.03 18:07:57.
