data_PCOD9356489
_publ_section_title
;
Structure prediction by ZEFSAII (Michael W. Deem and Ramdas Pophale) SiO2 
 PCOD9356489
Probable space group: A M M 2
;
_chemical_formula_sum "Si O2"
_cell_formula_units_Z 64
_cell_length_a 8.547825
_cell_length_b 24.430135
_cell_length_c 15.916978
_cell_angle_alpha 90.000000
_cell_angle_beta 90.000000
_cell_angle_gamma 90.000000
_cell_volume 3323.855270
_symmetry_space_group_name_H-M "A M M 2"
_symmetry_group_IT_number 38
_symmetry_cell_setting 'orthorhombic'
loop_
_space_group_symop_operation_xyz
x,y,z
-x,-y,z
-x,y,z
x,-y,z
x,1/2+y,1/2+z
-x,1/2-y,1/2+z
-x,1/2+y,1/2+z
x,1/2-y,1/2+z
loop_
_atom_site_type_symbol
_atom_site_label
_atom_site_fract_x
_atom_site_fract_y
_atom_site_fract_z
Si Si1 0.687098 0.563421 0.131100
Si Si2 0.190254 0.251098 0.539762
Si Si3 0.812546 0.866903 0.475713
Si Si4 0.314857 0.133559 0.295417
Si Si5 0.189257 0.437062 0.640427
Si Si6 0.190954 0.869513 0.977516
Si Si7 0.189074 0.870826 0.790121
Si Si8 0.188559 0.748371 0.736265
O O1 0.500000 0.565979 0.124079
O O2 0.735839 0.500000 0.131884
O O3 0.739238 0.593056 0.216546
O O4 0.760484 0.594951 0.052192
O O5 0.243034 0.195095 0.496438
O O6 0.242049 0.307238 0.496431
O O7 0.233745 0.251566 0.637953
O O8 0.000000 0.250733 0.537150
O O9 0.746559 0.884893 0.386181
O O10 0.000000 0.866089 0.471458
O O11 0.500000 0.129801 0.292897
O O12 0.245041 0.097731 0.219862
O O13 0.262172 0.196256 0.281058
O O14 0.241037 0.500000 0.644840
O O15 0.241692 0.408071 0.553961
O O16 0.000000 0.436286 0.640282
O O17 0.000000 0.869153 0.977916
O O18 0.238550 0.886989 0.884169
O O19 0.229708 0.807014 0.775200
O O20 0.000000 0.874667 0.784122
O O21 0.000000 0.742592 0.741159
#
# Coordination Sequence:
#
# PCOD9356489 Si02
#       8
#     8   8   8   8   8   8   8   8
#     4  11  25  43  60  83 121 163 199 244 303 364
#     4   9  16  31  60  91 117 146 186 240 296 342
#     4  11  22  40  66  92 115 151 201 251 299 352
#     4  12  25  39  58  89 125 162 195 238 303 366
#     4  10  21  39  62  85 112 154 206 256 301 346
#     4   9  17  32  58  90 120 148 187 244 297 343
#     4  10  20  36  62  93 120 153 200 249 297 349
#     4  10  18  35  62  90 121 156 196 243 291 350
#
# _framework density 19.254750000000001
#
# number of rings (size 3 to 8) (size 9 to 14) (size 15 to 20)
#    0.000    1.750    2.500    2.625    0.000    4.750 
#    0.000    1.875    0.000    0.000    0.000    0.000 
#    0.000    0.000    0.000    0.000    0.000    0.000 
#
# Total GULP energy -178796.250596 kJ/mol
# GULP energy per Si atom -5587.382831 kJ/mol
# Density = 1.921093 g / cm^3
# Si number density = 19.254750 Si / 1000 Ang^3
#
#
#
# Elastic Constant Matrix: (Units=GPa)
#
#
# Indices 1 2 3 4 5 6 
#
# 1 20.8970 25.5247 22.3626 0.0000 0.0000 0.0000
# 2 25.5247 125.1535 61.4565 0.0000 0.0000 0.0000
# 3 22.3626 61.4565 166.9949 0.0000 0.0000 0.0000
# 4 0.0000 0.0000 0.0000 -2.9781 0.0000 0.0000
# 5 0.0000 0.0000 0.0000 0.0000 -2.4294 0.0000
# 6 0.0000 0.0000 0.0000 0.0000 0.0000 12.5362
#
#
#
# Elastic Compliance Matrix: (Units=1/GPa)
#
#
# Indices 1 2 3 4 5 6 
#
# 1 0.066732 -0.011256 -0.004794 0.000000 0.000000 0.000000
# 2 -0.011256 0.011651 -0.002780 0.000000 0.000000 0.000000
# 3 -0.004794 -0.002780 0.007653 0.000000 0.000000 0.000000
# 4 0.000000 0.000000 0.000000 -0.335782 0.000000 0.000000
# 5 0.000000 0.000000 0.000000 0.000000 -0.411629 0.000000
# 6 0.000000 0.000000 0.000000 0.000000 0.000000 0.079769
#
#
# Mechanical properties :
#
#
# Convention : Reuss Voigt Hill
#
# Bulk Modulus (GPa) = 20.67127 59.08145 39.87636
# Shear Modulus (GPa) = -9.47294 15.00584 2.76645
#
# Velocity S-wave (km/s) = -2.22047 2.79468 1.19995
# Velocity P-wave (km/s) = 2.04573 6.41595 4.76179
#
# Compressibility (1/GPa) = 0.04837632
#
# Stress axis : x y z
#
# Youngs Moduli (GPa) = 14.98526 85.82850 130.66023
#
# Poissons Ratio (x) = 0.96607 0.62638
# Poissons Ratio (y) = 0.16867 0.36330
# Poissons Ratio (z) = 0.07184 0.23865
#
# Static dielectric constant tensor:
#      x y z
#    x 1.657390 0.000000 0.000000 
#    y 0.000000 1.654180 0.000000 
#    z 0.000000 0.000000 1.657420 
# 
# From -- ./inp_files/12769.got.cif
#   From: 2010.05.17/outbox.cif.g08.bks.cpg/sg38_7_cif.got.tgz:12769.got - 2010.06.03 18:07:57.
