data_PCOD9356884
_publ_section_title
;
Structure prediction by ZEFSAII (Michael W. Deem and Ramdas Pophale) SiO2 
 PCOD9356884
Probable space group: A M M 2
;
_chemical_formula_sum "Si O2"
_cell_formula_units_Z 64
_cell_length_a 8.889774
_cell_length_b 16.177169
_cell_length_c 23.626903
_cell_angle_alpha 90.000000
_cell_angle_beta 90.000000
_cell_angle_gamma 90.000000
_cell_volume 3397.817440
_symmetry_space_group_name_H-M "A M M 2"
_symmetry_group_IT_number 38
_symmetry_cell_setting 'orthorhombic'
loop_
_space_group_symop_operation_xyz
x,y,z
-x,-y,z
-x,y,z
x,-y,z
x,1/2+y,1/2+z
-x,1/2-y,1/2+z
-x,1/2+y,1/2+z
x,1/2-y,1/2+z
loop_
_atom_site_type_symbol
_atom_site_label
_atom_site_fract_x
_atom_site_fract_y
_atom_site_fract_z
Si Si1 0.821662 0.316757 0.433350
Si Si2 0.320710 0.410354 0.016192
Si Si3 0.180962 0.259437 0.554367
Si Si4 0.182123 0.772117 0.179143
Si Si5 0.179739 0.094687 0.720632
Si Si6 0.334556 0.097384 0.836303
Si Si7 0.681168 0.094010 0.264693
Si Si8 0.320981 0.149715 0.391542
O O1 0.771759 0.309630 0.498523
O O2 0.734984 0.383021 0.396581
O O3 0.776488 0.231100 0.402842
O O4 0.000000 0.329420 0.431214
O O5 0.500000 0.404538 0.025338
O O6 0.267255 0.500000 0.036512
O O7 0.242038 0.333012 0.045189
O O8 0.297027 0.404016 0.948218
O O9 0.225731 0.295517 0.614925
O O10 0.000000 0.255134 0.553347
O O11 0.230465 0.675569 0.186021
O O12 0.249240 0.834848 0.225139
O O13 0.000000 0.774173 0.184223
O O14 0.226112 0.119232 0.784553
O O15 0.000000 0.090471 0.716023
O O16 0.236133 0.000000 0.708204
O O17 0.500000 0.136474 0.829457
O O18 0.349976 0.000000 0.831738
O O19 0.500000 0.097873 0.259616
O O20 0.716460 0.110116 0.331126
O O21 0.728909 0.000000 0.249768
O O22 0.500000 0.169866 0.390761
#
# Coordination Sequence:
#
# PCOD9356884 Si02
#       8
#     8   8   8   8   8   8   8   8
#     4  10  19  32  51  74 100 130 165 205 250 301
#     4   9  17  30  50  77 106 134 164 199 243 298
#     4   9  20  36  51  70  98 133 172 210 250 298
#     4  10  21  37  55  75 102 138 178 217 257 301
#     4   9  18  33  54  80 108 137 169 206 251 306
#     4  10  20  33  50  74 102 129 160 202 253 307
#     4  10  21  36  54  77 104 136 174 214 259 309
#     4   9  17  31  52  76 104 134 161 197 249 306
#
# _framework density 18.835621
#
# number of rings (size 3 to 8) (size 9 to 14) (size 15 to 20)
#    0.000    2.500    0.000    1.875    0.000    7.250 
#    0.000    1.875    0.000    7.500    0.000    0.000 
#    0.000    0.000    0.000    0.000    0.000    0.000 
#
# Total GULP energy -178300.487926 kJ/mol
# GULP energy per Si atom -5571.890248 kJ/mol
# Density = 1.879275 g / cm^3
# Si number density = 18.835621 Si / 1000 Ang^3
#
#
#
# Elastic Constant Matrix: (Units=GPa)
#
#
# Indices 1 2 3 4 5 6 
#
# 1 1.0658 6.9352 5.2808 0.0000 0.0000 0.0000
# 2 6.9352 41.3671 26.9667 0.0000 0.0000 0.0000
# 3 5.2808 26.9667 81.7887 0.0000 0.0000 0.0000
# 4 0.0000 0.0000 0.0000 11.2824 0.0000 0.0000
# 5 0.0000 0.0000 0.0000 0.0000 15.9007 0.0000
# 6 0.0000 0.0000 0.0000 0.0000 0.0000 23.9743
#
#
#
# Elastic Compliance Matrix: (Units=1/GPa)
#
#
# Indices 1 2 3 4 5 6 
#
# 1 -9.447863 1.511042 0.111812 0.000000 0.000000 0.000000
# 2 1.511042 -0.210876 -0.028035 0.000000 0.000000 0.000000
# 3 0.111812 -0.028035 0.014251 0.000000 0.000000 0.000000
# 4 0.000000 0.000000 0.000000 0.088633 0.000000 0.000000
# 5 0.000000 0.000000 0.000000 0.000000 0.062890 0.000000
# 6 0.000000 0.000000 0.000000 0.000000 0.000000 0.041711
#
#
# Mechanical properties :
#
#
# Convention : Reuss Voigt Hill
#
# Bulk Modulus (GPa) = -0.15492 22.50967 11.17737
# Shear Modulus (GPa) = -0.33801 15.90076 7.78138
#
# Velocity S-wave (km/s) = -0.42408 2.90864 2.03474
# Velocity P-wave (km/s) = 0.56764 4.82253 3.38634
#
# Compressibility (1/GPa) = -6.45485138
#
# Stress axis : x y z
#
# Youngs Moduli (GPa) = -0.10584 -4.74212 70.17165
#
# Poissons Ratio (x) = 7.16555 -7.84602
# Poissons Ratio (y) = 0.15993 1.96727
# Poissons Ratio (z) = 0.01183 -0.13295
#
# Static dielectric constant tensor:
#      x y z
#    x 1.652560 0.000000 0.000000 
#    y 0.000000 1.704120 0.000000 
#    z 0.000000 0.000000 1.658020 
# 
# From -- ./inp_files/20106.got.cif
#   From: 2010.05.17/outbox.cif.g08.bks.cpg/sg38_11_cif.got.tgz:20106.got - 2010.06.03 18:07:57.
