data_PCOD9356179
_publ_section_title
;
Structure prediction by ZEFSAII (Michael W. Deem and Ramdas Pophale) SiO2 
 PCOD9356179
Probable space group: A M M 2
;
_chemical_formula_sum "Si O2"
_cell_formula_units_Z 64
_cell_length_a 8.901090
_cell_length_b 31.053341
_cell_length_c 14.723660
_cell_angle_alpha 90.000000
_cell_angle_beta 90.000000
_cell_angle_gamma 90.000000
_cell_volume 4069.745998
_symmetry_space_group_name_H-M "A M M 2"
_symmetry_group_IT_number 38
_symmetry_cell_setting 'orthorhombic'
loop_
_space_group_symop_operation_xyz
x,y,z
-x,-y,z
-x,y,z
x,-y,z
x,1/2+y,1/2+z
-x,1/2-y,1/2+z
-x,1/2+y,1/2+z
x,1/2-y,1/2+z
loop_
_atom_site_type_symbol
_atom_site_label
_atom_site_fract_x
_atom_site_fract_y
_atom_site_fract_z
Si Si1 0.323179 0.865376 0.451430
Si Si2 0.822209 0.793111 0.331608
Si Si3 0.176698 0.363996 0.321461
Si Si4 0.330084 0.326224 0.152068
Si Si5 0.319822 0.710852 0.435736
Si Si6 0.818953 0.451045 0.240226
Si Si7 0.681114 0.049050 0.541275
Si Si8 0.325421 0.776857 0.143451
O O1 0.500000 0.864820 0.426140
O O2 0.231975 0.836190 0.382262
O O3 0.311004 0.843488 0.550692
O O4 0.272855 0.914456 0.469530
O O5 0.747613 0.751713 0.381579
O O6 0.769276 0.794302 0.227324
O O7 0.000000 0.788343 0.337406
O O8 0.210236 0.344802 0.221592
O O9 0.265970 0.333175 0.389267
O O10 0.224514 0.413872 0.311162
O O11 0.000000 0.361770 0.342050
O O12 0.500000 0.338407 0.182549
O O13 0.321097 0.274895 0.150472
O O14 0.500000 0.714730 0.431335
O O15 0.274762 0.711755 0.541658
O O16 0.777357 0.500000 0.265853
O O17 0.748531 0.442272 0.141091
O O18 0.000000 0.449098 0.231188
O O19 0.500000 0.051818 0.549032
O O20 0.721407 0.000000 0.516355
O O21 0.500000 0.790146 0.153754
#
# Coordination Sequence:
#
# PCOD9356179 Si02
#       8
#     8   8   8   8   8   8   8   8
#     4  10  19  33  50  70 100 137 171 202 244 293
#     4  12  24  34  50  75 101 129 165 208 247 289
#     4  11  21  31  47  74 102 132 169 206 245 289
#     4  10  18  30  49  70  97 135 171 201 238 287
#     4  11  22  37  54  71  96 132 169 203 246 297
#     4   9  18  31  46  68 102 138 166 198 246 299
#     4   9  17  29  48  74 100 129 169 211 246 286
#     4  10  21  37  53  68  94 133 171 205 243 290
#
# _framework density 15.725797
#
# number of rings (size 3 to 8) (size 9 to 14) (size 15 to 20)
#    0.000    1.750    3.750    1.875    0.000    2.500 
#    0.000    0.000    0.000    0.000    0.000    0.875 
#    0.000    1.000    0.000    0.000    0.000    0.000 
#
# Total GULP energy -178519.094727 kJ/mol
# GULP energy per Si atom -5578.721710 kJ/mol
# Density = 1.569000 g / cm^3
# Si number density = 15.725797 Si / 1000 Ang^3
#
#
#
# Elastic Constant Matrix: (Units=GPa)
#
#
# Indices 1 2 3 4 5 6 
#
# 1 46.6905 34.7681 39.9284 0.0000 0.0000 0.0000
# 2 34.7681 111.1494 52.9306 0.0000 0.0000 0.0000
# 3 39.9284 52.9306 88.1800 0.0000 0.0000 0.0000
# 4 0.0000 0.0000 0.0000 22.3512 0.0000 0.0000
# 5 0.0000 0.0000 0.0000 0.0000 153.6907 0.0000
# 6 0.0000 0.0000 0.0000 0.0000 0.0000 19.3529
#
#
#
# Elastic Compliance Matrix: (Units=1/GPa)
#
#
# Indices 1 2 3 4 5 6 
#
# 1 0.036845 -0.005013 -0.013674 0.000000 0.000000 0.000000
# 2 -0.005013 0.013280 -0.005701 0.000000 0.000000 0.000000
# 3 -0.013674 -0.005701 0.020954 0.000000 0.000000 0.000000
# 4 0.000000 0.000000 0.000000 0.044740 0.000000 0.000000
# 5 0.000000 0.000000 0.000000 0.000000 0.006507 0.000000
# 6 0.000000 0.000000 0.000000 0.000000 0.000000 0.051672
#
#
# Mechanical properties :
#
#
# Convention : Reuss Voigt Hill
#
# Bulk Modulus (GPa) = 44.84026 55.69713 50.26869
# Shear Modulus (GPa) = 21.71934 46.97182 34.34558
#
# Velocity S-wave (km/s) = 3.72039 5.47121 4.67843
# Velocity P-wave (km/s) = 6.85790 8.68370 7.82424
#
# Compressibility (1/GPa) = 0.02230139
#
# Stress axis : x y z
#
# Youngs Moduli (GPa) = 27.14104 75.30007 47.72258
#
# Poissons Ratio (x) = 0.37751 0.65256
# Poissons Ratio (y) = 0.13607 0.27209
# Poissons Ratio (z) = 0.37113 0.42932
#
# Static dielectric constant tensor:
#      x y z
#    x 1.536610 0.000000 0.000000 
#    y 0.000000 1.550280 0.000000 
#    z 0.000000 0.000000 1.502350 
# 
# From -- ./inp_files/13069.got.cif
#   From: 2010.05.17/outbox.cif.g08.bks.cpg/sg38_7_cif.got.tgz:13069.got - 2010.06.03 18:07:57.
