data_PCOD9356766
_publ_section_title
;
Structure prediction by ZEFSAII (Michael W. Deem and Ramdas Pophale) SiO2 
 PCOD9356766
Probable space group: A M M 2
;
_chemical_formula_sum "Si O2"
_cell_formula_units_Z 64
_cell_length_a 29.370042
_cell_length_b 7.624875
_cell_length_c 14.620524
_cell_angle_alpha 90.000000
_cell_angle_beta 90.000000
_cell_angle_gamma 90.000000
_cell_volume 3274.162529
_symmetry_space_group_name_H-M "A M M 2"
_symmetry_group_IT_number 38
_symmetry_cell_setting 'orthorhombic'
loop_
_space_group_symop_operation_xyz
x,y,z
-x,-y,z
-x,y,z
x,-y,z
x,1/2+y,1/2+z
-x,1/2-y,1/2+z
-x,1/2+y,1/2+z
x,1/2-y,1/2+z
loop_
_atom_site_type_symbol
_atom_site_label
_atom_site_fract_x
_atom_site_fract_y
_atom_site_fract_z
Si Si1 0.874012 0.710705 0.566480
Si Si2 0.199174 0.709459 0.421516
Si Si3 0.874960 0.788078 0.273696
Si Si4 0.627158 0.707826 0.046943
Si Si5 0.300145 0.294979 0.396441
Si Si6 0.374601 0.784752 0.755421
Si Si7 0.051535 0.789133 0.419357
Si Si8 0.551629 0.211517 0.901774
O O1 0.869526 0.500000 0.570885
O O2 0.832067 0.779093 0.504653
O O3 0.874788 0.777285 0.669961
O O4 0.920016 0.748268 0.510588
O O5 0.202594 0.500000 0.435839
O O6 0.170276 0.740137 0.329709
O O7 0.250188 0.781655 0.413178
O O8 0.917648 0.724533 0.334575
O O9 0.877476 0.000000 0.271401
O O10 0.634531 0.500000 0.050444
O O11 0.625313 0.773878 0.150747
O O12 0.668036 0.783201 0.985793
O O13 0.580701 0.741282 0.991404
O O14 0.293423 0.500000 0.374987
O O15 0.330510 0.223464 0.312821
O O16 0.418626 0.729671 0.814373
O O17 0.374577 0.000000 0.755850
O O18 0.000000 0.721854 0.420112
O O19 0.049474 0.000000 0.411945
O O20 0.500000 0.277330 0.902734
O O21 0.550116 0.000000 0.897988
#
# Coordination Sequence:
#
# PCOD9356766 Si02
#       8
#     8   8   8   8   8   8   8   8
#     4   9  18  32  49  71  97 124 155 192 239 287
#     4   9  18  32  50  71  95 124 159 197 233 275
#     4   9  18  32  49  69  96 126 154 190 236 285
#     4  10  19  31  49  73  97 120 154 200 238 270
#     4   9  18  34  51  67  94 130 161 190 231 284
#     4   8  16  31  49  68  92 124 158 188 226 279
#     4   9  18  32  48  67  92 123 159 195 230 273
#     4   9  18  34  53  70  93 128 162 189 229 288
#
# _framework density 19.546982
#
# number of rings (size 3 to 8) (size 9 to 14) (size 15 to 20)
#    0.000    3.000    0.000    1.125    0.000    3.500 
#    0.000    7.500    0.000    0.000    0.000    0.000 
#    0.000    0.000    0.000    0.000    0.000    0.000 
#
# Total GULP energy -178442.173843 kJ/mol
# GULP energy per Si atom -5576.317933 kJ/mol
# Density = 1.950249 g / cm^3
# Si number density = 19.546982 Si / 1000 Ang^3
#
#
#
# Elastic Constant Matrix: (Units=GPa)
#
#
# Indices 1 2 3 4 5 6 
#
# 1 187.3659 -9.0816 89.2292 0.0000 0.0000 0.0000
# 2 -9.0816 33.1113 -12.9539 0.0000 0.0000 0.0000
# 3 89.2292 -12.9539 174.3580 0.0000 0.0000 0.0000
# 4 0.0000 0.0000 0.0000 -34.5613 0.0000 0.0000
# 5 0.0000 0.0000 0.0000 0.0000 4.5288 0.0000
# 6 0.0000 0.0000 0.0000 0.0000 0.0000 15.6946
#
#
#
# Elastic Compliance Matrix: (Units=1/GPa)
#
#
# Indices 1 2 3 4 5 6 
#
# 1 0.007066 0.000539 -0.003576 0.000000 0.000000 0.000000
# 2 0.000539 0.031146 0.002038 0.000000 0.000000 0.000000
# 3 -0.003576 0.002038 0.007717 0.000000 0.000000 0.000000
# 4 0.000000 0.000000 0.000000 -0.028934 0.000000 0.000000
# 5 0.000000 0.000000 0.000000 0.000000 0.220808 0.000000
# 6 0.000000 0.000000 0.000000 0.000000 0.000000 0.063716
#
#
# Mechanical properties :
#
#
# Convention : Reuss Voigt Hill
#
# Bulk Modulus (GPa) = 22.76264 58.80250 40.78257
# Shear Modulus (GPa) = 15.71527 18.97521 17.34524
#
# Velocity S-wave (km/s) = 2.83852 3.11906 2.98209
# Velocity P-wave (km/s) = 4.73427 6.56653 5.72419
#
# Compressibility (1/GPa) = 0.04393164
#
# Stress axis : x y z
#
# Youngs Moduli (GPa) = 141.51508 32.10643 129.58537
#
# Poissons Ratio (x) = -0.01731 0.46343
# Poissons Ratio (y) = -0.07628 -0.26412
# Poissons Ratio (z) = 0.50609 -0.06544
#
# Static dielectric constant tensor:
#      x y z
#    x 1.676870 0.000000 0.000000 
#    y 0.000000 1.735290 0.000000 
#    z 0.000000 0.000000 1.663480 
# 
# From -- ./inp_files/15913.got.cif
#   From: 2010.05.17/outbox.cif.g08.bks.cpg/sg38_8_cif.got.tgz:15913.got - 2010.06.03 18:07:57.
