data_PCOD9356815
_publ_section_title
;
Structure prediction by ZEFSAII (Michael W. Deem and Ramdas Pophale) SiO2 
 PCOD9356815
Probable space group: A M M 2
;
_chemical_formula_sum "Si O2"
_cell_formula_units_Z 56
_cell_length_a 21.286533
_cell_length_b 7.512506
_cell_length_c 15.716451
_cell_angle_alpha 90.000000
_cell_angle_beta 90.000000
_cell_angle_gamma 90.000000
_cell_volume 2513.299513
_symmetry_space_group_name_H-M "A M M 2"
_symmetry_group_IT_number 38
_symmetry_cell_setting 'orthorhombic'
loop_
_space_group_symop_operation_xyz
x,y,z
-x,-y,z
-x,y,z
x,-y,z
x,1/2+y,1/2+z
-x,1/2-y,1/2+z
-x,1/2+y,1/2+z
x,1/2-y,1/2+z
loop_
_atom_site_type_symbol
_atom_site_label
_atom_site_fract_x
_atom_site_fract_y
_atom_site_fract_z
Si Si1 0.337344 0.217848 0.597060
Si Si2 0.343616 0.706627 0.900956
Si Si3 0.200380 0.282968 0.084814
Si Si4 0.570482 0.790729 0.743114
Si Si5 0.203764 0.298247 0.388949
Si Si6 0.067574 0.709350 0.349642
Si Si7 0.933383 0.790919 0.645941
O O1 0.346789 0.278125 0.498524
O O2 0.266599 0.266338 0.627204
O O3 0.388247 0.282810 0.664804
O O4 0.338586 0.000000 0.595145
O O5 0.357801 0.500000 0.908768
O O6 0.391747 0.778520 0.831536
O O7 0.272151 0.724605 0.865765
O O8 0.198845 0.500000 0.082391
O O9 0.133993 0.217422 0.119962
O O10 0.205440 0.209050 0.990385
O O11 0.500000 0.716372 0.749124
O O12 0.564807 0.000000 0.724901
O O13 0.201548 0.500000 0.354468
O O14 0.135894 0.211953 0.370108
O O15 0.069190 0.500000 0.375941
O O16 0.064659 0.715255 0.247766
O O17 0.000000 0.782371 0.381589
O O18 0.000000 0.714144 0.613863
O O19 0.933225 0.000000 0.621427
#
# Coordination Sequence:
#
# PCOD9356815 Si02
#       7
#     8   8   8   8   8   8   8
#     4   8  17  34  55  77 106 144 183 218 257 315
#     4  10  21  38  58  82 113 147 183 224 268 322
#     4   9  17  30  49  71  98 132 174 218 263 315
#     4  10  21  37  59  87 112 138 178 221 265 322
#     4  10  19  31  51  75 102 136 176 221 268 315
#     4   8  15  27  44  69  98 131 175 221 262 310
#     4   8  14  25  43  68  95 127 172 220 260 305
#
# _framework density 22.281466999999999
#
# number of rings (size 3 to 8) (size 9 to 14) (size 15 to 20)
#    0.000    3.000    0.000    2.571    2.000    1.429 
#    0.000    5.000    0.000    1.286    0.000    4.000 
#    0.000    0.000    0.000    0.000    0.000    0.000 
#
# Total GULP energy -155938.884703 kJ/mol
# GULP energy per Si atom -5569.245882 kJ/mol
# Density = 2.223075 g / cm^3
# Si number density = 22.281467 Si / 1000 Ang^3
#
#
#
# Elastic Constant Matrix: (Units=GPa)
#
#
# Indices 1 2 3 4 5 6 
#
# 1 250.4569 7.5465 85.9740 0.0000 0.0000 0.0000
# 2 7.5465 56.2787 -0.7019 0.0000 0.0000 0.0000
# 3 85.9740 -0.7019 65.7977 0.0000 0.0000 0.0000
# 4 0.0000 0.0000 0.0000 12.3598 0.0000 0.0000
# 5 0.0000 0.0000 0.0000 0.0000 59.3144 0.0000
# 6 0.0000 0.0000 0.0000 0.0000 0.0000 -20.5770
#
#
#
# Elastic Compliance Matrix: (Units=1/GPa)
#
#
# Indices 1 2 3 4 5 6 
#
# 1 0.007307 -0.001099 -0.009560 0.000000 0.000000 0.000000
# 2 -0.001099 0.017936 0.001627 0.000000 0.000000 0.000000
# 3 -0.009560 0.001627 0.027707 0.000000 0.000000 0.000000
# 4 0.000000 0.000000 0.000000 0.080907 0.000000 0.000000
# 5 0.000000 0.000000 0.000000 0.000000 0.016859 0.000000
# 6 0.000000 0.000000 0.000000 0.000000 0.000000 -0.048598
#
#
# Mechanical properties :
#
#
# Convention : Reuss Voigt Hill
#
# Bulk Modulus (GPa) = 28.66355 62.01896 45.34126
# Shear Modulus (GPa) = 37.93292 28.86708 33.40000
#
# Velocity S-wave (km/s) = 4.13054 3.60330 3.87590
# Velocity P-wave (km/s) = 5.96999 6.72357 6.35796
#
# Compressibility (1/GPa) = 0.03488751
#
# Stress axis : x y z
#
# Youngs Moduli (GPa) = 136.84677 55.75264 36.09216
#
# Poissons Ratio (x) = 0.06128 0.34504
# Poissons Ratio (y) = 0.15041 -0.05874
# Poissons Ratio (z) = 1.30825 -0.09073
#
# Static dielectric constant tensor:
#      x y z
#    x 1.906440 0.000000 0.000000 
#    y 0.000000 1.834430 0.000000 
#    z 0.000000 0.000000 1.791140 
# 
# From -- ./inp_files/15491.got.cif
#   From: 2010.05.17/outbox.cif.g08.bks.cpg/sg38_8_cif.got.tgz:15491.got - 2010.06.03 18:07:57.
