data_PCOD9356933
_publ_section_title
;
Structure prediction by ZEFSAII (Michael W. Deem and Ramdas Pophale) SiO2 
 PCOD9356933
Probable space group: A M M 2
;
_chemical_formula_sum "Si O2"
_cell_formula_units_Z 56
_cell_length_a 8.269119
_cell_length_b 23.212341
_cell_length_c 14.891539
_cell_angle_alpha 90.000000
_cell_angle_beta 90.000000
_cell_angle_gamma 90.000000
_cell_volume 2858.365537
_symmetry_space_group_name_H-M "A M M 2"
_symmetry_group_IT_number 38
_symmetry_cell_setting 'orthorhombic'
loop_
_space_group_symop_operation_xyz
x,y,z
-x,-y,z
-x,y,z
x,-y,z
x,1/2+y,1/2+z
-x,1/2-y,1/2+z
-x,1/2+y,1/2+z
x,1/2-y,1/2+z
loop_
_atom_site_type_symbol
_atom_site_label
_atom_site_fract_x
_atom_site_fract_y
_atom_site_fract_z
Si Si1 0.804104 0.500000 0.096180
Si Si2 0.193881 0.222440 0.596829
Si Si3 0.805695 0.111991 0.487930
Si Si4 0.307529 0.649582 0.802853
Si Si5 0.192122 0.720495 0.305549
Si Si6 0.303986 0.500000 0.301890
Si Si7 0.694855 0.889664 0.914467
Si Si8 0.306707 0.851693 0.101896
O O1 0.751678 0.500000 0.199298
O O2 0.000000 0.500000 0.094234
O O3 0.746947 0.556994 0.043746
O O4 0.253706 0.171463 0.533042
O O5 0.223517 0.206141 0.700820
O O6 0.271651 0.284580 0.581394
O O7 0.000000 0.228924 0.585366
O O8 0.761173 0.111925 0.383620
O O9 0.000000 0.112939 0.495394
O O10 0.500000 0.643590 0.801995
O O11 0.265040 0.716441 0.821920
O O12 0.242905 0.636348 0.702361
O O13 0.259565 0.670224 0.367386
O O14 0.000000 0.724708 0.318865
O O15 0.500000 0.500000 0.302265
O O16 0.246834 0.556826 0.355024
O O17 0.500000 0.893258 0.917514
O O18 0.755305 0.888086 0.017348
O O19 0.500000 0.859187 0.105986
#
# Coordination Sequence:
#
# PCOD9356933 Si02
#       8
#     4   8   8   8   8   4   8   8
#     4  10  22  40  59  78 106 140 175 216 263 314
#     4   9  18  31  49  75 105 134 167 207 256 310
#     4  10  20  35  54  76 103 139 177 214 259 310
#     4  10  20  34  52  77 107 138 172 214 261 311
#     4  10  19  32  52  79 108 138 172 213 260 314
#     4  10  22  38  57  80 106 136 175 220 263 310
#     4  10  20  35  53  75 104 139 176 216 262 311
#     4   9  19  34  51  73 103 136 170 208 256 308
#
# _framework density 19.591616999999999
#
# number of rings (size 3 to 8) (size 9 to 14) (size 15 to 20)
#    0.000    2.286    0.000    2.571    0.000    6.857 
#    0.000    0.714    0.000    1.714    0.000    0.000 
#    0.000    0.000    0.000    0.000    0.000    0.000 
#
# Total GULP energy -156306.357677 kJ/mol
# GULP energy per Si atom -5582.369917 kJ/mol
# Density = 1.954703 g / cm^3
# Si number density = 19.591617 Si / 1000 Ang^3
#
#
#
# Elastic Constant Matrix: (Units=GPa)
#
#
# Indices 1 2 3 4 5 6 
#
# 1 3.3930 2.2128 9.4469 0.0000 0.0000 0.0000
# 2 2.2128 38.3836 64.3361 0.0000 0.0000 0.0000
# 3 9.4469 64.3361 147.8827 0.0000 0.0000 0.0000
# 4 0.0000 0.0000 0.0000 31.0907 0.0000 0.0000
# 5 0.0000 0.0000 0.0000 0.0000 22.4584 0.0000
# 6 0.0000 0.0000 0.0000 0.0000 0.0000 13.6433
#
#
#
# Elastic Compliance Matrix: (Units=1/GPa)
#
#
# Indices 1 2 3 4 5 6 
#
# 1 0.409281 0.074699 -0.058643 0.000000 0.000000 0.000000
# 2 0.074699 0.109840 -0.052557 0.000000 0.000000 0.000000
# 3 -0.058643 -0.052557 0.033373 0.000000 0.000000 0.000000
# 4 0.000000 0.000000 0.000000 0.032164 0.000000 0.000000
# 5 0.000000 0.000000 0.000000 0.000000 0.044527 0.000000
# 6 0.000000 0.000000 0.000000 0.000000 0.000000 0.073296
#
#
# Mechanical properties :
#
#
# Convention : Reuss Voigt Hill
#
# Bulk Modulus (GPa) = 2.08555 37.96122 20.02338
# Shear Modulus (GPa) = 5.34580 21.01605 13.18092
#
# Velocity S-wave (km/s) = 1.65364 3.27877 2.59662
# Velocity P-wave (km/s) = 2.17092 5.80966 4.38549
#
# Compressibility (1/GPa) = 0.47949062
#
# Stress axis : x y z
#
# Youngs Moduli (GPa) = 2.44331 9.10416 29.96407
#
# Poissons Ratio (x) = -0.68007 1.75718
# Poissons Ratio (y) = -0.18251 1.57484
# Poissons Ratio (z) = 0.14328 0.47849
#
# Static dielectric constant tensor:
#      x y z
#    x 1.680640 0.000000 0.000000 
#    y 0.000000 1.659710 0.000000 
#    z 0.000000 0.000000 1.715200 
# 
# From -- ./inp_files/12460.got.cif
#   From: 2010.05.17/outbox.cif.g08.bks.cpg/sg38_7_cif.got.tgz:12460.got - 2010.06.03 18:07:57.
