data_PCOD9356152
_publ_section_title
;
Structure prediction by ZEFSAII (Michael W. Deem and Ramdas Pophale) SiO2 
 PCOD9356152
Probable space group: A M M 2
;
_chemical_formula_sum "Si O2"
_cell_formula_units_Z 64
_cell_length_a 8.618077
_cell_length_b 24.046325
_cell_length_c 19.691099
_cell_angle_alpha 90.000000
_cell_angle_beta 90.000000
_cell_angle_gamma 90.000000
_cell_volume 4080.647103
_symmetry_space_group_name_H-M "A M M 2"
_symmetry_group_IT_number 38
_symmetry_cell_setting 'orthorhombic'
loop_
_space_group_symop_operation_xyz
x,y,z
-x,-y,z
-x,y,z
x,-y,z
x,1/2+y,1/2+z
-x,1/2-y,1/2+z
-x,1/2+y,1/2+z
x,1/2-y,1/2+z
loop_
_atom_site_type_symbol
_atom_site_label
_atom_site_fract_x
_atom_site_fract_y
_atom_site_fract_z
Si Si1 0.689312 0.437005 0.120980
Si Si2 0.685658 0.775940 0.124669
Si Si3 0.813207 0.770456 0.832089
Si Si4 0.814299 0.160541 0.248602
Si Si5 0.686930 0.166027 0.708954
Si Si6 0.312572 0.436035 0.838260
Si Si7 0.687763 0.620971 0.980181
Si Si8 0.186012 0.746296 0.982501
O O1 0.500000 0.437618 0.122226
O O2 0.742904 0.500000 0.131744
O O3 0.740327 0.392054 0.176883
O O4 0.733200 0.414039 0.046691
O O5 0.500000 0.777962 0.124370
O O6 0.750808 0.822905 0.174795
O O7 0.733293 0.716659 0.158615
O O8 0.747955 0.776794 0.048474
O O9 0.764591 0.711295 0.798743
O O10 0.749276 0.817963 0.782792
O O11 0.762937 0.771859 0.910242
O O12 0.000000 0.772065 0.830228
O O13 0.751190 0.103667 0.279569
O O14 0.000000 0.159540 0.247156
O O15 0.500000 0.165736 0.711091
O O16 0.500000 0.435100 0.836239
O O17 0.261900 0.500000 0.832753
O O18 0.265525 0.409947 0.910946
O O19 0.500000 0.625750 0.980765
O O20 0.757176 0.682486 0.983589
O O21 0.000000 0.747015 0.984898
#
# Coordination Sequence:
#
# PCOD9356152 Si02
#       8
#     8   8   8   8   8   8   8   8
#     4   9  16  28  46  68  95 126 161 198 232 272
#     4  10  19  32  49  71  95 122 159 201 244 291
#     4   9  19  32  46  65  93 126 157 193 240 288
#     4  10  19  33  49  69  95 129 164 199 246 293
#     4   9  17  29  46  69  91 119 158 196 233 277
#     4  10  20  32  48  71  98 132 172 209 243 281
#     4  10  18  30  46  67  96 132 169 200 231 274
#     4  11  20  31  47  70  97 128 160 195 242 293
#
# _framework density 15.683787000000001
#
# number of rings (size 3 to 8) (size 9 to 14) (size 15 to 20)
#    0.000    2.250    2.500    1.500    0.000    3.750 
#    0.000    0.000    0.000    2.250    0.000    0.875 
#    0.000    3.000    0.000    0.000    0.000    0.000 
#
# Total GULP energy -178490.459319 kJ/mol
# GULP energy per Si atom -5577.826854 kJ/mol
# Density = 1.564809 g / cm^3
# Si number density = 15.683787 Si / 1000 Ang^3
#
#
#
# Elastic Constant Matrix: (Units=GPa)
#
#
# Indices 1 2 3 4 5 6 
#
# 1 15.0341 20.3088 28.6441 0.0000 0.0000 0.0000
# 2 20.3088 102.1236 77.9337 0.0000 0.0000 0.0000
# 3 28.6441 77.9337 153.1287 0.0000 0.0000 0.0000
# 4 0.0000 0.0000 0.0000 20.3779 0.0000 0.0000
# 5 0.0000 0.0000 0.0000 0.0000 22.6132 0.0000
# 6 0.0000 0.0000 0.0000 0.0000 0.0000 11.9349
#
#
#
# Elastic Compliance Matrix: (Units=1/GPa)
#
#
# Indices 1 2 3 4 5 6 
#
# 1 0.109287 -0.010027 -0.015340 0.000000 0.000000 0.000000
# 2 -0.010027 0.016930 -0.006741 0.000000 0.000000 0.000000
# 3 -0.015340 -0.006741 0.012831 0.000000 0.000000 0.000000
# 4 0.000000 0.000000 0.000000 0.049073 0.000000 0.000000
# 5 0.000000 0.000000 0.000000 0.000000 0.044222 0.000000
# 6 0.000000 0.000000 0.000000 0.000000 0.000000 0.083788
#
#
# Mechanical properties :
#
#
# Convention : Reuss Voigt Hill
#
# Bulk Modulus (GPa) = 13.36316 58.22883 35.79599
# Shear Modulus (GPa) = 12.33683 20.54521 16.44102
#
# Velocity S-wave (km/s) = 2.80768 3.62327 3.24123
# Velocity P-wave (km/s) = 4.36458 7.39672 6.07293
#
# Compressibility (1/GPa) = 0.07483258
#
# Stress axis : x y z
#
# Youngs Moduli (GPa) = 9.15018 59.06591 77.93835
#
# Poissons Ratio (x) = 0.59225 1.19558
# Poissons Ratio (y) = 0.09175 0.52537
# Poissons Ratio (z) = 0.14036 0.39816
#
# Static dielectric constant tensor:
#      x y z
#    x 1.528940 0.000000 0.000000 
#    y 0.000000 1.504030 0.000000 
#    z 0.000000 0.000000 1.521840 
# 
# From -- ./inp_files/17222.got.cif
#   From: 2010.05.17/outbox.cif.g08.bks.cpg/sg38_9_cif.got.tgz:17222.got - 2010.06.03 18:07:57.
