data_PCOD9356891
_publ_section_title
;
Structure prediction by ZEFSAII (Michael W. Deem and Ramdas Pophale) SiO2 
 PCOD9356891
Probable space group: A M M 2
;
_chemical_formula_sum "Si O2"
_cell_formula_units_Z 48
_cell_length_a 8.082848
_cell_length_b 17.181909
_cell_length_c 19.196313
_cell_angle_alpha 90.000000
_cell_angle_beta 90.000000
_cell_angle_gamma 90.000000
_cell_volume 2665.960123
_symmetry_space_group_name_H-M "A M M 2"
_symmetry_group_IT_number 38
_symmetry_cell_setting 'orthorhombic'
loop_
_space_group_symop_operation_xyz
x,y,z
-x,-y,z
-x,y,z
x,-y,z
x,1/2+y,1/2+z
-x,1/2-y,1/2+z
-x,1/2+y,1/2+z
x,1/2-y,1/2+z
loop_
_atom_site_type_symbol
_atom_site_label
_atom_site_fract_x
_atom_site_fract_y
_atom_site_fract_z
Si Si1 0.199402 0.267024 0.465710
Si Si2 0.695923 0.815851 0.745812
Si Si3 0.202023 0.500000 0.857907
Si Si4 0.699257 0.088355 0.879782
Si Si5 0.797487 0.000000 0.519978
Si Si6 0.801563 0.339411 0.088368
Si Si7 0.199954 0.170130 0.329125
O O1 0.257266 0.351953 0.441553
O O2 0.258832 0.230916 0.538672
O O3 0.248898 0.207394 0.403736
O O4 0.000000 0.269038 0.466601
O O5 0.500000 0.826400 0.743449
O O6 0.761547 0.872626 0.807394
O O7 0.762762 0.831252 0.669254
O O8 0.735697 0.728706 0.770971
O O9 0.250121 0.500000 0.939124
O O10 0.257003 0.581159 0.824486
O O11 0.000000 0.500000 0.856447
O O12 0.500000 0.085849 0.875634
O O13 0.759792 0.000000 0.888470
O O14 0.740259 0.921656 0.557938
O O15 0.000000 0.000000 0.521207
O O16 0.000000 0.340343 0.081015
O O17 0.000000 0.170885 0.326919
#
# Coordination Sequence:
#
# PCOD9356891 Si02
#       7
#     8   8   4   8   4   8   8
#     4   9  17  30  51  76 100 126 160 205 247 289
#     4  10  21  34  49  70 102 138 168 199 243 293
#     4   9  14  26  53  81 101 124 157 200 247 295
#     4   9  19  35  52  70  96 131 168 205 245 290
#     4   9  16  28  49  79 107 128 153 194 247 297
#     4  10  19  32  51  76 105 132 161 198 243 295
#     4   9  16  30  52  76 100 128 164 202 244 292
#
# _framework density 18.004770000000001
#
# number of rings (size 3 to 8) (size 9 to 14) (size 15 to 20)
#    0.000    2.667    1.667    0.500    1.167    1.667 
#    0.000    0.417    1.833    1.000    0.000    0.000 
#    0.000    0.000    0.000    0.000    0.000    0.000 
#
# Total GULP energy -133792.435271 kJ/mol
# GULP energy per Si atom -5574.684803 kJ/mol
# Density = 1.796379 g / cm^3
# Si number density = 18.004770 Si / 1000 Ang^3
#
#
#
# Elastic Constant Matrix: (Units=GPa)
#
#
# Indices 1 2 3 4 5 6 
#
# 1 7.5802 13.9615 8.5414 0.0000 0.0000 0.0000
# 2 13.9615 175.3390 69.6541 0.0000 0.0000 0.0000
# 3 8.5414 69.6541 94.9816 0.0000 0.0000 0.0000
# 4 0.0000 0.0000 0.0000 17.0826 0.0000 0.0000
# 5 0.0000 0.0000 0.0000 0.0000 11.2731 0.0000
# 6 0.0000 0.0000 0.0000 0.0000 0.0000 9.2522
#
#
#
# Elastic Compliance Matrix: (Units=1/GPa)
#
#
# Indices 1 2 3 4 5 6 
#
# 1 0.157848 -0.009779 -0.007024 0.000000 0.000000 0.000000
# 2 -0.009779 0.008654 -0.005467 0.000000 0.000000 0.000000
# 3 -0.007024 -0.005467 0.015169 0.000000 0.000000 0.000000
# 4 0.000000 0.000000 0.000000 0.058539 0.000000 0.000000
# 5 0.000000 0.000000 0.000000 0.000000 0.088706 0.000000
# 6 0.000000 0.000000 0.000000 0.000000 0.000000 0.108082
#
#
# Mechanical properties :
#
#
# Convention : Reuss Voigt Hill
#
# Bulk Modulus (GPa) = 7.29221 51.35719 29.32470
# Shear Modulus (GPa) = 9.48322 19.90451 14.69386
#
# Velocity S-wave (km/s) = 2.29750 3.32853 2.85986
# Velocity P-wave (km/s) = 3.33121 6.58470 5.21801
#
# Compressibility (1/GPa) = 0.13713269
#
# Stress axis : x y z
#
# Youngs Moduli (GPa) = 6.33520 115.56015 65.92432
#
# Poissons Ratio (x) = 1.13001 0.46304
# Poissons Ratio (y) = 0.06195 0.36038
# Poissons Ratio (z) = 0.04450 0.63173
#
# Static dielectric constant tensor:
#      x y z
#    x 1.645350 0.000000 0.000000 
#    y 0.000000 1.627390 0.000000 
#    z 0.000000 0.000000 1.592720 
# 
# From -- ./inp_files/12090.got.cif
#   From: 2010.05.17/outbox.cif.g08.bks.cpg/sg38_7_cif.got.tgz:12090.got - 2010.06.03 18:07:57.
