data_PCOD9356820
_publ_section_title
;
Structure prediction by ZEFSAII (Michael W. Deem and Ramdas Pophale) SiO2 
 PCOD9356820
Probable space group: A M M 2
;
_chemical_formula_sum "Si O2"
_cell_formula_units_Z 48
_cell_length_a 14.363486
_cell_length_b 16.342430
_cell_length_c 9.299401
_cell_angle_alpha 90.000000
_cell_angle_beta 90.000000
_cell_angle_gamma 90.000000
_cell_volume 2182.888054
_symmetry_space_group_name_H-M "A M M 2"
_symmetry_group_IT_number 38
_symmetry_cell_setting 'orthorhombic'
loop_
_space_group_symop_operation_xyz
x,y,z
-x,-y,z
-x,y,z
x,-y,z
x,1/2+y,1/2+z
-x,1/2-y,1/2+z
-x,1/2+y,1/2+z
x,1/2-y,1/2+z
loop_
_atom_site_type_symbol
_atom_site_label
_atom_site_fract_x
_atom_site_fract_y
_atom_site_fract_z
Si Si1 0.893607 0.500000 0.529021
Si Si2 0.112485 0.676557 0.028132
Si Si3 0.294831 0.500000 0.458255
Si Si4 0.611252 0.168836 0.969497
Si Si5 0.388373 0.665726 0.810165
Si Si6 0.110898 0.500000 0.015521
Si Si7 0.285429 0.500000 0.810690
Si Si8 0.111177 0.669595 0.700901
O O1 0.812587 0.500000 0.412879
O O2 0.878633 0.416437 0.619768
O O3 0.000000 0.500000 0.477295
O O4 0.127391 0.586319 0.092830
O O5 0.145829 0.673411 0.863584
O O6 0.000000 0.686567 0.023682
O O7 0.150506 0.754399 0.111618
O O8 0.343281 0.415522 0.415376
O O9 0.293059 0.500000 0.635548
O O10 0.500000 0.161306 0.950455
O O11 0.629458 0.175545 0.139934
O O12 0.641161 0.251832 0.891155
O O13 0.500000 0.656124 0.829504
O O14 0.338169 0.582531 0.858426
O O15 0.183343 0.500000 0.882786
O O16 0.000000 0.500000 0.967894
O O17 0.000000 0.680173 0.711691
#
# Coordination Sequence:
#
# PCOD9356820 Si02
#       8
#     4   8   4   8   8   4   4   8
#     4  10  20  34  52  74 103 141 182 219 257 306
#     4   9  17  30  48  68  90 120 161 207 251 294
#     4  10  19  31  51  77 104 138 178 216 256 308
#     4   9  18  34  56  81 108 137 170 211 261 316
#     4   9  18  34  56  81 108 137 170 211 261 316
#     4  10  20  34  52  74 103 141 182 219 257 306
#     4  10  19  31  51  77 104 138 178 216 256 308
#     4   9  17  30  48  68  90 120 161 207 251 294
#
# _framework density 21.989218000000001
#
# number of rings (size 3 to 8) (size 9 to 14) (size 15 to 20)
#    0.000    2.667    0.000    2.000    0.000    7.000 
#    0.000    1.667    0.000   11.000    0.000    0.000 
#    0.000    0.000    0.000    0.000    0.000    0.000 
#
# Total GULP energy -133986.653767 kJ/mol
# GULP energy per Si atom -5582.777240 kJ/mol
# Density = 2.193917 g / cm^3
# Si number density = 21.989218 Si / 1000 Ang^3
#
#
#
# Elastic Constant Matrix: (Units=GPa)
#
#
# Indices 1 2 3 4 5 6 
#
# 1 87.4676 73.8455 22.6759 0.0000 0.0000 0.0000
# 2 73.8455 245.3665 57.0380 0.0000 0.0000 0.0000
# 3 22.6759 57.0380 29.4371 0.0000 0.0000 0.0000
# 4 0.0000 0.0000 0.0000 36.3729 0.0000 0.0000
# 5 0.0000 0.0000 0.0000 0.0000 10.7685 0.0000
# 6 0.0000 0.0000 0.0000 0.0000 0.0000 28.4478
#
#
#
# Elastic Compliance Matrix: (Units=1/GPa)
#
#
# Indices 1 2 3 4 5 6 
#
# 1 0.015781 -0.003500 -0.005375 0.000000 0.000000 0.000000
# 2 -0.003500 0.008192 -0.013177 0.000000 0.000000 0.000000
# 3 -0.005375 -0.013177 0.063643 0.000000 0.000000 0.000000
# 4 0.000000 0.000000 0.000000 0.027493 0.000000 0.000000
# 5 0.000000 0.000000 0.000000 0.000000 0.092863 0.000000
# 6 0.000000 0.000000 0.000000 0.000000 0.000000 0.035152
#
#
# Mechanical properties :
#
#
# Convention : Reuss Voigt Hill
#
# Bulk Modulus (GPa) = 22.98175 74.37664 48.67920
# Shear Modulus (GPa) = 16.57101 29.03196 22.80149
#
# Velocity S-wave (km/s) = 2.74815 3.63751 3.22365
# Velocity P-wave (km/s) = 4.53253 7.17910 6.00347
#
# Compressibility (1/GPa) = 0.04351279
#
# Stress axis : x y z
#
# Youngs Moduli (GPa) = 63.36660 122.06984 15.71270
#
# Poissons Ratio (x) = 0.42726 0.08445
# Poissons Ratio (y) = 0.22179 0.20704
# Poissons Ratio (z) = 0.34057 1.60850
#
# Static dielectric constant tensor:
#      x y z
#    x 1.839690 0.000000 0.000000 
#    y 0.000000 1.825580 0.000000 
#    z 0.000000 0.000000 1.794960 
# 
# From -- ./inp_files/10067.got.cif
#   From: 2010.05.17/outbox.cif.g08.bks.cpg/sg38_6_cif.got.tgz:10067.got - 2010.06.03 18:07:57.
