data_PCOD9356848
_publ_section_title
;
Structure prediction by ZEFSAII (Michael W. Deem and Ramdas Pophale) SiO2 
 PCOD9356848
Probable space group: A M M 2
;
_chemical_formula_sum "Si O2"
_cell_formula_units_Z 42
_cell_length_a 7.468894
_cell_length_b 32.863470
_cell_length_c 6.957880
_cell_angle_alpha 90.000000
_cell_angle_beta 90.000000
_cell_angle_gamma 90.000000
_cell_volume 1707.837904
_symmetry_space_group_name_H-M "A M M 2"
_symmetry_group_IT_number 38
_symmetry_cell_setting 'orthorhombic'
loop_
_space_group_symop_operation_xyz
x,y,z
-x,-y,z
-x,y,z
x,-y,z
x,1/2+y,1/2+z
-x,1/2-y,1/2+z
-x,1/2+y,1/2+z
x,1/2-y,1/2+z
loop_
_atom_site_type_symbol
_atom_site_label
_atom_site_fract_x
_atom_site_fract_y
_atom_site_fract_z
Si Si1 0.202359 0.345508 0.496310
Si Si2 0.215311 0.955822 0.636006
Si Si3 0.213146 0.936789 0.087698
Si Si4 0.500000 0.808057 0.470016
Si Si5 0.500000 0.500000 0.738627
Si Si6 0.500000 0.786151 0.916569
Si Si7 0.205214 0.632055 0.039550
O O1 0.253183 0.388529 0.593136
O O2 0.330610 0.307044 0.517884
O O3 0.201963 0.356529 0.267157
O O4 0.000000 0.335236 0.549227
O O5 0.277094 0.914096 0.539014
O O6 0.000000 0.957027 0.606767
O O7 0.294158 0.000000 0.582527
O O8 0.241576 0.950344 0.864930
O O9 0.000000 0.942310 0.129205
O O10 0.342650 0.964629 0.209145
O O11 0.500000 0.802203 0.700078
O O12 0.500000 0.762141 0.398824
O O13 0.673820 0.835349 0.432032
O O14 0.000000 0.632411 0.974018
#
# Coordination Sequence:
#
# PCOD9356848 Si02
#       7
#     8   8   8   4   2   4   8
#     4   8  15  28  43  57  80 114 149 184 220 262
#     4   8  12  21  34  50  78 114 145 171 201 249
#     4   9  16  23  30  48  77 108 146 180 205 244
#     4  10  20  32  47  66  89 114 149 186 229 269
#     4  12  16  16  28  46  72 112 144 170 204 250
#     4  10  19  32  48  67  86 111 150 188 229 275
#     4   8  15  27  41  58  85 118 145 177 223 266
#
# _framework density 24.592497000000002
#
# number of rings (size 3 to 8) (size 9 to 14) (size 15 to 20)
#    0.000    3.238    0.952    3.143    0.000    3.048 
#    0.000    0.000    0.000    0.000    0.000    0.000 
#    0.000    0.000   12.952    0.762   32.000   12.000 
#
# Total GULP energy -117285.125751 kJ/mol
# GULP energy per Si atom -5585.005988 kJ/mol
# Density = 2.453652 g / cm^3
# Si number density = 24.592497 Si / 1000 Ang^3
#
#
#
# Elastic Constant Matrix: (Units=GPa)
#
#
# Indices 1 2 3 4 5 6 
#
# 1 124.3816 109.4810 14.4158 0.0000 0.0000 0.0000
# 2 109.4810 248.5677 38.5922 0.0000 0.0000 0.0000
# 3 14.4158 38.5922 94.7002 0.0000 0.0000 0.0000
# 4 0.0000 0.0000 0.0000 45.1346 0.0000 0.0000
# 5 0.0000 0.0000 0.0000 0.0000 -95.3047 0.0000
# 6 0.0000 0.0000 0.0000 0.0000 0.0000 35.5413
#
#
#
# Elastic Compliance Matrix: (Units=1/GPa)
#
#
# Indices 1 2 3 4 5 6 
#
# 1 0.013143 -0.005848 0.000383 0.000000 0.000000 0.000000
# 2 -0.005848 0.006897 -0.001920 0.000000 0.000000 0.000000
# 3 0.000383 -0.001920 0.011284 0.000000 0.000000 0.000000
# 4 0.000000 0.000000 0.000000 0.022156 0.000000 0.000000
# 5 0.000000 0.000000 0.000000 0.000000 -0.010493 0.000000
# 6 0.000000 0.000000 0.000000 0.000000 0.000000 0.028136
#
#
# Mechanical properties :
#
#
# Convention : Reuss Voigt Hill
#
# Bulk Modulus (GPa) = 60.41590 88.06972 74.24281
# Shear Modulus (GPa) = 54.69668 17.41827 36.05748
#
# Velocity S-wave (km/s) = 4.72117 2.66423 3.83325
# Velocity P-wave (km/s) = 7.37153 6.73450 7.06021
#
# Compressibility (1/GPa) = 0.01655194
#
# Stress axis : x y z
#
# Youngs Moduli (GPa) = 76.08577 144.98950 88.62085
#
# Poissons Ratio (x) = 0.84793 -0.03390
# Poissons Ratio (y) = 0.44497 0.17019
# Poissons Ratio (z) = -0.02911 0.27844
#
# Static dielectric constant tensor:
#      x y z
#    x 1.950890 0.000000 0.000000 
#    y 0.000000 1.894880 0.000000 
#    z 0.000000 0.000000 2.076680 
# 
# From -- ./inp_files/8085.got.cif
#   From: 2010.05.17/outbox.cif.g08.bks.cpg/sg38_5_cif.got.tgz:8085.got - 2010.06.03 18:07:57.
