data_PCOD9356947
_publ_section_title
;
Structure prediction by ZEFSAII (Michael W. Deem and Ramdas Pophale) SiO2 
 PCOD9356947
Probable space group: A M M 2
;
_chemical_formula_sum "Si O2"
_cell_formula_units_Z 64
_cell_length_a 8.616320
_cell_length_b 20.474778
_cell_length_c 20.782816
_cell_angle_alpha 90.000000
_cell_angle_beta 90.000000
_cell_angle_gamma 90.000000
_cell_volume 3666.447021
_symmetry_space_group_name_H-M "A M M 2"
_symmetry_group_IT_number 38
_symmetry_cell_setting 'orthorhombic'
loop_
_space_group_symop_operation_xyz
x,y,z
-x,-y,z
-x,y,z
x,-y,z
x,1/2+y,1/2+z
-x,1/2-y,1/2+z
-x,1/2+y,1/2+z
x,1/2-y,1/2+z
loop_
_atom_site_type_symbol
_atom_site_label
_atom_site_fract_x
_atom_site_fract_y
_atom_site_fract_z
Si Si1 0.813813 0.826121 0.295000
Si Si2 0.685900 0.075704 0.401386
Si Si3 0.187844 0.322318 0.150993
Si Si4 0.312918 0.574682 0.400514
Si Si5 0.689079 0.074458 0.046894
Si Si6 0.313462 0.822136 0.153314
Si Si7 0.812509 0.075277 0.542410
Si Si8 0.186590 0.675986 0.297784
O O1 0.753340 0.876390 0.347816
O O2 0.748497 0.840393 0.223979
O O3 0.766616 0.751198 0.310686
O O4 0.000000 0.828030 0.292534
O O5 0.500000 0.078911 0.400255
O O6 0.745490 0.093271 0.472697
O O7 0.732601 0.000000 0.389606
O O8 0.253669 0.250455 0.137600
O O9 0.237500 0.375403 0.098448
O O10 0.233898 0.339902 0.224228
O O11 0.000000 0.318534 0.149935
O O12 0.500000 0.575597 0.399851
O O13 0.263619 0.500000 0.386311
O O14 0.262733 0.590335 0.473764
O O15 0.252589 0.625861 0.349061
O O16 0.500000 0.074824 0.047262
O O17 0.740794 0.126349 0.099676
O O18 0.737327 0.000000 0.061435
O O19 0.500000 0.821856 0.154765
O O20 0.000000 0.077432 0.538817
O O21 0.767424 0.000000 0.556088
O O22 0.000000 0.673306 0.300376
#
# Coordination Sequence:
#
# PCOD9356947 Si02
#       8
#     8   8   8   8   8   8   8   8
#     4  10  21  37  54  74 103 137 171 208 254 308
#     4  10  21  36  54  78 106 134 168 212 259 308
#     4   9  19  35  52  72 102 137 170 208 254 305
#     4   9  18  33  52  74 101 133 167 203 247 300
#     4   8  16  32  51  71  98 130 162 198 243 295
#     4  10  19  32  53  78 101 130 169 212 256 301
#     4   9  18  34  55  76 100 135 176 214 256 307
#     4   9  19  34  51  73 101 133 169 209 251 295
#
# _framework density 17.455591999999999
#
# number of rings (size 3 to 8) (size 9 to 14) (size 15 to 20)
#    0.000    2.750    0.000    2.625    0.000    6.000 
#    0.000    6.250    0.000    4.125    0.000    0.000 
#    0.000    0.000    0.000    0.000    0.000    0.000 
#
# Total GULP energy -178450.547965 kJ/mol
# GULP energy per Si atom -5576.579624 kJ/mol
# Density = 1.741586 g / cm^3
# Si number density = 17.455592 Si / 1000 Ang^3
#
#
#
# Elastic Constant Matrix: (Units=GPa)
#
#
# Indices 1 2 3 4 5 6 
#
# 1 18.9495 32.6252 36.7066 0.0000 0.0000 0.0000
# 2 32.6252 138.6206 144.3277 0.0000 0.0000 0.0000
# 3 36.7066 144.3277 177.6536 0.0000 0.0000 0.0000
# 4 0.0000 0.0000 0.0000 45.0686 0.0000 0.0000
# 5 0.0000 0.0000 0.0000 0.0000 26.0941 0.0000
# 6 0.0000 0.0000 0.0000 0.0000 0.0000 25.8143
#
#
#
# Elastic Compliance Matrix: (Units=1/GPa)
#
#
# Indices 1 2 3 4 5 6 
#
# 1 0.090933 -0.011935 -0.009093 0.000000 0.000000 0.000000
# 2 -0.011935 0.048367 -0.036828 0.000000 0.000000 0.000000
# 3 -0.009093 -0.036828 0.037427 0.000000 0.000000 0.000000
# 4 0.000000 0.000000 0.000000 0.022188 0.000000 0.000000
# 5 0.000000 0.000000 0.000000 0.000000 0.038323 0.000000
# 6 0.000000 0.000000 0.000000 0.000000 0.000000 0.038738
#
#
# Mechanical properties :
#
#
# Convention : Reuss Voigt Hill
#
# Bulk Modulus (GPa) = 16.38903 84.72696 50.55800
# Shear Modulus (GPa) = 12.13519 27.49969 19.81744
#
# Velocity S-wave (km/s) = 2.63953 3.97345 3.37309
# Velocity P-wave (km/s) = 4.32422 8.34835 6.64808
#
# Compressibility (1/GPa) = 0.06101642
#
# Stress axis : x y z
#
# Youngs Moduli (GPa) = 10.99714 20.67531 26.71871
#
# Poissons Ratio (x) = 0.24675 0.24294
# Poissons Ratio (y) = 0.13125 0.98399
# Poissons Ratio (z) = 0.09999 0.76143
#
# Static dielectric constant tensor:
#      x y z
#    x 1.595710 0.000000 0.000000 
#    y 0.000000 1.580180 0.000000 
#    z 0.000000 0.000000 1.572470 
# 
# From -- ./inp_files/17207.got.cif
#   From: 2010.05.17/outbox.cif.g08.bks.cpg/sg38_9_cif.got.tgz:17207.got - 2010.06.03 18:07:57.
