data_PCOD9356663
_publ_section_title
;
Structure prediction by ZEFSAII (Michael W. Deem and Ramdas Pophale) SiO2 
 PCOD9356663
Probable space group: A M M 2
;
_chemical_formula_sum "Si O2"
_cell_formula_units_Z 44
_cell_length_a 28.472492
_cell_length_b 14.660098
_cell_length_c 5.072835
_cell_angle_alpha 90.000000
_cell_angle_beta 90.000000
_cell_angle_gamma 90.000000
_cell_volume 2117.449638
_symmetry_space_group_name_H-M "A M M 2"
_symmetry_group_IT_number 38
_symmetry_cell_setting 'orthorhombic'
loop_
_space_group_symop_operation_xyz
x,y,z
-x,-y,z
-x,y,z
x,-y,z
x,1/2+y,1/2+z
-x,1/2-y,1/2+z
-x,1/2+y,1/2+z
x,1/2-y,1/2+z
loop_
_atom_site_type_symbol
_atom_site_label
_atom_site_fract_x
_atom_site_fract_y
_atom_site_fract_z
Si Si1 0.149325 0.310850 0.099460
Si Si2 0.949209 0.685650 0.976608
Si Si3 0.302206 0.109586 0.939196
Si Si4 0.599051 0.189425 0.101319
Si Si5 0.751712 0.609625 0.939237
Si Si6 0.500000 0.813290 0.976633
O O1 0.149022 0.275561 0.398686
O O2 0.100364 0.362517 0.034224
O O3 0.196830 0.362495 0.031294
O O4 0.948514 0.769080 0.187866
O O5 0.000000 0.638527 0.010946
O O6 0.353677 0.137276 0.031583
O O7 0.263737 0.142442 0.151563
O O8 0.300499 0.000000 0.933470
O O9 0.286777 0.142447 0.651545
O O10 0.598900 0.224046 0.401068
O O11 0.549712 0.139489 0.036653
O O12 0.750090 0.500000 0.933621
O O13 0.500000 0.727633 0.182802
#
# Coordination Sequence:
#
# PCOD9356663 Si02
#       6
#     8   8   8   8   8   4
#     4  10  19  30  48  72  93 117 156 198 226 265
#     4   8  14  25  41  63  90 116 143 182 231 271
#     4  10  21  35  49  68  95 126 157 189 230 277
#     4  10  19  32  52  74  95 122 155 191 229 271
#     4  10  21  35  48  65  96 130 153 185 237 282
#     4   8  16  30  47  70  97 120 146 184 232 276
#
# _framework density 20.779717000000002
#
# number of rings (size 3 to 8) (size 9 to 14) (size 15 to 20)
#    0.000    2.545    0.000    2.182    0.000    4.364 
#    0.000    0.455    0.000    0.545    0.000   11.455 
#    0.000   18.909    0.000    0.000    0.000    2.909 
#
# Total GULP energy -122651.607855 kJ/mol
# GULP energy per Si atom -5575.073084 kJ/mol
# Density = 2.073242 g / cm^3
# Si number density = 20.779717 Si / 1000 Ang^3
#
#
#
# Elastic Constant Matrix: (Units=GPa)
#
#
# Indices 1 2 3 4 5 6 
#
# 1 138.8276 -0.8792 -4.3373 0.0000 0.0000 0.0000
# 2 -0.8792 18.4349 -1.3837 0.0000 0.0000 0.0000
# 3 -4.3373 -1.3837 83.6429 0.0000 0.0000 0.0000
# 4 0.0000 0.0000 0.0000 8.5531 0.0000 0.0000
# 5 0.0000 0.0000 0.0000 0.0000 33.0859 0.0000
# 6 0.0000 0.0000 0.0000 0.0000 0.0000 -13.7212
#
#
#
# Elastic Compliance Matrix: (Units=1/GPa)
#
#
# Indices 1 2 3 4 5 6 
#
# 1 0.007217 0.000373 0.000380 0.000000 0.000000 0.000000
# 2 0.000373 0.054332 0.000918 0.000000 0.000000 0.000000
# 3 0.000380 0.000918 0.011990 0.000000 0.000000 0.000000
# 4 0.000000 0.000000 0.000000 0.116917 0.000000 0.000000
# 5 0.000000 0.000000 0.000000 0.000000 0.030224 0.000000
# 6 0.000000 0.000000 0.000000 0.000000 0.000000 -0.072880
#
#
# Mechanical properties :
#
#
# Convention : Reuss Voigt Hill
#
# Bulk Modulus (GPa) = 13.00694 25.30058 19.15376
# Shear Modulus (GPa) = 29.39692 22.08393 25.74042
#
# Velocity S-wave (km/s) = 3.76532 3.26354 3.52338
# Velocity P-wave (km/s) = 5.01762 5.13838 5.07836
#
# Compressibility (1/GPa) = 0.07688204
#
# Stress axis : x y z
#
# Youngs Moduli (GPa) = 138.55358 18.40552 83.39937
#
# Poissons Ratio (x) = -0.00686 -0.03173
# Poissons Ratio (y) = -0.05165 -0.07657
# Poissons Ratio (z) = -0.05271 -0.01690
#
# Static dielectric constant tensor:
#      x y z
#    x 1.823650 0.000000 0.000000 
#    y 0.000000 1.704190 0.000000 
#    z 0.000000 0.000000 1.727460 
# 
# From -- ./inp_files/2081.got.cif
#   From: 2010.05.17/outbox.cif.g08.bks.cpg/sg38_2_cif.got.tgz:2081.got - 2010.06.03 18:07:57.
