data_PCOD9356597
_publ_section_title
;
Structure prediction by ZEFSAII (Michael W. Deem and Ramdas Pophale) SiO2 
 PCOD9356597
Probable space group: A M M 2
;
_chemical_formula_sum "Si O2"
_cell_formula_units_Z 64
_cell_length_a 14.801817
_cell_length_b 8.631469
_cell_length_c 32.111048
_cell_angle_alpha 90.000000
_cell_angle_beta 90.000000
_cell_angle_gamma 90.000000
_cell_volume 4102.553237
_symmetry_space_group_name_H-M "A M M 2"
_symmetry_group_IT_number 38
_symmetry_cell_setting 'orthorhombic'
loop_
_space_group_symop_operation_xyz
x,y,z
-x,-y,z
-x,y,z
x,-y,z
x,1/2+y,1/2+z
-x,1/2-y,1/2+z
-x,1/2+y,1/2+z
x,1/2-y,1/2+z
loop_
_atom_site_type_symbol
_atom_site_label
_atom_site_fract_x
_atom_site_fract_y
_atom_site_fract_z
Si Si1 0.109596 0.178858 0.001120
Si Si2 0.895436 0.812619 0.257453
Si Si3 0.399532 0.311455 0.708747
Si Si4 0.214462 0.816509 0.836145
Si Si5 0.104727 0.310568 0.592684
Si Si6 0.211242 0.189261 0.174151
Si Si7 0.602269 0.686725 0.806100
Si Si8 0.894858 0.815831 0.413190
O O1 0.137632 0.238698 0.046736
O O2 0.000000 0.179142 0.002984
O O3 0.138365 0.000000 0.996341
O O4 0.134924 0.271821 0.959938
O O5 0.840288 0.752042 0.296872
O O6 0.848135 0.764709 0.214261
O O7 0.000000 0.763706 0.258932
O O8 0.893227 0.000000 0.258765
O O9 0.500000 0.259063 0.696076
O O10 0.400141 0.500000 0.707627
O O11 0.314098 0.259050 0.681955
O O12 0.385354 0.269863 0.757319
O O13 0.317249 0.758486 0.832356
O O14 0.166378 0.760807 0.878183
O O15 0.212010 0.000000 0.833792
O O16 0.104771 0.500000 0.591865
O O17 0.165753 0.259179 0.631202
O O18 0.000000 0.263930 0.598852
O O19 0.211155 0.000000 0.173538
O O20 0.500000 0.731178 0.818148
O O21 0.608403 0.500000 0.808123
O O22 0.000000 0.765089 0.408324
O O23 0.892432 0.000000 0.407965
#
# Coordination Sequence:
#
# PCOD9356597 Si02
#       8
#     8   8   8   8   8   8   8   8
#     4   8  14  26  43  63  88 114 143 184 233 278
#     4  10  19  30  44  62  88 124 164 197 222 259
#     4   8  13  22  39  62  86 113 147 189 229 260
#     4  12  23  32  45  66  94 124 152 186 232 281
#     4   8  13  21  36  61  89 114 142 181 229 275
#     4   9  14  22  39  63  89 116 151 191 226 263
#     4   9  17  32  52  69  88 117 154 195 233 268
#     4  10  20  33  49  67  88 117 156 196 231 274
#
# _framework density 15.600042
#
# number of rings (size 3 to 8) (size 9 to 14) (size 15 to 20)
#    0.000    2.750    1.250    3.750    0.000    4.250 
#    0.000    0.000    0.000    0.750    0.000    2.625 
#    0.000    3.000    0.000    0.000    0.000    0.000 
#
# Total GULP energy -178299.135080 kJ/mol
# GULP energy per Si atom -5571.847971 kJ/mol
# Density = 1.556454 g / cm^3
# Si number density = 15.600042 Si / 1000 Ang^3
#
#
#
# Elastic Constant Matrix: (Units=GPa)
#
#
# Indices 1 2 3 4 5 6 
#
# 1 117.9469 22.3621 70.9287 0.0000 0.0000 0.0000
# 2 22.3621 13.2960 18.5427 0.0000 0.0000 0.0000
# 3 70.9287 18.5427 121.5114 0.0000 0.0000 0.0000
# 4 0.0000 0.0000 0.0000 14.5122 0.0000 0.0000
# 5 0.0000 0.0000 0.0000 0.0000 8.1389 0.0000
# 6 0.0000 0.0000 0.0000 0.0000 0.0000 6.5577
#
#
#
# Elastic Compliance Matrix: (Units=1/GPa)
#
#
# Indices 1 2 3 4 5 6 
#
# 1 0.015668 -0.017273 -0.006510 0.000000 0.000000 0.000000
# 2 -0.017273 0.114586 -0.007403 0.000000 0.000000 0.000000
# 3 -0.006510 -0.007403 0.013159 0.000000 0.000000 0.000000
# 4 0.000000 0.000000 0.000000 0.068907 0.000000 0.000000
# 5 0.000000 0.000000 0.000000 0.000000 0.122867 0.000000
# 6 0.000000 0.000000 0.000000 0.000000 0.000000 0.152493
#
#
# Mechanical properties :
#
#
# Convention : Reuss Voigt Hill
#
# Bulk Modulus (GPa) = 12.33941 52.93570 32.63756
# Shear Modulus (GPa) = 8.66452 15.23649 11.95051
#
# Velocity S-wave (km/s) = 2.35928 3.12860 2.77077
# Velocity P-wave (km/s) = 3.91774 6.85985 5.58598
#
# Compressibility (1/GPa) = 0.08104112
#
# Stress axis : x y z
#
# Youngs Moduli (GPa) = 63.82444 8.72709 75.99121
#
# Poissons Ratio (x) = 0.15074 0.49470
# Poissons Ratio (y) = 1.10242 0.56260
# Poissons Ratio (z) = 0.41549 0.06461
#
# Static dielectric constant tensor:
#      x y z
#    x 1.520270 0.000000 0.000000 
#    y 0.000000 1.532070 0.000000 
#    z 0.000000 0.000000 1.515030 
# 
# From -- ./inp_files/25059.got.cif
#   From: 2010.05.17/outbox.cif.g08.bks.cpg/sg38_13_cif.got.tgz:25059.got - 2010.06.03 18:07:57.
