data_PCOD9356273
_publ_section_title
;
Structure prediction by ZEFSAII (Michael W. Deem and Ramdas Pophale) SiO2 
 PCOD9356273
Probable space group: A M M 2
;
_chemical_formula_sum "Si O2"
_cell_formula_units_Z 56
_cell_length_a 14.731347
_cell_length_b 8.729717
_cell_length_c 26.342662
_cell_angle_alpha 90.000000
_cell_angle_beta 90.000000
_cell_angle_gamma 90.000000
_cell_volume 3387.679250
_symmetry_space_group_name_H-M "A M M 2"
_symmetry_group_IT_number 38
_symmetry_cell_setting 'orthorhombic'
loop_
_space_group_symop_operation_xyz
x,y,z
-x,-y,z
-x,y,z
x,-y,z
x,1/2+y,1/2+z
-x,1/2-y,1/2+z
-x,1/2+y,1/2+z
x,1/2-y,1/2+z
loop_
_atom_site_type_symbol
_atom_site_label
_atom_site_fract_x
_atom_site_fract_y
_atom_site_fract_z
Si Si1 0.897683 0.684281 0.415470
Si Si2 0.288654 0.184984 0.963383
Si Si3 0.605570 0.816626 0.168457
Si Si4 0.716708 0.183718 0.761803
Si Si5 0.605366 0.816872 0.558239
Si Si6 0.395614 0.686423 0.361484
Si Si7 0.896712 0.683175 0.802677
O O1 0.892687 0.500000 0.408541
O O2 0.815941 0.727763 0.452612
O O3 0.883283 0.759304 0.360457
O O4 0.000000 0.722492 0.432726
O O5 0.345710 0.232431 0.913368
O O6 0.293997 0.000000 0.967236
O O7 0.331682 0.256872 0.013268
O O8 0.500000 0.773029 0.178052
O O9 0.668257 0.747474 0.211997
O O10 0.629555 0.754630 0.112679
O O11 0.611597 0.000000 0.168810
O O12 0.660034 0.235223 0.811769
O O13 0.818820 0.242856 0.768741
O O14 0.716031 0.000000 0.760829
O O15 0.500000 0.773712 0.547473
O O16 0.610194 0.000000 0.561582
O O17 0.500000 0.738176 0.360003
O O18 0.395956 0.500000 0.361116
O O19 0.889232 0.500000 0.801333
O O20 0.000000 0.725991 0.788154
#
# Coordination Sequence:
#
# PCOD9356273 Si02
#       7
#     8   8   8   8   8   8   8
#     4   9  17  31  51  75 103 135 174 215 257 311
#     4  10  18  31  51  75 103 137 172 210 258 311
#     4  10  21  37  56  78 104 137 176 217 261 311
#     4  11  20  33  53  77 106 140 175 215 261 310
#     4  10  21  36  53  75 102 135 176 219 260 304
#     4   9  17  28  44  71 105 137 167 200 248 308
#     4  10  20  33  50  74 105 139 175 217 263 311
#
# _framework density 16.530491000000001
#
# number of rings (size 3 to 8) (size 9 to 14) (size 15 to 20)
#    0.000    2.143    1.429    2.571    0.000    4.286 
#    0.000    0.000    0.000    3.429    0.000    2.000 
#    0.000    0.000    0.000    0.000    0.000    0.000 
#
# Total GULP energy -156259.089752 kJ/mol
# GULP energy per Si atom -5580.681777 kJ/mol
# Density = 1.649287 g / cm^3
# Si number density = 16.530491 Si / 1000 Ang^3
#
#
#
# Elastic Constant Matrix: (Units=GPa)
#
#
# Indices 1 2 3 4 5 6 
#
# 1 147.8785 47.1338 101.0052 0.0000 0.0000 0.0000
# 2 47.1338 34.4918 44.5935 0.0000 0.0000 0.0000
# 3 101.0052 44.5935 138.3394 0.0000 0.0000 0.0000
# 4 0.0000 0.0000 0.0000 28.6504 0.0000 0.0000
# 5 0.0000 0.0000 0.0000 0.0000 23.5391 0.0000
# 6 0.0000 0.0000 0.0000 0.0000 0.0000 22.1217
#
#
#
# Elastic Compliance Matrix: (Units=1/GPa)
#
#
# Indices 1 2 3 4 5 6 
#
# 1 0.015730 -0.011396 -0.007811 0.000000 0.000000 0.000000
# 2 -0.011396 0.057965 -0.010364 0.000000 0.000000 0.000000
# 3 -0.007811 -0.010364 0.016273 0.000000 0.000000 0.000000
# 4 0.000000 0.000000 0.000000 0.034903 0.000000 0.000000
# 5 0.000000 0.000000 0.000000 0.000000 0.042483 0.000000
# 6 0.000000 0.000000 0.000000 0.000000 0.000000 0.045205
#
#
# Mechanical properties :
#
#
# Convention : Reuss Voigt Hill
#
# Bulk Modulus (GPa) = 32.44196 78.46387 55.45291
# Shear Modulus (GPa) = 17.73190 23.39405 20.56298
#
# Velocity S-wave (km/s) = 3.27873 3.76600 3.53078
# Velocity P-wave (km/s) = 5.83109 8.15350 7.08806
#
# Compressibility (1/GPa) = 0.03082428
#
# Stress axis : x y z
#
# Youngs Moduli (GPa) = 63.57243 17.25165 61.45238
#
# Poissons Ratio (x) = 0.19661 0.48002
# Poissons Ratio (y) = 0.72450 0.63691
# Poissons Ratio (z) = 0.49659 0.17880
#
# Static dielectric constant tensor:
#      x y z
#    x 1.566360 0.000000 0.000000 
#    y 0.000000 1.555860 0.000000 
#    z 0.000000 0.000000 1.516340 
# 
# From -- ./inp_files/21010.got.cif
#   From: 2010.05.17/outbox.cif.g08.bks.cpg/sg38_11_cif.got.tgz:21010.got - 2010.06.03 18:07:57.
