data_PCOD9356838
_publ_section_title
;
Structure prediction by ZEFSAII (Michael W. Deem and Ramdas Pophale) SiO2 
 PCOD9356838
Probable space group: A M M 2
;
_chemical_formula_sum "Si O2"
_cell_formula_units_Z 56
_cell_length_a 8.976960
_cell_length_b 15.441473
_cell_length_c 22.724521
_cell_angle_alpha 90.000000
_cell_angle_beta 90.000000
_cell_angle_gamma 90.000000
_cell_volume 3150.015959
_symmetry_space_group_name_H-M "A M M 2"
_symmetry_group_IT_number 38
_symmetry_cell_setting 'orthorhombic'
loop_
_space_group_symop_operation_xyz
x,y,z
-x,-y,z
-x,y,z
x,-y,z
x,1/2+y,1/2+z
-x,1/2-y,1/2+z
-x,1/2+y,1/2+z
x,1/2-y,1/2+z
loop_
_atom_site_type_symbol
_atom_site_label
_atom_site_fract_x
_atom_site_fract_y
_atom_site_fract_z
Si Si1 0.829942 0.876924 0.933280
Si Si2 0.677474 0.340034 0.317766
Si Si3 0.831061 0.694128 0.882837
Si Si4 0.322516 0.401841 0.981645
Si Si5 0.821638 0.899587 0.696027
Si Si6 0.679064 0.405693 0.557406
Si Si7 0.320013 0.284630 0.094131
O O1 0.738619 0.894990 0.873629
O O2 0.836433 0.772570 0.930343
O O3 0.000000 0.907050 0.929870
O O4 0.749846 0.903868 0.992488
O O5 0.500000 0.341623 0.315972
O O6 0.736823 0.242100 0.331869
O O7 0.748919 0.375215 0.258405
O O8 0.755156 0.618526 0.919506
O O9 0.000000 0.675248 0.864080
O O10 0.500000 0.393439 0.972914
O O11 0.288850 0.500000 0.000442
O O12 0.282477 0.335443 0.033734
O O13 0.756968 0.835564 0.646974
O O14 0.000000 0.891305 0.700008
O O15 0.786275 0.000000 0.681787
O O16 0.500000 0.401580 0.551472
O O17 0.716797 0.500000 0.584457
O O18 0.724321 0.316644 0.589439
O O19 0.500000 0.288642 0.101108
#
# Coordination Sequence:
#
# PCOD9356838 Si02
#       7
#     8   8   8   8   8   8   8
#     4   9  18  32  52  79 110 142 173 212 263 317
#     4  10  19  34  56  77 102 138 177 218 264 317
#     4   9  18  32  51  76 108 143 177 217 269 319
#     4  10  19  31  52  81 111 147 189 227 266 318
#     4  11  24  39  55  78 108 142 181 223 268 323
#     4  10  20  34  56  84 110 141 182 224 269 323
#     4  10  20  36  55  76 108 145 182 226 270 316
#
# _framework density 17.777688000000001
#
# number of rings (size 3 to 8) (size 9 to 14) (size 15 to 20)
#    0.857    1.286    1.429    2.571    0.000    4.000 
#    0.000    0.000    0.000    0.857    0.000    2.000 
#    0.000    0.000    0.000    0.000    0.000    0.000 
#
# Total GULP energy -155907.044162 kJ/mol
# GULP energy per Si atom -5568.108720 kJ/mol
# Density = 1.773723 g / cm^3
# Si number density = 17.777688 Si / 1000 Ang^3
#
#
#
# Elastic Constant Matrix: (Units=GPa)
#
#
# Indices 1 2 3 4 5 6 
#
# 1 62.0298 53.2771 49.1224 0.0000 0.0000 0.0000
# 2 53.2771 123.0036 59.1088 0.0000 0.0000 0.0000
# 3 49.1224 59.1088 91.3232 0.0000 0.0000 0.0000
# 4 0.0000 0.0000 0.0000 1.8408 0.0000 0.0000
# 5 0.0000 0.0000 0.0000 0.0000 -40.9350 0.0000
# 6 0.0000 0.0000 0.0000 0.0000 0.0000 14.3830
#
#
#
# Elastic Compliance Matrix: (Units=1/GPa)
#
#
# Indices 1 2 3 4 5 6 
#
# 1 0.033155 -0.008405 -0.012394 0.000000 0.000000 0.000000
# 2 -0.008405 0.013931 -0.004496 0.000000 0.000000 0.000000
# 3 -0.012394 -0.004496 0.020527 0.000000 0.000000 0.000000
# 4 0.000000 0.000000 0.000000 0.543252 0.000000 0.000000
# 5 0.000000 0.000000 0.000000 0.000000 -0.024429 0.000000
# 6 0.000000 0.000000 0.000000 0.000000 0.000000 0.069527
#
#
# Mechanical properties :
#
#
# Convention : Reuss Voigt Hill
#
# Bulk Modulus (GPa) = 58.74256 66.59703 62.66980
# Shear Modulus (GPa) = 7.02025 2.71430 4.86727
#
# Velocity S-wave (km/s) = 1.98934 1.23698 1.65644
# Velocity P-wave (km/s) = 6.19607 6.29146 6.24395
#
# Compressibility (1/GPa) = 0.01702343
#
# Stress axis : x y z
#
# Youngs Moduli (GPa) = 30.16123 71.78443 48.71710
#
# Poissons Ratio (x) = 0.60333 0.60380
# Poissons Ratio (y) = 0.25350 0.21902
# Poissons Ratio (z) = 0.37382 0.32272
#
# Static dielectric constant tensor:
#      x y z
#    x 1.603980 0.000000 0.000000 
#    y 0.000000 1.659630 0.000000 
#    z 0.000000 0.000000 1.570830 
# 
# From -- ./inp_files/22240.got.cif
#   From: 2010.05.17/outbox.cif.g08.bks.cpg/sg38_12_cif.got.tgz:22240.got - 2010.06.03 18:07:57.
