data_PCOD9356335
_publ_section_title
;
Structure prediction by ZEFSAII (Michael W. Deem and Ramdas Pophale) SiO2 
 PCOD9356335
Probable space group: A M M 2
;
_chemical_formula_sum "Si O2"
_cell_formula_units_Z 64
_cell_length_a 8.182415
_cell_length_b 25.821007
_cell_length_c 15.319005
_cell_angle_alpha 90.000000
_cell_angle_beta 90.000000
_cell_angle_gamma 90.000000
_cell_volume 3236.571725
_symmetry_space_group_name_H-M "A M M 2"
_symmetry_group_IT_number 38
_symmetry_cell_setting 'orthorhombic'
loop_
_space_group_symop_operation_xyz
x,y,z
-x,-y,z
-x,y,z
x,-y,z
x,1/2+y,1/2+z
-x,1/2-y,1/2+z
-x,1/2+y,1/2+z
x,1/2-y,1/2+z
loop_
_atom_site_type_symbol
_atom_site_label
_atom_site_fract_x
_atom_site_fract_y
_atom_site_fract_z
Si Si1 0.700301 0.442282 0.965360
Si Si2 0.807629 0.327879 0.266787
Si Si3 0.689863 0.864662 0.943572
Si Si4 0.300025 0.559988 0.596059
Si Si5 0.306311 0.899061 0.282565
Si Si6 0.692748 0.343449 0.074243
Si Si7 0.809624 0.770270 0.048491
Si Si8 0.805779 0.287212 0.754339
O O1 0.500000 0.441910 0.965745
O O2 0.752004 0.500000 0.991400
O O3 0.756174 0.429424 0.866892
O O4 0.753738 0.395344 0.027296
O O5 0.777668 0.362745 0.350749
O O6 0.722564 0.345798 0.178078
O O7 0.750938 0.268990 0.288068
O O8 0.000000 0.324018 0.246986
O O9 0.500000 0.875999 0.927858
O O10 0.755908 0.905330 0.014760
O O11 0.707675 0.808466 0.988375
O O12 0.500000 0.563108 0.596510
O O13 0.255454 0.500000 0.587815
O O14 0.240253 0.582496 0.688814
O O15 0.500000 0.908727 0.279781
O O16 0.277764 0.837841 0.292472
O O17 0.500000 0.338636 0.057821
O O18 0.773961 0.290572 0.039910
O O19 0.777018 0.784646 0.149830
O O20 0.000000 0.779797 0.029716
O O21 0.000000 0.292204 0.768991
#
# Coordination Sequence:
#
# PCOD9356335 Si02
#       8
#     8   8   8   8   8   8   8   8
#     4   9  19  35  56  84 114 144 185 236 288 333
#     4  10  22  39  56  78 112 154 188 230 293 351
#     4  11  21  34  56  86 114 146 192 240 279 330
#     4   9  18  33  54  82 115 148 185 230 281 332
#     4  10  18  31  55  84 112 146 182 223 271 328
#     4  10  20  36  58  84 111 144 192 244 284 332
#     4  10  20  35  54  78 115 155 184 223 282 342
#     4   9  19  34  51  75 109 148 183 217 269 330
#
# _framework density 19.774010000000001
#
# number of rings (size 3 to 8) (size 9 to 14) (size 15 to 20)
#    0.000    2.250    1.250    2.625    1.750    4.000 
#    0.000    1.250    0.000   11.250    0.000    0.000 
#    0.000    0.000    0.000    0.000    0.000    0.000 
#
# Total GULP energy -178657.415048 kJ/mol
# GULP energy per Si atom -5583.044220 kJ/mol
# Density = 1.972900 g / cm^3
# Si number density = 19.774010 Si / 1000 Ang^3
#
#
#
# Elastic Constant Matrix: (Units=GPa)
#
#
# Indices 1 2 3 4 5 6 
#
# 1 7.9985 -11.8385 -6.7605 0.0000 0.0000 0.0000
# 2 -11.8385 115.3606 47.8952 0.0000 0.0000 0.0000
# 3 -6.7605 47.8952 62.6845 0.0000 0.0000 0.0000
# 4 0.0000 0.0000 0.0000 28.6516 0.0000 0.0000
# 5 0.0000 0.0000 0.0000 0.0000 -1.3059 0.0000
# 6 0.0000 0.0000 0.0000 0.0000 0.0000 -24.1432
#
#
#
# Elastic Compliance Matrix: (Units=1/GPa)
#
#
# Indices 1 2 3 4 5 6 
#
# 1 0.149163 0.012637 0.006432 0.000000 0.000000 0.000000
# 2 0.012637 0.013767 -0.009156 0.000000 0.000000 0.000000
# 3 0.006432 -0.009156 0.023642 0.000000 0.000000 0.000000
# 4 0.000000 0.000000 0.000000 0.034902 0.000000 0.000000
# 5 0.000000 0.000000 0.000000 0.000000 -0.765756 0.000000
# 6 0.000000 0.000000 0.000000 0.000000 0.000000 -0.041419
#
#
# Mechanical properties :
#
#
# Convention : Reuss Voigt Hill
#
# Bulk Modulus (GPa) = 4.84502 27.18179 16.01340
# Shear Modulus (GPa) = -9.31570 11.09032 0.88731
#
# Velocity S-wave (km/s) = -2.17286 2.37080 0.67060
# Velocity P-wave (km/s) = 1.95948 4.61198 2.95218
#
# Compressibility (1/GPa) = 0.20639768
#
# Stress axis : x y z
#
# Youngs Moduli (GPa) = 6.70408 72.63991 42.29741
#
# Poissons Ratio (x) = -0.91795 -0.27204
# Poissons Ratio (y) = -0.08472 0.38726
# Poissons Ratio (z) = -0.04312 0.66507
#
# Static dielectric constant tensor:
#      x y z
#    x 1.686980 0.000000 0.000000 
#    y 0.000000 1.681140 0.000000 
#    z 0.000000 0.000000 1.694280 
# 
# From -- ./inp_files/12830.got.cif
#   From: 2010.05.17/outbox.cif.g08.bks.cpg/sg38_7_cif.got.tgz:12830.got - 2010.06.03 18:07:57.
