data_PCOD9356576
_publ_section_title
;
Structure prediction by ZEFSAII (Michael W. Deem and Ramdas Pophale) SiO2 
 PCOD9356576
Probable space group: A M M 2
;
_chemical_formula_sum "Si O2"
_cell_formula_units_Z 56
_cell_length_a 17.821278
_cell_length_b 9.086938
_cell_length_c 19.436292
_cell_angle_alpha 90.000000
_cell_angle_beta 90.000000
_cell_angle_gamma 90.000000
_cell_volume 3147.529614
_symmetry_space_group_name_H-M "A M M 2"
_symmetry_group_IT_number 38
_symmetry_cell_setting 'orthorhombic'
loop_
_space_group_symop_operation_xyz
x,y,z
-x,-y,z
-x,y,z
x,-y,z
x,1/2+y,1/2+z
-x,1/2-y,1/2+z
-x,1/2+y,1/2+z
x,1/2-y,1/2+z
loop_
_atom_site_type_symbol
_atom_site_label
_atom_site_fract_x
_atom_site_fract_y
_atom_site_fract_z
Si Si1 0.313135 0.673973 0.739930
Si Si2 0.182785 0.337016 0.843008
Si Si3 0.411086 0.825602 0.855721
Si Si4 0.692641 0.169201 0.463427
Si Si5 0.912651 0.175590 0.575671
Si Si6 0.241731 0.822804 0.098968
Si Si7 0.911959 0.161288 0.934379
O O1 0.332245 0.500000 0.744146
O O2 0.232163 0.691103 0.776347
O O3 0.371424 0.762168 0.787010
O O4 0.298516 0.715772 0.661252
O O5 0.148641 0.500000 0.838927
O O6 0.241924 0.335763 0.906009
O O7 0.124316 0.214873 0.864172
O O8 0.500000 0.801019 0.852902
O O9 0.375018 0.746718 0.922358
O O10 0.396333 0.000000 0.860160
O O11 0.723699 0.257242 0.528848
O O12 0.674919 0.000000 0.481930
O O13 0.841894 0.255913 0.611114
O O14 0.901371 0.223101 0.495949
O O15 0.000000 0.217217 0.593582
O O16 0.906167 0.000000 0.582995
O O17 0.236181 0.000000 0.096035
O O18 0.000000 0.150926 0.924978
O O19 0.882269 0.000000 0.955221
#
# Coordination Sequence:
#
# PCOD9356576 Si02
#       7
#     8   8   8   8   8   8   8
#     4   9  21  38  56  80 110 146 184 221 272 333
#     4   9  17  32  51  72 100 134 175 220 265 322
#     4  10  21  38  61  88 114 142 180 224 270 326
#     4  10  20  34  56  83 110 141 178 221 271 325
#     4  10  20  33  50  74 106 146 188 231 281 332
#     4  11  21  35  56  82 112 146 188 235 278 325
#     4  10  19  29  45  72 102 134 177 229 280 325
#
# _framework density 17.791730999999999
#
# number of rings (size 3 to 8) (size 9 to 14) (size 15 to 20)
#    0.000    2.143    1.429    3.000    0.000    6.286 
#    0.000    1.429    0.000    5.143    0.000    0.000 
#    0.000    0.000    0.000    0.000    0.000    0.000 
#
# Total GULP energy -156034.614152 kJ/mol
# GULP energy per Si atom -5572.664791 kJ/mol
# Density = 1.775124 g / cm^3
# Si number density = 17.791731 Si / 1000 Ang^3
#
#
#
# Elastic Constant Matrix: (Units=GPa)
#
#
# Indices 1 2 3 4 5 6 
#
# 1 77.4037 50.3481 28.9603 0.0000 0.0000 0.0000
# 2 50.3481 83.5282 33.4133 0.0000 0.0000 0.0000
# 3 28.9603 33.4133 79.6696 0.0000 0.0000 0.0000
# 4 0.0000 0.0000 0.0000 19.5971 0.0000 0.0000
# 5 0.0000 0.0000 0.0000 0.0000 19.7055 0.0000
# 6 0.0000 0.0000 0.0000 0.0000 0.0000 28.8988
#
#
#
# Elastic Compliance Matrix: (Units=1/GPa)
#
#
# Indices 1 2 3 4 5 6 
#
# 1 0.021795 -0.011978 -0.002899 0.000000 0.000000 0.000000
# 2 -0.011978 0.020968 -0.004440 0.000000 0.000000 0.000000
# 3 -0.002899 -0.004440 0.015468 0.000000 0.000000 0.000000
# 4 0.000000 0.000000 0.000000 0.051028 0.000000 0.000000
# 5 0.000000 0.000000 0.000000 0.000000 0.050747 0.000000
# 6 0.000000 0.000000 0.000000 0.000000 0.000000 0.034604
#
#
# Mechanical properties :
#
#
# Convention : Reuss Voigt Hill
#
# Bulk Modulus (GPa) = 51.02785 51.78275 51.40530
# Shear Modulus (GPa) = 20.85289 22.16561 21.50925
#
# Velocity S-wave (km/s) = 3.42724 3.53347 3.48076
# Velocity P-wave (km/s) = 6.66365 6.76870 6.71638
#
# Compressibility (1/GPa) = 0.01959714
#
# Stress axis : x y z
#
# Youngs Moduli (GPa) = 45.88230 47.69230 64.65038
#
# Poissons Ratio (x) = 0.57123 0.18743
# Poissons Ratio (y) = 0.54956 0.28704
# Poissons Ratio (z) = 0.13302 0.21175
#
# Static dielectric constant tensor:
#      x y z
#    x 1.617840 0.000000 0.000000 
#    y 0.000000 1.621970 0.000000 
#    z 0.000000 0.000000 1.596160 
# 
# From -- ./inp_files/21305.got.cif
#   From: 2010.05.17/outbox.cif.g08.bks.cpg/sg38_11_cif.got.tgz:21305.got - 2010.06.03 18:07:57.
