data_PCOD9356667
_publ_section_title
;
Structure prediction by ZEFSAII (Michael W. Deem and Ramdas Pophale) SiO2 
 PCOD9356667
Probable space group: A M M 2
;
_chemical_formula_sum "Si O2"
_cell_formula_units_Z 64
_cell_length_a 8.998982
_cell_length_b 14.641484
_cell_length_c 28.875042
_cell_angle_alpha 90.000000
_cell_angle_beta 90.000000
_cell_angle_gamma 90.000000
_cell_volume 3804.530806
_symmetry_space_group_name_H-M "A M M 2"
_symmetry_group_IT_number 38
_symmetry_cell_setting 'orthorhombic'
loop_
_space_group_symop_operation_xyz
x,y,z
-x,-y,z
-x,y,z
x,-y,z
x,1/2+y,1/2+z
-x,1/2-y,1/2+z
-x,1/2+y,1/2+z
x,1/2-y,1/2+z
loop_
_atom_site_type_symbol
_atom_site_label
_atom_site_fract_x
_atom_site_fract_y
_atom_site_fract_z
Si Si1 0.825200 0.609068 0.157090
Si Si2 0.178638 0.395884 0.426659
Si Si3 0.676919 0.223367 0.739079
Si Si4 0.326027 0.608727 0.599618
Si Si5 0.178371 0.606386 0.318903
Si Si6 0.176959 0.393080 0.697119
Si Si7 0.322106 0.105051 0.558356
Si Si8 0.321785 0.282193 0.507221
O O1 0.808870 0.500000 0.164967
O O2 0.737462 0.664279 0.195829
O O3 0.760544 0.628189 0.106150
O O4 0.000000 0.631314 0.159429
O O5 0.226806 0.500000 0.437911
O O6 0.216093 0.378213 0.372884
O O7 0.247437 0.325475 0.462484
O O8 0.000000 0.393550 0.429968
O O9 0.500000 0.225567 0.738780
O O10 0.738090 0.174016 0.784802
O O11 0.742885 0.324409 0.731902
O O12 0.500000 0.630602 0.608735
O O13 0.314858 0.500000 0.591619
O O14 0.232084 0.630837 0.645202
O O15 0.279399 0.661195 0.553422
O O16 0.212744 0.500000 0.307981
O O17 0.000000 0.616988 0.313535
O O18 0.214018 0.500000 0.704729
O O19 0.000000 0.382480 0.700027
O O20 0.500000 0.112276 0.566525
O O21 0.283063 0.177599 0.518875
O O22 0.288295 0.000000 0.546475
O O23 0.500000 0.289491 0.502476
#
# Coordination Sequence:
#
# PCOD9356667 Si02
#       8
#     8   8   8   8   8   8   8   8
#     4  10  20  33  50  74 104 136 170 209 251 296
#     4   9  19  35  54  76 101 128 158 198 250 301
#     4  12  23  33  51  77 103 133 168 205 248 300
#     4   9  17  29  45  69 102 134 164 203 250 297
#     4   9  19  37  57  76 101 130 160 200 251 303
#     4  10  21  36  53  73  99 134 174 213 251 291
#     4   9  18  32  48  69 101 138 173 209 248 290
#     4  10  19  30  48  73  99 131 169 205 245 294
#
# _framework density 16.822047999999999
#
# number of rings (size 3 to 8) (size 9 to 14) (size 15 to 20)
#    0.000    2.250    0.000    4.125    0.000    6.500 
#    0.000    2.500    0.000    0.750    0.000    3.500 
#    0.000    0.000    0.000    0.000    0.000    0.000 
#
# Total GULP energy -178653.466424 kJ/mol
# GULP energy per Si atom -5582.920826 kJ/mol
# Density = 1.678376 g / cm^3
# Si number density = 16.822048 Si / 1000 Ang^3
#
#
#
# Elastic Constant Matrix: (Units=GPa)
#
#
# Indices 1 2 3 4 5 6 
#
# 1 63.7837 57.8553 55.6778 0.0000 0.0000 0.0000
# 2 57.8553 103.1439 86.0683 0.0000 0.0000 0.0000
# 3 55.6778 86.0683 103.8582 0.0000 0.0000 0.0000
# 4 0.0000 0.0000 0.0000 32.7178 0.0000 0.0000
# 5 0.0000 0.0000 0.0000 0.0000 35.2668 0.0000
# 6 0.0000 0.0000 0.0000 0.0000 0.0000 23.6650
#
#
#
# Elastic Compliance Matrix: (Units=1/GPa)
#
#
# Indices 1 2 3 4 5 6 
#
# 1 0.033758 -0.012429 -0.007798 0.000000 0.000000 0.000000
# 2 -0.012429 0.036005 -0.023174 0.000000 0.000000 0.000000
# 3 -0.007798 -0.023174 0.033014 0.000000 0.000000 0.000000
# 4 0.000000 0.000000 0.000000 0.030564 0.000000 0.000000
# 5 0.000000 0.000000 0.000000 0.000000 0.028355 0.000000
# 6 0.000000 0.000000 0.000000 0.000000 0.000000 0.042256
#
#
# Mechanical properties :
#
#
# Convention : Reuss Voigt Hill
#
# Bulk Modulus (GPa) = 62.59883 74.44318 68.52101
# Shear Modulus (GPa) = 16.88735 23.07555 19.98145
#
# Velocity S-wave (km/s) = 3.17185 3.70772 3.45021
# Velocity P-wave (km/s) = 7.12091 7.91701 7.52949
#
# Compressibility (1/GPa) = 0.01597474
#
# Stress axis : x y z
#
# Youngs Moduli (GPa) = 29.62220 27.77425 30.29055
#
# Poissons Ratio (x) = 0.34520 0.23620
# Poissons Ratio (y) = 0.36817 0.70196
# Poissons Ratio (z) = 0.23099 0.64365
#
# Static dielectric constant tensor:
#      x y z
#    x 1.562140 0.000000 0.000000 
#    y 0.000000 1.587070 0.000000 
#    z 0.000000 0.000000 1.535140 
# 
# From -- ./inp_files/24772.got.cif
#   From: 2010.05.17/outbox.cif.g08.bks.cpg/sg38_13_cif.got.tgz:24772.got - 2010.06.03 18:07:57.
