data_PCOD9356926
_publ_section_title
;
Structure prediction by ZEFSAII (Michael W. Deem and Ramdas Pophale) SiO2 
 PCOD9356926
Probable space group: A M M 2
;
_chemical_formula_sum "Si O2"
_cell_formula_units_Z 38
_cell_length_a 24.438052
_cell_length_b 13.890583
_cell_length_c 5.095144
_cell_angle_alpha 90.000000
_cell_angle_beta 90.000000
_cell_angle_gamma 90.000000
_cell_volume 1729.591415
_symmetry_space_group_name_H-M "A M M 2"
_symmetry_group_IT_number 38
_symmetry_cell_setting 'orthorhombic'
loop_
_space_group_symop_operation_xyz
x,y,z
-x,-y,z
-x,y,z
x,-y,z
x,1/2+y,1/2+z
-x,1/2-y,1/2+z
-x,1/2+y,1/2+z
x,1/2-y,1/2+z
loop_
_atom_site_type_symbol
_atom_site_label
_atom_site_fract_x
_atom_site_fract_y
_atom_site_fract_z
Si Si1 0.767709 0.885256 0.958810
Si Si2 0.580131 0.185097 0.558708
Si Si3 0.500000 0.500000 0.023664
Si Si4 0.000000 0.682786 0.485252
Si Si5 0.297604 0.883324 0.461820
Si Si6 0.114089 0.188390 0.116377
O O1 0.749051 0.853916 0.670447
O O2 0.766253 0.000000 0.955795
O O3 0.722718 0.855360 0.173336
O O4 0.828205 0.857588 0.046753
O O5 0.567447 0.262121 0.331308
O O6 0.547070 0.086090 0.526876
O O7 0.644324 0.160193 0.537332
O O8 0.058044 0.632692 0.542863
O O9 0.000000 0.771749 0.695390
O O10 0.302551 0.000000 0.469303
O O11 0.112126 0.219588 0.419141
#
# Coordination Sequence:
#
# PCOD9356926 Si02
#       6
#     8   8   2   4   8   8
#     4  10  21  35  58  84 121 157 196 239 317 367
#     4  12  27  46  74 104 130 175 224 260 319 390
#     4  12  28  54  72 100 148 170 212 276 324 356
#     4   8  16  30  47  70 103 144 190 240 302 352
#     4  10  21  41  60  87 125 165 193 257 315 365
#     4  10  19  32  52  77 107 147 195 248 295 355
#
# _framework density 21.970507000000001
#
# number of rings (size 3 to 8) (size 9 to 14) (size 15 to 20)
#    0.000    1.684    1.053    3.158    0.000    6.737 
#    0.000    0.526    0.000    0.000    0.000   13.263 
#    0.000    0.000    0.000    0.000    0.000    0.000 
#
# Total GULP energy -105918.092095 kJ/mol
# GULP energy per Si atom -5574.636426 kJ/mol
# Density = 2.192050 g / cm^3
# Si number density = 21.970507 Si / 1000 Ang^3
#
#
#
# Elastic Constant Matrix: (Units=GPa)
#
#
# Indices 1 2 3 4 5 6 
#
# 1 142.1106 13.3662 -11.3392 0.0000 0.0000 0.0000
# 2 13.3662 87.5065 -15.4758 0.0000 0.0000 0.0000
# 3 -11.3392 -15.4758 72.3045 0.0000 0.0000 0.0000
# 4 0.0000 0.0000 0.0000 7.0074 0.0000 0.0000
# 5 0.0000 0.0000 0.0000 0.0000 969.4108 0.0000
# 6 0.0000 0.0000 0.0000 0.0000 0.0000 -9.6219
#
#
#
# Elastic Compliance Matrix: (Units=1/GPa)
#
#
# Indices 1 2 3 4 5 6 
#
# 1 0.007199 -0.000935 0.000929 0.000000 0.000000 0.000000
# 2 -0.000935 0.011999 0.002422 0.000000 0.000000 0.000000
# 3 0.000929 0.002422 0.014494 0.000000 0.000000 0.000000
# 4 0.000000 0.000000 0.000000 0.142707 0.000000 0.000000
# 5 0.000000 0.000000 0.000000 0.000000 0.001032 0.000000
# 6 0.000000 0.000000 0.000000 0.000000 0.000000 -0.103929
#
#
# Mechanical properties :
#
#
# Convention : Reuss Voigt Hill
#
# Bulk Modulus (GPa) = 25.95925 30.55822 28.25874
# Shear Modulus (GPa) = 61.34072 214.38394 137.86233
#
# Velocity S-wave (km/s) = 5.28963 9.88888 7.93001
# Velocity P-wave (km/s) = 7.01057 12.01355 9.83548
#
# Compressibility (1/GPa) = 0.03852192
#
# Stress axis : x y z
#
# Youngs Moduli (GPa) = 138.91104 83.34138 68.99244
#
# Poissons Ratio (x) = 0.07795 -0.06408
# Poissons Ratio (y) = 0.12993 -0.16707
# Poissons Ratio (z) = -0.12902 -0.20181
#
# Static dielectric constant tensor:
#      x y z
#    x 1.669610 0.000000 0.000000 
#    y 0.000000 1.788560 0.000000 
#    z 0.000000 0.000000 1.783140 
# 
# From -- ./inp_files/2071.got.cif
#   From: 2010.05.17/outbox.cif.g08.bks.cpg/sg38_2_cif.got.tgz:2071.got - 2010.06.03 18:07:57.
