data_PCOD9356562
_publ_section_title
;
Structure prediction by ZEFSAII (Michael W. Deem and Ramdas Pophale) SiO2 
 PCOD9356562
Probable space group: A M M 2
;
_chemical_formula_sum "Si O2"
_cell_formula_units_Z 48
_cell_length_a 7.596007
_cell_length_b 24.728439
_cell_length_c 14.275691
_cell_angle_alpha 90.000000
_cell_angle_beta 90.000000
_cell_angle_gamma 90.000000
_cell_volume 2681.508620
_symmetry_space_group_name_H-M "A M M 2"
_symmetry_group_IT_number 38
_symmetry_cell_setting 'orthorhombic'
loop_
_space_group_symop_operation_xyz
x,y,z
-x,-y,z
-x,y,z
x,-y,z
x,1/2+y,1/2+z
-x,1/2-y,1/2+z
-x,1/2+y,1/2+z
x,1/2-y,1/2+z
loop_
_atom_site_type_symbol
_atom_site_label
_atom_site_fract_x
_atom_site_fract_y
_atom_site_fract_z
Si Si1 0.206073 0.780583 0.259030
Si Si2 0.709742 0.560437 0.246282
Si Si3 0.708821 0.829925 0.656778
Si Si4 0.787613 0.227139 0.467415
Si Si5 0.215980 0.334966 0.573164
Si Si6 0.212582 0.939601 0.964489
O O1 0.217509 0.719549 0.218728
O O2 0.281467 0.784129 0.363350
O O3 0.278605 0.818990 0.177030
O O4 0.000000 0.794185 0.266953
O O5 0.500000 0.558095 0.229959
O O6 0.781027 0.500000 0.225867
O O7 0.779152 0.611680 0.188489
O O8 0.738435 0.571015 0.356570
O O9 0.500000 0.829421 0.672868
O O10 0.741593 0.815408 0.548447
O O11 0.729328 0.285826 0.505243
O O12 0.000000 0.229372 0.462806
O O13 0.275136 0.391913 0.531802
O O14 0.000000 0.334880 0.574496
O O15 0.000000 0.939918 0.968688
O O16 0.275299 0.000000 0.988671
#
# Coordination Sequence:
#
# PCOD9356562 Si02
#       6
#     8   8   8   8   8   8
#     4   9  17  30  47  64  86 118 148 173 209 259
#     4   9  18  31  44  60  85 115 142 170 212 261
#     4  10  19  29  44  66  89 112 141 180 219 253
#     4   9  17  29  45  62  83 114 147 177 212 258
#     4   8  14  25  41  62  85 108 137 172 210 250
#     4   9  16  26  43  66  88 111 141 176 210 247
#
# _framework density 17.900369999999999
#
# number of rings (size 3 to 8) (size 9 to 14) (size 15 to 20)
#    0.000    3.000    0.000    2.500    0.000    3.333 
#    0.000    5.000    0.000    1.000    0.000    2.333 
#    0.000    0.000    0.000    0.000    0.000    0.000 
#
# Total GULP energy -133764.589811 kJ/mol
# GULP energy per Si atom -5573.524575 kJ/mol
# Density = 1.785963 g / cm^3
# Si number density = 17.900370 Si / 1000 Ang^3
#
#
#
# Elastic Constant Matrix: (Units=GPa)
#
#
# Indices 1 2 3 4 5 6 
#
# 1 35.0515 -2.4383 -6.6624 0.0000 0.0000 0.0000
# 2 -2.4383 160.6150 100.6742 0.0000 0.0000 0.0000
# 3 -6.6624 100.6742 137.5719 0.0000 0.0000 0.0000
# 4 0.0000 0.0000 0.0000 24.2968 0.0000 0.0000
# 5 0.0000 0.0000 0.0000 0.0000 22.5754 0.0000
# 6 0.0000 0.0000 0.0000 0.0000 0.0000 10.1238
#
#
#
# Elastic Compliance Matrix: (Units=1/GPa)
#
#
# Indices 1 2 3 4 5 6 
#
# 1 0.028851 -0.000809 0.001989 0.000000 0.000000 0.000000
# 2 -0.000809 0.011525 -0.008473 0.000000 0.000000 0.000000
# 3 0.001989 -0.008473 0.013566 0.000000 0.000000 0.000000
# 4 0.000000 0.000000 0.000000 0.041158 0.000000 0.000000
# 5 0.000000 0.000000 0.000000 0.000000 0.044296 0.000000
# 6 0.000000 0.000000 0.000000 0.000000 0.000000 0.098778
#
#
# Mechanical properties :
#
#
# Convention : Reuss Voigt Hill
#
# Bulk Modulus (GPa) = 25.40874 57.37613 41.39244
# Shear Modulus (GPa) = 18.80573 27.51019 23.15796
#
# Velocity S-wave (km/s) = 3.24478 3.92452 3.60073
# Velocity P-wave (km/s) = 5.31634 7.25661 6.36089
#
# Compressibility (1/GPa) = 0.03935653
#
# Stress axis : x y z
#
# Youngs Moduli (GPa) = 34.66048 86.77128 73.71610
#
# Poissons Ratio (x) = 0.07018 -0.14663
# Poissons Ratio (y) = 0.02803 0.62458
# Poissons Ratio (z) = -0.06894 0.73519
#
# Static dielectric constant tensor:
#      x y z
#    x 1.647110 0.000000 0.000000 
#    y 0.000000 1.618120 0.000000 
#    z 0.000000 0.000000 1.606120 
# 
# From -- ./inp_files/9312.got.cif
#   From: 2010.05.17/outbox.cif.g08.bks.cpg/sg38_5_cif.got.tgz:9312.got - 2010.06.03 18:07:57.
