data_PCOD9356099
_publ_section_title
;
Structure prediction by ZEFSAII (Michael W. Deem and Ramdas Pophale) SiO2 
 PCOD9356099
Probable space group: A M M 2
;
_chemical_formula_sum "Si O2"
_cell_formula_units_Z 64
_cell_length_a 8.622948
_cell_length_b 29.063831
_cell_length_c 14.927449
_cell_angle_alpha 90.000000
_cell_angle_beta 90.000000
_cell_angle_gamma 90.000000
_cell_volume 3741.056116
_symmetry_space_group_name_H-M "A M M 2"
_symmetry_group_IT_number 38
_symmetry_cell_setting 'orthorhombic'
loop_
_space_group_symop_operation_xyz
x,y,z
-x,-y,z
-x,y,z
x,-y,z
x,1/2+y,1/2+z
-x,1/2-y,1/2+z
-x,1/2+y,1/2+z
x,1/2-y,1/2+z
loop_
_atom_site_type_symbol
_atom_site_label
_atom_site_fract_x
_atom_site_fract_y
_atom_site_fract_z
Si Si1 0.812970 0.946993 0.276070
Si Si2 0.812256 0.864306 0.604620
Si Si3 0.685573 0.365218 0.658537
Si Si4 0.189002 0.947533 0.480458
Si Si5 0.185790 0.278334 0.982435
Si Si6 0.686457 0.678068 0.479383
Si Si7 0.686019 0.820479 0.775385
Si Si8 0.814725 0.719289 0.772817
O O1 0.748738 0.910670 0.206005
O O2 0.764361 0.935449 0.378461
O O3 0.000000 0.944963 0.274251
O O4 0.767406 0.000000 0.258538
O O5 0.760110 0.910081 0.552630
O O6 0.764382 0.820135 0.545196
O O7 0.746427 0.856713 0.703247
O O8 0.000000 0.864607 0.608384
O O9 0.500000 0.366703 0.659335
O O10 0.739517 0.356921 0.556201
O O11 0.741104 0.320882 0.714490
O O12 0.000000 0.947228 0.480585
O O13 0.237895 0.000000 0.499147
O O14 0.260948 0.229511 0.005135
O O15 0.000000 0.273546 0.990438
O O16 0.220052 0.288718 0.878174
O O17 0.500000 0.677345 0.478012
O O18 0.739512 0.669516 0.377404
O O19 0.500000 0.818775 0.774036
O O20 0.751046 0.769950 0.750584
O O21 0.000000 0.718975 0.760962
#
# Coordination Sequence:
#
# PCOD9356099 Si02
#       8
#     8   8   8   8   8   8   8   8
#     4   9  18  34  55  77 100 126 155 189 234 287
#     4  10  18  29  48  73  96 122 159 196 234 284
#     4  11  21  32  49  73  98 127 163 199 238 283
#     4   8  15  30  52  75  99 126 155 190 235 287
#     4   9  18  30  46  69  97 126 156 193 235 282
#     4   9  20  35  47  62  91 129 164 196 232 278
#     4  10  20  34  48  65  94 130 165 201 240 279
#     4  10  19  32  49  71  99 129 161 196 236 283
#
# _framework density 17.107468000000001
#
# number of rings (size 3 to 8) (size 9 to 14) (size 15 to 20)
#    0.000    2.500    0.000    3.375    0.000    6.750 
#    0.000    1.875    0.000    1.875    0.000    3.500 
#    0.000    0.000    0.000    0.000    0.000    0.000 
#
# Total GULP energy -178527.910278 kJ/mol
# GULP energy per Si atom -5578.997196 kJ/mol
# Density = 1.706853 g / cm^3
# Si number density = 17.107468 Si / 1000 Ang^3
#
#
#
# Elastic Constant Matrix: (Units=GPa)
#
#
# Indices 1 2 3 4 5 6 
#
# 1 12.5795 22.3526 24.2073 0.0000 0.0000 0.0000
# 2 22.3526 112.5975 97.6853 0.0000 0.0000 0.0000
# 3 24.2073 97.6853 118.5861 0.0000 0.0000 0.0000
# 4 0.0000 0.0000 0.0000 33.2748 0.0000 0.0000
# 5 0.0000 0.0000 0.0000 0.0000 22.4572 0.0000
# 6 0.0000 0.0000 0.0000 0.0000 0.0000 -6.4151
#
#
#
# Elastic Compliance Matrix: (Units=1/GPa)
#
#
# Indices 1 2 3 4 5 6 
#
# 1 0.134104 -0.010067 -0.019083 0.000000 0.000000 0.000000
# 2 -0.010067 0.031880 -0.024206 0.000000 0.000000 0.000000
# 3 -0.019083 -0.024206 0.032268 0.000000 0.000000 0.000000
# 4 0.000000 0.000000 0.000000 0.030053 0.000000 0.000000
# 5 0.000000 0.000000 0.000000 0.000000 0.044529 0.000000
# 6 0.000000 0.000000 0.000000 0.000000 0.000000 -0.155881
#
#
# Mechanical properties :
#
#
# Convention : Reuss Voigt Hill
#
# Bulk Modulus (GPa) = 10.92408 59.13928 35.03168
# Shear Modulus (GPa) = 19.67132 16.49790 18.08461
#
# Velocity S-wave (km/s) = 3.39465 3.10880 3.25486
# Velocity P-wave (km/s) = 4.66522 6.89424 5.88620
#
# Compressibility (1/GPa) = 0.09154091
#
# Stress axis : x y z
#
# Youngs Moduli (GPa) = 7.45690 31.36763 30.99046
#
# Poissons Ratio (x) = 0.31577 0.59138
# Poissons Ratio (y) = 0.07507 0.75016
# Poissons Ratio (z) = 0.14230 0.75929
#
# Static dielectric constant tensor:
#      x y z
#    x 1.581200 0.000000 0.000000 
#    y 0.000000 1.555280 0.000000 
#    z 0.000000 0.000000 1.601910 
# 
# From -- ./inp_files/13084.got.cif
#   From: 2010.05.17/outbox.cif.g08.bks.cpg/sg38_7_cif.got.tgz:13084.got - 2010.06.03 18:07:57.
