data_PCOD9356586
_publ_section_title
;
Structure prediction by ZEFSAII (Michael W. Deem and Ramdas Pophale) SiO2 
 PCOD9356586
Probable space group: A M M 2
;
_chemical_formula_sum "Si O2"
_cell_formula_units_Z 34
_cell_length_a 7.703880
_cell_length_b 23.710212
_cell_length_c 6.681241
_cell_angle_alpha 90.000000
_cell_angle_beta 90.000000
_cell_angle_gamma 90.000000
_cell_volume 1220.399677
_symmetry_space_group_name_H-M "A M M 2"
_symmetry_group_IT_number 38
_symmetry_cell_setting 'orthorhombic'
loop_
_space_group_symop_operation_xyz
x,y,z
-x,-y,z
-x,y,z
x,-y,z
x,1/2+y,1/2+z
-x,1/2-y,1/2+z
-x,1/2+y,1/2+z
x,1/2-y,1/2+z
loop_
_atom_site_type_symbol
_atom_site_label
_atom_site_fract_x
_atom_site_fract_y
_atom_site_fract_z
Si Si1 0.000000 0.000000 0.081860
Si Si2 0.700111 0.412791 0.476055
Si Si3 0.302928 0.698056 0.292609
Si Si4 0.805524 0.177383 0.368283
Si Si5 0.213353 0.436428 0.010050
O O1 0.848992 0.048959 0.068007
O O2 0.500000 0.425037 0.526226
O O3 0.732216 0.344272 0.477606
O O4 0.721768 0.426858 0.236057
O O5 0.500000 0.684973 0.232417
O O6 0.291594 0.764629 0.324047
O O7 0.179990 0.683134 0.111198
O O8 0.724852 0.114545 0.367329
O O9 0.000000 0.179147 0.285054
O O10 0.263379 0.500000 0.953329
O O11 0.000000 0.435641 0.009912
#
# Coordination Sequence:
#
# PCOD9356586 Si02
#       5
#     2   8   8   8   8
#     4  12  18  28  48  70 108 134 176 220 272 316
#     4  10  19  29  47  73 105 139 172 216 274 323
#     4  10  21  36  52  78 111 144 182 224 273 326
#     4  10  20  32  55  80 108 142 181 223 274 325
#     4   9  15  28  47  74 104 135 171 222 270 316
#
# _framework density 27.859724
#
# number of rings (size 3 to 8) (size 9 to 14) (size 15 to 20)
#    0.000    2.118    2.353    1.765    3.294    0.941 
#    0.000    0.000    0.000    0.000    3.059    0.000 
#    0.000    0.000    0.000    0.000    0.000    0.000 
#
# Total GULP energy -94930.290315 kJ/mol
# GULP energy per Si atom -5584.134724 kJ/mol
# Density = 2.779631 g / cm^3
# Si number density = 27.859724 Si / 1000 Ang^3
#
#
#
# Elastic Constant Matrix: (Units=GPa)
#
#
# Indices 1 2 3 4 5 6 
#
# 1 208.3622 72.2118 37.7046 0.0000 0.0000 0.0000
# 2 72.2118 286.2388 28.1323 0.0000 0.0000 0.0000
# 3 37.7046 28.1323 31.0462 0.0000 0.0000 0.0000
# 4 0.0000 0.0000 0.0000 43.0723 0.0000 0.0000
# 5 0.0000 0.0000 0.0000 0.0000 33.1177 0.0000
# 6 0.0000 0.0000 0.0000 0.0000 0.0000 42.2529
#
#
#
# Elastic Compliance Matrix: (Units=1/GPa)
#
#
# Indices 1 2 3 4 5 6 
#
# 1 0.006369 -0.000929 -0.006892 0.000000 0.000000 0.000000
# 2 -0.000929 0.003971 -0.002469 0.000000 0.000000 0.000000
# 3 -0.006892 -0.002469 0.042818 0.000000 0.000000 0.000000
# 4 0.000000 0.000000 0.000000 0.023217 0.000000 0.000000
# 5 0.000000 0.000000 0.000000 0.000000 0.030195 0.000000
# 6 0.000000 0.000000 0.000000 0.000000 0.000000 0.023667
#
#
# Mechanical properties :
#
#
# Convention : Reuss Voigt Hill
#
# Bulk Modulus (GPa) = 30.69805 89.08274 59.89040
# Shear Modulus (GPa) = 30.92572 49.52847 40.22710
#
# Velocity S-wave (km/s) = 3.33536 4.22095 3.80401
# Velocity P-wave (km/s) = 5.08680 7.46994 6.39045
#
# Compressibility (1/GPa) = 0.03257536
#
# Stress axis : x y z
#
# Youngs Moduli (GPa) = 157.01979 251.84314 23.35446
#
# Poissons Ratio (x) = 0.23403 0.16097
# Poissons Ratio (y) = 0.14591 0.05767
# Poissons Ratio (z) = 1.08225 0.62192
#
# Static dielectric constant tensor:
#      x y z
#    x 2.433260 0.000000 0.000000 
#    y 0.000000 2.252480 0.000000 
#    z 0.000000 0.000000 2.396820 
# 
# From -- ./inp_files/3150.got.cif
#   From: 2010.05.17/outbox.cif.g08.bks.cpg/sg38_2_cif.got.tgz:3150.got - 2010.06.03 18:07:57.
