data_PCOD9356392
_publ_section_title
;
Structure prediction by ZEFSAII (Michael W. Deem and Ramdas Pophale) SiO2 
 PCOD9356392
Probable space group: A M M 2
;
_chemical_formula_sum "Si O2"
_cell_formula_units_Z 56
_cell_length_a 7.713252
_cell_length_b 22.555873
_cell_length_c 14.020750
_cell_angle_alpha 90.000000
_cell_angle_beta 90.000000
_cell_angle_gamma 90.000000
_cell_volume 2439.317922
_symmetry_space_group_name_H-M "A M M 2"
_symmetry_group_IT_number 38
_symmetry_cell_setting 'orthorhombic'
loop_
_space_group_symop_operation_xyz
x,y,z
-x,-y,z
-x,y,z
x,-y,z
x,1/2+y,1/2+z
-x,1/2-y,1/2+z
-x,1/2+y,1/2+z
x,1/2-y,1/2+z
loop_
_atom_site_type_symbol
_atom_site_label
_atom_site_fract_x
_atom_site_fract_y
_atom_site_fract_z
Si Si1 0.300014 0.437017 0.739140
Si Si2 0.696872 0.206640 0.675735
Si Si3 0.211390 0.500000 0.005109
Si Si4 0.788599 0.618908 0.334084
Si Si5 0.291909 0.186778 0.295670
Si Si6 0.203523 0.863390 0.486166
Si Si7 0.794776 0.432967 0.524651
Si Si8 0.789987 0.000000 0.726630
O O1 0.500000 0.438131 0.770763
O O2 0.218320 0.500000 0.765972
O O3 0.215010 0.377970 0.775232
O O4 0.298673 0.431774 0.624926
O O5 0.500000 0.218064 0.645505
O O6 0.704365 0.170596 0.774608
O O7 0.778819 0.267864 0.715790
O O8 0.770658 0.164565 0.592248
O O9 0.271218 0.432488 0.973250
O O10 0.260820 0.500000 0.116861
O O11 0.000000 0.500000 0.996929
O O12 0.738645 0.612732 0.444230
O O13 0.735373 0.558829 0.280740
O O14 0.000000 0.624019 0.329679
O O15 0.500000 0.187543 0.280771
O O16 0.267497 0.186319 0.410108
O O17 0.000000 0.868642 0.473300
O O18 0.775543 0.500000 0.485159
O O19 0.000000 0.424974 0.542595
O O20 0.000000 0.000000 0.728281
#
# Coordination Sequence:
#
# PCOD9356392 Si02
#       8
#     8   8   4   8   8   8   8   4
#     4   9  19  37  59  81 109 147 193 244 297 356
#     4  11  24  41  59  84 123 164 200 243 299 361
#     4   9  18  34  60  93 124 155 191 252 320 360
#     4  10  18  32  56  84 116 157 201 247 298 354
#     4  10  24  44  62  84 118 160 200 246 304 362
#     4  11  23  41  67  95 123 157 204 255 307 365
#     4   9  17  30  52  82 114 147 185 233 290 345
#     4   9  14  28  54  81 116 153 187 242 310 358
#
# _framework density 22.957238
#
# number of rings (size 3 to 8) (size 9 to 14) (size 15 to 20)
#    0.000    2.143    2.143    0.857    1.000    3.429 
#    0.000    6.429    0.000    0.000    0.000    0.000 
#    0.000    0.000    0.000    0.000    0.000    0.000 
#
# Total GULP energy -156013.617730 kJ/mol
# GULP energy per Si atom -5571.914919 kJ/mol
# Density = 2.290499 g / cm^3
# Si number density = 22.957238 Si / 1000 Ang^3
#
#
#
# Elastic Constant Matrix: (Units=GPa)
#
#
# Indices 1 2 3 4 5 6 
#
# 1 47.6994 7.6819 7.7078 0.0000 0.0000 0.0000
# 2 7.6819 96.9374 26.2238 0.0000 0.0000 0.0000
# 3 7.7078 26.2238 67.9986 0.0000 0.0000 0.0000
# 4 0.0000 0.0000 0.0000 28.2323 0.0000 0.0000
# 5 0.0000 0.0000 0.0000 0.0000 28.9492 0.0000
# 6 0.0000 0.0000 0.0000 0.0000 0.0000 7.0672
#
#
#
# Elastic Compliance Matrix: (Units=1/GPa)
#
#
# Indices 1 2 3 4 5 6 
#
# 1 0.021473 -0.001165 -0.001985 0.000000 0.000000 0.000000
# 2 -0.001165 0.011581 -0.004334 0.000000 0.000000 0.000000
# 3 -0.001985 -0.004334 0.016603 0.000000 0.000000 0.000000
# 4 0.000000 0.000000 0.000000 0.035420 0.000000 0.000000
# 5 0.000000 0.000000 0.000000 0.000000 0.034543 0.000000
# 6 0.000000 0.000000 0.000000 0.000000 0.000000 0.141498
#
#
# Mechanical properties :
#
#
# Convention : Reuss Voigt Hill
#
# Bulk Modulus (GPa) = 28.82761 32.87360 30.85060
# Shear Modulus (GPa) = 17.38234 24.25121 20.81677
#
# Velocity S-wave (km/s) = 2.75464 3.25370 3.01452
# Velocity P-wave (km/s) = 4.76464 5.33536 5.05805
#
# Compressibility (1/GPa) = 0.03468897
#
# Stress axis : x y z
#
# Youngs Moduli (GPa) = 46.57031 86.35048 60.23140
#
# Poissons Ratio (x) = 0.10057 0.11955
# Poissons Ratio (y) = 0.05424 0.26105
# Poissons Ratio (z) = 0.09244 0.37425
#
# Static dielectric constant tensor:
#      x y z
#    x 1.868720 0.000000 0.000000 
#    y 0.000000 1.952380 0.000000 
#    z 0.000000 0.000000 1.890170 
# 
# From -- ./inp_files/12505.got.cif
#   From: 2010.05.17/outbox.cif.g08.bks.cpg/sg38_7_cif.got.tgz:12505.got - 2010.06.03 18:07:57.
