data_PCOD9356428
_publ_section_title
;
Structure prediction by ZEFSAII (Michael W. Deem and Ramdas Pophale) SiO2 
 PCOD9356428
Probable space group: A M M 2
;
_chemical_formula_sum "Si O2"
_cell_formula_units_Z 40
_cell_length_a 7.513945
_cell_length_b 10.605061
_cell_length_c 23.851323
_cell_angle_alpha 90.000000
_cell_angle_beta 90.000000
_cell_angle_gamma 90.000000
_cell_volume 1900.612829
_symmetry_space_group_name_H-M "A M M 2"
_symmetry_group_IT_number 38
_symmetry_cell_setting 'orthorhombic'
loop_
_space_group_symop_operation_xyz
x,y,z
-x,-y,z
-x,y,z
x,-y,z
x,1/2+y,1/2+z
-x,1/2-y,1/2+z
-x,1/2+y,1/2+z
x,1/2-y,1/2+z
loop_
_atom_site_type_symbol
_atom_site_label
_atom_site_fract_x
_atom_site_fract_y
_atom_site_fract_z
Si Si1 0.290331 0.000000 0.495090
Si Si2 0.789932 0.233469 0.939707
Si Si3 0.782422 0.000000 0.143684
Si Si4 0.218035 0.261307 0.198316
Si Si5 0.218350 0.500000 0.514550
Si Si6 0.217184 0.147107 0.819810
Si Si7 0.788288 0.000000 0.626812
O O1 0.229485 0.872306 0.464774
O O2 0.239366 0.000000 0.560463
O O3 0.500000 0.000000 0.492329
O O4 0.720286 0.214781 0.876615
O O5 0.000000 0.208183 0.935633
O O6 0.721175 0.124865 0.981420
O O7 0.724734 0.873389 0.174957
O O8 0.725076 0.000000 0.079002
O O9 0.000000 0.000000 0.143611
O O10 0.275370 0.290369 0.261693
O O11 0.278510 0.374225 0.157526
O O12 0.000000 0.261247 0.197946
O O13 0.000000 0.500000 0.515481
O O14 0.000000 0.150020 0.818799
O O15 0.268215 0.000000 0.821415
O O16 0.000000 0.000000 0.635936
#
# Coordination Sequence:
#
# PCOD9356428 Si02
#       7
#     4   8   4   8   4   8   4
#     4  12  26  39  50  74 114 150 187 236 275 316
#     4  10  19  34  58  82 105 140 181 225 277 331
#     4   9  16  23  34  64 107 139 160 195 252 310
#     4   9  16  26  46  78 113 138 162 207 266 322
#     4   9  16  29  52  80 106 131 174 225 262 312
#     4   9  15  27  49  80 112 135 166 216 270 321
#     4  10  18  33  57  78 101 142 185 220 267 328
#
# _framework density 21.045843000000001
#
# number of rings (size 3 to 8) (size 9 to 14) (size 15 to 20)
#    0.000    2.400    2.000    2.100    0.000    4.000 
#    0.000    3.500    0.000    1.200    0.000    0.000 
#    0.000    0.000    0.000    0.000    0.000    0.000 
#
# Total GULP energy -111715.461698 kJ/mol
# GULP energy per Si atom -5585.773085 kJ/mol
# Density = 2.099794 g / cm^3
# Si number density = 21.045843 Si / 1000 Ang^3
#
#
#
# Elastic Constant Matrix: (Units=GPa)
#
#
# Indices 1 2 3 4 5 6 
#
# 1 49.4495 -3.2166 -1.7124 0.0000 0.0000 0.0000
# 2 -3.2166 243.7257 149.5926 0.0000 0.0000 0.0000
# 3 -1.7124 149.5926 258.7776 0.0000 0.0000 0.0000
# 4 0.0000 0.0000 0.0000 -11.5698 0.0000 0.0000
# 5 0.0000 0.0000 0.0000 0.0000 -26.9808 0.0000
# 6 0.0000 0.0000 0.0000 0.0000 0.0000 -116.1033
#
#
#
# Elastic Compliance Matrix: (Units=1/GPa)
#
#
# Indices 1 2 3 4 5 6 
#
# 1 0.020240 0.000287 -0.000032 0.000000 0.000000 0.000000
# 2 0.000287 0.006363 -0.003677 0.000000 0.000000 0.000000
# 3 -0.000032 -0.003677 0.005989 0.000000 0.000000 0.000000
# 4 0.000000 0.000000 0.000000 -0.086432 0.000000 0.000000
# 5 0.000000 0.000000 0.000000 0.000000 -0.037063 0.000000
# 6 0.000000 0.000000 0.000000 0.000000 0.000000 -0.008613
#
#
# Mechanical properties :
#
#
# Convention : Reuss Voigt Hill
#
# Bulk Modulus (GPa) = 38.83563 93.47555 66.15559
# Shear Modulus (GPa) = -59.46120 -3.77816 -31.61968
#
# Velocity S-wave (km/s) = -5.32114 -1.34131 -3.88031
# Velocity P-wave (km/s) = 4.38859 6.48944 3.38032
#
# Compressibility (1/GPa) = 0.02574955
#
# Stress axis : x y z
#
# Youngs Moduli (GPa) = 49.40662 157.14988 166.96016
#
# Poissons Ratio (x) = -0.04504 0.00530
# Poissons Ratio (y) = -0.01416 0.61384
# Poissons Ratio (z) = 0.00157 0.57778
#
# Static dielectric constant tensor:
#      x y z
#    x 1.781040 0.000000 0.000000 
#    y 0.000000 1.635770 0.000000 
#    z 0.000000 0.000000 1.682270 
# 
# From -- ./inp_files/23307.got.cif
#   From: 2010.05.17/outbox.cif.g08.bks.cpg/sg38_12_cif.got.tgz:23307.got - 2010.06.03 18:07:57.
