data_PCOD9356364
_publ_section_title
;
Structure prediction by ZEFSAII (Michael W. Deem and Ramdas Pophale) SiO2 
 PCOD9356364
Probable space group: A M M 2
;
_chemical_formula_sum "Si O2"
_cell_formula_units_Z 52
_cell_length_a 13.529330
_cell_length_b 18.184922
_cell_length_c 12.939674
_cell_angle_alpha 90.000000
_cell_angle_beta 90.000000
_cell_angle_gamma 90.000000
_cell_volume 3183.545546
_symmetry_space_group_name_H-M "A M M 2"
_symmetry_group_IT_number 38
_symmetry_cell_setting 'orthorhombic'
loop_
_space_group_symop_operation_xyz
x,y,z
-x,-y,z
-x,y,z
x,-y,z
x,1/2+y,1/2+z
-x,1/2-y,1/2+z
-x,1/2+y,1/2+z
x,1/2-y,1/2+z
loop_
_atom_site_type_symbol
_atom_site_label
_atom_site_fract_x
_atom_site_fract_y
_atom_site_fract_z
Si Si1 0.614162 0.212694 0.752010
Si Si2 0.719776 0.849105 0.358392
Si Si3 0.608945 0.150358 0.963248
Si Si4 0.109515 0.000000 0.067500
Si Si5 0.379945 0.000000 0.299718
Si Si6 0.887904 0.657223 0.685311
Si Si7 0.668570 0.500000 0.556238
Si Si8 0.245514 0.734205 0.064768
O O1 0.500000 0.216495 0.718113
O O2 0.644616 0.287820 0.811862
O O3 0.624566 0.151123 0.840434
O O4 0.690339 0.202408 0.659280
O O5 0.811595 0.848145 0.279490
O O6 0.758775 0.823519 0.470756
O O7 0.664446 0.927079 0.353319
O O8 0.500000 0.182797 0.980696
O O9 0.689705 0.199563 0.018257
O O10 0.616090 0.071427 0.013186
O O11 0.112596 0.076813 0.131038
O O12 0.217711 0.000000 0.016001
O O13 0.000000 0.000000 0.014799
O O14 0.500000 0.000000 0.299089
O O15 0.340210 0.000000 0.180814
O O16 0.849788 0.723375 0.610734
O O17 0.000000 0.672133 0.718267
#
# Coordination Sequence:
#
# PCOD9356364 Si02
#       8
#     8   8   8   4   4   8   4   8
#     4   9  18  32  48  69  99 135 173 211 250 301
#     4  10  20  34  50  75 103 135 173 217 260 307
#     4  10  19  29  47  74  99 131 170 206 251 305
#     4  10  18  32  54  76 100 126 160 209 261 309
#     4  12  22  32  49  76 106 137 178 221 263 312
#     4  10  19  33  53  78 105 132 168 214 263 312
#     4  12  18  32  51  74 102 133 164 214 268 307
#     4  10  19  33  52  70 102 138 172 210 258 303
#
# _framework density 16.33399
#
# number of rings (size 3 to 8) (size 9 to 14) (size 15 to 20)
#    0.000    1.846    3.077    2.538    0.000    2.462 
#    0.000    0.769    0.000    0.000    0.000    0.000 
#    0.000    0.000    0.000    0.000    0.000    0.000 
#
# Total GULP energy -144809.457075 kJ/mol
# GULP energy per Si atom -5569.594503 kJ/mol
# Density = 1.629681 g / cm^3
# Si number density = 16.333990 Si / 1000 Ang^3
#
#
#
# Elastic Constant Matrix: (Units=GPa)
#
#
# Indices 1 2 3 4 5 6 
#
# 1 99.3029 12.5845 11.0906 0.0000 0.0000 0.0000
# 2 12.5845 70.9593 31.4908 0.0000 0.0000 0.0000
# 3 11.0906 31.4908 58.4876 0.0000 0.0000 0.0000
# 4 0.0000 0.0000 0.0000 20.2400 0.0000 0.0000
# 5 0.0000 0.0000 0.0000 0.0000 -2.0519 0.0000
# 6 0.0000 0.0000 0.0000 0.0000 0.0000 10.9518
#
#
#
# Elastic Compliance Matrix: (Units=1/GPa)
#
#
# Indices 1 2 3 4 5 6 
#
# 1 0.010375 -0.001270 -0.001283 0.000000 0.000000 0.000000
# 2 -0.001270 0.018673 -0.009813 0.000000 0.000000 0.000000
# 3 -0.001283 -0.009813 0.022624 0.000000 0.000000 0.000000
# 4 0.000000 0.000000 0.000000 0.049407 0.000000 0.000000
# 5 0.000000 0.000000 0.000000 0.000000 -0.487344 0.000000
# 6 0.000000 0.000000 0.000000 0.000000 0.000000 0.091309
#
#
# Mechanical properties :
#
#
# Convention : Reuss Voigt Hill
#
# Bulk Modulus (GPa) = 37.12142 37.67575 37.39859
# Shear Modulus (GPa) = -19.13922 17.40023 -0.86949
#
# Velocity S-wave (km/s) = -3.42679 3.26740 -0.73040
# Velocity P-wave (km/s) = 2.66809 6.11150 4.71536
#
# Compressibility (1/GPa) = 0.02693862
#
# Stress axis : x y z
#
# Youngs Moduli (GPa) = 96.39003 53.55408 44.20012
#
# Poissons Ratio (x) = 0.06804 0.05672
# Poissons Ratio (y) = 0.12246 0.43373
# Poissons Ratio (z) = 0.12369 0.52552
#
# Static dielectric constant tensor:
#      x y z
#    x 1.560040 0.000000 0.000000 
#    y 0.000000 1.547500 0.000000 
#    z 0.000000 0.000000 1.560160 
# 
# From -- ./inp_files/10211.got.cif
#   From: 2010.05.17/outbox.cif.g08.bks.cpg/sg38_6_cif.got.tgz:10211.got - 2010.06.03 18:07:57.
