data_PCOD9356550
_publ_section_title
;
Structure prediction by ZEFSAII (Michael W. Deem and Ramdas Pophale) SiO2 
 PCOD9356550
Probable space group: A M M 2
;
_chemical_formula_sum "Si O2"
_cell_formula_units_Z 52
_cell_length_a 7.526075
_cell_length_b 18.186452
_cell_length_c 25.810382
_cell_angle_alpha 90.000000
_cell_angle_beta 90.000000
_cell_angle_gamma 90.000000
_cell_volume 3532.734136
_symmetry_space_group_name_H-M "A M M 2"
_symmetry_group_IT_number 38
_symmetry_cell_setting 'orthorhombic'
loop_
_space_group_symop_operation_xyz
x,y,z
-x,-y,z
-x,y,z
x,-y,z
x,1/2+y,1/2+z
-x,1/2-y,1/2+z
-x,1/2+y,1/2+z
x,1/2-y,1/2+z
loop_
_atom_site_type_symbol
_atom_site_label
_atom_site_fract_x
_atom_site_fract_y
_atom_site_fract_z
Si Si1 0.210625 0.913300 0.648430
Si Si2 0.202683 0.278082 0.880934
Si Si3 0.500000 0.087171 0.734490
Si Si4 0.500000 0.587465 0.447498
Si Si5 0.500000 0.177855 0.839606
Si Si6 0.783529 0.331133 0.044416
Si Si7 0.203045 0.812045 0.989561
Si Si8 0.217118 0.416407 0.941382
O O1 0.328716 0.897287 0.698579
O O2 0.268350 0.864830 0.599277
O O3 0.000000 0.902085 0.657465
O O4 0.235365 0.000000 0.635648
O O5 0.330205 0.231054 0.844981
O O6 0.200225 0.235472 0.936260
O O7 0.269040 0.359312 0.896450
O O8 0.000000 0.281580 0.862032
O O9 0.500000 0.132438 0.787100
O O10 0.500000 0.000000 0.746185
O O11 0.500000 0.500000 0.444330
O O12 0.500000 0.623907 0.389931
O O13 0.669527 0.620255 0.477923
O O14 0.000000 0.331174 0.043074
O O15 0.730544 0.247377 0.031757
O O16 0.725396 0.383008 0.996737
O O17 0.000000 0.833565 0.001050
O O18 0.275316 0.500000 0.934688
O O19 0.000000 0.415646 0.941845
#
# Coordination Sequence:
#
# PCOD9356550 Si02
#       8
#     8   8   4   4   4   8   8   8
#     4   9  17  29  44  63  88 114 139 168 198 231
#     4   8  15  27  42  60  81 107 138 169 202 240
#     4  10  21  33  43  58  79 105 142 185 220 242
#     4  10  19  29  43  60  77 105 142 175 212 252
#     4  10  19  32  45  54  74 108 144 182 217 246
#     4   8  13  23  41  63  88 119 143 155 184 237
#     4   8  15  27  41  60  85 108 133 166 199 239
#     4   8  12  20  38  64  92 118 139 158 185 231
#
# _framework density 14.719476999999999
#
# number of rings (size 3 to 8) (size 9 to 14) (size 15 to 20)
#    0.000    3.385    0.000    2.538    0.000    3.385 
#    0.000    1.154    0.000    2.769    0.000    0.000 
#    0.000    4.923    0.000    9.846    0.000    0.000 
#
# Total GULP energy -144774.886733 kJ/mol
# GULP energy per Si atom -5568.264874 kJ/mol
# Density = 1.468598 g / cm^3
# Si number density = 14.719477 Si / 1000 Ang^3
#
#
#
# Elastic Constant Matrix: (Units=GPa)
#
#
# Indices 1 2 3 4 5 6 
#
# 1 70.2205 47.6873 41.1246 0.0000 0.0000 0.0000
# 2 47.6873 121.3655 57.8409 0.0000 0.0000 0.0000
# 3 41.1246 57.8409 92.6561 0.0000 0.0000 0.0000
# 4 0.0000 0.0000 0.0000 29.4956 0.0000 0.0000
# 5 0.0000 0.0000 0.0000 0.0000 13.0905 0.0000
# 6 0.0000 0.0000 0.0000 0.0000 0.0000 0.9900
#
#
#
# Elastic Compliance Matrix: (Units=1/GPa)
#
#
# Indices 1 2 3 4 5 6 
#
# 1 0.021606 -0.005579 -0.006107 0.000000 0.000000 0.000000
# 2 -0.005579 0.013170 -0.005745 0.000000 0.000000 0.000000
# 3 -0.006107 -0.005745 0.017089 0.000000 0.000000 0.000000
# 4 0.000000 0.000000 0.000000 0.033903 0.000000 0.000000
# 5 0.000000 0.000000 0.000000 0.000000 0.076391 0.000000
# 6 0.000000 0.000000 0.000000 0.000000 0.000000 1.010100
#
#
# Mechanical properties :
#
#
# Convention : Reuss Voigt Hill
#
# Bulk Modulus (GPa) = 58.81226 64.17196 61.49211
# Shear Modulus (GPa) = 4.12273 17.88785 11.00529
#
# Velocity S-wave (km/s) = 1.67539 3.48983 2.73732
# Velocity P-wave (km/s) = 6.61700 7.74143 7.20120
#
# Compressibility (1/GPa) = 0.01700326
#
# Stress axis : x y z
#
# Youngs Moduli (GPa) = 46.28301 75.93184 58.51567
#
# Poissons Ratio (x) = 0.42363 0.35735
# Poissons Ratio (y) = 0.25822 0.33617
# Poissons Ratio (z) = 0.28265 0.43623
#
# Static dielectric constant tensor:
#      x y z
#    x 1.545710 0.000000 0.000000 
#    y 0.000000 1.482720 0.000000 
#    z 0.000000 0.000000 1.453100 
# 
# From -- ./inp_files/16940.got.cif
#   From: 2010.05.17/outbox.cif.g08.bks.cpg/sg38_9_cif.got.tgz:16940.got - 2010.06.03 18:07:57.
