data_PCOD9356452
_publ_section_title
;
Structure prediction by ZEFSAII (Michael W. Deem and Ramdas Pophale) SiO2 
 PCOD9356452
Probable space group: A M M 2
;
_chemical_formula_sum "Si O2"
_cell_formula_units_Z 42
_cell_length_a 15.397287
_cell_length_b 13.479244
_cell_length_c 7.997158
_cell_angle_alpha 90.000000
_cell_angle_beta 90.000000
_cell_angle_gamma 90.000000
_cell_volume 1659.760468
_symmetry_space_group_name_H-M "A M M 2"
_symmetry_group_IT_number 38
_symmetry_cell_setting 'orthorhombic'
loop_
_space_group_symop_operation_xyz
x,y,z
-x,-y,z
-x,y,z
x,-y,z
x,1/2+y,1/2+z
-x,1/2-y,1/2+z
-x,1/2+y,1/2+z
x,1/2-y,1/2+z
loop_
_atom_site_type_symbol
_atom_site_label
_atom_site_fract_x
_atom_site_fract_y
_atom_site_fract_z
Si Si1 0.236994 0.108898 0.717860
Si Si2 0.409034 0.672648 0.032733
Si Si3 0.500000 0.000000 0.355839
Si Si4 0.178301 0.115721 0.253941
Si Si5 0.650505 0.389309 0.557666
Si Si6 0.897984 0.782804 0.929782
O O1 0.315032 0.150992 0.606395
O O2 0.287639 0.102055 0.895961
O O3 0.149399 0.161984 0.776045
O O4 0.216767 0.000000 0.654543
O O5 0.500000 0.651789 0.135252
O O6 0.427130 0.591821 0.885918
O O7 0.406234 0.792100 0.017566
O O8 0.149622 0.176539 0.416135
O O9 0.163943 0.000000 0.268826
O O10 0.278376 0.132633 0.202250
O O11 0.122496 0.157302 0.097835
O O12 0.607388 0.500000 0.576361
O O13 0.000000 0.772598 0.906665
#
# Coordination Sequence:
#
# PCOD9356452 Si02
#       6
#     8   8   2   8   8   8
#     4  10  19  36  58  83 114 153 198 252 304 366
#     4  10  18  34  56  80 114 146 198 245 301 376
#     4   8  20  32  54  84 110 158 184 246 316 368
#     4  10  22  42  65  92 129 167 211 269 322 376
#     4   9  19  34  59  84 110 152 201 250 310 367
#     4  11  22  37  64  94 125 169 212 257 321 380
#
# _framework density 25.304853999999999
#
# number of rings (size 3 to 8) (size 9 to 14) (size 15 to 20)
#    0.571    1.524    2.857    2.286    0.000    3.810 
#    0.000    3.810   10.476    4.571    0.000    0.000 
#    0.000    0.000    0.000    0.000    0.000    0.000 
#
# Total GULP energy -116955.422788 kJ/mol
# GULP energy per Si atom -5569.305847 kJ/mol
# Density = 2.524726 g / cm^3
# Si number density = 25.304854 Si / 1000 Ang^3
#
#
#
# Elastic Constant Matrix: (Units=GPa)
#
#
# Indices 1 2 3 4 5 6 
#
# 1 169.3903 44.3633 18.5633 0.0000 0.0000 0.0000
# 2 44.3633 196.1458 7.7485 0.0000 0.0000 0.0000
# 3 18.5633 7.7485 80.5088 0.0000 0.0000 0.0000
# 4 0.0000 0.0000 0.0000 26.7423 0.0000 0.0000
# 5 0.0000 0.0000 0.0000 0.0000 54.8080 0.0000
# 6 0.0000 0.0000 0.0000 0.0000 0.0000 15.7691
#
#
#
# Elastic Compliance Matrix: (Units=1/GPa)
#
#
# Indices 1 2 3 4 5 6 
#
# 1 0.006417 -0.001398 -0.001345 0.000000 0.000000 0.000000
# 2 -0.001398 0.005422 -0.000199 0.000000 0.000000 0.000000
# 3 -0.001345 -0.000199 0.012750 0.000000 0.000000 0.000000
# 4 0.000000 0.000000 0.000000 0.037394 0.000000 0.000000
# 5 0.000000 0.000000 0.000000 0.000000 0.018246 0.000000
# 6 0.000000 0.000000 0.000000 0.000000 0.000000 0.063415
#
#
# Mechanical properties :
#
#
# Convention : Reuss Voigt Hill
#
# Bulk Modulus (GPa) = 53.46368 65.26612 59.36490
# Shear Modulus (GPa) = 32.09968 44.48853 38.29410
#
# Velocity S-wave (km/s) = 3.56549 4.19752 3.89435
# Velocity P-wave (km/s) = 6.17446 7.02426 6.61302
#
# Compressibility (1/GPa) = 0.01870429
#
# Stress axis : x y z
#
# Youngs Moduli (GPa) = 155.83285 184.42084 78.42927
#
# Poissons Ratio (x) = 0.25787 0.10549
# Poissons Ratio (y) = 0.21789 0.01564
# Poissons Ratio (z) = 0.20960 0.03679
#
# Static dielectric constant tensor:
#      x y z
#    x 1.819010 0.000000 0.000000 
#    y 0.000000 2.092620 0.000000 
#    z 0.000000 0.000000 2.190270 
# 
# From -- ./inp_files/10434.got.cif
#   From: 2010.05.17/outbox.cif.g08.bks.cpg/sg38_6_cif.got.tgz:10434.got - 2010.06.03 18:07:57.
