data_PCOD9356519
_publ_section_title
;
Structure prediction by ZEFSAII (Michael W. Deem and Ramdas Pophale) SiO2 
 PCOD9356519
Probable space group: A M M 2
;
_chemical_formula_sum "Si O2"
_cell_formula_units_Z 48
_cell_length_a 24.515893
_cell_length_b 23.685981
_cell_length_c 5.034236
_cell_angle_alpha 90.000000
_cell_angle_beta 90.000000
_cell_angle_gamma 90.000000
_cell_volume 2923.295141
_symmetry_space_group_name_H-M "A M M 2"
_symmetry_group_IT_number 38
_symmetry_cell_setting 'orthorhombic'
loop_
_space_group_symop_operation_xyz
x,y,z
-x,-y,z
-x,y,z
x,-y,z
x,1/2+y,1/2+z
-x,1/2-y,1/2+z
-x,1/2+y,1/2+z
x,1/2-y,1/2+z
loop_
_atom_site_type_symbol
_atom_site_label
_atom_site_fract_x
_atom_site_fract_y
_atom_site_fract_z
Si Si1 0.500000 0.210367 0.871220
Si Si2 0.732631 0.710590 0.356235
Si Si3 0.000000 0.288659 0.743116
Si Si4 0.905190 0.500000 0.740836
Si Si5 0.828280 0.622077 0.351653
Si Si6 0.832420 0.000000 0.740005
Si Si7 0.614933 0.710973 0.246277
Si Si8 0.094959 0.876954 0.351677
O O1 0.500000 0.263721 0.665886
O O2 0.557686 0.180711 0.810622
O O3 0.735622 0.737934 0.647149
O O4 0.782152 0.668324 0.312976
O O5 0.673019 0.682949 0.307508
O O6 0.947744 0.327849 0.796977
O O7 0.000000 0.263358 0.448439
O O8 0.885790 0.500000 0.435270
O O9 0.931138 0.560490 0.809157
O O10 0.852167 0.500000 0.935903
O O11 0.804677 0.559092 0.307177
O O12 0.855905 0.626375 0.639370
O O13 0.877434 0.627866 0.139510
O O14 0.614614 0.764944 0.447948
#
# Coordination Sequence:
#
# PCOD9356519 Si02
#       8
#     4   8   4   4   8   4   8   8
#     4   8  12  20  34  48  70 107 140 169 206 240
#     4  10  19  28  41  64  90 115 144 175 207 254
#     4  12  26  39  50  69  96 120 144 172 204 258
#     4   8  16  33  54  72  84 102 140 181 216 246
#     4  10  19  33  51  68  88 114 143 176 217 255
#     4   8  16  30  48  69  88 107 138 178 212 250
#     4   8  14  23  34  52  78 107 140 173 204 241
#     4  10  21  36  53  69  87 113 143 179 216 251
#
# _framework density 16.419826
#
# number of rings (size 3 to 8) (size 9 to 14) (size 15 to 20)
#    0.000    2.667    0.000    2.000    0.000    4.333 
#    0.000    0.000    0.000    7.000    0.000    0.000 
#    0.000    0.667    0.000    0.000    0.000  138.000 
#
# Total GULP energy -133625.673205 kJ/mol
# GULP energy per Si atom -5567.736384 kJ/mol
# Density = 1.638245 g / cm^3
# Si number density = 16.419826 Si / 1000 Ang^3
#
#
#
# Elastic Constant Matrix: (Units=GPa)
#
#
# Indices 1 2 3 4 5 6 
#
# 1 68.7801 30.6614 -8.4423 0.0000 0.0000 0.0000
# 2 30.6614 48.3497 -9.5663 0.0000 0.0000 0.0000
# 3 -8.4423 -9.5663 64.6244 0.0000 0.0000 0.0000
# 4 0.0000 0.0000 0.0000 16.9489 0.0000 0.0000
# 5 0.0000 0.0000 0.0000 0.0000 17.1932 0.0000
# 6 0.0000 0.0000 0.0000 0.0000 0.0000 -3.6859
#
#
#
# Elastic Compliance Matrix: (Units=1/GPa)
#
#
# Indices 1 2 3 4 5 6 
#
# 1 0.020306 -0.012725 0.000769 0.000000 0.000000 0.000000
# 2 -0.012725 0.029281 0.002672 0.000000 0.000000 0.000000
# 3 0.000769 0.002672 0.015970 0.000000 0.000000 0.000000
# 4 0.000000 0.000000 0.000000 0.059001 0.000000 0.000000
# 5 0.000000 0.000000 0.000000 0.000000 0.058162 0.000000
# 6 0.000000 0.000000 0.000000 0.000000 0.000000 -0.271301
#
#
# Mechanical properties :
#
#
# Convention : Reuss Voigt Hill
#
# Bulk Modulus (GPa) = 21.28147 23.00664 22.14405
# Shear Modulus (GPa) = -91.99843 17.36467 -37.31688
#
# Velocity S-wave (km/s) = -7.49336 3.25552 -4.77243
# Velocity P-wave (km/s) = 7.86628 5.30783 4.10520
#
# Compressibility (1/GPa) = 0.04698924
#
# Stress axis : x y z
#
# Youngs Moduli (GPa) = 49.24583 34.15157 62.61724
#
# Poissons Ratio (x) = 0.43459 -0.04816
# Poissons Ratio (y) = 0.62667 -0.16732
# Poissons Ratio (z) = -0.03787 -0.09126
#
# Static dielectric constant tensor:
#      x y z
#    x 1.588630 0.000000 0.000000 
#    y 0.000000 1.549410 0.000000 
#    z 0.000000 0.000000 1.555720 
# 
# From -- ./inp_files/1893.got.cif
#   From: 2010.05.17/outbox.cif.g08.bks.cpg/sg38_1_cif.got.tgz:1893.got - 2010.06.03 18:07:57.
