data_PCOD9356316
_publ_section_title
;
Structure prediction by ZEFSAII (Michael W. Deem and Ramdas Pophale) SiO2 
 PCOD9356316
Probable space group: A M M 2
;
_chemical_formula_sum "Si O2"
_cell_formula_units_Z 30
_cell_length_a 7.907776
_cell_length_b 11.858687
_cell_length_c 19.545763
_cell_angle_alpha 90.000000
_cell_angle_beta 90.000000
_cell_angle_gamma 90.000000
_cell_volume 1832.920353
_symmetry_space_group_name_H-M "A M M 2"
_symmetry_group_IT_number 38
_symmetry_cell_setting 'orthorhombic'
loop_
_space_group_symop_operation_xyz
x,y,z
-x,-y,z
-x,y,z
x,-y,z
x,1/2+y,1/2+z
-x,1/2-y,1/2+z
-x,1/2+y,1/2+z
x,1/2-y,1/2+z
loop_
_atom_site_type_symbol
_atom_site_label
_atom_site_fract_x
_atom_site_fract_y
_atom_site_fract_z
Si Si1 0.810165 0.288736 0.217050
Si Si2 0.500000 0.000000 0.931752
Si Si3 0.500000 0.290061 0.532613
Si Si4 0.500000 0.367019 0.691097
Si Si5 0.805624 0.631804 0.060113
Si Si6 0.307824 0.500000 0.298364
O O1 0.665436 0.194885 0.220912
O O2 0.794765 0.345787 0.141859
O O3 0.781078 0.388084 0.271330
O O4 0.000000 0.242674 0.222952
O O5 0.658483 0.000000 0.879327
O O6 0.500000 0.110102 0.978328
O O7 0.500000 0.342677 0.609277
O O8 0.666084 0.211991 0.526868
O O9 0.500000 0.500000 0.703172
O O10 0.771539 0.500000 0.047412
O O11 0.000000 0.656500 0.039856
O O12 0.500000 0.500000 0.267989
#
# Coordination Sequence:
#
# PCOD9356316 Si02
#       6
#     8   2   4   4   8   4
#     4  10  18  31  53  81 105 127 165 219 274 310
#     4  10  22  36  50  72 106 152 186 196 232 314
#     4  10  19  33  48  68 107 147 171 201 246 300
#     4  10  19  31  50  75 108 142 164 204 257 321
#     4   9  17  29  52  82 104 123 161 218 273 313
#     4  10  19  33  56  75 103 132 174 223 254 298
#
# _framework density 16.367322999999999
#
# number of rings (size 3 to 8) (size 9 to 14) (size 15 to 20)
#    0.400    1.867    3.333    0.800    0.000    0.533 
#    0.000    3.333    0.000    6.400    0.000    0.000 
#    0.000    0.000    0.000    0.000    0.000    0.000 
#
# Total GULP energy -83589.124121 kJ/mol
# GULP energy per Si atom -5572.608275 kJ/mol
# Density = 1.633007 g / cm^3
# Si number density = 16.367323 Si / 1000 Ang^3
#
#
#
# Elastic Constant Matrix: (Units=GPa)
#
#
# Indices 1 2 3 4 5 6 
#
# 1 141.0637 96.7167 43.1454 0.0000 0.0000 0.0000
# 2 96.7167 155.2815 46.5370 0.0000 0.0000 0.0000
# 3 43.1454 46.5370 55.9159 0.0000 0.0000 0.0000
# 4 0.0000 0.0000 0.0000 16.8910 0.0000 0.0000
# 5 0.0000 0.0000 0.0000 0.0000 15.2025 0.0000
# 6 0.0000 0.0000 0.0000 0.0000 0.0000 2.4759
#
#
#
# Elastic Compliance Matrix: (Units=1/GPa)
#
#
# Indices 1 2 3 4 5 6 
#
# 1 0.013150 -0.006861 -0.004437 0.000000 0.000000 0.000000
# 2 -0.006861 0.012159 -0.004826 0.000000 0.000000 0.000000
# 3 -0.004437 -0.004826 0.025324 0.000000 0.000000 0.000000
# 4 0.000000 0.000000 0.000000 0.059203 0.000000 0.000000
# 5 0.000000 0.000000 0.000000 0.000000 0.065779 0.000000
# 6 0.000000 0.000000 0.000000 0.000000 0.000000 0.403890
#
#
# Mechanical properties :
#
#
# Convention : Reuss Voigt Hill
#
# Bulk Modulus (GPa) = 54.38809 80.56214 67.47512
# Shear Modulus (GPa) = 8.09218 17.97134 13.03176
#
# Velocity S-wave (km/s) = 2.22595 3.31720 2.82477
# Velocity P-wave (km/s) = 6.31730 8.00000 7.20792
#
# Compressibility (1/GPa) = 0.01838638
#
# Stress axis : x y z
#
# Youngs Moduli (GPa) = 76.04648 82.24044 39.48821
#
# Poissons Ratio (x) = 0.56423 0.17519
# Poissons Ratio (y) = 0.52173 0.19058
# Poissons Ratio (z) = 0.33739 0.39690
#
# Static dielectric constant tensor:
#      x y z
#    x 1.572710 0.000000 0.000000 
#    y 0.000000 1.515050 0.000000 
#    z 0.000000 0.000000 1.529050 
# 
# From -- ./inp_files/19215.got.cif
#   From: 2010.05.17/outbox.cif.g08.bks.cpg/sg38_10_cif.got.tgz:19215.got - 2010.06.03 18:07:57.
