data_PCOD9356512
_publ_section_title
;
Structure prediction by ZEFSAII (Michael W. Deem and Ramdas Pophale) SiO2 
 PCOD9356512
Probable space group: A M M 2
;
_chemical_formula_sum "Si O2"
_cell_formula_units_Z 64
_cell_length_a 9.166766
_cell_length_b 18.698922
_cell_length_c 27.288138
_cell_angle_alpha 90.000000
_cell_angle_beta 90.000000
_cell_angle_gamma 90.000000
_cell_volume 4677.422689
_symmetry_space_group_name_H-M "A M M 2"
_symmetry_group_IT_number 38
_symmetry_cell_setting 'orthorhombic'
loop_
_space_group_symop_operation_xyz
x,y,z
-x,-y,z
-x,y,z
x,-y,z
x,1/2+y,1/2+z
-x,1/2-y,1/2+z
-x,1/2+y,1/2+z
x,1/2-y,1/2+z
loop_
_atom_site_type_symbol
_atom_site_label
_atom_site_fract_x
_atom_site_fract_y
_atom_site_fract_z
Si Si1 0.824524 0.583246 0.206500
Si Si2 0.674302 0.916132 0.604923
Si Si3 0.676816 0.157215 0.503378
Si Si4 0.824327 0.829459 0.802681
Si Si5 0.826370 0.915654 0.410351
Si Si6 0.332797 0.202610 0.953421
Si Si7 0.331531 0.296423 0.853119
Si Si8 0.175018 0.581649 0.400303
O O1 0.784146 0.500000 0.216126
O O2 0.753738 0.604840 0.155009
O O3 0.781513 0.633169 0.251884
O O4 0.000000 0.585715 0.202559
O O5 0.500000 0.909889 0.611502
O O6 0.715515 0.871313 0.556967
O O7 0.707369 0.000000 0.595726
O O8 0.500000 0.151665 0.497188
O O9 0.753202 0.110485 0.461185
O O10 0.716583 0.240194 0.494046
O O11 0.746771 0.754336 0.813746
O O12 0.787432 0.883039 0.847689
O O13 0.000000 0.820058 0.803258
O O14 0.754438 0.868044 0.367523
O O15 0.000000 0.902339 0.412213
O O16 0.801557 0.000000 0.403779
O O17 0.500000 0.182143 0.962958
O O18 0.329882 0.249706 0.903418
O O19 0.238827 0.133133 0.942009
O O20 0.500000 0.310589 0.840825
O O21 0.226764 0.500000 0.403207
O O22 0.000000 0.581725 0.403441
#
# Coordination Sequence:
#
# PCOD9356512 Si02
#       8
#     8   8   8   8   8   8   8   8
#     4   9  17  28  41  58  81 108 137 169 203 237
#     4   9  17  28  41  57  78 105 136 169 202 234
#     4   9  17  29  43  57  77 107 139 168 201 240
#     4   9  16  27  42  57  77 106 136 165 197 232
#     4  10  19  28  40  60  83 106 134 166 198 235
#     4   8  15  26  38  54  75  99 128 161 195 230
#     4   9  17  28  41  57  78 104 133 164 197 234
#     4   9  16  25  38  56  77 102 131 159 189 229
#
# _framework density 13.682748
#
# number of rings (size 3 to 8) (size 9 to 14) (size 15 to 20)
#    0.000    3.000    0.000    2.250    0.000    7.250 
#    0.000    1.250    0.000    2.250    0.000    0.000 
#    0.000    1.000    0.000    6.500    0.000    4.875 
#
# Total GULP energy -178168.392465 kJ/mol
# GULP energy per Si atom -5567.762265 kJ/mol
# Density = 1.365161 g / cm^3
# Si number density = 13.682748 Si / 1000 Ang^3
#
#
#
# Elastic Constant Matrix: (Units=GPa)
#
#
# Indices 1 2 3 4 5 6 
#
# 1 37.2151 48.2336 35.4532 0.0000 0.0000 0.0000
# 2 48.2336 104.4668 63.0366 0.0000 0.0000 0.0000
# 3 35.4532 63.0366 96.8766 0.0000 0.0000 0.0000
# 4 0.0000 0.0000 0.0000 26.7369 0.0000 0.0000
# 5 0.0000 0.0000 0.0000 0.0000 20.8208 0.0000
# 6 0.0000 0.0000 0.0000 0.0000 0.0000 20.8051
#
#
#
# Elastic Compliance Matrix: (Units=1/GPa)
#
#
# Indices 1 2 3 4 5 6 
#
# 1 0.070126 -0.027813 -0.007566 0.000000 0.000000 0.000000
# 2 -0.027813 0.026791 -0.007254 0.000000 0.000000 0.000000
# 3 -0.007566 -0.007254 0.017812 0.000000 0.000000 0.000000
# 4 0.000000 0.000000 0.000000 0.037402 0.000000 0.000000
# 5 0.000000 0.000000 0.000000 0.000000 0.048029 0.000000
# 6 0.000000 0.000000 0.000000 0.000000 0.000000 0.048065
#
#
# Mechanical properties :
#
#
# Convention : Reuss Voigt Hill
#
# Bulk Modulus (GPa) = 33.94123 59.11171 46.52647
# Shear Modulus (GPa) = 14.56403 19.79489 17.17946
#
# Velocity S-wave (km/s) = 3.26607 3.80768 3.54723
# Velocity P-wave (km/s) = 6.25161 7.91370 7.13125
#
# Compressibility (1/GPa) = 0.02946269
#
# Stress axis : x y z
#
# Youngs Moduli (GPa) = 14.26008 37.32559 56.14286
#
# Poissons Ratio (x) = 1.03812 0.42478
# Poissons Ratio (y) = 0.39661 0.40729
# Poissons Ratio (z) = 0.10789 0.27078
#
# Static dielectric constant tensor:
#      x y z
#    x 1.461390 0.000000 0.000000 
#    y 0.000000 1.447340 0.000000 
#    z 0.000000 0.000000 1.430060 
# 
# From -- ./inp_files/22263.got.cif
#   From: 2010.05.17/outbox.cif.g08.bks.cpg/sg38_12_cif.got.tgz:22263.got - 2010.06.03 18:07:57.
