data_PCOD9356874
_publ_section_title
;
Structure prediction by ZEFSAII (Michael W. Deem and Ramdas Pophale) SiO2 
 PCOD9356874
Probable space group: A M M 2
;
_chemical_formula_sum "Si O2"
_cell_formula_units_Z 48
_cell_length_a 12.706181
_cell_length_b 27.881814
_cell_length_c 7.552300
_cell_angle_alpha 90.000000
_cell_angle_beta 90.000000
_cell_angle_gamma 90.000000
_cell_volume 2675.563708
_symmetry_space_group_name_H-M "A M M 2"
_symmetry_group_IT_number 38
_symmetry_cell_setting 'orthorhombic'
loop_
_space_group_symop_operation_xyz
x,y,z
-x,-y,z
-x,y,z
x,-y,z
x,1/2+y,1/2+z
-x,1/2-y,1/2+z
-x,1/2+y,1/2+z
x,1/2-y,1/2+z
loop_
_atom_site_type_symbol
_atom_site_label
_atom_site_fract_x
_atom_site_fract_y
_atom_site_fract_z
Si Si1 0.875125 0.691224 0.184030
Si Si2 0.755203 0.217414 0.020396
Si Si3 0.379265 0.796326 0.344318
Si Si4 0.621471 0.557057 0.756585
Si Si5 0.624822 0.555683 0.340063
Si Si6 0.717980 0.878741 0.542861
O O1 0.821979 0.688145 0.378173
O O2 0.000000 0.692089 0.192058
O O3 0.830540 0.740846 0.100253
O O4 0.829107 0.647478 0.069068
O O5 0.662819 0.245524 0.915587
O O6 0.698099 0.190722 0.181568
O O7 0.500000 0.794550 0.290081
O O8 0.360903 0.834749 0.499252
O O9 0.500000 0.571787 0.797557
O O10 0.627538 0.500000 0.787563
O O11 0.639311 0.565271 0.548483
O O12 0.701263 0.585204 0.880394
O O13 0.500000 0.559797 0.302800
O O14 0.654030 0.500000 0.305659
O O15 0.685952 0.592184 0.216635
#
# Coordination Sequence:
#
# PCOD9356874 Si02
#       6
#     8   8   8   8   8   8
#     4  10  21  38  57  77 102 137 192 242 274 308
#     4   9  20  36  55  75 104 146 185 222 274 322
#     4  10  19  32  50  79 114 145 174 214 268 339
#     4   9  18  33  53  79 113 149 180 212 260 327
#     4   9  18  33  54  80 113 151 181 211 261 326
#     4  11  21  31  53  82 112 140 180 222 274 313
#
# _framework density 17.940142999999999
#
# number of rings (size 3 to 8) (size 9 to 14) (size 15 to 20)
#    0.000    2.333    0.000    4.000    2.333    1.333 
#    0.000    4.167    0.000    2.000    0.000    2.333 
#    0.000    0.000    0.000    0.000    0.000    0.000 
#
# Total GULP energy -133927.400351 kJ/mol
# GULP energy per Si atom -5580.308348 kJ/mol
# Density = 1.789931 g / cm^3
# Si number density = 17.940143 Si / 1000 Ang^3
#
#
#
# Elastic Constant Matrix: (Units=GPa)
#
#
# Indices 1 2 3 4 5 6 
#
# 1 113.8106 40.4455 43.3548 0.0000 0.0000 0.0000
# 2 40.4455 57.9922 33.9679 0.0000 0.0000 0.0000
# 3 43.3548 33.9679 66.5871 0.0000 0.0000 0.0000
# 4 0.0000 0.0000 0.0000 28.6678 0.0000 0.0000
# 5 0.0000 0.0000 0.0000 0.0000 16.1250 0.0000
# 6 0.0000 0.0000 0.0000 0.0000 0.0000 14.9080
#
#
#
# Elastic Compliance Matrix: (Units=1/GPa)
#
#
# Indices 1 2 3 4 5 6 
#
# 1 0.012933 -0.005829 -0.005447 0.000000 0.000000 0.000000
# 2 -0.005829 0.027219 -0.010090 0.000000 0.000000 0.000000
# 3 -0.005447 -0.010090 0.023711 0.000000 0.000000 0.000000
# 4 0.000000 0.000000 0.000000 0.034882 0.000000 0.000000
# 5 0.000000 0.000000 0.000000 0.000000 0.062016 0.000000
# 6 0.000000 0.000000 0.000000 0.000000 0.000000 0.067078
#
#
# Mechanical properties :
#
#
# Convention : Reuss Voigt Hill
#
# Bulk Modulus (GPa) = 47.32267 52.65848 49.99057
# Shear Modulus (GPa) = 18.01048 19.98160 18.99604
#
# Velocity S-wave (km/s) = 3.17191 3.34097 3.25754
# Velocity P-wave (km/s) = 6.31269 6.65574 6.48648
#
# Compressibility (1/GPa) = 0.02113152
#
# Stress axis : x y z
#
# Youngs Moduli (GPa) = 77.32065 36.73873 42.17365
#
# Poissons Ratio (x) = 0.21417 0.22972
# Poissons Ratio (y) = 0.45074 0.42552
# Poissons Ratio (z) = 0.42116 0.37068
#
# Static dielectric constant tensor:
#      x y z
#    x 1.576470 0.000000 0.000000 
#    y 0.000000 1.635620 0.000000 
#    z 0.000000 0.000000 1.664540 
# 
# From -- ./inp_files/4714.got.cif
#   From: 2010.05.17/outbox.cif.g08.bks.cpg/sg38_3_cif.got.tgz:4714.got - 2010.06.03 18:07:57.
