data_PCOD9356701
_publ_section_title
;
Structure prediction by ZEFSAII (Michael W. Deem and Ramdas Pophale) SiO2 
 PCOD9356701
Probable space group: A M M 2
;
_chemical_formula_sum "Si O2"
_cell_formula_units_Z 64
_cell_length_a 20.332798
_cell_length_b 8.826557
_cell_length_c 20.584776
_cell_angle_alpha 90.000000
_cell_angle_beta 90.000000
_cell_angle_gamma 90.000000
_cell_volume 3694.320941
_symmetry_space_group_name_H-M "A M M 2"
_symmetry_group_IT_number 38
_symmetry_cell_setting 'orthorhombic'
loop_
_space_group_symop_operation_xyz
x,y,z
-x,-y,z
-x,y,z
x,-y,z
x,1/2+y,1/2+z
-x,1/2-y,1/2+z
-x,1/2+y,1/2+z
x,1/2-y,1/2+z
loop_
_atom_site_type_symbol
_atom_site_label
_atom_site_fract_x
_atom_site_fract_y
_atom_site_fract_z
Si Si1 0.163529 0.181690 0.351700
Si Si2 0.323671 0.820029 0.670974
Si Si3 0.796549 0.819523 0.982208
Si Si4 0.074850 0.684710 0.732226
Si Si5 0.345675 0.181458 0.452121
Si Si6 0.423805 0.818925 0.067058
Si Si7 0.313002 0.180839 0.307982
Si Si8 0.183894 0.817618 0.129048
O O1 0.161518 0.260943 0.421369
O O2 0.108396 0.229228 0.300326
O O3 0.235569 0.213585 0.320860
O O4 0.160305 0.000000 0.360766
O O5 0.376736 0.751072 0.621701
O O6 0.336708 0.767810 0.744709
O O7 0.251824 0.756580 0.651952
O O8 0.323884 0.000000 0.665631
O O9 0.725362 0.740496 0.976288
O O10 0.787427 0.000000 0.977429
O O11 0.825839 0.784783 0.052925
O O12 0.074031 0.500000 0.731640
O O13 0.123408 0.731655 0.674169
O O14 0.000000 0.737322 0.725627
O O15 0.399926 0.255446 0.497760
O O16 0.349175 0.219053 0.375546
O O17 0.347144 0.000000 0.458202
O O18 0.500000 0.718549 0.578611
O O19 0.416125 0.000000 0.067502
O O20 0.318551 0.000000 0.297066
O O21 0.191169 0.000000 0.136247
#
# Coordination Sequence:
#
# PCOD9356701 Si02
#       8
#     8   8   8   8   8   8   8   8
#     4   9  17  31  52  77 106 139 179 231 279 328
#     4  12  23  34  56  86 113 146 188 235 280 328
#     4  10  19  30  51  79 109 143 178 224 278 328
#     4   9  17  32  55  79 104 144 195 236 279 339
#     4  10  20  35  57  84 111 143 181 227 276 327
#     4  11  24  41  60  82 113 152 187 226 281 339
#     4   9  18  34  55  80 112 144 178 225 279 328
#     4  10  19  34  54  78 109 145 185 234 282 330
#
# _framework density 17.323886000000002
#
# number of rings (size 3 to 8) (size 9 to 14) (size 15 to 20)
#    0.000    2.000    2.500    3.000    0.000    4.000 
#    0.000    1.250    0.000    3.000    0.000    0.000 
#    0.000    0.000    0.000    0.000    0.000    0.000 
#
# Total GULP energy -178600.407742 kJ/mol
# GULP energy per Si atom -5581.262742 kJ/mol
# Density = 1.728446 g / cm^3
# Si number density = 17.323886 Si / 1000 Ang^3
#
#
#
# Elastic Constant Matrix: (Units=GPa)
#
#
# Indices 1 2 3 4 5 6 
#
# 1 115.0358 43.3577 81.6091 0.0000 0.0000 0.0000
# 2 43.3577 42.8491 55.5769 0.0000 0.0000 0.0000
# 3 81.6091 55.5769 152.3694 0.0000 0.0000 0.0000
# 4 0.0000 0.0000 0.0000 31.0792 0.0000 0.0000
# 5 0.0000 0.0000 0.0000 0.0000 24.6482 0.0000
# 6 0.0000 0.0000 0.0000 0.0000 0.0000 13.3597
#
#
#
# Elastic Compliance Matrix: (Units=1/GPa)
#
#
# Indices 1 2 3 4 5 6 
#
# 1 0.015837 -0.009533 -0.005005 0.000000 0.000000 0.000000
# 2 -0.009533 0.050031 -0.013143 0.000000 0.000000 0.000000
# 3 -0.005005 -0.013143 0.014037 0.000000 0.000000 0.000000
# 4 0.000000 0.000000 0.000000 0.032176 0.000000 0.000000
# 5 0.000000 0.000000 0.000000 0.000000 0.040571 0.000000
# 6 0.000000 0.000000 0.000000 0.000000 0.000000 0.074852
#
#
# Mechanical properties :
#
#
# Convention : Reuss Voigt Hill
#
# Bulk Modulus (GPa) = 40.74447 74.59352 57.66899
# Shear Modulus (GPa) = 17.17942 22.46479 19.82211
#
# Velocity S-wave (km/s) = 3.15248 3.60495 3.38628
# Velocity P-wave (km/s) = 6.06804 7.77684 6.97497
#
# Compressibility (1/GPa) = 0.02454321
#
# Stress axis : x y z
#
# Youngs Moduli (GPa) = 63.14475 19.98773 71.23783
#
# Poissons Ratio (x) = 0.19054 0.35654
# Poissons Ratio (y) = 0.60196 0.93627
# Poissons Ratio (z) = 0.31603 0.26270
#
# Static dielectric constant tensor:
#      x y z
#    x 1.564430 0.000000 0.000000 
#    y 0.000000 1.579960 0.000000 
#    z 0.000000 0.000000 1.598570 
# 
# From -- ./inp_files/21407.got.cif
#   From: 2010.05.17/outbox.cif.g08.bks.cpg/sg38_11_cif.got.tgz:21407.got - 2010.06.03 18:07:57.
