data_PCOD9356905
_publ_section_title
;
Structure prediction by ZEFSAII (Michael W. Deem and Ramdas Pophale) SiO2 
 PCOD9356905
Probable space group: A M M 2
;
_chemical_formula_sum "Si O2"
_cell_formula_units_Z 56
_cell_length_a 7.530239
_cell_length_b 15.244116
_cell_length_c 22.476584
_cell_angle_alpha 90.000000
_cell_angle_beta 90.000000
_cell_angle_gamma 90.000000
_cell_volume 2580.128363
_symmetry_space_group_name_H-M "A M M 2"
_symmetry_group_IT_number 38
_symmetry_cell_setting 'orthorhombic'
loop_
_space_group_symop_operation_xyz
x,y,z
-x,-y,z
-x,y,z
x,-y,z
x,1/2+y,1/2+z
-x,1/2-y,1/2+z
-x,1/2+y,1/2+z
x,1/2-y,1/2+z
loop_
_atom_site_type_symbol
_atom_site_label
_atom_site_fract_x
_atom_site_fract_y
_atom_site_fract_z
Si Si1 0.709187 0.903230 0.474190
Si Si2 0.290685 0.718428 0.441044
Si Si3 0.785860 0.783829 0.720958
Si Si4 0.216592 0.097273 0.188444
Si Si5 0.214092 0.098117 0.050405
Si Si6 0.288454 0.901034 0.835397
Si Si7 0.214613 0.901171 0.612638
O O1 0.500000 0.907196 0.460170
O O2 0.785863 0.816624 0.443383
O O3 0.723874 0.888493 0.545233
O O4 0.785653 0.000000 0.461296
O O5 0.500000 0.727958 0.428441
O O6 0.274867 0.671573 0.504845
O O7 0.214701 0.653657 0.391233
O O8 0.723604 0.683110 0.723952
O O9 0.738785 0.844523 0.776241
O O10 0.722750 0.830213 0.660184
O O11 0.000000 0.781387 0.717866
O O12 0.000000 0.095707 0.189730
O O13 0.276249 0.000000 0.207457
O O14 0.267815 0.110065 0.119069
O O15 0.000000 0.099483 0.049989
O O16 0.271803 0.000000 0.031351
O O17 0.500000 0.908893 0.844267
O O18 0.216799 0.000000 0.830652
O O19 0.000000 0.897923 0.611232
O O20 0.266485 0.000000 0.631452
#
# Coordination Sequence:
#
# PCOD9356905 Si02
#       7
#     8   8   8   8   8   8   8
#     4   9  18  32  50  73  99 127 161 198 236 284
#     4  10  20  34  51  70  96 131 165 198 240 286
#     4  10  19  32  52  74  96 127 166 203 236 277
#     4   8  15  29  49  74 103 130 155 190 241 293
#     4   9  17  30  51  78 103 127 157 194 238 289
#     4  10  22  38  52  68  95 129 161 197 244 292
#     4   9  17  29  47  73 102 128 156 196 245 289
#
# _framework density 21.704345
#
# number of rings (size 3 to 8) (size 9 to 14) (size 15 to 20)
#    0.000    2.714    0.000    2.571    0.000    4.571 
#    0.000    2.857    0.000    2.143    0.000    0.000 
#    0.000    0.000    0.000    0.000    0.000    0.000 
#
# Total GULP energy -156286.619096 kJ/mol
# GULP energy per Si atom -5581.664968 kJ/mol
# Density = 2.165495 g / cm^3
# Si number density = 21.704345 Si / 1000 Ang^3
#
#
#
# Elastic Constant Matrix: (Units=GPa)
#
#
# Indices 1 2 3 4 5 6 
#
# 1 53.8785 12.6913 0.4295 0.0000 0.0000 0.0000
# 2 12.6913 245.0401 79.2346 0.0000 0.0000 0.0000
# 3 0.4295 79.2346 43.1308 0.0000 0.0000 0.0000
# 4 0.0000 0.0000 0.0000 30.3424 0.0000 0.0000
# 5 0.0000 0.0000 0.0000 0.0000 16.4653 0.0000
# 6 0.0000 0.0000 0.0000 0.0000 0.0000 12.5839
#
#
#
# Elastic Compliance Matrix: (Units=1/GPa)
#
#
# Indices 1 2 3 4 5 6 
#
# 1 0.019066 -0.002281 0.004001 0.000000 0.000000 0.000000
# 2 -0.002281 0.010325 -0.018945 0.000000 0.000000 0.000000
# 3 0.004001 -0.018945 0.057950 0.000000 0.000000 0.000000
# 4 0.000000 0.000000 0.000000 0.032957 0.000000 0.000000
# 5 0.000000 0.000000 0.000000 0.000000 0.060734 0.000000
# 6 0.000000 0.000000 0.000000 0.000000 0.000000 0.079467
#
#
# Mechanical properties :
#
#
# Convention : Reuss Voigt Hill
#
# Bulk Modulus (GPa) = 18.90752 58.52889 38.71821
# Shear Modulus (GPa) = 15.99592 28.52458 22.26025
#
# Velocity S-wave (km/s) = 2.71770 3.62917 3.20599
# Velocity P-wave (km/s) = 4.31024 6.67729 5.61980
#
# Compressibility (1/GPa) = 0.05288901
#
# Stress axis : x y z
#
# Youngs Moduli (GPa) = 52.45016 96.85052 17.25633
#
# Poissons Ratio (x) = 0.22093 -0.06904
# Poissons Ratio (y) = 0.11965 0.32693
# Poissons Ratio (z) = -0.20984 1.83488
#
# Static dielectric constant tensor:
#      x y z
#    x 1.831050 0.000000 0.000000 
#    y 0.000000 1.834080 0.000000 
#    z 0.000000 0.000000 1.736450 
# 
# From -- ./inp_files/19775.got.cif
#   From: 2010.05.17/outbox.cif.g08.bks.cpg/sg38_10_cif.got.tgz:19775.got - 2010.06.03 18:07:57.
