data_PCOD9356962
_publ_section_title
;
Structure prediction by ZEFSAII (Michael W. Deem and Ramdas Pophale) SiO2 
 PCOD9356962
Probable space group: A M M 2
;
_chemical_formula_sum "Si O2"
_cell_formula_units_Z 56
_cell_length_a 14.400043
_cell_length_b 11.369693
_cell_length_c 17.823617
_cell_angle_alpha 90.000000
_cell_angle_beta 90.000000
_cell_angle_gamma 90.000000
_cell_volume 2918.155083
_symmetry_space_group_name_H-M "A M M 2"
_symmetry_group_IT_number 38
_symmetry_cell_setting 'orthorhombic'
loop_
_space_group_symop_operation_xyz
x,y,z
-x,-y,z
-x,y,z
x,-y,z
x,1/2+y,1/2+z
-x,1/2-y,1/2+z
-x,1/2+y,1/2+z
x,1/2-y,1/2+z
loop_
_atom_site_type_symbol
_atom_site_label
_atom_site_fract_x
_atom_site_fract_y
_atom_site_fract_z
Si Si1 0.609488 0.636214 0.420340
Si Si2 0.239974 0.205226 0.817845
Si Si3 0.709472 0.127038 0.654729
Si Si4 0.108257 0.871578 0.948119
Si Si5 0.387816 0.365124 0.597124
Si Si6 0.105764 0.295082 0.087446
Si Si7 0.102313 0.362539 0.735907
O O1 0.500000 0.655648 0.413024
O O2 0.628759 0.500000 0.398390
O O3 0.668034 0.720435 0.367147
O O4 0.633676 0.645956 0.508207
O O5 0.264846 0.135477 0.742540
O O6 0.170265 0.141727 0.874949
O O7 0.184434 0.318008 0.788471
O O8 0.656817 0.249858 0.635585
O O9 0.805762 0.127391 0.608121
O O10 0.661598 0.000000 0.640849
O O11 0.000000 0.866973 0.927465
O O12 0.126636 0.000000 0.982957
O O13 0.124004 0.771627 0.009642
O O14 0.500000 0.360890 0.605392
O O15 0.358934 0.500000 0.620143
O O16 0.106425 0.201642 0.155887
O O17 0.000000 0.344996 0.085545
O O18 0.108089 0.500000 0.724137
O O19 0.000000 0.334240 0.768873
#
# Coordination Sequence:
#
# PCOD9356962 Si02
#       7
#     8   8   8   8   8   8   8
#     4   9  18  35  59  82 103 133 178 231 279 320
#     4  11  21  33  51  78 112 145 177 217 273 335
#     4  11  23  35  53  85 120 152 181 216 274 339
#     4  10  19  32  53  79 104 135 184 243 288 319
#     4   9  20  41  67  88 105 135 184 236 279 322
#     4   9  19  35  55  78 104 141 191 237 274 316
#     4   9  18  34  54  76 106 145 188 232 277 326
#
# _framework density 19.190207000000001
#
# number of rings (size 3 to 8) (size 9 to 14) (size 15 to 20)
#    0.000    2.286    0.000    3.857    0.000    7.429 
#    0.000    2.857    0.000    2.143    0.000    0.000 
#    0.000    0.000    0.000    0.000    0.000    0.000 
#
# Total GULP energy -156055.296760 kJ/mol
# GULP energy per Si atom -5573.403456 kJ/mol
# Density = 1.914653 g / cm^3
# Si number density = 19.190207 Si / 1000 Ang^3
#
#
#
# Elastic Constant Matrix: (Units=GPa)
#
#
# Indices 1 2 3 4 5 6 
#
# 1 68.3112 42.8415 39.7507 0.0000 0.0000 0.0000
# 2 42.8415 112.1907 31.6246 0.0000 0.0000 0.0000
# 3 39.7507 31.6246 77.6833 0.0000 0.0000 0.0000
# 4 0.0000 0.0000 0.0000 -4.3920 0.0000 0.0000
# 5 0.0000 0.0000 0.0000 0.0000 34.3815 0.0000
# 6 0.0000 0.0000 0.0000 0.0000 0.0000 21.7649
#
#
#
# Elastic Compliance Matrix: (Units=1/GPa)
#
#
# Indices 1 2 3 4 5 6 
#
# 1 0.024501 -0.006577 -0.009860 0.000000 0.000000 0.000000
# 2 -0.006577 0.011834 -0.001452 0.000000 0.000000 0.000000
# 3 -0.009860 -0.001452 0.018509 0.000000 0.000000 0.000000
# 4 0.000000 0.000000 0.000000 -0.227687 0.000000 0.000000
# 5 0.000000 0.000000 0.000000 0.000000 0.029085 0.000000
# 6 0.000000 0.000000 0.000000 0.000000 0.000000 0.045946
#
#
# Mechanical properties :
#
#
# Convention : Reuss Voigt Hill
#
# Bulk Modulus (GPa) = 52.44743 54.06874 53.25809
# Shear Modulus (GPa) = -89.80155 19.94877 -34.92639
#
# Velocity S-wave (km/s) = -6.84815 3.22767 -4.27079
# Velocity P-wave (km/s) = 5.92788 6.49052 1.86909
#
# Compressibility (1/GPa) = 0.01906671
#
# Stress axis : x y z
#
# Youngs Moduli (GPa) = 40.81469 84.50099 54.02678
#
# Poissons Ratio (x) = 0.55574 0.53270
# Poissons Ratio (y) = 0.26843 0.07847
# Poissons Ratio (z) = 0.40243 0.12272
#
# Static dielectric constant tensor:
#      x y z
#    x 1.721360 0.000000 0.000000 
#    y 0.000000 1.659350 0.000000 
#    z 0.000000 0.000000 1.639170 
# 
# From -- ./inp_files/14563.got.cif
#   From: 2010.05.17/outbox.cif.g08.bks.cpg/sg38_8_cif.got.tgz:14563.got - 2010.06.03 18:07:57.
