data_PCOD9356293
_publ_section_title
;
Structure prediction by ZEFSAII (Michael W. Deem and Ramdas Pophale) SiO2 
 PCOD9356293
Probable space group: A M M 2
;
_chemical_formula_sum "Si O2"
_cell_formula_units_Z 56
_cell_length_a 16.041760
_cell_length_b 7.838228
_cell_length_c 20.839370
_cell_angle_alpha 90.000000
_cell_angle_beta 90.000000
_cell_angle_gamma 90.000000
_cell_volume 2620.320969
_symmetry_space_group_name_H-M "A M M 2"
_symmetry_group_IT_number 38
_symmetry_cell_setting 'orthorhombic'
loop_
_space_group_symop_operation_xyz
x,y,z
-x,-y,z
-x,y,z
x,-y,z
x,1/2+y,1/2+z
-x,1/2-y,1/2+z
-x,1/2+y,1/2+z
x,1/2-y,1/2+z
loop_
_atom_site_type_symbol
_atom_site_label
_atom_site_fract_x
_atom_site_fract_y
_atom_site_fract_z
Si Si1 0.194995 0.297355 0.051510
Si Si2 0.224646 0.703143 0.331161
Si Si3 0.590354 0.293387 0.653966
Si Si4 0.093123 0.206325 0.935653
Si Si5 0.771813 0.300134 0.191988
Si Si6 0.590667 0.803852 0.369379
Si Si7 0.626531 0.302334 0.509212
O O1 0.212145 0.500000 0.054028
O O2 0.192758 0.230757 0.124688
O O3 0.273760 0.211946 0.016252
O O4 0.116085 0.264437 0.007266
O O5 0.210672 0.500000 0.329111
O O6 0.164270 0.771315 0.386804
O O7 0.203820 0.775173 0.260631
O O8 0.322676 0.726192 0.345423
O O9 0.500000 0.244839 0.680549
O O10 0.597470 0.500000 0.656309
O O11 0.671583 0.217192 0.686571
O O12 0.594002 0.244361 0.578590
O O13 0.000000 0.260223 0.917271
O O14 0.095444 0.000000 0.935424
O O15 0.793788 0.500000 0.193034
O O16 0.500000 0.729217 0.350866
O O17 0.596457 0.795392 0.446831
O O18 0.591302 0.000000 0.348007
O O19 0.603225 0.500000 0.500427
#
# Coordination Sequence:
#
# PCOD9356293 Si02
#       7
#     8   8   8   8   8   8   8
#     4  10  19  34  57  85 115 143 178 229 286 338
#     4  10  21  39  59  80 112 153 192 232 278 334
#     4   9  18  31  48  73 105 143 189 235 279 330
#     4  10  21  38  62  89 113 143 187 236 285 340
#     4   9  20  36  54  78 109 147 187 228 278 331
#     4  11  23  35  50  78 115 153 192 237 286 331
#     4  10  18  31  52  77 107 145 188 235 282 330
#
# _framework density 21.371428999999999
#
# number of rings (size 3 to 8) (size 9 to 14) (size 15 to 20)
#    0.000    2.143    1.429    1.714    0.000    4.571 
#    0.000    3.571    0.000    2.571    0.000    0.000 
#    0.000    0.000    0.000    0.000    0.000    0.000 
#
# Total GULP energy -156291.052794 kJ/mol
# GULP energy per Si atom -5581.823314 kJ/mol
# Density = 2.132279 g / cm^3
# Si number density = 21.371429 Si / 1000 Ang^3
#
#
#
# Elastic Constant Matrix: (Units=GPa)
#
#
# Indices 1 2 3 4 5 6 
#
# 1 97.3108 2.3243 54.3240 0.0000 0.0000 0.0000
# 2 2.3243 30.4845 2.5554 0.0000 0.0000 0.0000
# 3 54.3240 2.5554 130.2093 0.0000 0.0000 0.0000
# 4 0.0000 0.0000 0.0000 12.3617 0.0000 0.0000
# 5 0.0000 0.0000 0.0000 0.0000 -6.3362 0.0000
# 6 0.0000 0.0000 0.0000 0.0000 0.0000 15.0433
#
#
#
# Elastic Compliance Matrix: (Units=1/GPa)
#
#
# Indices 1 2 3 4 5 6 
#
# 1 0.013406 -0.000554 -0.005582 0.000000 0.000000 0.000000
# 2 -0.000554 0.032881 -0.000414 0.000000 0.000000 0.000000
# 3 -0.005582 -0.000414 0.010017 0.000000 0.000000 0.000000
# 4 0.000000 0.000000 0.000000 0.080895 0.000000 0.000000
# 5 0.000000 0.000000 0.000000 0.000000 -0.157824 0.000000
# 6 0.000000 0.000000 0.000000 0.000000 0.000000 0.066475
#
#
# Mechanical properties :
#
#
# Convention : Reuss Voigt Hill
#
# Bulk Modulus (GPa) = 23.14680 41.82355 32.48517
# Shear Modulus (GPa) = 68.16572 17.46716 42.81644
#
# Velocity S-wave (km/s) = 5.65376 2.86197 4.48084
# Velocity P-wave (km/s) = 7.31260 5.52571 6.48104
#
# Compressibility (1/GPa) = 0.04320252
#
# Stress axis : x y z
#
# Youngs Moduli (GPa) = 74.59453 30.41315 99.83085
#
# Poissons Ratio (x) = 0.01686 0.55727
# Poissons Ratio (y) = 0.04134 0.04134
# Poissons Ratio (z) = 0.41639 0.01259
#
# Static dielectric constant tensor:
#      x y z
#    x 1.774810 0.000000 0.000000 
#    y 0.000000 1.782880 0.000000 
#    z 0.000000 0.000000 1.808780 
# 
# From -- ./inp_files/21008.got.cif
#   From: 2010.05.17/outbox.cif.g08.bks.cpg/sg38_11_cif.got.tgz:21008.got - 2010.06.03 18:07:57.
