data_PCOD9356079
_publ_section_title
;
Structure prediction by ZEFSAII (Michael W. Deem and Ramdas Pophale) SiO2 
 PCOD9356079
Probable space group: A M M 2
;
_chemical_formula_sum "Si O2"
_cell_formula_units_Z 64
_cell_length_a 20.334741
_cell_length_b 14.799196
_cell_length_c 10.680971
_cell_angle_alpha 90.000000
_cell_angle_beta 90.000000
_cell_angle_gamma 90.000000
_cell_volume 3214.308103
_symmetry_space_group_name_H-M "A M M 2"
_symmetry_group_IT_number 38
_symmetry_cell_setting 'orthorhombic'
loop_
_space_group_symop_operation_xyz
x,y,z
-x,-y,z
-x,y,z
x,-y,z
x,1/2+y,1/2+z
-x,1/2-y,1/2+z
-x,1/2+y,1/2+z
x,1/2-y,1/2+z
loop_
_atom_site_type_symbol
_atom_site_label
_atom_site_fract_x
_atom_site_fract_y
_atom_site_fract_z
Si Si1 0.786355 0.391167 0.358770
Si Si2 0.929252 0.393302 0.062978
Si Si3 0.423380 0.139384 0.214839
Si Si4 0.213645 0.608833 0.070909
Si Si5 0.575868 0.639368 0.214839
Si Si6 0.647580 0.642874 0.965415
Si Si7 0.647580 0.857126 0.964264
Si Si8 0.929252 0.893302 0.866701
O O1 0.791098 0.500000 0.351487
O O2 0.773817 0.358933 0.214839
O O3 0.725268 0.370119 0.447229
O O4 0.857749 0.357072 0.405066
O O5 0.930278 0.500000 0.030552
O O6 0.857749 0.357072 0.024613
O O7 0.928304 0.388716 0.214839
O O8 0.000000 0.355075 0.020517
O O9 0.500000 0.113156 0.214839
O O10 0.422344 0.250085 0.214839
O O11 0.385280 0.108177 0.338819
O O12 0.385280 0.108177 0.090859
O O13 0.208902 0.500000 0.078192
O O14 0.274732 0.629881 0.982450
O O15 0.500000 0.612866 0.214839
O O16 0.612608 0.607224 0.339300
O O17 0.612608 0.607224 0.090379
O O18 0.635602 0.750000 0.964839
O O19 0.000000 0.855075 0.909162
O O20 0.930278 0.000000 0.899127
#
# Coordination Sequence:
#
# PCOD9356079 Si02
#       8
#     8   8   8   8   8   8   8   8
#     4   9  16  27  45  68  93 118 146 184 225 264
#     4   7  10  18  35  61  89 113 140 178 220 255
#     4   9  18  30  45  65  86 115 154 190 221 255
#     4   9  16  27  45  68  93 118 146 184 225 264
#     4   9  16  28  47  67  86 111 148 192 227 259
#     4  10  18  29  46  68  92 116 147 186 225 267
#     4  10  18  29  46  68  92 116 147 186 225 267
#     4   7  10  18  35  61  89 113 140 178 220 255
#
# _framework density 19.910972999999998
#
# number of rings (size 3 to 8) (size 9 to 14) (size 15 to 20)
#    0.000    3.250    1.250    3.000    0.000    3.000 
#    0.000    0.625    0.000    5.250    0.000    0.875 
#    0.000    4.000    0.000    0.000    0.000    0.000 
#
# Total GULP energy -178214.283690 kJ/mol
# GULP energy per Si atom -5569.196365 kJ/mol
# Density = 1.986565 g / cm^3
# Si number density = 19.910973 Si / 1000 Ang^3
#
#
#
# Elastic Constant Matrix: (Units=GPa)
#
#
# Indices 1 2 3 4 5 6 
#
# 1 229.3324 -3.9324 101.9602 0.0000 0.0000 0.0000
# 2 -3.9324 46.0391 10.5670 0.0000 0.0000 0.0000
# 3 101.9602 10.5670 120.5219 0.0000 0.0000 0.0000
# 4 0.0000 0.0000 0.0000 -5.2182 0.0000 0.0000
# 5 0.0000 0.0000 0.0000 0.0000 19.6296 0.0000
# 6 0.0000 0.0000 0.0000 0.0000 0.0000 16.4670
#
#
#
# Elastic Compliance Matrix: (Units=1/GPa)
#
#
# Indices 1 2 3 4 5 6 
#
# 1 0.007173 0.002047 -0.006248 0.000000 0.000000 0.000000
# 2 0.002047 0.022751 -0.003726 0.000000 0.000000 0.000000
# 3 -0.006248 -0.003726 0.013910 0.000000 0.000000 0.000000
# 4 0.000000 0.000000 0.000000 -0.191638 0.000000 0.000000
# 5 0.000000 0.000000 0.000000 0.000000 0.050943 0.000000
# 6 0.000000 0.000000 0.000000 0.000000 0.000000 0.060727
#
#
# Mechanical properties :
#
#
# Convention : Reuss Voigt Hill
#
# Bulk Modulus (GPa) = 35.74138 68.12036 51.93087
# Shear Modulus (GPa) = -456.55026 25.32892 -215.61067
#
# Velocity S-wave (km/s) = -15.15894 3.57053 -10.41741
# Velocity P-wave (km/s) = 16.98240 7.16136 10.88845
#
# Compressibility (1/GPa) = 0.02797877
#
# Stress axis : x y z
#
# Youngs Moduli (GPa) = 139.40243 43.95459 71.89169
#
# Poissons Ratio (x) = -0.08997 0.44919
# Poissons Ratio (y) = -0.28533 0.26789
# Poissons Ratio (z) = 0.87101 0.16379
#
# Static dielectric constant tensor:
#      x y z
#    x 1.753240 0.000000 0.000000 
#    y 0.000000 1.746070 0.000000 
#    z 0.000000 0.000000 1.694910 
# 
# From -- ./inp_files/10678.got.cif
#   From: 2010.05.17/outbox.cif.g08.bks.cpg/sg38_6_cif.got.tgz:10678.got - 2010.06.03 18:07:57.
