data_PCOD9356197
_publ_section_title
;
Structure prediction by ZEFSAII (Michael W. Deem and Ramdas Pophale) SiO2 
 PCOD9356197
Probable space group: A M M 2
;
_chemical_formula_sum "Si O2"
_cell_formula_units_Z 48
_cell_length_a 7.729911
_cell_length_b 32.886576
_cell_length_c 9.237994
_cell_angle_alpha 90.000000
_cell_angle_beta 90.000000
_cell_angle_gamma 90.000000
_cell_volume 2348.393278
_symmetry_space_group_name_H-M "A M M 2"
_symmetry_group_IT_number 38
_symmetry_cell_setting 'orthorhombic'
loop_
_space_group_symop_operation_xyz
x,y,z
-x,-y,z
-x,y,z
x,-y,z
x,1/2+y,1/2+z
-x,1/2-y,1/2+z
-x,1/2+y,1/2+z
x,1/2-y,1/2+z
loop_
_atom_site_type_symbol
_atom_site_label
_atom_site_fract_x
_atom_site_fract_y
_atom_site_fract_z
Si Si1 0.202983 0.131813 0.465940
Si Si2 0.289459 0.956240 0.139150
Si Si3 0.291799 0.043790 0.481861
Si Si4 0.299696 0.868190 0.132841
Si Si5 0.787078 0.291892 0.154549
Si Si6 0.201935 0.286439 0.480552
O O1 0.226028 0.087145 0.535864
O O2 0.289303 0.132677 0.307676
O O3 0.267145 0.167883 0.568040
O O4 0.000000 0.138234 0.438853
O O5 0.500000 0.955607 0.130164
O O6 0.246916 0.956711 0.310502
O O7 0.227644 0.912391 0.083933
O O8 0.231296 0.000000 0.077959
O O9 0.500000 0.044617 0.491767
O O10 0.232569 0.000000 0.542803
O O11 0.500000 0.866472 0.090305
O O12 0.214119 0.828567 0.066453
O O13 0.724972 0.291082 0.319654
O O14 0.727038 0.251367 0.071777
O O15 0.000000 0.292589 0.156893
O O16 0.000000 0.276598 0.461286
#
# Coordination Sequence:
#
# PCOD9356197 Si02
#       6
#     8   8   8   8   8   8
#     4  10  18  30  50  76 102 131 168 206 245 292
#     4   7  11  22  41  63  89 122 156 189 227 272
#     4   8  14  26  44  68 100 135 167 202 245 288
#     4  10  19  31  48  74 103 130 162 201 247 294
#     4   9  19  34  54  75  95 124 163 205 250 301
#     4  10  19  35  55  72  93 125 164 203 248 303
#
# _framework density 20.439506999999999
#
# number of rings (size 3 to 8) (size 9 to 14) (size 15 to 20)
#    0.000    3.000    0.000    4.000    0.000    3.000 
#    0.000    5.833    0.000    2.500    0.000    4.667 
#    0.000    0.000    0.000    0.000    0.000    0.000 
#
# Total GULP energy -133698.888208 kJ/mol
# GULP energy per Si atom -5570.787009 kJ/mol
# Density = 2.039299 g / cm^3
# Si number density = 20.439507 Si / 1000 Ang^3
#
#
#
# Elastic Constant Matrix: (Units=GPa)
#
#
# Indices 1 2 3 4 5 6 
#
# 1 26.7447 -8.4546 -6.4579 0.0000 0.0000 0.0000
# 2 -8.4546 217.3284 66.8770 0.0000 0.0000 0.0000
# 3 -6.4579 66.8770 64.8115 0.0000 0.0000 0.0000
# 4 0.0000 0.0000 0.0000 20.6400 0.0000 0.0000
# 5 0.0000 0.0000 0.0000 0.0000 -12.0301 0.0000
# 6 0.0000 0.0000 0.0000 0.0000 0.0000 21.9280
#
#
#
# Elastic Compliance Matrix: (Units=1/GPa)
#
#
# Indices 1 2 3 4 5 6 
#
# 1 0.038344 0.000463 0.003343 0.000000 0.000000 0.000000
# 2 0.000463 0.006748 -0.006917 0.000000 0.000000 0.000000
# 3 0.003343 -0.006917 0.022900 0.000000 0.000000 0.000000
# 4 0.000000 0.000000 0.000000 0.048450 0.000000 0.000000
# 5 0.000000 0.000000 0.000000 0.000000 -0.083125 0.000000
# 6 0.000000 0.000000 0.000000 0.000000 0.000000 0.045604
#
#
# Mechanical properties :
#
#
# Convention : Reuss Voigt Hill
#
# Bulk Modulus (GPa) = 16.18912 45.86819 31.02866
# Shear Modulus (GPa) = 47.28968 23.23558 35.26263
#
# Velocity S-wave (km/s) = 4.81525 3.37530 4.15808
# Velocity P-wave (km/s) = 6.23323 6.13839 6.18600
#
# Compressibility (1/GPa) = 0.06176988
#
# Stress axis : x y z
#
# Youngs Moduli (GPa) = 26.07962 148.19718 43.66898
#
# Poissons Ratio (x) = -0.06861 -0.14598
# Poissons Ratio (y) = -0.01207 0.30204
# Poissons Ratio (z) = -0.08718 1.02503
#
# Static dielectric constant tensor:
#      x y z
#    x 1.768140 0.000000 0.000000 
#    y 0.000000 1.779430 0.000000 
#    z 0.000000 0.000000 1.696040 
# 
# From -- ./inp_files/3791.got.cif
#   From: 2010.05.17/outbox.cif.g08.bks.cpg/sg38_2_cif.got.tgz:3791.got - 2010.06.03 18:07:57.
