data_PCOD9356660
_publ_section_title
;
Structure prediction by ZEFSAII (Michael W. Deem and Ramdas Pophale) SiO2 
 PCOD9356660
Probable space group: A M M 2
;
_chemical_formula_sum "Si O2"
_cell_formula_units_Z 64
_cell_length_a 8.231869
_cell_length_b 25.133253
_cell_length_c 13.981878
_cell_angle_alpha 90.000000
_cell_angle_beta 90.000000
_cell_angle_gamma 90.000000
_cell_volume 2892.761721
_symmetry_space_group_name_H-M "A M M 2"
_symmetry_group_IT_number 38
_symmetry_cell_setting 'orthorhombic'
loop_
_space_group_symop_operation_xyz
x,y,z
-x,-y,z
-x,y,z
x,-y,z
x,1/2+y,1/2+z
-x,1/2-y,1/2+z
-x,1/2+y,1/2+z
x,1/2-y,1/2+z
loop_
_atom_site_type_symbol
_atom_site_label
_atom_site_fract_x
_atom_site_fract_y
_atom_site_fract_z
Si Si1 0.197296 0.175246 0.028860
Si Si2 0.803673 0.559685 0.814859
Si Si3 0.308788 0.724641 0.326447
Si Si4 0.803967 0.673679 0.737753
Si Si5 0.694125 0.060729 0.533930
Si Si6 0.815115 0.942858 0.034144
Si Si7 0.811461 0.363433 0.194655
Si Si8 0.678040 0.556400 0.338500
O O1 0.240795 0.197729 0.133246
O O2 0.000000 0.173653 0.020796
O O3 0.258589 0.200748 0.930289
O O4 0.259514 0.114876 0.045322
O O5 0.753614 0.500000 0.781758
O O6 0.753213 0.612100 0.755435
O O7 0.000000 0.559747 0.817093
O O8 0.739172 0.566023 0.922572
O O9 0.500000 0.717336 0.315725
O O10 0.264248 0.786686 0.317537
O O11 0.220957 0.695151 0.236937
O O12 0.000000 0.673972 0.742402
O O13 0.500000 0.062207 0.546182
O O14 0.767925 0.110629 0.592459
O O15 0.749674 0.000000 0.561838
O O16 0.813451 0.944132 0.918863
O O17 0.000000 0.941509 0.072159
O O18 0.742505 0.000000 0.063141
O O19 0.701544 0.397269 0.266133
O O20 0.000000 0.374857 0.210857
O O21 0.500000 0.559957 0.385548
O O22 0.683803 0.500000 0.286294
#
# Coordination Sequence:
#
# PCOD9356660 Si02
#       8
#     8   8   8   8   8   8   8   8
#     4  10  21  40  65  92 124 162 203 252 309 368
#     4   9  19  39  67  97 128 162 203 253 308 367
#     4  12  26  43  63  88 122 165 210 260 313 369
#     4  10  23  43  68  96 126 162 204 253 308 369
#     4  10  21  37  59  90 128 168 211 261 316 373
#     4   9  17  30  52  84 120 159 201 243 292 354
#     4  12  23  36  57  84 119 163 211 259 311 369
#     4  10  19  30  47  76 116 159 200 243 294 352
#
# _framework density 22.124186000000002
#
# number of rings (size 3 to 8) (size 9 to 14) (size 15 to 20)
#    0.000    1.750    1.250    3.375    0.000    5.500 
#    0.000    3.750    0.000    0.000    0.000    5.250 
#    0.000    0.000    0.000    0.000    0.000    0.000 
#
# Total GULP energy -178283.867306 kJ/mol
# GULP energy per Si atom -5571.370853 kJ/mol
# Density = 2.207383 g / cm^3
# Si number density = 22.124186 Si / 1000 Ang^3
#
#
#
# Elastic Constant Matrix: (Units=GPa)
#
#
# Indices 1 2 3 4 5 6 
#
# 1 55.4174 12.3222 16.1206 0.0000 0.0000 0.0000
# 2 12.3222 139.6819 56.3375 0.0000 0.0000 0.0000
# 3 16.1206 56.3375 122.4613 0.0000 0.0000 0.0000
# 4 0.0000 0.0000 0.0000 26.7442 0.0000 0.0000
# 5 0.0000 0.0000 0.0000 0.0000 -3.1469 0.0000
# 6 0.0000 0.0000 0.0000 0.0000 0.0000 15.0660
#
#
#
# Elastic Compliance Matrix: (Units=1/GPa)
#
#
# Indices 1 2 3 4 5 6 
#
# 1 0.018838 -0.000812 -0.002106 0.000000 0.000000 0.000000
# 2 -0.000812 0.008825 -0.003953 0.000000 0.000000 0.000000
# 3 -0.002106 -0.003953 0.010262 0.000000 0.000000 0.000000
# 4 0.000000 0.000000 0.000000 0.037391 0.000000 0.000000
# 5 0.000000 0.000000 0.000000 0.000000 -0.317775 0.000000
# 6 0.000000 0.000000 0.000000 0.000000 0.000000 0.066374
#
#
# Mechanical properties :
#
#
# Convention : Reuss Voigt Hill
#
# Bulk Modulus (GPa) = 41.35311 54.12458 47.73884
# Shear Modulus (GPa) = -32.40840 23.25136 -4.57852
#
# Velocity S-wave (km/s) = -3.83148 3.24535 -1.44012
# Velocity P-wave (km/s) = 0.91743 6.20968 4.34272
#
# Compressibility (1/GPa) = 0.02418198
#
# Stress axis : x y z
#
# Youngs Moduli (GPa) = 53.08372 113.31257 97.45022
#
# Poissons Ratio (x) = 0.09205 0.20524
# Poissons Ratio (y) = 0.04312 0.38522
# Poissons Ratio (z) = 0.11180 0.44793
#
# Static dielectric constant tensor:
#      x y z
#    x 1.806400 0.000000 0.000000 
#    y 0.000000 1.960760 0.000000 
#    z 0.000000 0.000000 1.813260 
# 
# From -- ./inp_files/12836.got.cif
#   From: 2010.05.17/outbox.cif.g08.bks.cpg/sg38_7_cif.got.tgz:12836.got - 2010.06.03 18:07:57.
