data_PCOD9356892
_publ_section_title
;
Structure prediction by ZEFSAII (Michael W. Deem and Ramdas Pophale) SiO2 
 PCOD9356892
Probable space group: A M M 2
;
_chemical_formula_sum "Si O2"
_cell_formula_units_Z 40
_cell_length_a 7.525731
_cell_length_b 8.241309
_cell_length_c 29.208980
_cell_angle_alpha 90.000000
_cell_angle_beta 90.000000
_cell_angle_gamma 90.000000
_cell_volume 1811.595695
_symmetry_space_group_name_H-M "A M M 2"
_symmetry_group_IT_number 38
_symmetry_cell_setting 'orthorhombic'
loop_
_space_group_symop_operation_xyz
x,y,z
-x,-y,z
-x,y,z
x,-y,z
x,1/2+y,1/2+z
-x,1/2-y,1/2+z
-x,1/2+y,1/2+z
x,1/2-y,1/2+z
loop_
_atom_site_type_symbol
_atom_site_label
_atom_site_fract_x
_atom_site_fract_y
_atom_site_fract_z
Si Si1 0.714091 0.814498 0.705020
Si Si2 0.282166 0.000000 0.447322
Si Si3 0.282875 0.319924 0.608424
Si Si4 0.293891 0.675518 0.398955
Si Si5 0.716667 0.500000 0.053397
Si Si6 0.209486 0.682793 0.805474
O O1 0.500000 0.817747 0.703358
O O2 0.772552 0.712690 0.660934
O O3 0.763891 0.742200 0.753905
O O4 0.777168 0.000000 0.701048
O O5 0.217980 0.836674 0.422361
O O6 0.232657 0.000000 0.500408
O O7 0.500000 0.000000 0.444455
O O8 0.500000 0.319396 0.607386
O O9 0.226016 0.500000 0.593429
O O10 0.224967 0.165080 0.578663
O O11 0.500000 0.669444 0.413234
O O12 0.213580 0.500000 0.410031
O O13 0.289281 0.703695 0.344419
O O14 0.500000 0.500000 0.055441
O O15 0.281091 0.500000 0.810450
O O16 0.000000 0.679635 0.814308
#
# Coordination Sequence:
#
# PCOD9356892 Si02
#       6
#     8   4   8   8   4   8
#     4  10  19  32  51  76 106 140 178 217 259 313
#     4   9  18  32  51  75 107 141 175 223 268 305
#     4   9  16  27  45  71 105 141 174 211 256 307
#     4  10  20  35  55  78 105 140 179 216 263 320
#     4   9  16  28  46  73 107 139 173 215 262 311
#     4  11  23  36  51  75 106 140 178 220 268 318
#
# _framework density 22.079982000000001
#
# number of rings (size 3 to 8) (size 9 to 14) (size 15 to 20)
#    0.000    2.200    2.000    1.800    0.000    6.000 
#    0.000    4.000    0.000    0.000    0.000    2.800 
#    0.000    0.000    0.000    0.000    0.000    0.000 
#
# Total GULP energy -111733.893040 kJ/mol
# GULP energy per Si atom -5586.694652 kJ/mol
# Density = 2.202973 g / cm^3
# Si number density = 22.079982 Si / 1000 Ang^3
#
#
#
# Elastic Constant Matrix: (Units=GPa)
#
#
# Indices 1 2 3 4 5 6 
#
# 1 57.6261 9.3783 -4.9785 0.0000 0.0000 0.0000
# 2 9.3783 231.5642 87.4331 0.0000 0.0000 0.0000
# 3 -4.9785 87.4331 135.3736 0.0000 0.0000 0.0000
# 4 0.0000 0.0000 0.0000 27.7809 0.0000 0.0000
# 5 0.0000 0.0000 0.0000 0.0000 -81.5926 0.0000
# 6 0.0000 0.0000 0.0000 0.0000 0.0000 -5.9490
#
#
#
# Elastic Compliance Matrix: (Units=1/GPa)
#
#
# Indices 1 2 3 4 5 6 
#
# 1 0.017687 -0.001272 0.001472 0.000000 0.000000 0.000000
# 2 -0.001272 0.005803 -0.003795 0.000000 0.000000 0.000000
# 3 0.001472 -0.003795 0.009892 0.000000 0.000000 0.000000
# 4 0.000000 0.000000 0.000000 0.035996 0.000000 0.000000
# 5 0.000000 0.000000 0.000000 0.000000 -0.012256 0.000000
# 6 0.000000 0.000000 0.000000 0.000000 0.000000 -0.168094
#
#
# Mechanical properties :
#
#
# Convention : Reuss Voigt Hill
#
# Bulk Modulus (GPa) = 38.17834 67.58105 52.87970
# Shear Modulus (GPa) = -52.60263 10.22992 -21.18636
#
# Velocity S-wave (km/s) = -4.88625 2.15480 -3.10098
# Velocity P-wave (km/s) = 3.80859 6.07163 3.34360
#
# Compressibility (1/GPa) = 0.02619286
#
# Stress axis : x y z
#
# Youngs Moduli (GPa) = 56.53718 172.33316 101.09307
#
# Poissons Ratio (x) = 0.21924 -0.14882
# Poissons Ratio (y) = 0.07193 0.38360
# Poissons Ratio (z) = -0.08323 0.65393
#
# Static dielectric constant tensor:
#      x y z
#    x 1.819920 0.000000 0.000000 
#    y 0.000000 1.817020 0.000000 
#    z 0.000000 0.000000 1.752990 
# 
# From -- ./inp_files/23201.got.cif
#   From: 2010.05.17/outbox.cif.g08.bks.cpg/sg38_12_cif.got.tgz:23201.got - 2010.06.03 18:07:57.
