data_PCOD9356120
_publ_section_title
;
Structure prediction by ZEFSAII (Michael W. Deem and Ramdas Pophale) SiO2 
 PCOD9356120
Probable space group: A M M 2
;
_chemical_formula_sum "Si O2"
_cell_formula_units_Z 48
_cell_length_a 13.609453
_cell_length_b 8.342807
_cell_length_c 24.038387
_cell_angle_alpha 90.000000
_cell_angle_beta 90.000000
_cell_angle_gamma 90.000000
_cell_volume 2729.343454
_symmetry_space_group_name_H-M "A M M 2"
_symmetry_group_IT_number 38
_symmetry_cell_setting 'orthorhombic'
loop_
_space_group_symop_operation_xyz
x,y,z
-x,-y,z
-x,y,z
x,-y,z
x,1/2+y,1/2+z
-x,1/2-y,1/2+z
-x,1/2+y,1/2+z
x,1/2-y,1/2+z
loop_
_atom_site_type_symbol
_atom_site_label
_atom_site_fract_x
_atom_site_fract_y
_atom_site_fract_z
Si Si1 0.888291 0.693216 0.980060
Si Si2 0.216273 0.688533 0.377169
Si Si3 0.260535 0.317982 0.200433
Si Si4 0.387951 0.308722 0.797876
Si Si5 0.886713 0.321028 0.778714
Si Si6 0.111254 0.695303 0.109942
O O1 0.884554 0.500000 0.976311
O O2 0.804563 0.765352 0.940710
O O3 0.000000 0.743728 0.963904
O O4 0.876250 0.735597 0.045091
O O5 0.202096 0.500000 0.370459
O O6 0.317357 0.736145 0.345773
O O7 0.134876 0.787701 0.342811
O O8 0.291057 0.500000 0.188635
O O9 0.345357 0.233437 0.236460
O O10 0.171605 0.310932 0.244767
O O11 0.203749 0.247058 0.146775
O O12 0.500000 0.252204 0.803048
O O13 0.385540 0.500000 0.804249
O O14 0.849335 0.500000 0.764513
O O15 0.000000 0.314421 0.766491
O O16 0.111298 0.500000 0.114665
O O17 0.000000 0.747935 0.127126
#
# Coordination Sequence:
#
# PCOD9356120 Si02
#       6
#     8   8   8   8   8   8
#     4   9  17  31  50  70  98 137 173 200 227 270
#     4  11  21  31  47  71  97 123 155 200 247 289
#     4  10  18  29  49  74  98 123 155 199 243 283
#     4  10  21  37  55  72  92 122 159 199 246 300
#     4  10  19  29  42  63  94 130 162 191 229 282
#     4   8  15  28  47  72 101 134 168 196 226 270
#
# _framework density 17.586646999999999
#
# number of rings (size 3 to 8) (size 9 to 14) (size 15 to 20)
#    0.000    2.333    0.000    7.000    0.000    5.667 
#    0.000    1.667    0.000    3.000    0.000    2.333 
#    0.000    0.000    0.000    0.000    0.000    0.000 
#
# Total GULP energy -133625.518969 kJ/mol
# GULP energy per Si atom -5567.729957 kJ/mol
# Density = 1.754662 g / cm^3
# Si number density = 17.586647 Si / 1000 Ang^3
#
#
#
# Elastic Constant Matrix: (Units=GPa)
#
#
# Indices 1 2 3 4 5 6 
#
# 1 89.7007 15.4854 45.8173 0.0000 0.0000 0.0000
# 2 15.4854 43.2156 10.4297 0.0000 0.0000 0.0000
# 3 45.8173 10.4297 93.0277 0.0000 0.0000 0.0000
# 4 0.0000 0.0000 0.0000 20.1821 0.0000 0.0000
# 5 0.0000 0.0000 0.0000 0.0000 22.0213 0.0000
# 6 0.0000 0.0000 0.0000 0.0000 0.0000 10.3616
#
#
#
# Elastic Compliance Matrix: (Units=1/GPa)
#
#
# Indices 1 2 3 4 5 6 
#
# 1 0.015483 -0.003811 -0.007198 0.000000 0.000000 0.000000
# 2 -0.003811 0.024721 -0.000895 0.000000 0.000000 0.000000
# 3 -0.007198 -0.000895 0.014395 0.000000 0.000000 0.000000
# 4 0.000000 0.000000 0.000000 0.049549 0.000000 0.000000
# 5 0.000000 0.000000 0.000000 0.000000 0.045411 0.000000
# 6 0.000000 0.000000 0.000000 0.000000 0.000000 0.096511
#
#
# Mechanical properties :
#
#
# Convention : Reuss Voigt Hill
#
# Bulk Modulus (GPa) = 32.47636 41.04542 36.76089
# Shear Modulus (GPa) = 17.84820 20.79375 19.32097
#
# Velocity S-wave (km/s) = 3.18916 3.44228 3.31813
# Velocity P-wave (km/s) = 5.66282 6.26008 5.96893
#
# Compressibility (1/GPa) = 0.03079162
#
# Stress axis : x y z
#
# Youngs Moduli (GPa) = 64.58801 40.45105 69.46851
#
# Poissons Ratio (x) = 0.15415 0.50005
# Poissons Ratio (y) = 0.24613 0.06216
# Poissons Ratio (z) = 0.46492 0.03619
#
# Static dielectric constant tensor:
#      x y z
#    x 1.612260 0.000000 0.000000 
#    y 0.000000 1.623660 0.000000 
#    z 0.000000 0.000000 1.640290 
# 
# From -- ./inp_files/22686.got.cif
#   From: 2010.05.17/outbox.cif.g08.bks.cpg/sg38_12_cif.got.tgz:22686.got - 2010.06.03 18:07:57.
