data_PCOD9356626
_publ_section_title
;
Structure prediction by ZEFSAII (Michael W. Deem and Ramdas Pophale) SiO2 
 PCOD9356626
Probable space group: A M M 2
;
_chemical_formula_sum "Si O2"
_cell_formula_units_Z 64
_cell_length_a 15.468426
_cell_length_b 14.686135
_cell_length_c 16.898129
_cell_angle_alpha 90.000000
_cell_angle_beta 90.000000
_cell_angle_gamma 90.000000
_cell_volume 3838.771495
_symmetry_space_group_name_H-M "A M M 2"
_symmetry_group_IT_number 38
_symmetry_cell_setting 'orthorhombic'
loop_
_space_group_symop_operation_xyz
x,y,z
-x,-y,z
-x,y,z
x,-y,z
x,1/2+y,1/2+z
-x,1/2-y,1/2+z
-x,1/2+y,1/2+z
x,1/2-y,1/2+z
loop_
_atom_site_type_symbol
_atom_site_label
_atom_site_fract_x
_atom_site_fract_y
_atom_site_fract_z
Si Si1 0.599236 0.402084 0.074400
Si Si2 0.597356 0.311325 0.911976
Si Si3 0.098897 0.394306 0.017003
Si Si4 0.400810 0.107972 0.236664
Si Si5 0.157416 0.105046 0.697537
Si Si6 0.283249 0.256204 0.641430
Si Si7 0.903340 0.107034 0.873748
Si Si8 0.224426 0.764935 0.969498
O O1 0.500000 0.401599 0.100251
O O2 0.638772 0.500000 0.094265
O O3 0.647112 0.316931 0.110464
O O4 0.600651 0.387637 0.980258
O O5 0.500000 0.269032 0.918502
O O6 0.604434 0.355908 0.826357
O O7 0.680732 0.249415 0.930981
O O8 0.112941 0.500000 0.995434
O O9 0.109221 0.389070 0.112759
O O10 0.000000 0.369097 0.996631
O O11 0.170211 0.329568 0.977149
O O12 0.500000 0.125200 0.209068
O O13 0.331473 0.164072 0.186795
O O14 0.386125 0.000000 0.233944
O O15 0.222257 0.190865 0.693738
O O16 0.104769 0.115588 0.778571
O O17 0.192545 0.000000 0.700693
O O18 0.237094 0.292099 0.561676
O O19 0.831840 0.165601 0.918670
O O20 0.000000 0.135121 0.898001
O O21 0.892444 0.000000 0.891897
#
# Coordination Sequence:
#
# PCOD9356626 Si02
#       8
#     8   8   8   8   8   8   8   8
#     4   9  16  27  45  69  96 124 154 192 238 284
#     4   9  18  32  50  71  95 124 159 199 241 283
#     4   9  17  30  49  74 102 128 155 192 240 290
#     4  10  20  33  48  65  89 125 166 203 235 272
#     4   9  17  30  49  72  96 122 153 191 237 285
#     4  10  19  30  46  69  96 124 155 194 239 286
#     4  10  20  34  52  72  95 126 163 199 232 273
#     4  10  20  32  50  73  99 127 157 195 241 288
#
# _framework density 16.672000000000001
#
# number of rings (size 3 to 8) (size 9 to 14) (size 15 to 20)
#    0.000    2.500    0.000    2.625    0.000    7.500 
#    0.000    0.000    0.000    0.375    0.000    3.500 
#    0.000    8.000    0.000    0.000    0.000    0.000 
#
# Total GULP energy -178183.122017 kJ/mol
# GULP energy per Si atom -5568.222563 kJ/mol
# Density = 1.663405 g / cm^3
# Si number density = 16.672000 Si / 1000 Ang^3
#
#
#
# Elastic Constant Matrix: (Units=GPa)
#
#
# Indices 1 2 3 4 5 6 
#
# 1 114.3653 53.5195 38.1603 0.0000 0.0000 0.0000
# 2 53.5195 62.6649 32.9955 0.0000 0.0000 0.0000
# 3 38.1603 32.9955 45.1379 0.0000 0.0000 0.0000
# 4 0.0000 0.0000 0.0000 16.4590 0.0000 0.0000
# 5 0.0000 0.0000 0.0000 0.0000 20.9092 0.0000
# 6 0.0000 0.0000 0.0000 0.0000 0.0000 21.0465
#
#
#
# Elastic Compliance Matrix: (Units=1/GPa)
#
#
# Indices 1 2 3 4 5 6 
#
# 1 0.015368 -0.010217 -0.005524 0.000000 0.000000 0.000000
# 2 -0.010217 0.032735 -0.015292 0.000000 0.000000 0.000000
# 3 -0.005524 -0.015292 0.038003 0.000000 0.000000 0.000000
# 4 0.000000 0.000000 0.000000 0.060757 0.000000 0.000000
# 5 0.000000 0.000000 0.000000 0.000000 0.047826 0.000000
# 6 0.000000 0.000000 0.000000 0.000000 0.000000 0.047514
#
#
# Mechanical properties :
#
#
# Convention : Reuss Voigt Hill
#
# Bulk Modulus (GPa) = 41.59602 52.39097 46.99349
# Shear Modulus (GPa) = 16.01113 18.18246 17.09680
#
# Velocity S-wave (km/s) = 3.10233 3.30600 3.20579
# Velocity P-wave (km/s) = 6.15113 6.78717 6.47696
#
# Compressibility (1/GPa) = 0.02404076
#
# Stress axis : x y z
#
# Youngs Moduli (GPa) = 65.06901 30.54806 26.31371
#
# Poissons Ratio (x) = 0.31210 0.14537
# Poissons Ratio (y) = 0.66479 0.40239
# Poissons Ratio (z) = 0.35946 0.46714
#
# Static dielectric constant tensor:
#      x y z
#    x 1.599620 0.000000 0.000000 
#    y 0.000000 1.539100 0.000000 
#    z 0.000000 0.000000 1.553690 
# 
# From -- ./inp_files/18463.got.cif
#   From: 2010.05.17/outbox.cif.g08.bks.cpg/sg38_10_cif.got.tgz:18463.got - 2010.06.03 18:07:57.
