data_PCOD9356904
_publ_section_title
;
Structure prediction by ZEFSAII (Michael W. Deem and Ramdas Pophale) SiO2 
 PCOD9356904
Probable space group: A M M 2
;
_chemical_formula_sum "Si O2"
_cell_formula_units_Z 64
_cell_length_a 9.015022
_cell_length_b 14.864441
_cell_length_c 28.588352
_cell_angle_alpha 90.000000
_cell_angle_beta 90.000000
_cell_angle_gamma 90.000000
_cell_volume 3830.932441
_symmetry_space_group_name_H-M "A M M 2"
_symmetry_group_IT_number 38
_symmetry_cell_setting 'orthorhombic'
loop_
_space_group_symop_operation_xyz
x,y,z
-x,-y,z
-x,y,z
x,-y,z
x,1/2+y,1/2+z
-x,1/2-y,1/2+z
-x,1/2+y,1/2+z
x,1/2-y,1/2+z
loop_
_atom_site_type_symbol
_atom_site_label
_atom_site_fract_x
_atom_site_fract_y
_atom_site_fract_z
Si Si1 0.321836 0.403005 0.587050
Si Si2 0.823209 0.893810 0.360232
Si Si3 0.167919 0.853684 0.645780
Si Si4 0.678314 0.293873 0.773776
Si Si5 0.321910 0.903019 0.739770
Si Si6 0.321067 0.293612 0.053718
Si Si7 0.677131 0.394361 0.959343
Si Si8 0.168374 0.647297 0.681127
O O1 0.500000 0.399157 0.591196
O O2 0.282201 0.500000 0.565209
O O3 0.276768 0.311349 0.560531
O O4 0.252534 0.400290 0.638788
O O5 0.744076 0.834713 0.320914
O O6 0.762345 0.871502 0.411799
O O7 0.000000 0.881858 0.358071
O O8 0.790567 0.000000 0.352219
O O9 0.256939 0.900102 0.687458
O O10 0.249483 0.849906 0.596101
O O11 0.161130 0.750321 0.663269
O O12 0.000000 0.887538 0.641627
O O13 0.500000 0.298866 0.773577
O O14 0.723491 0.188873 0.765959
O O15 0.743619 0.349180 0.729695
O O16 0.500000 0.899656 0.736786
O O17 0.279438 0.000000 0.761185
O O18 0.500000 0.298964 0.057893
O O19 0.278997 0.334345 0.003722
O O20 0.500000 0.383721 0.951816
O O21 0.703928 0.500000 0.969820
O O22 0.000000 0.614581 0.687525
#
# Coordination Sequence:
#
# PCOD9356904 Si02
#       8
#     8   8   8   8   8   8   8   8
#     4   9  17  29  45  66  94 128 163 195 228 272
#     4  10  21  36  53  73  96 121 151 192 243 293
#     4   9  17  28  43  66  95 126 160 195 230 269
#     4  10  19  32  52  74  96 125 160 197 237 282
#     4   9  18  32  49  70  98 131 164 196 231 274
#     4   9  17  30  48  69  94 124 157 194 237 281
#     4   9  18  33  52  72  92 116 150 192 238 287
#     4   9  17  29  44  64  93 126 159 195 232 270
#
# _framework density 16.706115
#
# number of rings (size 3 to 8) (size 9 to 14) (size 15 to 20)
#    0.000    2.750    0.000    1.500    0.000    6.250 
#    0.000    1.250    0.000    0.750    0.000    3.500 
#    0.000    0.000    0.000    0.000    0.000    0.000 
#
# Total GULP energy -178290.795231 kJ/mol
# GULP energy per Si atom -5571.587351 kJ/mol
# Density = 1.666809 g / cm^3
# Si number density = 16.706115 Si / 1000 Ang^3
#
#
#
# Elastic Constant Matrix: (Units=GPa)
#
#
# Indices 1 2 3 4 5 6 
#
# 1 34.0678 30.8652 45.8984 0.0000 0.0000 0.0000
# 2 30.8652 89.6778 65.3520 0.0000 0.0000 0.0000
# 3 45.8984 65.3520 133.4119 0.0000 0.0000 0.0000
# 4 0.0000 0.0000 0.0000 22.3703 0.0000 0.0000
# 5 0.0000 0.0000 0.0000 0.0000 4.9680 0.0000
# 6 0.0000 0.0000 0.0000 0.0000 0.0000 9.6670
#
#
#
# Elastic Compliance Matrix: (Units=1/GPa)
#
#
# Indices 1 2 3 4 5 6 
#
# 1 0.058621 -0.008521 -0.015994 0.000000 0.000000 0.000000
# 2 -0.008521 0.018580 -0.006170 0.000000 0.000000 0.000000
# 3 -0.015994 -0.006170 0.016020 0.000000 0.000000 0.000000
# 4 0.000000 0.000000 0.000000 0.044702 0.000000 0.000000
# 5 0.000000 0.000000 0.000000 0.000000 0.201287 0.000000
# 6 0.000000 0.000000 0.000000 0.000000 0.000000 0.103445
#
#
# Mechanical properties :
#
#
# Convention : Reuss Voigt Hill
#
# Bulk Modulus (GPa) = 31.39492 60.15430 45.77461
# Shear Modulus (GPa) = 9.71549 15.07051 12.39300
#
# Velocity S-wave (km/s) = 2.41416 3.00675 2.72660
# Velocity P-wave (km/s) = 5.15792 6.93827 6.11325
#
# Compressibility (1/GPa) = 0.03185229
#
# Stress axis : x y z
#
# Youngs Moduli (GPa) = 17.05877 53.82115 62.42033
#
# Poissons Ratio (x) = 0.45859 0.99834
# Poissons Ratio (y) = 0.14535 0.38514
# Poissons Ratio (z) = 0.27283 0.33208
#
# Static dielectric constant tensor:
#      x y z
#    x 1.563810 0.000000 0.000000 
#    y 0.000000 1.608700 0.000000 
#    z 0.000000 0.000000 1.520540 
# 
# From -- ./inp_files/24777.got.cif
#   From: 2010.05.17/outbox.cif.g08.bks.cpg/sg38_13_cif.got.tgz:24777.got - 2010.06.03 18:07:57.
