data_PCOD9356574
_publ_section_title
;
Structure prediction by ZEFSAII (Michael W. Deem and Ramdas Pophale) SiO2 
 PCOD9356574
Probable space group: A M M 2
;
_chemical_formula_sum "Si O2"
_cell_formula_units_Z 56
_cell_length_a 16.115026
_cell_length_b 13.056726
_cell_length_c 13.312546
_cell_angle_alpha 90.000000
_cell_angle_beta 90.000000
_cell_angle_gamma 90.000000
_cell_volume 2801.085868
_symmetry_space_group_name_H-M "A M M 2"
_symmetry_group_IT_number 38
_symmetry_cell_setting 'orthorhombic'
loop_
_space_group_symop_operation_xyz
x,y,z
-x,-y,z
-x,y,z
x,-y,z
x,1/2+y,1/2+z
-x,1/2-y,1/2+z
-x,1/2+y,1/2+z
x,1/2-y,1/2+z
loop_
_atom_site_type_symbol
_atom_site_label
_atom_site_fract_x
_atom_site_fract_y
_atom_site_fract_z
Si Si1 0.910566 0.831466 0.106020
Si Si2 0.861213 0.883411 0.320641
Si Si3 0.133752 0.614235 0.041889
Si Si4 0.724276 0.613274 0.557625
Si Si5 0.310335 0.688299 0.778385
Si Si6 0.324886 0.666605 0.993852
Si Si7 0.402750 0.614966 0.199028
O O1 0.911880 0.871346 0.219825
O O2 0.824868 0.873901 0.058965
O O3 0.000000 0.856265 0.058492
O O4 0.897819 0.708759 0.106168
O O5 0.901648 0.871465 0.428931
O O6 0.786102 0.803700 0.309832
O O7 0.826391 0.000000 0.321035
O O8 0.114506 0.500000 0.077900
O O9 0.233608 0.624293 0.025636
O O10 0.702766 0.500000 0.521201
O O11 0.693793 0.626379 0.673752
O O12 0.685292 0.709817 0.500464
O O13 0.348073 0.639696 0.879596
O O14 0.351325 0.796233 0.752963
O O15 0.386517 0.629813 0.079949
O O16 0.500000 0.626829 0.220349
O O17 0.376561 0.500000 0.226916
#
# Coordination Sequence:
#
# PCOD9356574 Si02
#       7
#     8   8   8   8   8   8   8
#     4  10  19  29  45  71 100 128 158 195 241 289
#     4   9  18  33  53  75  96 123 164 208 245 287
#     4   9  18  33  52  73  95 124 165 206 242 284
#     4   9  18  32  49  71  96 121 157 203 242 282
#     4   9  17  32  53  72  93 125 162 200 240 281
#     4   9  18  32  53  74  94 123 161 203 242 280
#     4  10  21  34  48  72 104 132 159 193 237 293
#
# _framework density 19.992246000000002
#
# number of rings (size 3 to 8) (size 9 to 14) (size 15 to 20)
#    0.000    2.714    0.000    3.000    0.000    4.857 
#    0.000    1.429    0.000   15.000    0.000   10.000 
#    0.000    0.000    0.000    0.000    0.000    0.000 
#
# Total GULP energy -156003.765833 kJ/mol
# GULP energy per Si atom -5571.563065 kJ/mol
# Density = 1.994674 g / cm^3
# Si number density = 19.992246 Si / 1000 Ang^3
#
#
#
# Elastic Constant Matrix: (Units=GPa)
#
#
# Indices 1 2 3 4 5 6 
#
# 1 51.7226 33.2432 1.8901 0.0000 0.0000 0.0000
# 2 33.2432 116.6640 6.2085 0.0000 0.0000 0.0000
# 3 1.8901 6.2085 49.1236 0.0000 0.0000 0.0000
# 4 0.0000 0.0000 0.0000 15.9208 0.0000 0.0000
# 5 0.0000 0.0000 0.0000 0.0000 6.2552 0.0000
# 6 0.0000 0.0000 0.0000 0.0000 0.0000 106.4519
#
#
#
# Elastic Compliance Matrix: (Units=1/GPa)
#
#
# Indices 1 2 3 4 5 6 
#
# 1 0.023669 -0.006741 -0.000059 0.000000 0.000000 0.000000
# 2 -0.006741 0.010550 -0.001074 0.000000 0.000000 0.000000
# 3 -0.000059 -0.001074 0.020495 0.000000 0.000000 0.000000
# 4 0.000000 0.000000 0.000000 0.062811 0.000000 0.000000
# 5 0.000000 0.000000 0.000000 0.000000 0.159867 0.000000
# 6 0.000000 0.000000 0.000000 0.000000 0.000000 0.009394
#
#
# Mechanical properties :
#
#
# Convention : Reuss Voigt Hill
#
# Bulk Modulus (GPa) = 25.66375 33.35487 29.50931
# Shear Modulus (GPa) = 15.84677 37.47014 26.65846
#
# Velocity S-wave (km/s) = 2.81845 4.33394 3.65559
# Velocity P-wave (km/s) = 4.84317 6.46252 5.71054
#
# Compressibility (1/GPa) = 0.03896547
#
# Stress axis : x y z
#
# Youngs Moduli (GPa) = 42.24972 94.78957 48.79286
#
# Poissons Ratio (x) = 0.63900 0.00286
# Poissons Ratio (y) = 0.28482 0.05240
# Poissons Ratio (z) = 0.00248 0.10180
#
# Static dielectric constant tensor:
#      x y z
#    x 1.754280 0.000000 0.000000 
#    y 0.000000 1.712150 0.000000 
#    z 0.000000 0.000000 1.741700 
# 
# From -- ./inp_files/15286.got.cif
#   From: 2010.05.17/outbox.cif.g08.bks.cpg/sg38_8_cif.got.tgz:15286.got - 2010.06.03 18:07:57.
