data_PCOD9356415
_publ_section_title
;
Structure prediction by ZEFSAII (Michael W. Deem and Ramdas Pophale) SiO2 
 PCOD9356415
Probable space group: A M M 2
;
_chemical_formula_sum "Si O2"
_cell_formula_units_Z 64
_cell_length_a 20.372893
_cell_length_b 8.497291
_cell_length_c 20.861702
_cell_angle_alpha 90.000000
_cell_angle_beta 90.000000
_cell_angle_gamma 90.000000
_cell_volume 3611.461032
_symmetry_space_group_name_H-M "A M M 2"
_symmetry_group_IT_number 38
_symmetry_cell_setting 'orthorhombic'
loop_
_space_group_symop_operation_xyz
x,y,z
-x,-y,z
-x,y,z
x,-y,z
x,1/2+y,1/2+z
-x,1/2-y,1/2+z
-x,1/2+y,1/2+z
x,1/2-y,1/2+z
loop_
_atom_site_type_symbol
_atom_site_label
_atom_site_fract_x
_atom_site_fract_y
_atom_site_fract_z
Si Si1 0.676634 0.689926 0.734760
Si Si2 0.197212 0.808870 0.047888
Si Si3 0.654014 0.688297 0.512777
Si Si4 0.177105 0.190525 0.190439
Si Si5 0.311596 0.188637 0.378311
Si Si6 0.574404 0.811882 0.630102
Si Si7 0.833783 0.809330 0.909124
Si Si8 0.074841 0.309850 0.294184
O O1 0.675643 0.500000 0.732079
O O2 0.750596 0.738968 0.715353
O O3 0.663657 0.738733 0.808161
O O4 0.624056 0.751523 0.684327
O O5 0.171174 0.755804 0.116593
O O6 0.196706 0.000000 0.049285
O O7 0.273399 0.762177 0.038112
O O8 0.159446 0.759757 0.983408
O O9 0.651877 0.500000 0.514640
O O10 0.650009 0.744291 0.439472
O O11 0.600901 0.755947 0.561237
O O12 0.120742 0.254099 0.236334
O O13 0.175071 0.000000 0.192078
O O14 0.236338 0.245749 0.385270
O O15 0.312569 0.000000 0.381256
O O16 0.500000 0.755504 0.640917
O O17 0.574682 0.000000 0.631260
O O18 0.890351 0.758686 0.860478
O O19 0.830392 0.000000 0.908125
O O20 0.074074 0.500000 0.294226
O O21 0.000000 0.253906 0.289027
#
# Coordination Sequence:
#
# PCOD9356415 Si02
#       8
#     8   8   8   8   8   8   8   8
#     4  10  20  35  56  82 113 147 183 228 279 331
#     4   8  15  29  51  77 102 126 167 222 266 311
#     4  10  19  35  57  81 109 143 181 224 273 331
#     4  10  18  33  54  79 108 137 177 227 274 330
#     4  10  19  32  53  83 113 139 177 231 278 321
#     4  11  24  39  56  82 115 148 185 229 276 332
#     4   9  17  31  51  75 102 139 180 222 272 327
#     4  10  21  35  50  73 108 146 184 227 278 334
#
# _framework density 17.721360000000001
#
# number of rings (size 3 to 8) (size 9 to 14) (size 15 to 20)
#    0.000    2.250    2.500    1.875    0.000    2.750 
#    0.000    1.875    0.000    3.000    0.000    0.000 
#    0.000    0.000    0.000    0.000    0.000    0.000 
#
# Total GULP energy -178490.255613 kJ/mol
# GULP energy per Si atom -5577.820488 kJ/mol
# Density = 1.768102 g / cm^3
# Si number density = 17.721360 Si / 1000 Ang^3
#
#
#
# Elastic Constant Matrix: (Units=GPa)
#
#
# Indices 1 2 3 4 5 6 
#
# 1 113.5146 17.2118 78.4356 0.0000 0.0000 0.0000
# 2 17.2118 11.5109 20.7878 0.0000 0.0000 0.0000
# 3 78.4356 20.7878 167.9331 0.0000 0.0000 0.0000
# 4 0.0000 0.0000 0.0000 27.6990 0.0000 0.0000
# 5 0.0000 0.0000 0.0000 0.0000 22.3400 0.0000
# 6 0.0000 0.0000 0.0000 0.0000 0.0000 20.2066
#
#
#
# Elastic Compliance Matrix: (Units=1/GPa)
#
#
# Indices 1 2 3 4 5 6 
#
# 1 0.014168 -0.011893 -0.005145 0.000000 0.000000 0.000000
# 2 -0.011893 0.121869 -0.009531 0.000000 0.000000 0.000000
# 3 -0.005145 -0.009531 0.009538 0.000000 0.000000 0.000000
# 4 0.000000 0.000000 0.000000 0.036102 0.000000 0.000000
# 5 0.000000 0.000000 0.000000 0.000000 0.044763 0.000000
# 6 0.000000 0.000000 0.000000 0.000000 0.000000 0.049489
#
#
# Mechanical properties :
#
#
# Convention : Reuss Voigt Hill
#
# Bulk Modulus (GPa) = 10.81822 58.42544 34.62183
# Shear Modulus (GPa) = 13.89357 25.81736 19.85546
#
# Velocity S-wave (km/s) = 2.80304 3.82101 3.35091
# Velocity P-wave (km/s) = 4.07356 7.24620 5.87798
#
# Compressibility (1/GPa) = 0.09243668
#
# Stress axis : x y z
#
# Youngs Moduli (GPa) = 70.58224 8.20552 104.84768
#
# Poissons Ratio (x) = 0.09759 0.53945
# Poissons Ratio (y) = 0.83943 0.99929
# Poissons Ratio (z) = 0.36315 0.07821
#
# Static dielectric constant tensor:
#      x y z
#    x 1.578150 0.000000 0.000000 
#    y 0.000000 1.609900 0.000000 
#    z 0.000000 0.000000 1.622380 
# 
# From -- ./inp_files/21391.got.cif
#   From: 2010.05.17/outbox.cif.g08.bks.cpg/sg38_11_cif.got.tgz:21391.got - 2010.06.03 18:07:57.
