data_PCOD9356072
_publ_section_title
;
Structure prediction by ZEFSAII (Michael W. Deem and Ramdas Pophale) SiO2 
 PCOD9356072
Probable space group: A M M 2
;
_chemical_formula_sum "Si O2"
_cell_formula_units_Z 64
_cell_length_a 14.787590
_cell_length_b 7.810830
_cell_length_c 32.446233
_cell_angle_alpha 90.000000
_cell_angle_beta 90.000000
_cell_angle_gamma 90.000000
_cell_volume 3747.648658
_symmetry_space_group_name_H-M "A M M 2"
_symmetry_group_IT_number 38
_symmetry_cell_setting 'orthorhombic'
loop_
_space_group_symop_operation_xyz
x,y,z
-x,-y,z
-x,y,z
x,-y,z
x,1/2+y,1/2+z
-x,1/2-y,1/2+z
-x,1/2+y,1/2+z
x,1/2-y,1/2+z
loop_
_atom_site_type_symbol
_atom_site_label
_atom_site_fract_x
_atom_site_fract_y
_atom_site_fract_z
Si Si1 0.208437 0.795403 0.767030
Si Si2 0.398770 0.209236 0.140764
Si Si3 0.896128 0.794486 0.847106
Si Si4 0.399372 0.793738 0.236033
Si Si5 0.103615 0.295267 0.525826
Si Si6 0.214739 0.704612 0.603500
Si Si7 0.896783 0.796270 0.436461
Si Si8 0.895528 0.707467 0.185370
O O1 0.162334 0.728837 0.808766
O O2 0.314743 0.761760 0.763006
O O3 0.158228 0.729970 0.725813
O O4 0.195677 0.000000 0.766950
O O5 0.500000 0.262277 0.128304
O O6 0.384475 0.261929 0.188468
O O7 0.315227 0.271248 0.113479
O O8 0.397716 0.000000 0.140607
O O9 0.857002 0.754656 0.892361
O O10 0.000000 0.728938 0.844911
O O11 0.900622 0.000000 0.843922
O O12 0.500000 0.735188 0.248635
O O13 0.400443 0.000000 0.235691
O O14 0.097710 0.500000 0.530775
O O15 0.164693 0.226441 0.562969
O O16 0.142224 0.261637 0.480178
O O17 0.000000 0.227432 0.527840
O O18 0.223269 0.500000 0.598153
O O19 0.153786 0.735239 0.643808
O O20 0.000000 0.725155 0.435984
O O21 0.900852 0.000000 0.437431
O O22 0.894575 0.500000 0.185801
O O23 0.000000 0.762935 0.186331
#
# Coordination Sequence:
#
# PCOD9356072 Si02
#       8
#     8   8   8   8   8   8   8   8
#     4  10  19  30  45  66  90 119 153 185 220 264
#     4   8  14  26  44  64  86 113 146 186 228 262
#     4   9  17  30  47  65  89 121 152 183 222 267
#     4   9  17  30  47  65  87 117 151 188 230 269
#     4   9  17  28  42  62  88 116 146 181 221 265
#     4  10  18  29  46  66  87 116 155 190 218 257
#     4   9  17  29  45  65  87 112 145 185 226 266
#     4  10  20  31  41  58  90 126 153 178 214 261
#
# _framework density 17.077375
#
# number of rings (size 3 to 8) (size 9 to 14) (size 15 to 20)
#    0.000    2.750    1.250    1.875    0.000    5.000 
#    0.000    1.250    0.000    2.625    0.000    0.875 
#    0.000    5.000    0.000    0.000    0.000    0.000 
#
# Total GULP energy -178332.843563 kJ/mol
# GULP energy per Si atom -5572.901361 kJ/mol
# Density = 1.703851 g / cm^3
# Si number density = 17.077375 Si / 1000 Ang^3
#
#
#
# Elastic Constant Matrix: (Units=GPa)
#
#
# Indices 1 2 3 4 5 6 
#
# 1 115.9026 1.2854 77.7060 0.0000 0.0000 0.0000
# 2 1.2854 18.6041 2.3342 0.0000 0.0000 0.0000
# 3 77.7060 2.3342 156.1657 0.0000 0.0000 0.0000
# 4 0.0000 0.0000 0.0000 15.7061 0.0000 0.0000
# 5 0.0000 0.0000 0.0000 0.0000 9.4645 0.0000
# 6 0.0000 0.0000 0.0000 0.0000 0.0000 14.2002
#
#
#
# Elastic Compliance Matrix: (Units=1/GPa)
#
#
# Indices 1 2 3 4 5 6 
#
# 1 0.012947 -0.000086 -0.006441 0.000000 0.000000 0.000000
# 2 -0.000086 0.053853 -0.000762 0.000000 0.000000 0.000000
# 3 -0.006441 -0.000762 0.009620 0.000000 0.000000 0.000000
# 4 0.000000 0.000000 0.000000 0.063670 0.000000 0.000000
# 5 0.000000 0.000000 0.000000 0.000000 0.105658 0.000000
# 6 0.000000 0.000000 0.000000 0.000000 0.000000 0.070421
#
#
# Mechanical properties :
#
#
# Convention : Reuss Voigt Hill
#
# Bulk Modulus (GPa) = 16.17039 50.36927 33.26983
# Shear Modulus (GPa) = 14.23035 21.83062 18.03049
#
# Velocity S-wave (km/s) = 2.88980 3.57926 3.25285
# Velocity P-wave (km/s) = 4.54137 6.82937 5.79932
#
# Compressibility (1/GPa) = 0.06184144
#
# Stress axis : x y z
#
# Youngs Moduli (GPa) = 77.23630 18.56899 103.95174
#
# Poissons Ratio (x) = 0.00160 0.66956
# Poissons Ratio (y) = 0.00667 0.07920
# Poissons Ratio (z) = 0.49749 0.01415
#
# Static dielectric constant tensor:
#      x y z
#    x 1.583310 0.000000 0.000000 
#    y 0.000000 1.622640 0.000000 
#    z 0.000000 0.000000 1.586100 
# 
# From -- ./inp_files/25027.got.cif
#   From: 2010.05.17/outbox.cif.g08.bks.cpg/sg38_13_cif.got.tgz:25027.got - 2010.06.03 18:07:57.
