data_PCOD9356310
_publ_section_title
;
Structure prediction by ZEFSAII (Michael W. Deem and Ramdas Pophale) SiO2 
 PCOD9356310
Probable space group: A M M 2
;
_chemical_formula_sum "Si O2"
_cell_formula_units_Z 58
_cell_length_a 7.285892
_cell_length_b 14.864185
_cell_length_c 25.877478
_cell_angle_alpha 90.000000
_cell_angle_beta 90.000000
_cell_angle_gamma 90.000000
_cell_volume 2802.501020
_symmetry_space_group_name_H-M "A M M 2"
_symmetry_group_IT_number 38
_symmetry_cell_setting 'orthorhombic'
loop_
_space_group_symop_operation_xyz
x,y,z
-x,-y,z
-x,y,z
x,-y,z
x,1/2+y,1/2+z
-x,1/2-y,1/2+z
-x,1/2+y,1/2+z
x,1/2-y,1/2+z
loop_
_atom_site_type_symbol
_atom_site_label
_atom_site_fract_x
_atom_site_fract_y
_atom_site_fract_z
Si Si1 0.785930 0.596230 0.739470
Si Si2 0.222341 0.775923 0.794511
Si Si3 0.777649 0.160132 0.384990
Si Si4 0.222624 0.896433 0.497310
Si Si5 0.500000 0.500000 0.854747
Si Si6 0.775943 0.397127 0.203416
Si Si7 0.718864 0.597932 0.617624
Si Si8 0.785550 0.699988 0.099897
O O1 0.699303 0.500000 0.754114
O O2 0.713463 0.686758 0.763836
O O3 0.775990 0.602661 0.677675
O O4 0.000000 0.592804 0.753792
O O5 0.267297 0.751635 0.853594
O O6 0.284431 0.858515 0.759059
O O7 0.000000 0.779488 0.792736
O O8 0.730453 0.158042 0.445617
O O9 0.000000 0.144787 0.380335
O O10 0.661499 0.079179 0.360531
O O11 0.290161 0.851980 0.550233
O O12 0.000000 0.898201 0.499302
O O13 0.283523 0.000000 0.491715
O O14 0.720442 0.500000 0.195029
O O15 0.714092 0.334458 0.155448
O O16 0.000000 0.395343 0.203784
O O17 0.500000 0.596119 0.616294
O O18 0.784362 0.500000 0.597584
O O19 0.773852 0.692617 0.593255
O O20 0.000000 0.676963 0.101572
#
# Coordination Sequence:
#
# PCOD9356310 Si02
#       8
#     8   8   8   8   2   8   8   8
#     4   9  16  27  46  69  93 128 171 208 251 310
#     4   9  17  30  49  73 105 142 173 214 272 321
#     4  10  21  37  54  78 116 148 183 231 277 332
#     4   9  17  32  54  78 108 141 169 216 274 316
#     4  12  22  36  56  86 106 152 194 220 280 336
#     4   9  16  28  50  80 107 134 178 227 267 324
#     4  10  20  33  45  67 102 139 171 213 270 317
#     4  10  18  31  53  79 103 136 181 218 263 327
#
# _framework density 20.695799000000001
#
# number of rings (size 3 to 8) (size 9 to 14) (size 15 to 20)
#    0.000    2.483    2.069    1.034    0.966    2.483 
#    2.483    0.000    0.000    2.069    0.000    3.862 
#    0.000    0.000    0.000    0.000    0.000    0.138 
#
# Total GULP energy -161464.742189 kJ/mol
# GULP energy per Si atom -5567.749731 kJ/mol
# Density = 2.064869 g / cm^3
# Si number density = 20.695799 Si / 1000 Ang^3
#
#
#
# Elastic Constant Matrix: (Units=GPa)
#
#
# Indices 1 2 3 4 5 6 
#
# 1 96.6639 -2.6328 2.8530 0.0000 0.0000 0.0000
# 2 -2.6328 103.4900 62.5931 0.0000 0.0000 0.0000
# 3 2.8530 62.5931 124.8608 0.0000 0.0000 0.0000
# 4 0.0000 0.0000 0.0000 33.8548 0.0000 0.0000
# 5 0.0000 0.0000 0.0000 0.0000 48.2102 0.0000
# 6 0.0000 0.0000 0.0000 0.0000 0.0000 2.0561
#
#
#
# Elastic Compliance Matrix: (Units=1/GPa)
#
#
# Indices 1 2 3 4 5 6 
#
# 1 0.010377 0.000585 -0.000530 0.000000 0.000000 0.000000
# 2 0.000585 0.013900 -0.006982 0.000000 0.000000 0.000000
# 3 -0.000530 -0.006982 0.011521 0.000000 0.000000 0.000000
# 4 0.000000 0.000000 0.000000 0.029538 0.000000 0.000000
# 5 0.000000 0.000000 0.000000 0.000000 0.020742 0.000000
# 6 0.000000 0.000000 0.000000 0.000000 0.000000 0.486362
#
#
# Mechanical properties :
#
#
# Convention : Reuss Voigt Hill
#
# Bulk Modulus (GPa) = 45.57135 50.07127 47.82131
# Shear Modulus (GPa) = 8.42304 34.30430 21.36367
#
# Velocity S-wave (km/s) = 2.01960 4.07572 3.21638
# Velocity P-wave (km/s) = 5.24459 6.81139 6.07869
#
# Compressibility (1/GPa) = 0.02194361
#
# Stress axis : x y z
#
# Youngs Moduli (GPa) = 96.36978 71.94098 86.79845
#
# Poissons Ratio (x) = -0.04206 0.04602
# Poissons Ratio (y) = -0.05634 0.60599
# Poissons Ratio (z) = 0.05109 0.50226
#
# Static dielectric constant tensor:
#      x y z
#    x 1.817150 0.000000 0.000000 
#    y 0.000000 1.728780 0.000000 
#    z 0.000000 0.000000 1.770530 
# 
# From -- ./inp_files/23576.got.cif
#   From: 2010.05.17/outbox.cif.g08.bks.cpg/sg38_12_cif.got.tgz:23576.got - 2010.06.03 18:07:57.
