data_PCOD9356329
_publ_section_title
;
Structure prediction by ZEFSAII (Michael W. Deem and Ramdas Pophale) SiO2 
 PCOD9356329
Probable space group: A M M 2
;
_chemical_formula_sum "Si O2"
_cell_formula_units_Z 32
_cell_length_a 12.923854
_cell_length_b 7.820341
_cell_length_c 14.988835
_cell_angle_alpha 90.000000
_cell_angle_beta 90.000000
_cell_angle_gamma 90.000000
_cell_volume 1514.905745
_symmetry_space_group_name_H-M "A M M 2"
_symmetry_group_IT_number 38
_symmetry_cell_setting 'orthorhombic'
loop_
_space_group_symop_operation_xyz
x,y,z
-x,-y,z
-x,y,z
x,-y,z
x,1/2+y,1/2+z
-x,1/2-y,1/2+z
-x,1/2+y,1/2+z
x,1/2-y,1/2+z
loop_
_atom_site_type_symbol
_atom_site_label
_atom_site_fract_x
_atom_site_fract_y
_atom_site_fract_z
Si Si1 0.000000 0.194594 0.008920
Si Si2 0.383339 0.795275 0.877767
Si Si3 0.776169 0.710122 0.523954
Si Si4 0.779972 0.704028 0.729493
Si Si5 0.000000 0.695525 0.208786
O O1 0.888031 0.271443 0.987643
O O2 0.000000 0.192586 0.118157
O O3 0.000000 0.000000 0.974784
O O4 0.500000 0.727052 0.871730
O O5 0.313240 0.760412 0.791760
O O6 0.390315 0.000000 0.887430
O O7 0.317573 0.731381 0.962389
O O8 0.779383 0.500000 0.522757
O O9 0.765264 0.762404 0.626966
O O10 0.784041 0.500000 0.729650
O O11 0.893053 0.770034 0.759193
O O12 0.000000 0.500000 0.178809
#
# Coordination Sequence:
#
# PCOD9356329 Si02
#       5
#     4   8   8   8   4
#     4   8  14  29  52  77 104 136 178 221 263 317
#     4  10  21  36  53  77 108 143 187 230 265 310
#     4   8  16  32  54  76 102 139 178 218 265 322
#     4  10  20  36  57  81 109 141 179 221 267 319
#     4  10  18  31  54  83 112 140 172 213 269 327
#
# _framework density 21.123429000000002
#
# number of rings (size 3 to 8) (size 9 to 14) (size 15 to 20)
#    0.000    2.750    0.000    3.375    0.000    2.500 
#    0.000   11.250    0.000    0.000    0.000    0.000 
#    0.000    0.000    0.000    0.000    0.000    0.000 
#
# Total GULP energy -89278.376537 kJ/mol
# GULP energy per Si atom -5579.898534 kJ/mol
# Density = 2.107535 g / cm^3
# Si number density = 21.123429 Si / 1000 Ang^3
#
#
#
# Elastic Constant Matrix: (Units=GPa)
#
#
# Indices 1 2 3 4 5 6 
#
# 1 254.1631 13.1978 93.8233 0.0000 0.0000 0.0000
# 2 13.1978 41.8829 1.3825 0.0000 0.0000 0.0000
# 3 93.8233 1.3825 99.8234 0.0000 0.0000 0.0000
# 4 0.0000 0.0000 0.0000 17.0568 0.0000 0.0000
# 5 0.0000 0.0000 0.0000 0.0000 32.2783 0.0000
# 6 0.0000 0.0000 0.0000 0.0000 0.0000 19.5174
#
#
#
# Elastic Compliance Matrix: (Units=1/GPa)
#
#
# Indices 1 2 3 4 5 6 
#
# 1 0.006150 -0.001748 -0.005756 0.000000 0.000000 0.000000
# 2 -0.001748 0.024384 0.001305 0.000000 0.000000 0.000000
# 3 -0.005756 0.001305 0.015410 0.000000 0.000000 0.000000
# 4 0.000000 0.000000 0.000000 0.058628 0.000000 0.000000
# 5 0.000000 0.000000 0.000000 0.000000 0.030981 0.000000
# 6 0.000000 0.000000 0.000000 0.000000 0.000000 0.051236
#
#
# Mechanical properties :
#
#
# Convention : Reuss Voigt Hill
#
# Bulk Modulus (GPa) = 29.81000 68.07519 48.94259
# Shear Modulus (GPa) = 23.76782 32.93488 28.35135
#
# Velocity S-wave (km/s) = 3.35802 3.95291 3.66755
# Velocity P-wave (km/s) = 5.40167 7.28912 6.41519
#
# Compressibility (1/GPa) = 0.03354579
#
# Stress axis : x y z
#
# Youngs Moduli (GPa) = 162.59754 41.01076 64.89338
#
# Poissons Ratio (x) = 0.07169 0.37354
# Poissons Ratio (y) = 0.28422 -0.08470
# Poissons Ratio (z) = 0.93596 -0.05353
#
# Static dielectric constant tensor:
#      x y z
#    x 1.778210 0.000000 0.000000 
#    y 0.000000 1.779530 0.000000 
#    z 0.000000 0.000000 1.762260 
# 
# From -- ./inp_files/13307.got.cif
#   From: 2010.05.17/outbox.cif.g08.bks.cpg/sg38_7_cif.got.tgz:13307.got - 2010.06.03 18:07:57.
