data_PCOD9356665
_publ_section_title
;
Structure prediction by ZEFSAII (Michael W. Deem and Ramdas Pophale) SiO2 
 PCOD9356665
Probable space group: A M M 2
;
_chemical_formula_sum "Si O2"
_cell_formula_units_Z 56
_cell_length_a 9.116021
_cell_length_b 19.436719
_cell_length_c 18.202475
_cell_angle_alpha 90.000000
_cell_angle_beta 90.000000
_cell_angle_gamma 90.000000
_cell_volume 3225.215336
_symmetry_space_group_name_H-M "A M M 2"
_symmetry_group_IT_number 38
_symmetry_cell_setting 'orthorhombic'
loop_
_space_group_symop_operation_xyz
x,y,z
-x,-y,z
-x,y,z
x,-y,z
x,1/2+y,1/2+z
-x,1/2-y,1/2+z
-x,1/2+y,1/2+z
x,1/2-y,1/2+z
loop_
_atom_site_type_symbol
_atom_site_label
_atom_site_fract_x
_atom_site_fract_y
_atom_site_fract_z
Si Si1 0.173943 0.425505 0.474170
Si Si2 0.171038 0.696809 0.228781
Si Si3 0.323886 0.206316 0.335483
Si Si4 0.329479 0.292809 0.479229
Si Si5 0.174691 0.079796 0.421133
Si Si6 0.831518 0.174388 0.555275
Si Si7 0.671826 0.422934 0.315872
O O1 0.204748 0.500000 0.509786
O O2 0.236248 0.356635 0.509066
O O3 0.255386 0.425362 0.395915
O O4 0.000000 0.420207 0.463977
O O5 0.253533 0.764616 0.260254
O O6 0.178901 0.677695 0.142789
O O7 0.244728 0.632453 0.268618
O O8 0.000000 0.703655 0.248617
O O9 0.500000 0.199850 0.329681
O O10 0.292376 0.265966 0.396824
O O11 0.255662 0.135825 0.368910
O O12 0.500000 0.310059 0.481104
O O13 0.288592 0.227456 0.527163
O O14 0.192570 0.105968 0.505957
O O15 0.000000 0.083037 0.405417
O O16 0.221749 0.000000 0.412663
O O17 0.000000 0.196408 0.536450
O O18 0.500000 0.405763 0.322562
O O19 0.683799 0.500000 0.284315
#
# Coordination Sequence:
#
# PCOD9356665 Si02
#       7
#     8   8   8   8   8   8   8
#     4  10  19  30  48  73  99 130 167 207 250 297
#     4  11  21  33  52  77 106 142 180 218 263 316
#     4  10  20  33  52  77 105 138 176 220 266 314
#     4  10  19  32  51  74 100 134 172 214 260 308
#     4   9  18  35  58  81 106 138 178 224 271 320
#     4   9  20  35  52  76 105 138 175 216 264 319
#     4  10  20  32  46  69 103 138 170 206 249 298
#
# _framework density 17.363181999999998
#
# number of rings (size 3 to 8) (size 9 to 14) (size 15 to 20)
#    0.000    2.143    1.429    2.143    0.000    4.857 
#    0.000    1.429    0.000    0.857    0.000    6.000 
#    0.000    0.000    0.000    0.000    0.000    0.000 
#
# Total GULP energy -155916.488895 kJ/mol
# GULP energy per Si atom -5568.446032 kJ/mol
# Density = 1.732366 g / cm^3
# Si number density = 17.363182 Si / 1000 Ang^3
#
#
#
# Elastic Constant Matrix: (Units=GPa)
#
#
# Indices 1 2 3 4 5 6 
#
# 1 59.8378 42.0988 18.2835 0.0000 0.0000 0.0000
# 2 42.0988 112.3207 18.9461 0.0000 0.0000 0.0000
# 3 18.2835 18.9461 35.0192 0.0000 0.0000 0.0000
# 4 0.0000 0.0000 0.0000 12.3331 0.0000 0.0000
# 5 0.0000 0.0000 0.0000 0.0000 13.9007 0.0000
# 6 0.0000 0.0000 0.0000 0.0000 0.0000 28.5857
#
#
#
# Elastic Compliance Matrix: (Units=1/GPa)
#
#
# Indices 1 2 3 4 5 6 
#
# 1 0.024919 -0.007863 -0.008756 0.000000 0.000000 0.000000
# 2 -0.007863 0.012278 -0.002537 0.000000 0.000000 0.000000
# 3 -0.008756 -0.002537 0.034500 0.000000 0.000000 0.000000
# 4 0.000000 0.000000 0.000000 0.081082 0.000000 0.000000
# 5 0.000000 0.000000 0.000000 0.000000 0.071939 0.000000
# 6 0.000000 0.000000 0.000000 0.000000 0.000000 0.034982
#
#
# Mechanical properties :
#
#
# Convention : Reuss Voigt Hill
#
# Bulk Modulus (GPa) = 29.95428 40.64827 35.30128
# Shear Modulus (GPa) = 16.17374 19.48721 17.83047
#
# Velocity S-wave (km/s) = 3.05535 3.35375 3.20802
# Velocity P-wave (km/s) = 5.45307 6.20148 5.83928
#
# Compressibility (1/GPa) = 0.03338421
#
# Stress axis : x y z
#
# Youngs Moduli (GPa) = 40.12939 81.44500 28.98524
#
# Poissons Ratio (x) = 0.64040 0.25381
# Poissons Ratio (y) = 0.31554 0.07355
# Poissons Ratio (z) = 0.35139 0.20667
#
# Static dielectric constant tensor:
#      x y z
#    x 1.584330 0.000000 0.000000 
#    y 0.000000 1.641010 0.000000 
#    z 0.000000 0.000000 1.605640 
# 
# From -- ./inp_files/17123.got.cif
#   From: 2010.05.17/outbox.cif.g08.bks.cpg/sg38_9_cif.got.tgz:17123.got - 2010.06.03 18:07:57.
