data_PCOD9356195
_publ_section_title
;
Structure prediction by ZEFSAII (Michael W. Deem and Ramdas Pophale) SiO2 
 PCOD9356195
Probable space group: A M M 2
;
_chemical_formula_sum "Si O2"
_cell_formula_units_Z 48
_cell_length_a 7.467811
_cell_length_b 12.498659
_cell_length_c 25.870630
_cell_angle_alpha 90.000000
_cell_angle_beta 90.000000
_cell_angle_gamma 90.000000
_cell_volume 2414.703114
_symmetry_space_group_name_H-M "A M M 2"
_symmetry_group_IT_number 38
_symmetry_cell_setting 'orthorhombic'
loop_
_space_group_symop_operation_xyz
x,y,z
-x,-y,z
-x,y,z
x,-y,z
x,1/2+y,1/2+z
-x,1/2-y,1/2+z
-x,1/2+y,1/2+z
x,1/2-y,1/2+z
loop_
_atom_site_type_symbol
_atom_site_label
_atom_site_fract_x
_atom_site_fract_y
_atom_site_fract_z
Si Si1 0.719319 0.377180 0.198340
Si Si2 0.288413 0.500000 0.786630
Si Si3 0.715401 0.123159 0.005672
Si Si4 0.293660 0.232821 0.293678
Si Si5 0.718796 0.218393 0.110596
Si Si6 0.287580 0.000000 0.163526
Si Si7 0.210649 0.378535 0.388064
O O1 0.500000 0.378971 0.199662
O O2 0.778215 0.500000 0.202650
O O3 0.780996 0.304092 0.246624
O O4 0.774229 0.319243 0.145064
O O5 0.500000 0.500000 0.801564
O O6 0.213245 0.615268 0.803106
O O7 0.268894 0.500000 0.724696
O O8 0.500000 0.119399 0.008126
O O9 0.764632 0.154832 0.947559
O O10 0.778407 0.000000 0.014360
O O11 0.775918 0.201775 0.051310
O O12 0.500000 0.212712 0.277711
O O13 0.291905 0.301084 0.345732
O O14 0.500000 0.220380 0.111080
O O15 0.780020 0.109956 0.139359
O O16 0.500000 0.000000 0.151977
O O17 0.282026 0.500000 0.383524
O O18 0.000000 0.381629 0.377363
#
# Coordination Sequence:
#
# PCOD9356195 Si02
#       7
#     8   4   8   8   8   4   8
#     4   9  16  24  39  68 102 129 150 181 231 285
#     4   9  16  26  45  75 103 125 151 192 241 284
#     4   9  16  27  47  72  92 116 156 201 239 276
#     4  10  18  30  50  74  99 125 158 198 238 282
#     4   9  14  22  40  67  96 120 148 188 234 282
#     4   9  12  20  38  67  99 123 145 180 233 282
#     4  10  21  35  49  67  94 128 163 200 243 286
#
# _framework density 19.878218
#
# number of rings (size 3 to 8) (size 9 to 14) (size 15 to 20)
#    0.000    2.667    2.500    1.000    0.000    1.667 
#    0.000    0.417    1.833    1.000    0.000    0.000 
#    0.000    0.000    0.000    0.000    0.000    0.000 
#
# Total GULP energy -133841.050677 kJ/mol
# GULP energy per Si atom -5576.710445 kJ/mol
# Density = 1.983297 g / cm^3
# Si number density = 19.878218 Si / 1000 Ang^3
#
#
#
# Elastic Constant Matrix: (Units=GPa)
#
#
# Indices 1 2 3 4 5 6 
#
# 1 54.9358 4.5227 -0.5568 0.0000 0.0000 0.0000
# 2 4.5227 160.6655 84.6286 0.0000 0.0000 0.0000
# 3 -0.5568 84.6286 102.1468 0.0000 0.0000 0.0000
# 4 0.0000 0.0000 0.0000 27.1001 0.0000 0.0000
# 5 0.0000 0.0000 0.0000 0.0000 -100.9908 0.0000
# 6 0.0000 0.0000 0.0000 0.0000 0.0000 -8.9846
#
#
#
# Elastic Compliance Matrix: (Units=1/GPa)
#
#
# Indices 1 2 3 4 5 6 
#
# 1 0.018295 -0.001007 0.000934 0.000000 0.000000 0.000000
# 2 -0.001007 0.011099 -0.009201 0.000000 0.000000 0.000000
# 3 0.000934 -0.009201 0.017418 0.000000 0.000000 0.000000
# 4 0.000000 0.000000 0.000000 0.036900 0.000000 0.000000
# 5 0.000000 0.000000 0.000000 0.000000 -0.009902 0.000000
# 6 0.000000 0.000000 0.000000 0.000000 0.000000 -0.111301
#
#
# Mechanical properties :
#
#
# Convention : Reuss Voigt Hill
#
# Bulk Modulus (GPa) = 35.38016 54.99301 45.18659
# Shear Modulus (GPa) = -525.14061 -1.29815 -263.21938
#
# Velocity S-wave (km/s) = -16.27121 -0.80899 -11.51970
# Velocity P-wave (km/s) = 18.30754 5.18193 12.41599
#
# Compressibility (1/GPa) = 0.02826443
#
# Stress axis : x y z
#
# Youngs Moduli (GPa) = 54.65848 90.09845 57.41207
#
# Poissons Ratio (x) = 0.09073 -0.05363
# Poissons Ratio (y) = 0.05504 0.52825
# Poissons Ratio (z) = -0.05105 0.82899
#
# Static dielectric constant tensor:
#      x y z
#    x 1.770890 0.000000 0.000000 
#    y 0.000000 1.705240 0.000000 
#    z 0.000000 0.000000 1.675120 
# 
# From -- ./inp_files/22499.got.cif
#   From: 2010.05.17/outbox.cif.g08.bks.cpg/sg38_12_cif.got.tgz:22499.got - 2010.06.03 18:07:57.
