data_PCOD9356332
_publ_section_title
;
Structure prediction by ZEFSAII (Michael W. Deem and Ramdas Pophale) SiO2 
 PCOD9356332
Probable space group: A M M 2
;
_chemical_formula_sum "Si O2"
_cell_formula_units_Z 56
_cell_length_a 14.570018
_cell_length_b 13.023642
_cell_length_c 12.925312
_cell_angle_alpha 90.000000
_cell_angle_beta 90.000000
_cell_angle_gamma 90.000000
_cell_volume 2452.638680
_symmetry_space_group_name_H-M "A M M 2"
_symmetry_group_IT_number 38
_symmetry_cell_setting 'orthorhombic'
loop_
_space_group_symop_operation_xyz
x,y,z
-x,-y,z
-x,y,z
x,-y,z
x,1/2+y,1/2+z
-x,1/2-y,1/2+z
-x,1/2+y,1/2+z
x,1/2-y,1/2+z
loop_
_atom_site_type_symbol
_atom_site_label
_atom_site_fract_x
_atom_site_fract_y
_atom_site_fract_z
Si Si1 0.102234 0.115313 0.631230
Si Si2 0.098386 0.878215 0.272123
Si Si3 0.608807 0.325773 0.664482
Si Si4 0.701966 0.165743 0.955864
Si Si5 0.289634 0.382342 0.870445
Si Si6 0.698921 0.885869 0.723694
Si Si7 0.899505 0.677107 0.529315
O O1 0.191364 0.129638 0.703032
O O2 0.105644 0.199694 0.542014
O O3 0.000000 0.126261 0.680209
O O4 0.107340 0.000000 0.589182
O O5 0.189848 0.846228 0.329234
O O6 0.106727 0.857541 0.149586
O O7 0.000000 0.834601 0.306853
O O8 0.095286 0.000000 0.285724
O O9 0.500000 0.329440 0.662464
O O10 0.650490 0.370227 0.558604
O O11 0.647380 0.379188 0.767931
O O12 0.645780 0.208761 0.673641
O O13 0.683618 0.289129 0.945407
O O14 0.676282 0.120071 0.845333
O O15 0.809677 0.141941 0.971273
O O16 0.287059 0.500000 0.910073
O O17 0.676376 0.000000 0.684388
O O18 0.000000 0.645596 0.490297
#
# Coordination Sequence:
#
# PCOD9356332 Si02
#       7
#     8   8   8   8   8   8   8
#     4   9  17  32  56  84 118 160 198 232 275 336
#     4   9  17  32  56  84 118 160 198 232 275 336
#     4  11  24  44  64  83 114 152 195 249 305 354
#     4  11  22  37  58  94 120 152 193 242 296 345
#     4  10  22  40  63  89 120 155 195 240 291 351
#     4  10  22  40  63  89 120 155 195 240 291 351
#     4  10  18  31  54  85 120 158 198 233 277 339
#
# _framework density 22.832552
#
# number of rings (size 3 to 8) (size 9 to 14) (size 15 to 20)
#    0.000    2.000    2.857    0.857    0.000    6.286 
#    0.000    0.000    0.000    0.000    0.000    0.000 
#    0.000    0.000    0.000    0.000    0.000    0.000 
#
# Total GULP energy -156449.328607 kJ/mol
# GULP energy per Si atom -5587.476022 kJ/mol
# Density = 2.278058 g / cm^3
# Si number density = 22.832552 Si / 1000 Ang^3
#
#
#
# Elastic Constant Matrix: (Units=GPa)
#
#
# Indices 1 2 3 4 5 6 
#
# 1 122.2183 10.5048 37.4243 0.0000 0.0000 0.0000
# 2 10.5048 69.5113 -10.4989 0.0000 0.0000 0.0000
# 3 37.4243 -10.4989 85.9218 0.0000 0.0000 0.0000
# 4 0.0000 0.0000 0.0000 -11.4765 0.0000 0.0000
# 5 0.0000 0.0000 0.0000 0.0000 -0.7873 0.0000
# 6 0.0000 0.0000 0.0000 0.0000 0.0000 9.1212
#
#
#
# Elastic Compliance Matrix: (Units=1/GPa)
#
#
# Indices 1 2 3 4 5 6 
#
# 1 0.009748 -0.002154 -0.004509 0.000000 0.000000 0.000000
# 2 -0.002154 0.015133 0.002787 0.000000 0.000000 0.000000
# 3 -0.004509 0.002787 0.013943 0.000000 0.000000 0.000000
# 4 0.000000 0.000000 0.000000 -0.087134 0.000000 0.000000
# 5 0.000000 0.000000 0.000000 0.000000 -1.270145 0.000000
# 6 0.000000 0.000000 0.000000 0.000000 0.000000 0.109635
#
#
# Mechanical properties :
#
#
# Convention : Reuss Voigt Hill
#
# Bulk Modulus (GPa) = 32.18337 39.16798 35.67567
# Shear Modulus (GPa) = -4.19917 15.38621 5.59352
#
# Velocity S-wave (km/s) = -1.35761 2.59872 1.56688
# Velocity P-wave (km/s) = 3.41592 5.11822 4.35113
#
# Compressibility (1/GPa) = 0.03107195
#
# Stress axis : x y z
#
# Youngs Moduli (GPa) = 102.58562 66.08207 71.72020
#
# Poissons Ratio (x) = 0.14235 0.32339
# Poissons Ratio (y) = 0.22099 -0.19991
# Poissons Ratio (z) = 0.46257 -0.18420
#
# Static dielectric constant tensor:
#      x y z
#    x 1.860900 0.000000 0.000000 
#    y 0.000000 1.894730 0.000000 
#    z 0.000000 0.000000 1.840850 
# 
# From -- ./inp_files/10121.got.cif
#   From: 2010.05.17/outbox.cif.g08.bks.cpg/sg38_6_cif.got.tgz:10121.got - 2010.06.03 18:07:57.
