data_PCOD9356327
_publ_section_title
;
Structure prediction by ZEFSAII (Michael W. Deem and Ramdas Pophale) SiO2 
 PCOD9356327
Probable space group: A M M 2
;
_chemical_formula_sum "Si O2"
_cell_formula_units_Z 48
_cell_length_a 7.561956
_cell_length_b 19.084972
_cell_length_c 15.078094
_cell_angle_alpha 90.000000
_cell_angle_beta 90.000000
_cell_angle_gamma 90.000000
_cell_volume 2176.066282
_symmetry_space_group_name_H-M "A M M 2"
_symmetry_group_IT_number 38
_symmetry_cell_setting 'orthorhombic'
loop_
_space_group_symop_operation_xyz
x,y,z
-x,-y,z
-x,y,z
x,-y,z
x,1/2+y,1/2+z
-x,1/2-y,1/2+z
-x,1/2+y,1/2+z
x,1/2-y,1/2+z
loop_
_atom_site_type_symbol
_atom_site_label
_atom_site_fract_x
_atom_site_fract_y
_atom_site_fract_z
Si Si1 0.204634 0.230922 0.603540
Si Si2 0.709330 0.149132 0.246426
Si Si3 0.796253 0.423990 0.133481
Si Si4 0.282174 0.500000 0.676358
Si Si5 0.714068 0.743015 0.900129
Si Si6 0.713682 0.608414 0.329192
Si Si7 0.285160 0.500000 0.474521
O O1 0.273041 0.292087 0.668623
O O2 0.285522 0.152110 0.610410
O O3 0.220018 0.249791 0.500099
O O4 0.000000 0.223705 0.628605
O O5 0.500000 0.140587 0.258774
O O6 0.778524 0.072930 0.219393
O O7 0.778565 0.178633 0.340067
O O8 0.719145 0.500000 0.105489
O O9 0.792677 0.422276 0.240149
O O10 0.000000 0.423384 0.101972
O O11 0.500000 0.500000 0.677038
O O12 0.223444 0.500000 0.574320
O O13 0.500000 0.741117 0.905899
O O14 0.761433 0.811374 0.843351
O O15 0.500000 0.602700 0.321140
O O16 0.768192 0.566554 0.416549
O O17 0.500000 0.500000 0.477874
#
# Coordination Sequence:
#
# PCOD9356327 Si02
#       7
#     8   8   8   4   8   8   4
#     4  11  23  38  59  84 114 152 193 236 284 341
#     4  10  20  38  63  86 115 151 190 237 285 337
#     4  10  21  37  55  78 112 150 186 228 281 336
#     4   9  18  34  57  84 115 148 182 231 287 335
#     4  10  21  36  57  85 114 149 192 236 282 336
#     4  10  18  31  54  82 110 141 182 230 283 337
#     4   9  16  26  47  80 111 136 170 221 281 339
#
# _framework density 22.058152
#
# number of rings (size 3 to 8) (size 9 to 14) (size 15 to 20)
#    0.000    2.000    2.500    1.500    0.000    4.667 
#    1.500    0.417    0.000    0.000    0.000    0.000 
#    0.000    0.000    0.000    0.000    0.000    0.000 
#
# Total GULP energy -133934.474152 kJ/mol
# GULP energy per Si atom -5580.603090 kJ/mol
# Density = 2.200795 g / cm^3
# Si number density = 22.058152 Si / 1000 Ang^3
#
#
#
# Elastic Constant Matrix: (Units=GPa)
#
#
# Indices 1 2 3 4 5 6 
#
# 1 49.4612 3.4727 -9.6160 0.0000 0.0000 0.0000
# 2 3.4727 134.2428 5.8436 0.0000 0.0000 0.0000
# 3 -9.6160 5.8436 56.2528 0.0000 0.0000 0.0000
# 4 0.0000 0.0000 0.0000 33.3619 0.0000 0.0000
# 5 0.0000 0.0000 0.0000 0.0000 14.3439 0.0000
# 6 0.0000 0.0000 0.0000 0.0000 0.0000 2.8243
#
#
#
# Elastic Compliance Matrix: (Units=1/GPa)
#
#
# Indices 1 2 3 4 5 6 
#
# 1 0.020979 -0.000702 0.003659 0.000000 0.000000 0.000000
# 2 -0.000702 0.007507 -0.000900 0.000000 0.000000 0.000000
# 3 0.003659 -0.000900 0.018496 0.000000 0.000000 0.000000
# 4 0.000000 0.000000 0.000000 0.029974 0.000000 0.000000
# 5 0.000000 0.000000 0.000000 0.000000 0.069716 0.000000
# 6 0.000000 0.000000 0.000000 0.000000 0.000000 0.354064
#
#
# Mechanical properties :
#
#
# Convention : Reuss Voigt Hill
#
# Bulk Modulus (GPa) = 19.57122 26.59527 23.08325
# Shear Modulus (GPa) = 9.73421 26.12312 17.92866
#
# Velocity S-wave (km/s) = 2.10299 3.44508 2.85404
# Velocity P-wave (km/s) = 3.84559 5.28278 4.62041
#
# Compressibility (1/GPa) = 0.05109543
#
# Stress axis : x y z
#
# Youngs Moduli (GPa) = 47.66784 133.21756 54.06622
#
# Poissons Ratio (x) = 0.09351 -0.19783
# Poissons Ratio (y) = 0.03346 0.04865
# Poissons Ratio (z) = -0.17442 0.11987
#
# Static dielectric constant tensor:
#      x y z
#    x 1.846680 0.000000 0.000000 
#    y 0.000000 1.867310 0.000000 
#    z 0.000000 0.000000 1.752120 
# 
# From -- ./inp_files/12082.got.cif
#   From: 2010.05.17/outbox.cif.g08.bks.cpg/sg38_7_cif.got.tgz:12082.got - 2010.06.03 18:07:57.
