data_PCOD9356286
_publ_section_title
;
Structure prediction by ZEFSAII (Michael W. Deem and Ramdas Pophale) SiO2 
 PCOD9356286
Probable space group: A M M 2
;
_chemical_formula_sum "Si O2"
_cell_formula_units_Z 64
_cell_length_a 7.964752
_cell_length_b 21.461034
_cell_length_c 20.385576
_cell_angle_alpha 90.000000
_cell_angle_beta 90.000000
_cell_angle_gamma 90.000000
_cell_volume 3484.543474
_symmetry_space_group_name_H-M "A M M 2"
_symmetry_group_IT_number 38
_symmetry_cell_setting 'orthorhombic'
loop_
_space_group_symop_operation_xyz
x,y,z
-x,-y,z
-x,y,z
x,-y,z
x,1/2+y,1/2+z
-x,1/2-y,1/2+z
-x,1/2+y,1/2+z
x,1/2-y,1/2+z
loop_
_atom_site_type_symbol
_atom_site_label
_atom_site_fract_x
_atom_site_fract_y
_atom_site_fract_z
Si Si1 0.201728 0.120205 0.752550
Si Si2 0.205779 0.069073 0.613668
Si Si3 0.799689 0.810815 0.534190
Si Si4 0.702458 0.931355 0.032951
Si Si5 0.300571 0.265504 0.896192
Si Si6 0.202539 0.810417 0.113575
Si Si7 0.202527 0.764220 0.252678
Si Si8 0.298005 0.877769 0.895757
O O1 0.258693 0.082945 0.688653
O O2 0.261270 0.192158 0.747352
O O3 0.251085 0.096476 0.824385
O O4 0.000000 0.121461 0.750136
O O5 0.264033 0.126054 0.568077
O O6 0.000000 0.069466 0.612874
O O7 0.259877 0.000000 0.593355
O O8 0.766397 0.804497 0.457184
O O9 0.734507 0.748373 0.570412
O O10 0.000000 0.810841 0.544224
O O11 0.500000 0.933035 0.030617
O O12 0.749482 0.875200 0.080657
O O13 0.762907 0.000000 0.052677
O O14 0.762446 0.914880 0.959277
O O15 0.500000 0.262845 0.902550
O O16 0.256954 0.288848 0.823523
O O17 0.234827 0.193920 0.900430
O O18 0.260551 0.801051 0.188438
O O19 0.000000 0.807275 0.113889
O O20 0.000000 0.763035 0.251853
O O21 0.500000 0.875873 0.898403
#
# Coordination Sequence:
#
# PCOD9356286 Si02
#       8
#     8   8   8   8   8   8   8   8
#     4   9  16  28  47  71  99 132 167 200 237 285
#     4   9  17  30  49  74 103 133 166 203 245 296
#     4  10  18  31  52  76 100 131 167 207 253 294
#     4  10  21  36  51  69 100 139 171 204 251 302
#     4  10  19  31  49  75 102 130 166 208 248 292
#     4  10  19  32  53  77 100 128 167 213 255 295
#     4   9  17  31  50  74 102 130 161 204 254 298
#     4   9  18  31  45  67  99 134 168 199 238 289
#
# _framework density 18.366824999999999
#
# number of rings (size 3 to 8) (size 9 to 14) (size 15 to 20)
#    0.000    2.500    2.500    0.375    0.000    2.250 
#    0.000    0.625    0.000    1.875    0.000    1.750 
#    0.000    0.000    0.000    0.000    0.000    0.000 
#
# Total GULP energy -178468.265671 kJ/mol
# GULP energy per Si atom -5577.133302 kJ/mol
# Density = 1.832502 g / cm^3
# Si number density = 18.366825 Si / 1000 Ang^3
#
#
#
# Elastic Constant Matrix: (Units=GPa)
#
#
# Indices 1 2 3 4 5 6 
#
# 1 11.0709 11.1251 4.8307 0.0000 0.0000 0.0000
# 2 11.1251 128.9934 86.6499 0.0000 0.0000 0.0000
# 3 4.8307 86.6499 137.8230 0.0000 0.0000 0.0000
# 4 0.0000 0.0000 0.0000 21.9339 0.0000 0.0000
# 5 0.0000 0.0000 0.0000 0.0000 67.3247 0.0000
# 6 0.0000 0.0000 0.0000 0.0000 0.0000 11.3837
#
#
#
# Elastic Compliance Matrix: (Units=1/GPa)
#
#
# Indices 1 2 3 4 5 6 
#
# 1 0.099763 -0.010828 0.003311 0.000000 0.000000 0.000000
# 2 -0.010828 0.014595 -0.008797 0.000000 0.000000 0.000000
# 3 0.003311 -0.008797 0.012670 0.000000 0.000000 0.000000
# 4 0.000000 0.000000 0.000000 0.045591 0.000000 0.000000
# 5 0.000000 0.000000 0.000000 0.000000 0.014853 0.000000
# 6 0.000000 0.000000 0.000000 0.000000 0.000000 0.087845
#
#
# Mechanical properties :
#
#
# Convention : Reuss Voigt Hill
#
# Bulk Modulus (GPa) = 10.59309 53.67762 32.13535
# Shear Modulus (GPa) = 14.73133 31.81391 23.27262
#
# Velocity S-wave (km/s) = 2.83514 4.16641 3.56350
# Velocity P-wave (km/s) = 4.06170 7.24114 5.87075
#
# Compressibility (1/GPa) = 0.09440119
#
# Stress axis : x y z
#
# Youngs Moduli (GPa) = 10.02371 68.51566 78.92630
#
# Poissons Ratio (x) = 0.74191 -0.26133
# Poissons Ratio (y) = 0.10854 0.69428
# Poissons Ratio (z) = -0.03319 0.60270
#
# Static dielectric constant tensor:
#      x y z
#    x 1.661680 0.000000 0.000000 
#    y 0.000000 1.631590 0.000000 
#    z 0.000000 0.000000 1.632350 
# 
# From -- ./inp_files/17157.got.cif
#   From: 2010.05.17/outbox.cif.g08.bks.cpg/sg38_9_cif.got.tgz:17157.got - 2010.06.03 18:07:57.
