data_PCOD9356224
_publ_section_title
;
Structure prediction by ZEFSAII (Michael W. Deem and Ramdas Pophale) SiO2 
 PCOD9356224
Probable space group: A M M 2
;
_chemical_formula_sum "Si O2"
_cell_formula_units_Z 64
_cell_length_a 7.610975
_cell_length_b 17.066619
_cell_length_c 22.696837
_cell_angle_alpha 90.000000
_cell_angle_beta 90.000000
_cell_angle_gamma 90.000000
_cell_volume 2948.174106
_symmetry_space_group_name_H-M "A M M 2"
_symmetry_group_IT_number 38
_symmetry_cell_setting 'orthorhombic'
loop_
_space_group_symop_operation_xyz
x,y,z
-x,-y,z
-x,y,z
x,-y,z
x,1/2+y,1/2+z
-x,1/2-y,1/2+z
-x,1/2+y,1/2+z
x,1/2-y,1/2+z
loop_
_atom_site_type_symbol
_atom_site_label
_atom_site_fract_x
_atom_site_fract_y
_atom_site_fract_z
Si Si1 0.796599 0.736433 0.843650
Si Si2 0.704139 0.917442 0.683175
Si Si3 0.287299 0.746614 0.715969
Si Si4 0.198954 0.613248 0.051380
Si Si5 0.784648 0.087282 0.419211
Si Si6 0.210724 0.914151 0.004318
Si Si7 0.212611 0.587759 0.365348
Si Si8 0.300142 0.276828 0.587045
O O1 0.786008 0.711251 0.775599
O O2 0.724189 0.665261 0.883922
O O3 0.721918 0.826203 0.844005
O O4 0.000000 0.745419 0.862122
O O5 0.500000 0.918094 0.700218
O O6 0.778066 0.836699 0.708258
O O7 0.712667 0.913376 0.612072
O O8 0.785854 0.000000 0.702035
O O9 0.500000 0.745882 0.720939
O O10 0.238752 0.707388 0.653672
O O11 0.196694 0.706922 0.056768
O O12 0.000000 0.584351 0.053612
O O13 0.273278 0.592071 0.987643
O O14 0.000000 0.089869 0.419000
O O15 0.735196 0.000000 0.396482
O O16 0.294534 0.849742 0.044817
O O17 0.000000 0.906801 0.009100
O O18 0.263598 0.000000 0.024684
O O19 0.250678 0.908409 0.935224
O O20 0.275351 0.500000 0.345005
O O21 0.000000 0.586253 0.356944
O O22 0.500000 0.247324 0.592845
#
# Coordination Sequence:
#
# PCOD9356224 Si02
#       8
#     8   8   8   8   8   8   8   8
#     4  10  19  32  52  73  94 128 171 210 246 288
#     4   9  18  33  51  72 102 135 161 193 246 307
#     4   9  20  36  49  65  94 132 169 204 246 293
#     4  10  18  30  52  78 102 128 161 202 248 301
#     4   9  18  32  50  74 102 129 160 204 259 309
#     4   9  17  31  53  79 104 129 160 201 249 303
#     4   8  15  29  49  75 106 133 156 191 246 306
#     4  10  20  34  51  71 100 136 167 201 252 305
#
# _framework density 21.708351
#
# number of rings (size 3 to 8) (size 9 to 14) (size 15 to 20)
#    0.000    2.750    0.000    3.375    0.000    6.000 
#    0.000    3.750    0.000    4.875    0.000    0.000 
#    0.000    0.000    0.000    0.000    0.000    0.000 
#
# Total GULP energy -178389.167511 kJ/mol
# GULP energy per Si atom -5574.661485 kJ/mol
# Density = 2.165894 g / cm^3
# Si number density = 21.708351 Si / 1000 Ang^3
#
#
#
# Elastic Constant Matrix: (Units=GPa)
#
#
# Indices 1 2 3 4 5 6 
#
# 1 42.4208 8.5762 -0.0641 0.0000 0.0000 0.0000
# 2 8.5762 114.5181 50.0193 0.0000 0.0000 0.0000
# 3 -0.0641 50.0193 91.8519 0.0000 0.0000 0.0000
# 4 0.0000 0.0000 0.0000 -3.0509 0.0000 0.0000
# 5 0.0000 0.0000 0.0000 0.0000 17.3671 0.0000
# 6 0.0000 0.0000 0.0000 0.0000 0.0000 -23.9819
#
#
#
# Elastic Compliance Matrix: (Units=1/GPa)
#
#
# Indices 1 2 3 4 5 6 
#
# 1 0.024055 -0.002373 0.001309 0.000000 0.000000 0.000000
# 2 -0.002373 0.011692 -0.006368 0.000000 0.000000 0.000000
# 3 0.001309 -0.006368 0.014356 0.000000 0.000000 0.000000
# 4 0.000000 0.000000 0.000000 -0.327771 0.000000 0.000000
# 5 0.000000 0.000000 0.000000 0.000000 0.057580 0.000000
# 6 0.000000 0.000000 0.000000 0.000000 0.000000 -0.041698
#
#
# Mechanical properties :
#
#
# Convention : Reuss Voigt Hill
#
# Bulk Modulus (GPa) = 28.37874 40.65038 34.51456
# Shear Modulus (GPa) = -21.26071 10.75083 -5.25494
#
# Velocity S-wave (km/s) = -3.13290 2.22781 -1.55755
# Velocity P-wave (km/s) = 0.11989 5.03824 3.56358
#
# Compressibility (1/GPa) = 0.03523764
#
# Stress axis : x y z
#
# Youngs Moduli (GPa) = 41.57112 85.53138 69.65697
#
# Poissons Ratio (x) = 0.20299 -0.09120
# Poissons Ratio (y) = 0.09866 0.44361
# Poissons Ratio (z) = -0.05443 0.54471
#
# Static dielectric constant tensor:
#      x y z
#    x 1.832480 0.000000 0.000000 
#    y 0.000000 1.836930 0.000000 
#    z 0.000000 0.000000 1.766900 
# 
# From -- ./inp_files/20097.got.cif
#   From: 2010.05.17/outbox.cif.g08.bks.cpg/sg38_11_cif.got.tgz:20097.got - 2010.06.03 18:07:57.
