data_PCOD9356399
_publ_section_title
;
Structure prediction by ZEFSAII (Michael W. Deem and Ramdas Pophale) SiO2 
 PCOD9356399
Probable space group: A M M 2
;
_chemical_formula_sum "Si O2"
_cell_formula_units_Z 48
_cell_length_a 8.562994
_cell_length_b 21.047875
_cell_length_c 14.875807
_cell_angle_alpha 90.000000
_cell_angle_beta 90.000000
_cell_angle_gamma 90.000000
_cell_volume 2681.108755
_symmetry_space_group_name_H-M "A M M 2"
_symmetry_group_IT_number 38
_symmetry_cell_setting 'orthorhombic'
loop_
_space_group_symop_operation_xyz
x,y,z
-x,-y,z
-x,y,z
x,-y,z
x,1/2+y,1/2+z
-x,1/2-y,1/2+z
-x,1/2+y,1/2+z
x,1/2-y,1/2+z
loop_
_atom_site_type_symbol
_atom_site_label
_atom_site_fract_x
_atom_site_fract_y
_atom_site_fract_z
Si Si1 0.313023 0.270328 0.048520
Si Si2 0.188756 0.873122 0.045838
Si Si3 0.812691 0.188444 0.361424
Si Si4 0.312873 0.308078 0.248391
Si Si5 0.188760 0.571711 0.353362
Si Si6 0.809543 0.928398 0.238254
O O1 0.500000 0.271280 0.044177
O O2 0.255756 0.197682 0.042729
O O3 0.263226 0.297908 0.145071
O O4 0.246126 0.307450 0.963167
O O5 0.237816 0.907487 0.137785
O O6 0.000000 0.868798 0.046974
O O7 0.233611 0.910608 0.955809
O O8 0.753662 0.250460 0.308095
O O9 0.758855 0.125452 0.308487
O O10 0.000000 0.189708 0.360909
O O11 0.500000 0.305142 0.252460
O O12 0.255869 0.374474 0.288757
O O13 0.238642 0.500000 0.331722
O O14 0.000000 0.574159 0.349083
O O15 0.000000 0.928690 0.239121
O O16 0.757112 0.000000 0.258325
#
# Coordination Sequence:
#
# PCOD9356399 Si02
#       6
#     8   8   8   8   8   8
#     4  11  23  37  55  82 116 150 189 233 279 331
#     4  10  18  32  57  86 116 146 180 226 282 339
#     4  11  21  35  59  86 112 146 190 236 281 335
#     4  11  23  38  57  81 114 153 191 234 281 338
#     4  10  21  36  57  87 118 149 188 234 284 338
#     4   9  18  33  55  85 117 146 180 228 284 336
#
# _framework density 17.903041999999999
#
# number of rings (size 3 to 8) (size 9 to 14) (size 15 to 20)
#    0.000    1.667    3.333    2.000    0.000    4.333 
#    0.000    0.833    0.000    8.500    0.000    0.000 
#    0.000    0.000    0.000    0.000    0.000    0.000 
#
# Total GULP energy -134047.379435 kJ/mol
# GULP energy per Si atom -5585.307476 kJ/mol
# Density = 1.786229 g / cm^3
# Si number density = 17.903042 Si / 1000 Ang^3
#
#
#
# Elastic Constant Matrix: (Units=GPa)
#
#
# Indices 1 2 3 4 5 6 
#
# 1 20.5163 24.3655 28.7428 0.0000 0.0000 0.0000
# 2 24.3655 148.9656 69.5898 0.0000 0.0000 0.0000
# 3 28.7428 69.5898 135.6946 0.0000 0.0000 0.0000
# 4 0.0000 0.0000 0.0000 24.3140 0.0000 0.0000
# 5 0.0000 0.0000 0.0000 0.0000 22.9286 0.0000
# 6 0.0000 0.0000 0.0000 0.0000 0.0000 -15.0771
#
#
#
# Elastic Compliance Matrix: (Units=1/GPa)
#
#
# Indices 1 2 3 4 5 6 
#
# 1 0.073474 -0.006243 -0.012362 0.000000 0.000000 0.000000
# 2 -0.006243 0.009358 -0.003477 0.000000 0.000000 0.000000
# 3 -0.012362 -0.003477 0.011771 0.000000 0.000000 0.000000
# 4 0.000000 0.000000 0.000000 0.041129 0.000000 0.000000
# 5 0.000000 0.000000 0.000000 0.000000 0.043614 0.000000
# 6 0.000000 0.000000 0.000000 0.000000 0.000000 -0.066326
#
#
# Mechanical properties :
#
#
# Convention : Reuss Voigt Hill
#
# Bulk Modulus (GPa) = 19.82537 61.17475 40.50006
# Shear Modulus (GPa) = 28.73614 18.59831 23.66723
#
# Velocity S-wave (km/s) = 4.01071 3.22659 3.63983
# Velocity P-wave (km/s) = 5.70487 6.93725 6.35102
#
# Compressibility (1/GPa) = 0.05044042
#
# Stress axis : x y z
#
# Youngs Moduli (GPa) = 13.61023 106.85617 84.95415
#
# Poissons Ratio (x) = 0.66710 1.05017
# Poissons Ratio (y) = 0.08497 0.29538
# Poissons Ratio (z) = 0.16824 0.37154
#
# Static dielectric constant tensor:
#      x y z
#    x 1.609670 0.000000 0.000000 
#    y 0.000000 1.586490 0.000000 
#    z 0.000000 0.000000 1.605300 
# 
# From -- ./inp_files/12012.got.cif
#   From: 2010.05.17/outbox.cif.g08.bks.cpg/sg38_7_cif.got.tgz:12012.got - 2010.06.03 18:07:57.
