data_PCOD9356624
_publ_section_title
;
Structure prediction by ZEFSAII (Michael W. Deem and Ramdas Pophale) SiO2 
 PCOD9356624
Probable space group: A M M 2
;
_chemical_formula_sum "Si O2"
_cell_formula_units_Z 64
_cell_length_a 22.854413
_cell_length_b 7.355161
_cell_length_c 14.740529
_cell_angle_alpha 90.000000
_cell_angle_beta 90.000000
_cell_angle_gamma 90.000000
_cell_volume 2477.851781
_symmetry_space_group_name_H-M "A M M 2"
_symmetry_group_IT_number 38
_symmetry_cell_setting 'orthorhombic'
loop_
_space_group_symop_operation_xyz
x,y,z
-x,-y,z
-x,y,z
x,-y,z
x,1/2+y,1/2+z
-x,1/2-y,1/2+z
-x,1/2+y,1/2+z
x,1/2-y,1/2+z
loop_
_atom_site_type_symbol
_atom_site_label
_atom_site_fract_x
_atom_site_fract_y
_atom_site_fract_z
Si Si1 0.809811 0.798578 0.139720
Si Si2 0.936920 0.792898 0.159778
Si Si3 0.563627 0.778981 0.413106
Si Si4 0.312675 0.222723 0.107800
Si Si5 0.688906 0.293184 0.891727
Si Si6 0.562617 0.289272 0.628838
Si Si7 0.191350 0.713836 0.936938
Si Si8 0.937946 0.217689 0.868137
O O1 0.873118 0.705677 0.147181
O O2 0.746031 0.719382 0.160488
O O3 0.804315 0.814647 0.031622
O O4 0.814561 0.000000 0.183474
O O5 0.940368 0.798184 0.267969
O O6 0.000000 0.715272 0.129656
O O7 0.933803 0.000000 0.121995
O O8 0.500000 0.726618 0.374289
O O9 0.624785 0.714297 0.369676
O O10 0.563059 0.717392 0.518399
O O11 0.565858 0.000000 0.413692
O O12 0.373457 0.283945 0.152360
O O13 0.312361 0.000000 0.105015
O O14 0.312293 0.290168 0.003260
O O15 0.688218 0.500000 0.856435
O O16 0.754677 0.220737 0.874052
O O17 0.500000 0.208594 0.656457
O O18 0.562054 0.500000 0.658138
O O19 0.201892 0.500000 0.951851
O O20 0.124638 0.730928 0.906709
O O21 0.000000 0.269082 0.914420
O O22 0.937764 0.000000 0.860982
#
# Coordination Sequence:
#
# PCOD9356624 Si02
#       8
#     8   8   8   8   8   8   8   8
#     4   9  17  29  45  66  92 120 148 178 215 259
#     4   9  18  33  51  68  87 112 141 175 217 263
#     4   8  12  18  29  45  68 101 138 171 203 241
#     4   8  13  21  33  50  75 107 139 170 206 247
#     4   8  14  23  34  52  79 109 140 173 209 247
#     4   8  12  17  26  42  66  98 135 170 202 238
#     4  10  19  30  46  68  94 122 150 181 217 259
#     4  10  21  36  52  68  87 112 143 181 223 266
#
# _framework density 25.828824999999998
#
# number of rings (size 3 to 8) (size 9 to 14) (size 15 to 20)
#    0.000    3.250    0.000    0.750    0.000    2.250 
#    0.000    1.250    0.000    0.000    0.000    0.000 
#    0.000    1.000    0.000   11.000    0.000    4.875 
#
# Total GULP energy -178232.888905 kJ/mol
# GULP energy per Si atom -5569.777778 kJ/mol
# Density = 2.577004 g / cm^3
# Si number density = 25.828825 Si / 1000 Ang^3
#
#
#
# Elastic Constant Matrix: (Units=GPa)
#
#
# Indices 1 2 3 4 5 6 
#
# 1 356.9333 14.4044 6.9723 0.0000 0.0000 0.0000
# 2 14.4044 115.6403 -6.8900 0.0000 0.0000 0.0000
# 3 6.9723 -6.8900 58.4579 0.0000 0.0000 0.0000
# 4 0.0000 0.0000 0.0000 815.7666 0.0000 0.0000
# 5 0.0000 0.0000 0.0000 0.0000 2.0060 0.0000
# 6 0.0000 0.0000 0.0000 0.0000 0.0000 92.9976
#
#
#
# Elastic Compliance Matrix: (Units=1/GPa)
#
#
# Indices 1 2 3 4 5 6 
#
# 1 0.002824 -0.000374 -0.000381 0.000000 0.000000 0.000000
# 2 -0.000374 0.008758 0.001077 0.000000 0.000000 0.000000
# 3 -0.000381 0.001077 0.017279 0.000000 0.000000 0.000000
# 4 0.000000 0.000000 0.000000 0.001226 0.000000 0.000000
# 5 0.000000 0.000000 0.000000 0.000000 0.498501 0.000000
# 6 0.000000 0.000000 0.000000 0.000000 0.000000 0.010753
#
#
# Mechanical properties :
#
#
# Convention : Reuss Voigt Hill
#
# Bulk Modulus (GPa) = 33.89351 62.22276 48.05813
# Shear Modulus (GPa) = 9.11523 216.59035 112.85279
#
# Velocity S-wave (km/s) = 1.88063 9.16723 6.61721
# Velocity P-wave (km/s) = 4.22688 11.67020 8.77668
#
# Compressibility (1/GPa) = 0.02950417
#
# Stress axis : x y z
#
# Youngs Moduli (GPa) = 354.08269 114.17715 57.87468
#
# Poissons Ratio (x) = 0.04276 0.02205
# Poissons Ratio (y) = 0.13260 -0.06233
# Poissons Ratio (z) = 0.13490 -0.12296
#
# Static dielectric constant tensor:
#      x y z
#    x 2.211290 0.000000 0.000000 
#    y 0.000000 -0.777600 0.000000 
#    z 0.000000 0.000000 2.004040 
# 
# From -- ./inp_files/19021.got.cif
#   From: 2010.05.17/outbox.cif.g08.bks.cpg/sg38_10_cif.got.tgz:19021.got - 2010.06.03 18:07:57.
