data_PCOD9356181
_publ_section_title
;
Structure prediction by ZEFSAII (Michael W. Deem and Ramdas Pophale) SiO2 
 PCOD9356181
Probable space group: A M M 2
;
_chemical_formula_sum "Si O2"
_cell_formula_units_Z 64
_cell_length_a 8.501216
_cell_length_b 31.382843
_cell_length_c 14.910978
_cell_angle_alpha 90.000000
_cell_angle_beta 90.000000
_cell_angle_gamma 90.000000
_cell_volume 3978.134519
_symmetry_space_group_name_H-M "A M M 2"
_symmetry_group_IT_number 38
_symmetry_cell_setting 'orthorhombic'
loop_
_space_group_symop_operation_xyz
x,y,z
-x,-y,z
-x,y,z
x,-y,z
x,1/2+y,1/2+z
-x,1/2-y,1/2+z
-x,1/2+y,1/2+z
x,1/2-y,1/2+z
loop_
_atom_site_type_symbol
_atom_site_label
_atom_site_fract_x
_atom_site_fract_y
_atom_site_fract_z
Si Si1 0.807767 0.951723 0.343730
Si Si2 0.810397 0.048771 0.551030
Si Si3 0.312595 0.132708 0.627902
Si Si4 0.684869 0.173301 0.437399
Si Si5 0.810191 0.710708 0.644622
Si Si6 0.814808 0.867001 0.261942
Si Si7 0.683938 0.725079 0.447794
Si Si8 0.812308 0.205019 0.754387
O O1 0.760086 0.942761 0.447281
O O2 0.750797 0.914798 0.276869
O O3 0.000000 0.950945 0.343727
O O4 0.759677 0.000000 0.321481
O O5 0.743376 0.084204 0.617274
O O6 0.000000 0.051105 0.552390
O O7 0.765174 0.000000 0.572057
O O8 0.500000 0.134043 0.636177
O O9 0.268202 0.154599 0.533240
O O10 0.240443 0.162059 0.704825
O O11 0.500000 0.162933 0.421177
O O12 0.789771 0.154549 0.358670
O O13 0.700612 0.223933 0.440019
O O14 0.749186 0.667379 0.691683
O O15 0.763843 0.712102 0.540922
O O16 0.753518 0.753104 0.698433
O O17 0.000000 0.789104 0.151535
O O18 0.000000 0.871269 0.242417
O O19 0.500000 0.714736 0.453229
O O20 0.753193 0.706465 0.356229
O O21 0.000000 0.207219 0.754449
#
# Coordination Sequence:
#
# PCOD9356181 Si02
#       8
#     8   8   8   8   8   8   8   8
#     4   8  14  25  44  70  98 127 160 201 246 289
#     4   9  17  30  49  73 100 132 169 208 251 297
#     4  11  21  33  48  72 103 137 173 203 247 302
#     4  10  20  30  44  68  99 131 164 201 242 289
#     4  10  21  33  48  72  97 127 165 205 248 294
#     4  10  18  30  49  71  96 129 169 204 239 289
#     4  11  22  36  51  68  97 133 166 207 250 293
#     4  11  22  35  52  73  98 129 168 211 251 293
#
# _framework density 16.087942999999999
#
# number of rings (size 3 to 8) (size 9 to 14) (size 15 to 20)
#    0.000    2.000    3.750    1.875    0.000    2.250 
#    0.000    0.000    0.000    0.375    0.000    0.875 
#    0.000    5.000    0.000    0.000    0.000    0.000 
#
# Total GULP energy -178424.198404 kJ/mol
# GULP energy per Si atom -5575.756200 kJ/mol
# Density = 1.605133 g / cm^3
# Si number density = 16.087943 Si / 1000 Ang^3
#
#
#
# Elastic Constant Matrix: (Units=GPa)
#
#
# Indices 1 2 3 4 5 6 
#
# 1 6.1456 18.1580 8.4553 0.0000 0.0000 0.0000
# 2 18.1580 111.9354 51.6192 0.0000 0.0000 0.0000
# 3 8.4553 51.6192 83.1491 0.0000 0.0000 0.0000
# 4 0.0000 0.0000 0.0000 16.8567 0.0000 0.0000
# 5 0.0000 0.0000 0.0000 0.0000 11.5176 0.0000
# 6 0.0000 0.0000 0.0000 0.0000 0.0000 12.0371
#
#
#
# Elastic Compliance Matrix: (Units=1/GPa)
#
#
# Indices 1 2 3 4 5 6 
#
# 1 0.312505 -0.050496 -0.000430 0.000000 0.000000 0.000000
# 2 -0.050496 0.020677 -0.007701 0.000000 0.000000 0.000000
# 3 -0.000430 -0.007701 0.016851 0.000000 0.000000 0.000000
# 4 0.000000 0.000000 0.000000 0.059324 0.000000 0.000000
# 5 0.000000 0.000000 0.000000 0.000000 0.086823 0.000000
# 6 0.000000 0.000000 0.000000 0.000000 0.000000 0.083076
#
#
# Mechanical properties :
#
#
# Convention : Reuss Voigt Hill
#
# Bulk Modulus (GPa) = 4.29593 39.74392 22.01992
# Shear Modulus (GPa) = 6.45908 16.28211 11.37060
#
# Velocity S-wave (km/s) = 2.00588 3.18475 2.66141
# Velocity P-wave (km/s) = 2.83564 6.18719 4.81260
#
# Compressibility (1/GPa) = 0.23277851
#
# Stress axis : x y z
#
# Youngs Moduli (GPa) = 3.19995 48.36394 59.34270
#
# Poissons Ratio (x) = 2.44218 0.02553
# Poissons Ratio (y) = 0.16158 0.45701
# Poissons Ratio (z) = 0.00138 0.37246
#
# Static dielectric constant tensor:
#      x y z
#    x 1.548280 0.000000 0.000000 
#    y 0.000000 1.565760 0.000000 
#    z 0.000000 0.000000 1.513040 
# 
# From -- ./inp_files/8652.got.cif
#   From: 2010.05.17/outbox.cif.g08.bks.cpg/sg38_5_cif.got.tgz:8652.got - 2010.06.03 18:07:57.
