data_PCOD9356728
_publ_section_title
;
Structure prediction by ZEFSAII (Michael W. Deem and Ramdas Pophale) SiO2 
 PCOD9356728
Probable space group: A M M 2
;
_chemical_formula_sum "Si O2"
_cell_formula_units_Z 64
_cell_length_a 14.498677
_cell_length_b 8.968201
_cell_length_c 31.982443
_cell_angle_alpha 90.000000
_cell_angle_beta 90.000000
_cell_angle_gamma 90.000000
_cell_volume 4158.582701
_symmetry_space_group_name_H-M "A M M 2"
_symmetry_group_IT_number 38
_symmetry_cell_setting 'orthorhombic'
loop_
_space_group_symop_operation_xyz
x,y,z
-x,-y,z
-x,y,z
x,-y,z
x,1/2+y,1/2+z
-x,1/2-y,1/2+z
-x,1/2+y,1/2+z
x,1/2-y,1/2+z
loop_
_atom_site_type_symbol
_atom_site_label
_atom_site_fract_x
_atom_site_fract_y
_atom_site_fract_z
Si Si1 0.284380 0.677824 0.482430
Si Si2 0.388061 0.672315 0.812099
Si Si3 0.893550 0.677541 0.015992
Si Si4 0.105854 0.677123 0.607445
Si Si5 0.390955 0.819835 0.405301
Si Si6 0.393250 0.179339 0.726375
Si Si7 0.720033 0.179516 0.644993
Si Si8 0.391110 0.178371 0.560176
O O1 0.282661 0.500000 0.482076
O O2 0.181748 0.743605 0.487334
O O3 0.333591 0.741727 0.441356
O O4 0.341254 0.736050 0.522721
O O5 0.500000 0.675901 0.812924
O O6 0.360309 0.500000 0.807538
O O7 0.360315 0.725357 0.858375
O O8 0.359281 0.762281 0.771207
O O9 0.877815 0.500000 0.016838
O O10 0.881530 0.742193 0.062759
O O11 0.000000 0.705001 0.003777
O O12 0.118401 0.500000 0.601892
O O13 0.182139 0.742522 0.638213
O O14 0.000000 0.703663 0.620832
O O15 0.500000 0.785706 0.410211
O O16 0.382302 0.000000 0.408132
O O17 0.500000 0.228177 0.720582
O O18 0.331761 0.227347 0.687176
O O19 0.393545 0.000000 0.726966
O O20 0.657037 0.213362 0.604394
O O21 0.731700 0.000000 0.646077
O O22 0.500000 0.211333 0.561495
O O23 0.380747 0.000000 0.553065
#
# Coordination Sequence:
#
# PCOD9356728 Si02
#       8
#     8   8   8   8   8   8   8   8
#     4  12  23  32  46  71 100 127 158 198 243 286
#     4   8  15  29  48  69  92 122 161 201 239 278
#     4  10  20  35  54  71  89 120 161 200 239 287
#     4  10  20  33  49  70  95 121 153 200 251 287
#     4   9  18  33  51  69  94 130 168 201 235 282
#     4   9  17  29  46  70  99 128 159 196 237 281
#     4  10  19  31  48  69  94 129 167 196 230 283
#     4  10  20  33  47  63  91 133 172 199 226 269
#
# _framework density 15.389858
#
# number of rings (size 3 to 8) (size 9 to 14) (size 15 to 20)
#    0.000    2.250    1.250    3.375    0.000    6.000 
#    0.000    1.250    0.000    2.250    0.000    0.875 
#    0.000    5.000    0.000    0.000    0.000    0.000 
#
# Total GULP energy -178479.729263 kJ/mol
# GULP energy per Si atom -5577.491539 kJ/mol
# Density = 1.535483 g / cm^3
# Si number density = 15.389858 Si / 1000 Ang^3
#
#
#
# Elastic Constant Matrix: (Units=GPa)
#
#
# Indices 1 2 3 4 5 6 
#
# 1 100.0574 50.9459 71.5703 0.0000 0.0000 0.0000
# 2 50.9459 51.0541 56.8590 0.0000 0.0000 0.0000
# 3 71.5703 56.8590 140.5152 0.0000 0.0000 0.0000
# 4 0.0000 0.0000 0.0000 23.6585 0.0000 0.0000
# 5 0.0000 0.0000 0.0000 0.0000 8.0881 0.0000
# 6 0.0000 0.0000 0.0000 0.0000 0.0000 19.3779
#
#
#
# Elastic Compliance Matrix: (Units=1/GPa)
#
#
# Indices 1 2 3 4 5 6 
#
# 1 0.021566 -0.016905 -0.004144 0.000000 0.000000 0.000000
# 2 -0.016905 0.048907 -0.011180 0.000000 0.000000 0.000000
# 3 -0.004144 -0.011180 0.013751 0.000000 0.000000 0.000000
# 4 0.000000 0.000000 0.000000 0.042268 0.000000 0.000000
# 5 0.000000 0.000000 0.000000 0.000000 0.123639 0.000000
# 6 0.000000 0.000000 0.000000 0.000000 0.000000 0.051605
#
#
# Mechanical properties :
#
#
# Convention : Reuss Voigt Hill
#
# Bulk Modulus (GPa) = 50.58950 72.26411 61.42680
# Shear Modulus (GPa) = 13.41263 17.70832 15.56048
#
# Velocity S-wave (km/s) = 2.95536 3.39580 3.18321
# Velocity P-wave (km/s) = 6.67749 7.90145 7.31511
#
# Compressibility (1/GPa) = 0.01976695
#
# Stress axis : x y z
#
# Youngs Moduli (GPa) = 46.36959 20.44684 72.72189
#
# Poissons Ratio (x) = 0.34566 0.30134
# Poissons Ratio (y) = 0.78389 0.81300
# Poissons Ratio (z) = 0.19214 0.22859
#
# Static dielectric constant tensor:
#      x y z
#    x 1.507070 0.000000 0.000000 
#    y 0.000000 1.514070 0.000000 
#    z 0.000000 0.000000 1.500890 
# 
# From -- ./inp_files/25078.got.cif
#   From: 2010.05.17/outbox.cif.g08.bks.cpg/sg38_13_cif.got.tgz:25078.got - 2010.06.03 18:07:57.
