data_PCOD9356344
_publ_section_title
;
Structure prediction by ZEFSAII (Michael W. Deem and Ramdas Pophale) SiO2 
 PCOD9356344
Probable space group: A M M 2
;
_chemical_formula_sum "Si O2"
_cell_formula_units_Z 56
_cell_length_a 10.711115
_cell_length_b 13.572540
_cell_length_c 22.527621
_cell_angle_alpha 90.000000
_cell_angle_beta 90.000000
_cell_angle_gamma 90.000000
_cell_volume 3274.998787
_symmetry_space_group_name_H-M "A M M 2"
_symmetry_group_IT_number 38
_symmetry_cell_setting 'orthorhombic'
loop_
_space_group_symop_operation_xyz
x,y,z
-x,-y,z
-x,y,z
x,-y,z
x,1/2+y,1/2+z
-x,1/2-y,1/2+z
-x,1/2+y,1/2+z
x,1/2-y,1/2+z
loop_
_atom_site_type_symbol
_atom_site_label
_atom_site_fract_x
_atom_site_fract_y
_atom_site_fract_z
Si Si1 0.284664 0.250000 0.414080
Si Si2 0.854448 0.785096 0.093412
Si Si3 0.145551 0.285096 0.734748
Si Si4 0.638049 0.114585 0.019978
Si Si5 0.361950 0.114585 0.308182
Si Si6 0.851614 0.111431 0.821364
Si Si7 0.148386 0.388569 0.006796
O O1 0.356375 0.315325 0.462439
O O2 0.356375 0.184674 0.365721
O O3 0.204160 0.326919 0.375687
O O4 0.204160 0.173081 0.452473
O O5 0.841700 0.786289 0.164080
O O6 0.752773 0.854690 0.062152
O O7 0.830340 0.676862 0.065643
O O8 0.000000 0.810739 0.078928
O O9 0.247228 0.354690 0.766008
O O10 0.169659 0.176862 0.762517
O O11 0.000000 0.310740 0.749232
O O12 0.500000 0.126820 0.047968
O O13 0.651310 0.000000 0.003167
O O14 0.500000 0.126819 0.280192
O O15 0.348689 0.000000 0.324993
O O16 0.000000 0.106233 0.829476
O O17 0.802315 0.000000 0.817738
O O18 0.197685 0.500000 0.010422
O O19 0.000000 0.393767 0.998684
#
# Coordination Sequence:
#
# PCOD9356344 Si02
#       7
#     8   8   8   8   8   8   8
#     4  10  18  32  50  72 101 134 165 202 243 294
#     4   9  19  35  53  74 100 130 166 207 249 293
#     4   9  19  35  53  74 100 130 166 207 249 293
#     4  10  21  35  52  75 101 131 166 203 246 295
#     4  10  21  35  52  75 101 131 166 203 246 295
#     4   9  17  29  48  75 104 133 165 203 247 292
#     4   9  17  29  48  75 104 133 165 203 247 292
#
# _framework density 17.099243000000001
#
# number of rings (size 3 to 8) (size 9 to 14) (size 15 to 20)
#    0.000    2.571    0.000    1.714    0.000    3.429 
#    0.000    5.714    0.000    7.714    0.000    8.000 
#    0.000    0.000    0.000    0.000    0.000    0.000 
#
# Total GULP energy -155929.177037 kJ/mol
# GULP energy per Si atom -5568.899180 kJ/mol
# Density = 1.706032 g / cm^3
# Si number density = 17.099243 Si / 1000 Ang^3
#
#
#
# Elastic Constant Matrix: (Units=GPa)
#
#
# Indices 1 2 3 4 5 6 
#
# 1 84.6394 60.2416 53.4202 0.0000 0.0000 0.0000
# 2 60.2416 124.6222 35.8603 0.0000 0.0000 0.0000
# 3 53.4202 35.8603 83.9618 0.0000 0.0000 0.0000
# 4 0.0000 0.0000 0.0000 7.8473 0.0000 0.0000
# 5 0.0000 0.0000 0.0000 0.0000 15.5174 0.0000
# 6 0.0000 0.0000 0.0000 0.0000 0.0000 21.9299
#
#
#
# Elastic Compliance Matrix: (Units=1/GPa)
#
#
# Indices 1 2 3 4 5 6 
#
# 1 0.026429 -0.009049 -0.012951 0.000000 0.000000 0.000000
# 2 -0.009049 0.012247 0.000527 0.000000 0.000000 0.000000
# 3 -0.012951 0.000527 0.019925 0.000000 0.000000 0.000000
# 4 0.000000 0.000000 0.000000 0.127432 0.000000 0.000000
# 5 0.000000 0.000000 0.000000 0.000000 0.064444 0.000000
# 6 0.000000 0.000000 0.000000 0.000000 0.000000 0.045600
#
#
# Mechanical properties :
#
#
# Convention : Reuss Voigt Hill
#
# Bulk Modulus (GPa) = 63.87634 65.80750 64.84192
# Shear Modulus (GPa) = 14.52468 18.63900 16.58184
#
# Velocity S-wave (km/s) = 2.91767 3.30517 3.11745
# Velocity P-wave (km/s) = 6.98482 7.28936 7.13871
#
# Compressibility (1/GPa) = 0.01565525
#
# Stress axis : x y z
#
# Youngs Moduli (GPa) = 37.83681 81.65268 50.18846
#
# Poissons Ratio (x) = 0.73889 0.64997
# Poissons Ratio (y) = 0.34239 -0.02644
# Poissons Ratio (z) = 0.49001 -0.04301
#
# Static dielectric constant tensor:
#      x y z
#    x 1.583890 0.000000 0.000000 
#    y 0.000000 1.576140 0.000000 
#    z 0.000000 0.000000 1.556480 
# 
# From -- ./inp_files/9373.got.cif
#   From: 2010.05.17/outbox.cif.g08.bks.cpg/sg38_5_cif.got.tgz:9373.got - 2010.06.03 18:07:57.
