data_PCOD9356887
_publ_section_title
;
Structure prediction by ZEFSAII (Michael W. Deem and Ramdas Pophale) SiO2 
 PCOD9356887
Probable space group: A M M 2
;
_chemical_formula_sum "Si O2"
_cell_formula_units_Z 64
_cell_length_a 19.951922
_cell_length_b 8.957038
_cell_length_c 20.750866
_cell_angle_alpha 90.000000
_cell_angle_beta 90.000000
_cell_angle_gamma 90.000000
_cell_volume 3708.389826
_symmetry_space_group_name_H-M "A M M 2"
_symmetry_group_IT_number 38
_symmetry_cell_setting 'orthorhombic'
loop_
_space_group_symop_operation_xyz
x,y,z
-x,-y,z
-x,y,z
x,-y,z
x,1/2+y,1/2+z
-x,1/2-y,1/2+z
-x,1/2+y,1/2+z
x,1/2-y,1/2+z
loop_
_atom_site_type_symbol
_atom_site_label
_atom_site_fract_x
_atom_site_fract_y
_atom_site_fract_z
Si Si1 0.854296 0.322349 0.913460
Si Si2 0.919860 0.326832 0.537191
Si Si3 0.078687 0.679054 0.776080
Si Si4 0.719699 0.822703 0.953398
Si Si5 0.427415 0.177858 0.962028
Si Si6 0.154490 0.322384 0.156252
Si Si7 0.573729 0.321880 0.102883
Si Si8 0.711660 0.177647 0.108017
O O1 0.858435 0.500000 0.923785
O O2 0.887957 0.287765 0.844996
O O3 0.777606 0.268785 0.918754
O O4 0.893364 0.238205 0.970237
O O5 0.898793 0.500000 0.543665
O O6 0.888266 0.233922 0.595186
O O7 0.000000 0.319766 0.539649
O O8 0.082890 0.500000 0.765680
O O9 0.118444 0.761001 0.719767
O O10 0.000000 0.719451 0.775988
O O11 0.643941 0.788000 0.929782
O O12 0.731796 0.000000 0.945445
O O13 0.721129 0.791516 0.030833
O O14 0.500000 0.202755 0.929361
O O15 0.423967 0.000000 0.978168
O O16 0.428352 0.269751 0.028284
O O17 0.157954 0.500000 0.157134
O O18 0.228146 0.253853 0.146151
O O19 0.500000 0.282327 0.130310
O O20 0.581589 0.500000 0.106457
O O21 0.639536 0.241014 0.129278
O O22 0.713409 0.000000 0.115539
#
# Coordination Sequence:
#
# PCOD9356887 Si02
#       8
#     8   8   8   8   8   8   8   8
#     4  11  22  36  57  82 108 141 180 223 269 321
#     4  11  23  38  57  80 108 141 175 215 267 325
#     4  10  23  43  61  77 104 141 179 222 275 332
#     4   9  17  29  48  74 106 141 177 220 267 317
#     4   8  14  25  41  63  96 140 182 216 258 315
#     4  12  24  37  57  83 108 137 177 225 274 326
#     4   9  16  25  40  67 104 141 177 220 266 310
#     4  10  19  32  51  74 106 145 181 219 266 321
#
# _framework density 17.258165000000002
#
# number of rings (size 3 to 8) (size 9 to 14) (size 15 to 20)
#    0.000    2.000    1.250    4.125    0.000    7.000 
#    0.000    0.000    0.000    0.000    0.000    0.875 
#    0.000    3.000    0.000    0.000    0.000    0.000 
#
# Total GULP energy -178502.729869 kJ/mol
# GULP energy per Si atom -5578.210308 kJ/mol
# Density = 1.721888 g / cm^3
# Si number density = 17.258165 Si / 1000 Ang^3
#
#
#
# Elastic Constant Matrix: (Units=GPa)
#
#
# Indices 1 2 3 4 5 6 
#
# 1 169.1091 73.5524 56.6505 0.0000 0.0000 0.0000
# 2 73.5524 76.0879 50.0164 0.0000 0.0000 0.0000
# 3 56.6505 50.0164 67.8270 0.0000 0.0000 0.0000
# 4 0.0000 0.0000 0.0000 22.2428 0.0000 0.0000
# 5 0.0000 0.0000 0.0000 0.0000 42.2954 0.0000
# 6 0.0000 0.0000 0.0000 0.0000 0.0000 30.5376
#
#
#
# Elastic Compliance Matrix: (Units=1/GPa)
#
#
# Indices 1 2 3 4 5 6 
#
# 1 0.010413 -0.008440 -0.002473 0.000000 0.000000 0.000000
# 2 -0.008440 0.032348 -0.016804 0.000000 0.000000 0.000000
# 3 -0.002473 -0.016804 0.029201 0.000000 0.000000 0.000000
# 4 0.000000 0.000000 0.000000 0.044958 0.000000 0.000000
# 5 0.000000 0.000000 0.000000 0.000000 0.023643 0.000000
# 6 0.000000 0.000000 0.000000 0.000000 0.000000 0.032747
#
#
# Mechanical properties :
#
#
# Convention : Reuss Voigt Hill
#
# Bulk Modulus (GPa) = 60.50995 74.82918 67.66957
# Shear Modulus (GPa) = 21.34444 27.86881 24.60663
#
# Velocity S-wave (km/s) = 3.52059 4.02284 3.78007
# Velocity P-wave (km/s) = 7.18776 8.06415 7.63853
#
# Compressibility (1/GPa) = 0.01652621
#
# Stress axis : x y z
#
# Youngs Moduli (GPa) = 96.03620 30.91406 34.24574
#
# Poissons Ratio (x) = 0.26091 0.08470
# Poissons Ratio (y) = 0.81055 0.57548
# Poissons Ratio (z) = 0.23752 0.51949
#
# Static dielectric constant tensor:
#      x y z
#    x 1.629820 0.000000 0.000000 
#    y 0.000000 1.574330 0.000000 
#    z 0.000000 0.000000 1.551790 
# 
# From -- ./inp_files/18918.got.cif
#   From: 2010.05.17/outbox.cif.g08.bks.cpg/sg38_10_cif.got.tgz:18918.got - 2010.06.03 18:07:57.
