data_PCOD9356664
_publ_section_title
;
Structure prediction by ZEFSAII (Michael W. Deem and Ramdas Pophale) SiO2 
 PCOD9356664
Probable space group: A M M 2
;
_chemical_formula_sum "Si O2"
_cell_formula_units_Z 48
_cell_length_a 18.262030
_cell_length_b 8.531412
_cell_length_c 14.797432
_cell_angle_alpha 90.000000
_cell_angle_beta 90.000000
_cell_angle_gamma 90.000000
_cell_volume 2305.453251
_symmetry_space_group_name_H-M "A M M 2"
_symmetry_group_IT_number 38
_symmetry_cell_setting 'orthorhombic'
loop_
_space_group_symop_operation_xyz
x,y,z
-x,-y,z
-x,y,z
x,-y,z
x,1/2+y,1/2+z
-x,1/2-y,1/2+z
-x,1/2+y,1/2+z
x,1/2-y,1/2+z
loop_
_atom_site_type_symbol
_atom_site_label
_atom_site_fract_x
_atom_site_fract_y
_atom_site_fract_z
Si Si1 0.580985 0.688499 0.174110
Si Si2 0.581049 0.809079 0.881159
Si Si3 0.913740 0.332614 0.701485
Si Si4 0.690876 0.313410 0.531149
Si Si5 0.913443 0.000000 0.474548
Si Si6 0.089389 0.000000 0.689731
Si Si7 0.861065 0.177490 0.996926
O O1 0.500000 0.742976 0.141644
O O2 0.579717 0.500000 0.173090
O O3 0.588822 0.740646 0.277713
O O4 0.649050 0.743680 0.116151
O O5 0.500000 0.761047 0.913727
O O6 0.582054 0.000000 0.881040
O O7 0.646131 0.753011 0.944356
O O8 0.881402 0.500000 0.731645
O O9 0.905846 0.329395 0.591715
O O10 0.000000 0.334561 0.723498
O O11 0.883135 0.163764 0.730688
O O12 0.681225 0.500000 0.535447
O O13 0.776992 0.288095 0.523224
O O14 0.886943 0.170542 0.440889
O O15 0.893333 0.000000 0.582215
O O16 0.000000 0.000000 0.466114
O O17 0.000000 0.000000 0.695219
O O18 0.866224 0.000000 0.957626
#
# Coordination Sequence:
#
# PCOD9356664 Si02
#       7
#     8   8   8   8   4   4   8
#     4   9  18  32  50  71  96 132 176 217 257 308
#     4   8  15  30  50  70  95 133 177 213 252 312
#     4   8  12  19  31  47  74 109 140 178 224 271
#     4  10  19  30  48  73 102 136 166 214 267 316
#     4   9  16  26  42  62  93 135 169 205 254 306
#     4   7  10  16  26  42  62  93 135 169 205 254
#     4   9  17  26  39  65  97 130 162 208 260 312
#
# _framework density 20.820201000000001
#
# number of rings (size 3 to 8) (size 9 to 14) (size 15 to 20)
#    0.000    3.333    0.000    3.000    1.167    2.000 
#    0.000    0.833    0.000    1.000    0.000    0.000 
#    0.000    5.333    3.333    0.000    0.000    0.000 
#
# Total GULP energy -133645.461430 kJ/mol
# GULP energy per Si atom -5568.560893 kJ/mol
# Density = 2.077281 g / cm^3
# Si number density = 20.820201 Si / 1000 Ang^3
#
#
#
# Elastic Constant Matrix: (Units=GPa)
#
#
# Indices 1 2 3 4 5 6 
#
# 1 52.0693 24.7211 18.0331 0.0000 0.0000 0.0000
# 2 24.7211 132.0326 9.4604 0.0000 0.0000 0.0000
# 3 18.0331 9.4604 40.1958 0.0000 0.0000 0.0000
# 4 0.0000 0.0000 0.0000 15.5694 0.0000 0.0000
# 5 0.0000 0.0000 0.0000 0.0000 -18.0541 0.0000
# 6 0.0000 0.0000 0.0000 0.0000 0.0000 13.4791
#
#
#
# Elastic Compliance Matrix: (Units=1/GPa)
#
#
# Indices 1 2 3 4 5 6 
#
# 1 0.024541 -0.003871 -0.010099 0.000000 0.000000 0.000000
# 2 -0.003871 0.008314 -0.000220 0.000000 0.000000 0.000000
# 3 -0.010099 -0.000220 0.029461 0.000000 0.000000 0.000000
# 4 0.000000 0.000000 0.000000 0.064229 0.000000 0.000000
# 5 0.000000 0.000000 0.000000 0.000000 -0.055389 0.000000
# 6 0.000000 0.000000 0.000000 0.000000 0.000000 0.074189
#
#
# Mechanical properties :
#
#
# Convention : Reuss Voigt Hill
#
# Bulk Modulus (GPa) = 29.46742 36.52521 32.99632
# Shear Modulus (GPa) = 27.02176 13.67107 20.34641
#
# Velocity S-wave (km/s) = 3.60649 2.56525 3.12948
# Velocity P-wave (km/s) = 5.61484 5.13374 5.37967
#
# Compressibility (1/GPa) = 0.03393578
#
# Stress axis : x y z
#
# Youngs Moduli (GPa) = 40.74887 120.27185 33.94370
#
# Poissons Ratio (x) = 0.46560 0.34278
# Poissons Ratio (y) = 0.15775 0.00747
# Poissons Ratio (z) = 0.41150 0.02647
#
# Static dielectric constant tensor:
#      x y z
#    x 1.715110 0.000000 0.000000 
#    y 0.000000 1.832650 0.000000 
#    z 0.000000 0.000000 1.748770 
# 
# From -- ./inp_files/15074.got.cif
#   From: 2010.05.17/outbox.cif.g08.bks.cpg/sg38_8_cif.got.tgz:15074.got - 2010.06.03 18:07:57.
