data_PCOD9356749
_publ_section_title
;
Structure prediction by ZEFSAII (Michael W. Deem and Ramdas Pophale) SiO2 
 PCOD9356749
Probable space group: A M M 2
;
_chemical_formula_sum "Si O2"
_cell_formula_units_Z 64
_cell_length_a 14.376051
_cell_length_b 8.277805
_cell_length_c 28.986764
_cell_angle_alpha 90.000000
_cell_angle_beta 90.000000
_cell_angle_gamma 90.000000
_cell_volume 3449.487146
_symmetry_space_group_name_H-M "A M M 2"
_symmetry_group_IT_number 38
_symmetry_cell_setting 'orthorhombic'
loop_
_space_group_symop_operation_xyz
x,y,z
-x,-y,z
-x,y,z
x,-y,z
x,1/2+y,1/2+z
-x,1/2-y,1/2+z
-x,1/2+y,1/2+z
x,1/2-y,1/2+z
loop_
_atom_site_type_symbol
_atom_site_label
_atom_site_fract_x
_atom_site_fract_y
_atom_site_fract_z
Si Si1 0.892404 0.694848 0.424500
Si Si2 0.746610 0.187849 0.752926
Si Si3 0.392808 0.315843 0.337368
Si Si4 0.746396 0.816370 0.997914
Si Si5 0.395293 0.304160 0.177825
Si Si6 0.389675 0.820428 0.431736
Si Si7 0.893676 0.808160 0.323701
Si Si8 0.395372 0.304193 0.572146
O O1 0.889961 0.500000 0.426794
O O2 0.831030 0.756722 0.467735
O O3 0.857756 0.739964 0.372984
O O4 0.000000 0.748661 0.427833
O O5 0.668936 0.195727 0.792688
O O6 0.691759 0.255404 0.708459
O O7 0.834688 0.265448 0.778351
O O8 0.769555 0.000000 0.743899
O O9 0.500000 0.286865 0.325316
O O10 0.385659 0.500000 0.355313
O O11 0.365197 0.197720 0.378202
O O12 0.663627 0.811786 0.960658
O O13 0.773292 0.000000 0.010071
O O14 0.692384 0.743392 0.042020
O O15 0.500000 0.253537 0.193653
O O16 0.394044 0.500000 0.180374
O O17 0.386399 0.249801 0.124992
O O18 0.500000 0.799414 0.435068
O O19 0.364877 0.000000 0.448421
O O20 0.000000 0.748290 0.318811
O O21 0.894661 0.000000 0.328576
O O22 0.500000 0.251867 0.556120
O O23 0.394400 0.500000 0.569634
#
# Coordination Sequence:
#
# PCOD9356749 Si02
#       8
#     8   8   8   8   8   8   8   8
#     4   9  18  33  52  73  97 126 162 202 242 286
#     4  10  19  31  50  73  94 122 161 200 238 282
#     4   9  17  29  44  63  91 125 156 186 225 278
#     4  10  19  31  49  70  92 123 162 200 238 283
#     4   9  18  33  52  74 100 128 160 199 241 286
#     4  10  20  30  40  61  94 126 155 189 230 278
#     4  10  21  35  50  71 100 131 162 199 244 290
#     4   9  18  32  49  70  96 126 162 202 242 286
#
# _framework density 18.553481999999999
#
# number of rings (size 3 to 8) (size 9 to 14) (size 15 to 20)
#    0.000    2.500    0.000    2.250    0.000    8.500 
#    0.000    1.250    0.000    4.500    0.000    1.750 
#    0.000    0.000    0.000    0.000    0.000    0.000 
#
# Total GULP energy -178231.850487 kJ/mol
# GULP energy per Si atom -5569.745328 kJ/mol
# Density = 1.851125 g / cm^3
# Si number density = 18.553482 Si / 1000 Ang^3
#
#
#
# Elastic Constant Matrix: (Units=GPa)
#
#
# Indices 1 2 3 4 5 6 
#
# 1 95.3194 11.8418 51.2831 0.0000 0.0000 0.0000
# 2 11.8418 11.8677 3.8034 0.0000 0.0000 0.0000
# 3 51.2831 3.8034 80.7721 0.0000 0.0000 0.0000
# 4 0.0000 0.0000 0.0000 20.0857 0.0000 0.0000
# 5 0.0000 0.0000 0.0000 0.0000 36.1361 0.0000
# 6 0.0000 0.0000 0.0000 0.0000 0.0000 60.5920
#
#
#
# Elastic Compliance Matrix: (Units=1/GPa)
#
#
# Indices 1 2 3 4 5 6 
#
# 1 0.018130 -0.014622 -0.010823 0.000000 0.000000 0.000000
# 2 -0.014622 0.097346 0.004700 0.000000 0.000000 0.000000
# 3 -0.010823 0.004700 0.019031 0.000000 0.000000 0.000000
# 4 0.000000 0.000000 0.000000 0.049787 0.000000 0.000000
# 5 0.000000 0.000000 0.000000 0.000000 0.027673 0.000000
# 6 0.000000 0.000000 0.000000 0.000000 0.000000 0.016504
#
#
# Mechanical properties :
#
#
# Convention : Reuss Voigt Hill
#
# Bulk Modulus (GPa) = 10.75067 35.75732 23.25400
# Shear Modulus (GPa) = 16.61315 31.43149 24.02232
#
# Velocity S-wave (km/s) = 2.99560 4.12041 3.60218
# Velocity P-wave (km/s) = 4.21567 6.47700 5.46458
#
# Compressibility (1/GPa) = 0.09301743
#
# Stress axis : x y z
#
# Youngs Moduli (GPa) = 55.15624 10.27261 52.54700
#
# Poissons Ratio (x) = 0.15021 0.56870
# Poissons Ratio (y) = 0.80651 -0.24697
# Poissons Ratio (z) = 0.59693 -0.04828
#
# Static dielectric constant tensor:
#      x y z
#    x 1.680020 0.000000 0.000000 
#    y 0.000000 1.672270 0.000000 
#    z 0.000000 0.000000 1.640020 
# 
# From -- ./inp_files/22944.got.cif
#   From: 2010.05.17/outbox.cif.g08.bks.cpg/sg38_12_cif.got.tgz:22944.got - 2010.06.03 18:07:57.
