data_PCOD9356984
_publ_section_title
;
Structure prediction by ZEFSAII (Michael W. Deem and Ramdas Pophale) SiO2 
 PCOD9356984
Probable space group: A M M 2
;
_chemical_formula_sum "Si O2"
_cell_formula_units_Z 64
_cell_length_a 7.899653
_cell_length_b 25.932841
_cell_length_c 14.974558
_cell_angle_alpha 90.000000
_cell_angle_beta 90.000000
_cell_angle_gamma 90.000000
_cell_volume 3067.694619
_symmetry_space_group_name_H-M "A M M 2"
_symmetry_group_IT_number 38
_symmetry_cell_setting 'orthorhombic'
loop_
_space_group_symop_operation_xyz
x,y,z
-x,-y,z
-x,y,z
x,-y,z
x,1/2+y,1/2+z
-x,1/2-y,1/2+z
-x,1/2+y,1/2+z
x,1/2-y,1/2+z
loop_
_atom_site_type_symbol
_atom_site_label
_atom_site_fract_x
_atom_site_fract_y
_atom_site_fract_z
Si Si1 0.695858 0.373840 0.086010
Si Si2 0.197423 0.558998 0.922604
Si Si3 0.797112 0.342936 0.470328
Si Si4 0.198364 0.443534 0.569195
Si Si5 0.200560 0.228930 0.493370
Si Si6 0.696136 0.392567 0.741202
Si Si7 0.704915 0.331986 0.264999
Si Si8 0.705696 0.217589 0.286924
O O1 0.500000 0.389484 0.089455
O O2 0.765877 0.369352 0.186422
O O3 0.783598 0.411210 0.015711
O O4 0.708239 0.315740 0.047693
O O5 0.256991 0.500000 0.929428
O O6 0.290237 0.588784 0.843067
O O7 0.000000 0.558815 0.898188
O O8 0.728086 0.393729 0.518643
O O9 0.733809 0.287446 0.506090
O O10 0.761496 0.345202 0.364702
O O11 0.000000 0.341307 0.482585
O O12 0.273014 0.500000 0.550400
O O13 0.211591 0.430639 0.673899
O O14 0.000000 0.445698 0.545103
O O15 0.227580 0.217125 0.388298
O O16 0.000000 0.226407 0.512604
O O17 0.500000 0.392505 0.714909
O O18 0.763690 0.333987 0.737186
O O19 0.500000 0.332744 0.263212
O O20 0.757960 0.272605 0.247025
O O21 0.500000 0.215850 0.290811
#
# Coordination Sequence:
#
# PCOD9356984 Si02
#       8
#     8   8   8   8   8   8   8   8
#     4  11  22  36  57  85 116 151 189 231 282 339
#     4  11  24  41  60  82 113 153 193 235 283 335
#     4   9  20  38  58  83 112 147 193 240 288 335
#     4  10  22  40  59  80 112 153 195 239 286 337
#     4  10  19  32  53  82 113 146 184 230 280 334
#     4  11  22  35  57  87 117 151 189 233 281 336
#     4   9  20  37  57  82 115 151 187 230 284 342
#     4   9  18  34  53  79 114 150 184 221 274 337
#
# _framework density 20.862572
#
# number of rings (size 3 to 8) (size 9 to 14) (size 15 to 20)
#    0.000    2.000    1.250    1.875    1.750    5.250 
#    0.000    0.625    0.000    2.250    0.000    0.000 
#    0.000    0.000    0.000    0.000    0.000    0.000 
#
# Total GULP energy -178712.170488 kJ/mol
# GULP energy per Si atom -5584.755328 kJ/mol
# Density = 2.081509 g / cm^3
# Si number density = 20.862572 Si / 1000 Ang^3
#
#
#
# Elastic Constant Matrix: (Units=GPa)
#
#
# Indices 1 2 3 4 5 6 
#
# 1 29.4102 3.1354 -11.7145 0.0000 0.0000 0.0000
# 2 3.1354 119.1063 26.3289 0.0000 0.0000 0.0000
# 3 -11.7145 26.3289 44.1423 0.0000 0.0000 0.0000
# 4 0.0000 0.0000 0.0000 23.3536 0.0000 0.0000
# 5 0.0000 0.0000 0.0000 0.0000 22.6958 0.0000
# 6 0.0000 0.0000 0.0000 0.0000 0.0000 11.6179
#
#
#
# Elastic Compliance Matrix: (Units=1/GPa)
#
#
# Indices 1 2 3 4 5 6 
#
# 1 0.039509 -0.003868 0.012792 0.000000 0.000000 0.000000
# 2 -0.003868 0.010050 -0.007021 0.000000 0.000000 0.000000
# 3 0.012792 -0.007021 0.030236 0.000000 0.000000 0.000000
# 4 0.000000 0.000000 0.000000 0.042820 0.000000 0.000000
# 5 0.000000 0.000000 0.000000 0.000000 0.044061 0.000000
# 6 0.000000 0.000000 0.000000 0.000000 0.000000 0.086074
#
#
# Mechanical properties :
#
#
# Convention : Reuss Voigt Hill
#
# Bulk Modulus (GPa) = 11.96136 25.35091 18.65614
# Shear Modulus (GPa) = 18.06288 23.19405 20.62846
#
# Velocity S-wave (km/s) = 2.94565 3.33791 3.14790
# Velocity P-wave (km/s) = 4.16112 5.19936 4.70894
#
# Compressibility (1/GPa) = 0.08360253
#
# Stress axis : x y z
#
# Youngs Moduli (GPa) = 25.31042 99.50651 33.07294
#
# Poissons Ratio (x) = 0.38487 -0.42307
# Poissons Ratio (y) = 0.09789 0.23219
# Poissons Ratio (z) = -0.32377 0.69859
#
# Static dielectric constant tensor:
#      x y z
#    x 1.745630 0.000000 0.000000 
#    y 0.000000 1.766140 0.000000 
#    z 0.000000 0.000000 1.736330 
# 
# From -- ./inp_files/12765.got.cif
#   From: 2010.05.17/outbox.cif.g08.bks.cpg/sg38_7_cif.got.tgz:12765.got - 2010.06.03 18:07:57.
