data_PCOD9356707
_publ_section_title
;
Structure prediction by ZEFSAII (Michael W. Deem and Ramdas Pophale) SiO2 
 PCOD9356707
Probable space group: A M M 2
;
_chemical_formula_sum "Si O2"
_cell_formula_units_Z 64
_cell_length_a 7.748825
_cell_length_b 31.487971
_cell_length_c 14.877436
_cell_angle_alpha 90.000000
_cell_angle_beta 90.000000
_cell_angle_gamma 90.000000
_cell_volume 3630.016677
_symmetry_space_group_name_H-M "A M M 2"
_symmetry_group_IT_number 38
_symmetry_cell_setting 'orthorhombic'
loop_
_space_group_symop_operation_xyz
x,y,z
-x,-y,z
-x,y,z
x,-y,z
x,1/2+y,1/2+z
-x,1/2-y,1/2+z
-x,1/2+y,1/2+z
x,1/2-y,1/2+z
loop_
_atom_site_type_symbol
_atom_site_label
_atom_site_fract_x
_atom_site_fract_y
_atom_site_fract_z
Si Si1 0.294661 0.203465 0.352960
Si Si2 0.798680 0.235856 0.166281
Si Si3 0.710929 0.634137 0.992880
Si Si4 0.196407 0.369525 0.364703
Si Si5 0.208910 0.048108 0.776783
Si Si6 0.209039 0.711867 0.466986
Si Si7 0.292801 0.547575 0.068598
Si Si8 0.697243 0.670200 0.184671
O O1 0.500000 0.199599 0.344607
O O2 0.220003 0.206300 0.253031
O O3 0.228812 0.163584 0.411393
O O4 0.259673 0.247121 0.407888
O O5 0.701273 0.279195 0.188637
O O6 0.000000 0.246977 0.155688
O O7 0.738133 0.218032 0.070491
O O8 0.500000 0.634212 0.989505
O O9 0.769285 0.585483 0.004389
O O10 0.759488 0.656637 0.086521
O O11 0.274743 0.415880 0.345108
O O12 0.276341 0.332590 0.426168
O O13 0.194732 0.348750 0.265610
O O14 0.000000 0.376189 0.396755
O O15 0.255574 0.058182 0.673141
O O16 0.000000 0.048577 0.781169
O O17 0.268443 0.000000 0.794941
O O18 0.000000 0.710082 0.463028
O O19 0.500000 0.546096 0.059978
O O20 0.224678 0.500000 0.051441
O O21 0.500000 0.655010 0.195580
#
# Coordination Sequence:
#
# PCOD9356707 Si02
#       8
#     8   8   8   8   8   8   8   8
#     4  11  21  33  49  68  93 123 157 196 233 276
#     4  11  22  35  47  65  94 125 161 198 233 274
#     4   9  18  30  44  68  96 121 155 192 228 272
#     4  10  19  31  46  67  93 125 158 191 230 273
#     4   9  17  28  43  66  95 122 150 186 230 279
#     4  10  21  34  48  66  91 122 158 196 230 273
#     4   9  16  28  46  66  91 122 153 186 227 276
#     4  11  19  29  46  68  95 125 157 191 229 272
#
# _framework density 17.630773000000001
#
# number of rings (size 3 to 8) (size 9 to 14) (size 15 to 20)
#    0.000    2.000    3.750    1.125    0.000    0.500 
#    0.000    1.250    0.000    0.000    0.000    0.875 
#    0.000    1.000    0.000    0.000    0.000    0.000 
#
# Total GULP energy -178462.578531 kJ/mol
# GULP energy per Si atom -5576.955579 kJ/mol
# Density = 1.759064 g / cm^3
# Si number density = 17.630773 Si / 1000 Ang^3
#
#
#
# Elastic Constant Matrix: (Units=GPa)
#
#
# Indices 1 2 3 4 5 6 
#
# 1 34.1945 -0.7282 0.4292 0.0000 0.0000 0.0000
# 2 -0.7282 125.4642 39.2338 0.0000 0.0000 0.0000
# 3 0.4292 39.2338 82.3142 0.0000 0.0000 0.0000
# 4 0.0000 0.0000 0.0000 28.4432 0.0000 0.0000
# 5 0.0000 0.0000 0.0000 0.0000 -17.5431 0.0000
# 6 0.0000 0.0000 0.0000 0.0000 0.0000 4.6587
#
#
#
# Elastic Compliance Matrix: (Units=1/GPa)
#
#
# Indices 1 2 3 4 5 6 
#
# 1 0.029253 0.000256 -0.000274 0.000000 0.000000 0.000000
# 2 0.000256 0.009369 -0.004467 0.000000 0.000000 0.000000
# 3 -0.000274 -0.004467 0.014279 0.000000 0.000000 0.000000
# 4 0.000000 0.000000 0.000000 0.035158 0.000000 0.000000
# 5 0.000000 0.000000 0.000000 0.000000 -0.057002 0.000000
# 6 0.000000 0.000000 0.000000 0.000000 0.000000 0.214653
#
#
# Mechanical properties :
#
#
# Convention : Reuss Voigt Hill
#
# Bulk Modulus (GPa) = 22.76351 35.53804 29.15078
# Shear Modulus (GPa) = 18.56500 16.64762 17.60631
#
# Velocity S-wave (km/s) = 3.24850 3.07618 3.16351
# Velocity P-wave (km/s) = 5.19708 5.72868 5.46934
#
# Compressibility (1/GPa) = 0.04392995
#
# Stress axis : x y z
#
# Youngs Moduli (GPa) = 34.18414 106.73855 70.03281
#
# Poissons Ratio (x) = -0.02728 0.01921
# Poissons Ratio (y) = -0.00874 0.31282
# Poissons Ratio (z) = 0.00938 0.47678
#
# Static dielectric constant tensor:
#      x y z
#    x 1.716050 0.000000 0.000000 
#    y 0.000000 1.648070 0.000000 
#    z 0.000000 0.000000 1.580530 
# 
# From -- ./inp_files/13046.got.cif
#   From: 2010.05.17/outbox.cif.g08.bks.cpg/sg38_7_cif.got.tgz:13046.got - 2010.06.03 18:07:57.
