data_PCOD9356628
_publ_section_title
;
Structure prediction by ZEFSAII (Michael W. Deem and Ramdas Pophale) SiO2 
 PCOD9356628
Probable space group: A M M 2
;
_chemical_formula_sum "Si O2"
_cell_formula_units_Z 64
_cell_length_a 7.534108
_cell_length_b 30.565881
_cell_length_c 12.606042
_cell_angle_alpha 90.000000
_cell_angle_beta 90.000000
_cell_angle_gamma 90.000000
_cell_volume 2903.003164
_symmetry_space_group_name_H-M "A M M 2"
_symmetry_group_IT_number 38
_symmetry_cell_setting 'orthorhombic'
loop_
_space_group_symop_operation_xyz
x,y,z
-x,-y,z
-x,y,z
x,-y,z
x,1/2+y,1/2+z
-x,1/2-y,1/2+z
-x,1/2+y,1/2+z
x,1/2-y,1/2+z
loop_
_atom_site_type_symbol
_atom_site_label
_atom_site_fract_x
_atom_site_fract_y
_atom_site_fract_z
Si Si1 0.697335 0.722579 0.084210
Si Si2 0.206349 0.666439 0.264846
Si Si3 0.291649 0.044782 0.922400
Si Si4 0.294914 0.549867 0.951962
Si Si5 0.715959 0.189469 0.184935
Si Si6 0.717019 0.650910 0.911886
Si Si7 0.285935 0.136981 0.988657
Si Si8 0.212859 0.930610 0.690788
O O1 0.500000 0.732326 0.040274
O O2 0.686298 0.701446 0.200391
O O3 0.784059 0.768571 0.117567
O O4 0.772778 0.684219 0.007492
O O5 0.228828 0.667180 0.390769
O O6 0.261772 0.619470 0.217546
O O7 0.000000 0.672774 0.240136
O O8 0.500000 0.045562 0.949355
O O9 0.211313 0.089432 0.962428
O O10 0.276001 0.045231 0.795640
O O11 0.213032 0.000000 0.964641
O O12 0.500000 0.549417 0.916548
O O13 0.223261 0.500000 0.924831
O O14 0.223658 0.599223 0.918811
O O15 0.287232 0.553180 0.079936
O O16 0.500000 0.194459 0.190087
O O17 0.770835 0.175664 0.303123
O O18 0.762163 0.150499 0.105724
O O19 0.500000 0.648611 0.916687
O O20 0.500000 0.136534 0.982698
O O21 0.000000 0.933769 0.684732
#
# Coordination Sequence:
#
# PCOD9356628 Si02
#       8
#     8   8   8   8   8   8   8   8
#     4  10  19  32  56  80 100 132 169 210 260 307
#     4  10  20  33  50  75 107 137 166 207 256 310
#     4   9  17  29  46  70 101 136 171 206 250 301
#     4  10  19  31  49  72 101 139 175 207 255 311
#     4   9  19  33  54  81 104 131 175 219 255 303
#     4   9  18  33  51  77 109 133 167 220 261 299
#     4   9  18  33  53  75 102 135 172 211 249 296
#     4  10  19  30  46  71 103 134 166 209 258 304
#
# _framework density 22.046133999999999
#
# number of rings (size 3 to 8) (size 9 to 14) (size 15 to 20)
#    0.000    2.500    1.250    1.125    1.750    3.000 
#    0.000    1.250    0.000    6.000    0.000    0.000 
#    0.000    2.000    0.000    0.000    0.000    0.000 
#
# Total GULP energy -178168.538993 kJ/mol
# GULP energy per Si atom -5567.766844 kJ/mol
# Density = 2.199596 g / cm^3
# Si number density = 22.046134 Si / 1000 Ang^3
#
#
#
# Elastic Constant Matrix: (Units=GPa)
#
#
# Indices 1 2 3 4 5 6 
#
# 1 49.1318 5.6164 -2.3616 0.0000 0.0000 0.0000
# 2 5.6164 125.8547 52.5419 0.0000 0.0000 0.0000
# 3 -2.3616 52.5419 108.0761 0.0000 0.0000 0.0000
# 4 0.0000 0.0000 0.0000 5.1557 0.0000 0.0000
# 5 0.0000 0.0000 0.0000 0.0000 -79.7342 0.0000
# 6 0.0000 0.0000 0.0000 0.0000 0.0000 -45.3639
#
#
#
# Elastic Compliance Matrix: (Units=1/GPa)
#
#
# Indices 1 2 3 4 5 6 
#
# 1 0.020566 -0.001387 0.001124 0.000000 0.000000 0.000000
# 2 -0.001387 0.010063 -0.004922 0.000000 0.000000 0.000000
# 3 0.001124 -0.004922 0.011670 0.000000 0.000000 0.000000
# 4 0.000000 0.000000 0.000000 0.193961 0.000000 0.000000
# 5 0.000000 0.000000 0.000000 0.000000 -0.012542 0.000000
# 6 0.000000 0.000000 0.000000 0.000000 0.000000 -0.022044
#
#
# Mechanical properties :
#
#
# Convention : Reuss Voigt Hill
#
# Bulk Modulus (GPa) = 31.32070 43.85067 37.58568
# Shear Modulus (GPa) = 22.45300 -8.83742 6.80779
#
# Velocity S-wave (km/s) = 3.19479 -2.00432 1.75917
# Velocity P-wave (km/s) = 5.27699 3.81801 4.60564
#
# Compressibility (1/GPa) = 0.03192777
#
# Stress axis : x y z
#
# Youngs Moduli (GPa) = 48.62399 99.37875 85.68771
#
# Poissons Ratio (x) = 0.13783 -0.09628
# Poissons Ratio (y) = 0.06744 0.42178
# Poissons Ratio (z) = -0.05464 0.48917
#
# Static dielectric constant tensor:
#      x y z
#    x 1.847900 0.000000 0.000000 
#    y 0.000000 1.901390 0.000000 
#    z 0.000000 0.000000 1.753100 
# 
# From -- ./inp_files/8562.got.cif
#   From: 2010.05.17/outbox.cif.g08.bks.cpg/sg38_5_cif.got.tgz:8562.got - 2010.06.03 18:07:57.
