data_PCOD9356440
_publ_section_title
;
Structure prediction by ZEFSAII (Michael W. Deem and Ramdas Pophale) SiO2 
 PCOD9356440
Probable space group: A M M 2
;
_chemical_formula_sum "Si O2"
_cell_formula_units_Z 48
_cell_length_a 8.457942
_cell_length_b 14.926348
_cell_length_c 21.002032
_cell_angle_alpha 90.000000
_cell_angle_beta 90.000000
_cell_angle_gamma 90.000000
_cell_volume 2651.426431
_symmetry_space_group_name_H-M "A M M 2"
_symmetry_group_IT_number 38
_symmetry_cell_setting 'orthorhombic'
loop_
_space_group_symop_operation_xyz
x,y,z
-x,-y,z
-x,y,z
x,-y,z
x,1/2+y,1/2+z
-x,1/2-y,1/2+z
-x,1/2+y,1/2+z
x,1/2-y,1/2+z
loop_
_atom_site_type_symbol
_atom_site_label
_atom_site_fract_x
_atom_site_fract_y
_atom_site_fract_z
Si Si1 0.691249 0.309693 0.453900
Si Si2 0.689568 0.190352 0.197463
Si Si3 0.187902 0.500000 0.655642
Si Si4 0.307251 0.694185 0.074367
Si Si5 0.808996 0.000000 0.761235
Si Si6 0.810732 0.692039 0.313705
Si Si7 0.691386 0.000000 0.616371
Si Si8 0.691179 0.000000 0.010510
O O1 0.500000 0.309008 0.452213
O O2 0.743696 0.242001 0.509491
O O3 0.754283 0.286392 0.384563
O O4 0.742266 0.409772 0.474654
O O5 0.500000 0.188708 0.196741
O O6 0.751517 0.089900 0.189481
O O7 0.743131 0.248036 0.135789
O O8 0.746659 0.239969 0.260809
O O9 0.250265 0.500000 0.582994
O O10 0.000000 0.500000 0.654730
O O11 0.500000 0.694884 0.074414
O O12 0.255479 0.591763 0.083021
O O13 0.755532 0.091210 0.795487
O O14 0.748555 0.000000 0.689054
O O15 0.000000 0.000000 0.760576
O O16 0.000000 0.693074 0.311393
O O17 0.500000 0.000000 0.616930
O O18 0.500000 0.000000 0.012798
#
# Coordination Sequence:
#
# PCOD9356440 Si02
#       8
#     8   8   4   8   4   8   4   4
#     4  10  20  36  56  82 114 154 197 241 290 344
#     4  11  21  39  63  85 112 153 201 246 287 342
#     4  12  24  37  58  91 123 151 187 239 302 361
#     4   9  18  33  58  86 113 143 191 246 285 332
#     4  10  21  35  53  81 121 153 182 231 290 350
#     4  11  23  38  55  84 122 158 194 239 296 356
#     4  10  18  33  58  89 113 141 189 239 282 334
#     4  10  19  35  59  85 117 153 200 249 288 347
#
# _framework density 18.103463000000001
#
# number of rings (size 3 to 8) (size 9 to 14) (size 15 to 20)
#    0.000    1.667    3.333    2.250    0.000    1.333 
#    0.000    1.667    0.000    2.000    0.000    0.000 
#    0.000    0.000    0.000    0.000    0.000    0.000 
#
# Total GULP energy -134066.425320 kJ/mol
# GULP energy per Si atom -5586.101055 kJ/mol
# Density = 1.806226 g / cm^3
# Si number density = 18.103463 Si / 1000 Ang^3
#
#
#
# Elastic Constant Matrix: (Units=GPa)
#
#
# Indices 1 2 3 4 5 6 
#
# 1 20.6583 23.6193 24.2857 0.0000 0.0000 0.0000
# 2 23.6193 166.9865 99.1934 0.0000 0.0000 0.0000
# 3 24.2857 99.1934 177.9114 0.0000 0.0000 0.0000
# 4 0.0000 0.0000 0.0000 22.8291 0.0000 0.0000
# 5 0.0000 0.0000 0.0000 0.0000 -8.8028 0.0000
# 6 0.0000 0.0000 0.0000 0.0000 0.0000 14.6769
#
#
#
# Elastic Compliance Matrix: (Units=1/GPa)
#
#
# Indices 1 2 3 4 5 6 
#
# 1 0.060851 -0.005492 -0.005245 0.000000 0.000000 0.000000
# 2 -0.005492 0.009450 -0.004519 0.000000 0.000000 0.000000
# 3 -0.005245 -0.004519 0.008856 0.000000 0.000000 0.000000
# 4 0.000000 0.000000 0.000000 0.043804 0.000000 0.000000
# 5 0.000000 0.000000 0.000000 0.000000 -0.113600 0.000000
# 6 0.000000 0.000000 0.000000 0.000000 0.000000 0.068134
#
#
# Mechanical properties :
#
#
# Convention : Reuss Voigt Hill
#
# Bulk Modulus (GPa) = 20.55655 73.30590 46.93122
# Shear Modulus (GPa) = 40.25115 20.30449 30.27782
#
# Velocity S-wave (km/s) = 4.72040 3.35263 4.09404
# Velocity P-wave (km/s) = 6.41009 7.45436 6.95186
#
# Compressibility (1/GPa) = 0.04864631
#
# Stress axis : x y z
#
# Youngs Moduli (GPa) = 16.43364 105.82444 112.91519
#
# Poissons Ratio (x) = 0.58114 0.59220
# Poissons Ratio (y) = 0.09025 0.51026
# Poissons Ratio (z) = 0.08619 0.47822
#
# Static dielectric constant tensor:
#      x y z
#    x 1.615640 0.000000 0.000000 
#    y 0.000000 1.619640 0.000000 
#    z 0.000000 0.000000 1.582140 
# 
# From -- ./inp_files/16708.got.cif
#   From: 2010.05.17/outbox.cif.g08.bks.cpg/sg38_9_cif.got.tgz:16708.got - 2010.06.03 18:07:57.
