data_PCOD9356263
_publ_section_title
;
Structure prediction by ZEFSAII (Michael W. Deem and Ramdas Pophale) SiO2 
 PCOD9356263
Probable space group: A M M 2
;
_chemical_formula_sum "Si O2"
_cell_formula_units_Z 56
_cell_length_a 7.384856
_cell_length_b 22.833380
_cell_length_c 15.079707
_cell_angle_alpha 90.000000
_cell_angle_beta 90.000000
_cell_angle_gamma 90.000000
_cell_volume 2542.758641
_symmetry_space_group_name_H-M "A M M 2"
_symmetry_group_IT_number 38
_symmetry_cell_setting 'orthorhombic'
loop_
_space_group_symop_operation_xyz
x,y,z
-x,-y,z
-x,y,z
x,-y,z
x,1/2+y,1/2+z
-x,1/2-y,1/2+z
-x,1/2+y,1/2+z
x,1/2-y,1/2+z
loop_
_atom_site_type_symbol
_atom_site_label
_atom_site_fract_x
_atom_site_fract_y
_atom_site_fract_z
Si Si1 0.220206 0.779592 0.654610
Si Si2 0.293237 0.000000 0.645812
Si Si3 0.779201 0.357555 0.456241
Si Si4 0.792935 0.000000 0.444512
Si Si5 0.779500 0.144440 0.153629
Si Si6 0.219858 0.777555 0.454112
Si Si7 0.221688 0.612866 0.842439
Si Si8 0.217528 0.111429 0.768323
O O1 0.275414 0.712355 0.668333
O O2 0.270798 0.795960 0.553940
O O3 0.283712 0.828342 0.723296
O O4 0.000000 0.779283 0.658643
O O5 0.199030 0.000000 0.550616
O O6 0.257597 0.056814 0.705622
O O7 0.500000 0.000000 0.619784
O O8 0.719238 0.374427 0.555361
O O9 0.725129 0.289666 0.440903
O O10 0.719198 0.393319 0.370006
O O11 0.000000 0.358944 0.458294
O O12 0.714854 0.940590 0.403358
O O13 0.000000 0.000000 0.412446
O O14 0.723448 0.108445 0.239856
O O15 0.000000 0.144147 0.151833
O O16 0.281503 0.825279 0.383862
O O17 0.000000 0.776564 0.451143
O O18 0.000000 0.614740 0.844543
O O19 0.000000 0.115747 0.771980
#
# Coordination Sequence:
#
# PCOD9356263 Si02
#       8
#     8   4   8   4   8   8   8   8
#     4   8  13  21  39  68 101 129 154 188 233 278
#     4  12  26  40  51  66  90 122 155 194 243 292
#     4   8  14  23  39  66  99 127 153 188 234 279
#     4  10  20  34  51  72  94 122 161 200 231 270
#     4   8  13  22  37  68 109 135 150 184 237 282
#     4   8  12  19  33  60  96 129 155 186 231 279
#     4   9  15  23  39  64  98 132 159 190 231 272
#     4  10  18  31  51  73  95 124 161 199 232 271
#
# _framework density 22.023326000000001
#
# number of rings (size 3 to 8) (size 9 to 14) (size 15 to 20)
#    0.000    3.143    0.000    4.071    0.000    5.714 
#    0.000    0.714    0.000    3.429    0.000   18.000 
#    0.000    0.000    0.000    0.000    0.000    0.000 
#
# Total GULP energy -156228.537943 kJ/mol
# GULP energy per Si atom -5579.590641 kJ/mol
# Density = 2.197320 g / cm^3
# Si number density = 22.023326 Si / 1000 Ang^3
#
#
#
# Elastic Constant Matrix: (Units=GPa)
#
#
# Indices 1 2 3 4 5 6 
#
# 1 73.6636 -5.0396 -3.4459 0.0000 0.0000 0.0000
# 2 -5.0396 44.7522 63.2993 0.0000 0.0000 0.0000
# 3 -3.4459 63.2993 166.9782 0.0000 0.0000 0.0000
# 4 0.0000 0.0000 0.0000 62.2972 0.0000 0.0000
# 5 0.0000 0.0000 0.0000 0.0000 -29.2593 0.0000
# 6 0.0000 0.0000 0.0000 0.0000 0.0000 550.9394
#
#
#
# Elastic Compliance Matrix: (Units=1/GPa)
#
#
# Indices 1 2 3 4 5 6 
#
# 1 0.013713 0.002467 -0.000652 0.000000 0.000000 0.000000
# 2 0.002467 0.048622 -0.018381 0.000000 0.000000 0.000000
# 3 -0.000652 -0.018381 0.012943 0.000000 0.000000 0.000000
# 4 0.000000 0.000000 0.000000 0.016052 0.000000 0.000000
# 5 0.000000 0.000000 0.000000 0.000000 -0.034177 0.000000
# 6 0.000000 0.000000 0.000000 0.000000 0.000000 0.001815
#
#
# Mechanical properties :
#
#
# Convention : Reuss Voigt Hill
#
# Bulk Modulus (GPa) = 23.72722 43.89131 33.80927
# Shear Modulus (GPa) = 47.10306 132.16748 89.63527
#
# Velocity S-wave (km/s) = 4.62971 7.75518 6.38659
# Velocity P-wave (km/s) = 6.27503 10.00815 8.35282
#
# Compressibility (1/GPa) = 0.04214568
#
# Stress axis : x y z
#
# Youngs Moduli (GPa) = 72.92100 20.56689 77.25972
#
# Poissons Ratio (x) = -0.05073 0.05038
# Poissons Ratio (y) = -0.17986 1.42011
# Poissons Ratio (z) = 0.04755 0.37804
#
# Static dielectric constant tensor:
#      x y z
#    x 1.863920 0.000000 0.000000 
#    y 0.000000 1.640480 0.000000 
#    z 0.000000 0.000000 1.824600 
# 
# From -- ./inp_files/12474.got.cif
#   From: 2010.05.17/outbox.cif.g08.bks.cpg/sg38_7_cif.got.tgz:12474.got - 2010.06.03 18:07:57.
