data_PCOD9356132
_publ_section_title
;
Structure prediction by ZEFSAII (Michael W. Deem and Ramdas Pophale) SiO2 
 PCOD9356132
Probable space group: A M M 2
;
_chemical_formula_sum "Si O2"
_cell_formula_units_Z 64
_cell_length_a 7.441959
_cell_length_b 17.046453
_cell_length_c 22.675388
_cell_angle_alpha 90.000000
_cell_angle_beta 90.000000
_cell_angle_gamma 90.000000
_cell_volume 2876.577144
_symmetry_space_group_name_H-M "A M M 2"
_symmetry_group_IT_number 38
_symmetry_cell_setting 'orthorhombic'
loop_
_space_group_symop_operation_xyz
x,y,z
-x,-y,z
-x,y,z
x,-y,z
x,1/2+y,1/2+z
-x,1/2-y,1/2+z
-x,1/2+y,1/2+z
x,1/2-y,1/2+z
loop_
_atom_site_type_symbol
_atom_site_label
_atom_site_fract_x
_atom_site_fract_y
_atom_site_fract_z
Si Si1 0.280270 0.087401 0.116760
Si Si2 0.295452 0.588132 0.052855
Si Si3 0.708315 0.736117 0.539767
Si Si4 0.217870 0.245006 0.910606
Si Si5 0.213181 0.412604 0.187918
Si Si6 0.206642 0.417329 0.881863
Si Si7 0.706746 0.386335 0.749867
Si Si8 0.218198 0.210912 0.781722
O O1 0.500000 0.089991 0.116254
O O2 0.222496 0.091758 0.185432
O O3 0.229259 0.000000 0.094028
O O4 0.219483 0.165549 0.081157
O O5 0.500000 0.587782 0.029866
O O6 0.218019 0.500000 0.038711
O O7 0.298791 0.591504 0.123877
O O8 0.212745 0.674394 0.038530
O O9 0.500000 0.746594 0.557604
O O10 0.718428 0.709725 0.471830
O O11 0.284173 0.335368 0.904065
O O12 0.273838 0.203745 0.849809
O O13 0.000000 0.246153 0.911379
O O14 0.234102 0.500000 0.210973
O O15 0.281749 0.353955 0.236667
O O16 0.000000 0.398142 0.178376
O O17 0.290539 0.500000 0.900098
O O18 0.205633 0.414849 0.810558
O O19 0.000000 0.417715 0.901832
O O20 0.500000 0.411622 0.752439
O O21 0.718161 0.293199 0.756178
O O22 0.000000 0.211758 0.781721
#
# Coordination Sequence:
#
# PCOD9356132 Si02
#       8
#     8   8   8   8   8   8   8   8
#     4   9  18  32  49  70  97 127 159 199 246 289
#     4   9  18  32  49  72 103 131 153 188 242 296
#     4  10  20  34  51  69  92 128 169 203 238 281
#     4   9  19  34  49  67  93 126 162 198 237 280
#     4   9  17  30  50  75  98 122 157 197 237 290
#     4   9  18  33  51  72 101 132 156 186 238 297
#     4  10  18  29  50  77 100 124 158 197 238 290
#     4   9  18  33  50  69  98 131 157 191 246 298
#
# _framework density 22.248664000000002
#
# number of rings (size 3 to 8) (size 9 to 14) (size 15 to 20)
#    0.000    2.750    0.000    2.250    0.000    5.250 
#    0.000    1.875    0.000    2.625    0.000    0.000 
#    0.000    0.000    0.000    0.000    0.000    0.000 
#
# Total GULP energy -178436.892060 kJ/mol
# GULP energy per Si atom -5576.152877 kJ/mol
# Density = 2.219802 g / cm^3
# Si number density = 22.248664 Si / 1000 Ang^3
#
#
#
# Elastic Constant Matrix: (Units=GPa)
#
#
# Indices 1 2 3 4 5 6 
#
# 1 65.8601 12.9285 -2.8348 0.0000 0.0000 0.0000
# 2 12.9285 75.9464 65.1600 0.0000 0.0000 0.0000
# 3 -2.8348 65.1600 117.9692 0.0000 0.0000 0.0000
# 4 0.0000 0.0000 0.0000 -6.1056 0.0000 0.0000
# 5 0.0000 0.0000 0.0000 0.0000 17.2815 0.0000
# 6 0.0000 0.0000 0.0000 0.0000 0.0000 -12.6321
#
#
#
# Elastic Compliance Matrix: (Units=1/GPa)
#
#
# Indices 1 2 3 4 5 6 
#
# 1 0.016520 -0.005993 0.003707 0.000000 0.000000 0.000000
# 2 -0.005993 0.027202 -0.015169 0.000000 0.000000 0.000000
# 3 0.003707 -0.015169 0.016944 0.000000 0.000000 0.000000
# 4 0.000000 0.000000 0.000000 -0.163783 0.000000 0.000000
# 5 0.000000 0.000000 0.000000 0.000000 0.057865 0.000000
# 6 0.000000 0.000000 0.000000 0.000000 0.000000 -0.079164
#
#
# Mechanical properties :
#
#
# Convention : Reuss Voigt Hill
#
# Bulk Modulus (GPa) = 38.82476 45.58698 42.20587
# Shear Modulus (GPa) = -61.78892 12.01022 -24.88935
#
# Velocity S-wave (km/s) = -5.27563 2.32592 -3.34831
# Velocity P-wave (km/s) = 4.42961 5.26758 2.01569
#
# Compressibility (1/GPa) = 0.02575676
#
# Stress axis : x y z
#
# Youngs Moduli (GPa) = 60.53398 36.76226 59.01673
#
# Poissons Ratio (x) = 0.22030 -0.21878
# Poissons Ratio (y) = 0.36276 0.89522
# Poissons Ratio (z) = -0.22440 0.55764
#
# Static dielectric constant tensor:
#      x y z
#    x 1.868600 0.000000 0.000000 
#    y 0.000000 1.848990 0.000000 
#    z 0.000000 0.000000 1.793520 
# 
# From -- ./inp_files/22224.got.cif
#   From: 2010.05.17/outbox.cif.g08.bks.cpg/sg38_12_cif.got.tgz:22224.got - 2010.06.03 18:07:57.
