data_PCOD9356165
_publ_section_title
;
Structure prediction by ZEFSAII (Michael W. Deem and Ramdas Pophale) SiO2 
 PCOD9356165
Probable space group: A M M 2
;
_chemical_formula_sum "Si O2"
_cell_formula_units_Z 64
_cell_length_a 7.787243
_cell_length_b 31.370945
_cell_length_c 14.907309
_cell_angle_alpha 90.000000
_cell_angle_beta 90.000000
_cell_angle_gamma 90.000000
_cell_volume 3641.753799
_symmetry_space_group_name_H-M "A M M 2"
_symmetry_group_IT_number 38
_symmetry_cell_setting 'orthorhombic'
loop_
_space_group_symop_operation_xyz
x,y,z
-x,-y,z
-x,y,z
x,-y,z
x,1/2+y,1/2+z
-x,1/2-y,1/2+z
-x,1/2+y,1/2+z
x,1/2-y,1/2+z
loop_
_atom_site_type_symbol
_atom_site_label
_atom_site_fract_x
_atom_site_fract_y
_atom_site_fract_z
Si Si1 0.208257 0.211480 0.477510
Si Si2 0.793155 0.951810 0.877800
Si Si3 0.804210 0.869882 0.580140
Si Si4 0.704122 0.796032 0.092001
Si Si5 0.799678 0.736289 0.778916
Si Si6 0.697776 0.830811 0.761279
Si Si7 0.210212 0.451364 0.172031
Si Si8 0.704925 0.135476 0.951402
O O1 0.274877 0.166748 0.517729
O O2 0.262522 0.252394 0.536300
O O3 0.258948 0.217453 0.373983
O O4 0.000000 0.210237 0.482798
O O5 0.735761 0.941809 0.775127
O O6 0.738636 0.914786 0.945448
O O7 0.000000 0.952273 0.875952
O O8 0.735066 0.000000 0.899092
O O9 0.803653 0.848745 0.678714
O O10 0.726700 0.916261 0.601306
O O11 0.000000 0.876645 0.548853
O O12 0.500000 0.800160 0.102535
O O13 0.780601 0.792633 0.191208
O O14 0.771094 0.835877 0.033154
O O15 0.701709 0.779960 0.759707
O O16 0.000000 0.747426 0.789302
O O17 0.500000 0.845260 0.751563
O O18 0.769683 0.845732 0.856869
O O19 0.259410 0.500000 0.152263
O O20 0.000000 0.449572 0.172027
O O21 0.500000 0.141996 0.950601
#
# Coordination Sequence:
#
# PCOD9356165 Si02
#       8
#     8   8   8   8   8   8   8   8
#     4  10  21  33  48  71  96 125 164 203 242 290
#     4   9  17  29  47  72  98 126 161 197 238 290
#     4  10  18  30  48  70  94 127 164 197 234 284
#     4  11  22  35  50  70  96 127 166 206 241 288
#     4  11  22  35  48  67  96 129 166 205 244 286
#     4  11  20  30  45  68  97 128 162 198 238 284
#     4   8  14  25  43  68  96 123 153 191 234 282
#     4  10  21  33  46  69  99 130 165 199 241 288
#
# _framework density 17.573951000000001
#
# number of rings (size 3 to 8) (size 9 to 14) (size 15 to 20)
#    0.000    2.000    3.750    1.875    0.000    2.250 
#    0.000    0.000    0.000    0.375    0.000    0.875 
#    0.000    3.000    0.000    0.000    0.000    0.000 
#
# Total GULP energy -178466.705696 kJ/mol
# GULP energy per Si atom -5577.084553 kJ/mol
# Density = 1.753395 g / cm^3
# Si number density = 17.573951 Si / 1000 Ang^3
#
#
#
# Elastic Constant Matrix: (Units=GPa)
#
#
# Indices 1 2 3 4 5 6 
#
# 1 29.6840 -5.2441 -0.2048 0.0000 0.0000 0.0000
# 2 -5.2441 116.4109 37.1020 0.0000 0.0000 0.0000
# 3 -0.2048 37.1020 82.4458 0.0000 0.0000 0.0000
# 4 0.0000 0.0000 0.0000 27.5093 0.0000 0.0000
# 5 0.0000 0.0000 0.0000 0.0000 7.6826 0.0000
# 6 0.0000 0.0000 0.0000 0.0000 0.0000 17.2359
#
#
#
# Elastic Compliance Matrix: (Units=1/GPa)
#
#
# Indices 1 2 3 4 5 6 
#
# 1 0.033994 0.001756 -0.000706 0.000000 0.000000 0.000000
# 2 0.001756 0.010119 -0.004550 0.000000 0.000000 0.000000
# 3 -0.000706 -0.004550 0.014175 0.000000 0.000000 0.000000
# 4 0.000000 0.000000 0.000000 0.036351 0.000000 0.000000
# 5 0.000000 0.000000 0.000000 0.000000 0.130164 0.000000
# 6 0.000000 0.000000 0.000000 0.000000 0.000000 0.058018
#
#
# Mechanical properties :
#
#
# Convention : Reuss Voigt Hill
#
# Bulk Modulus (GPa) = 19.49715 32.42741 25.96228
# Shear Modulus (GPa) = 16.29106 23.61140 19.95123
#
# Velocity S-wave (km/s) = 3.04797 3.66942 3.37304
# Velocity P-wave (km/s) = 4.84822 6.03696 5.47495
#
# Compressibility (1/GPa) = 0.05128956
#
# Stress axis : x y z
#
# Youngs Moduli (GPa) = 29.41732 98.82022 70.54774
#
# Poissons Ratio (x) = -0.17356 0.04980
# Poissons Ratio (y) = -0.05167 0.32096
# Poissons Ratio (z) = 0.02077 0.44959
#
# Static dielectric constant tensor:
#      x y z
#    x 1.651020 0.000000 0.000000 
#    y 0.000000 1.634820 0.000000 
#    z 0.000000 0.000000 1.590020 
# 
# From -- ./inp_files/13050.got.cif
#   From: 2010.05.17/outbox.cif.g08.bks.cpg/sg38_7_cif.got.tgz:13050.got - 2010.06.03 18:07:57.
