data_PCOD9356497
_publ_section_title
;
Structure prediction by ZEFSAII (Michael W. Deem and Ramdas Pophale) SiO2 
 PCOD9356497
Probable space group: A M M 2
;
_chemical_formula_sum "Si O2"
_cell_formula_units_Z 48
_cell_length_a 16.686690
_cell_length_b 15.944923
_cell_length_c 8.890412
_cell_angle_alpha 90.000000
_cell_angle_beta 90.000000
_cell_angle_gamma 90.000000
_cell_volume 2365.454026
_symmetry_space_group_name_H-M "A M M 2"
_symmetry_group_IT_number 38
_symmetry_cell_setting 'orthorhombic'
loop_
_space_group_symop_operation_xyz
x,y,z
-x,-y,z
-x,y,z
x,-y,z
x,1/2+y,1/2+z
-x,1/2-y,1/2+z
-x,1/2+y,1/2+z
x,1/2-y,1/2+z
loop_
_atom_site_type_symbol
_atom_site_label
_atom_site_fract_x
_atom_site_fract_y
_atom_site_fract_z
Si Si1 0.405835 0.000000 0.985690
Si Si2 0.359254 0.000000 0.632842
Si Si3 0.591558 0.181148 0.621995
Si Si4 0.842944 0.333065 0.325995
Si Si5 0.662528 0.829286 0.947821
Si Si6 0.166306 0.000000 0.642483
Si Si7 0.903221 0.500000 0.808397
Si Si8 0.093556 0.825595 0.154448
O O1 0.364089 0.913642 0.034556
O O2 0.500000 0.000000 0.018537
O O3 0.392000 0.000000 0.804445
O O4 0.389958 0.087079 0.565042
O O5 0.263211 0.000000 0.637241
O O6 0.500000 0.203841 0.588971
O O7 0.606299 0.180663 0.801075
O O8 0.650680 0.248129 0.549162
O O9 0.751778 0.338183 0.384724
O O10 0.860120 0.416510 0.230546
O O11 0.857312 0.250907 0.225743
O O12 0.895997 0.327371 0.475567
O O13 0.132454 0.000000 0.474759
O O14 0.879458 0.584858 0.721434
O O15 0.000000 0.500000 0.816746
O O16 0.000000 0.813445 0.192718
#
# Coordination Sequence:
#
# PCOD9356497 Si02
#       8
#     4   4   8   8   8   4   4   8
#     4  10  18  37  62  85 122 165 207 252 306 378
#     4  10  20  37  58  87 118 159 209 245 313 376
#     4  11  21  38  61  88 124 163 208 259 314 378
#     4  12  23  41  66  96 132 172 217 275 320 393
#     4  11  22  38  60  93 122 163 212 260 316 380
#     4  12  23  41  66  96 125 171 221 267 324 389
#     4  10  25  45  66  94 129 169 217 272 329 393
#     4  11  25  44  67  96 132 172 217 269 334 391
#
# _framework density 20.292086999999999
#
# number of rings (size 3 to 8) (size 9 to 14) (size 15 to 20)
#    0.000    1.000    3.333    6.250    2.333    2.667 
#    0.000    0.833    0.000    0.000    0.000    0.000 
#    0.000    0.000    0.000    0.000    0.000    0.000 
#
# Total GULP energy -134178.548808 kJ/mol
# GULP energy per Si atom -5590.772867 kJ/mol
# Density = 2.024590 g / cm^3
# Si number density = 20.292087 Si / 1000 Ang^3
#
#
#
# Elastic Constant Matrix: (Units=GPa)
#
#
# Indices 1 2 3 4 5 6 
#
# 1 37.8350 11.1582 -8.4496 0.0000 0.0000 0.0000
# 2 11.1582 120.9738 22.8349 0.0000 0.0000 0.0000
# 3 -8.4496 22.8349 59.6342 0.0000 0.0000 0.0000
# 4 0.0000 0.0000 0.0000 28.9751 0.0000 0.0000
# 5 0.0000 0.0000 0.0000 0.0000 12.4615 0.0000
# 6 0.0000 0.0000 0.0000 0.0000 0.0000 27.2408
#
#
#
# Elastic Compliance Matrix: (Units=1/GPa)
#
#
# Indices 1 2 3 4 5 6 
#
# 1 0.028742 -0.003686 0.005484 0.000000 0.000000 0.000000
# 2 -0.003686 0.009383 -0.004115 0.000000 0.000000 0.000000
# 3 0.005484 -0.004115 0.019122 0.000000 0.000000 0.000000
# 4 0.000000 0.000000 0.000000 0.034512 0.000000 0.000000
# 5 0.000000 0.000000 0.000000 0.000000 0.080247 0.000000
# 6 0.000000 0.000000 0.000000 0.000000 0.000000 0.036710
#
#
# Mechanical properties :
#
#
# Convention : Reuss Voigt Hill
#
# Bulk Modulus (GPa) = 19.00697 29.94780 24.47738
# Shear Modulus (GPa) = 21.65547 26.59545 24.12546
#
# Velocity S-wave (km/s) = 3.27033 3.62419 3.45180
# Velocity P-wave (km/s) = 4.86283 5.68361 5.28916
#
# Compressibility (1/GPa) = 0.05261229
#
# Stress axis : x y z
#
# Youngs Moduli (GPa) = 34.79175 106.57523 52.29659
#
# Poissons Ratio (x) = 0.39286 -0.28680
# Poissons Ratio (y) = 0.12825 0.21521
# Poissons Ratio (z) = -0.19080 0.43858
#
# Static dielectric constant tensor:
#      x y z
#    x 1.720260 0.000000 0.000000 
#    y 0.000000 1.736200 0.000000 
#    z 0.000000 0.000000 1.684310 
# 
# From -- ./inp_files/6231.got.cif
#   From: 2010.05.17/outbox.cif.g08.bks.cpg/sg38_4_cif.got.tgz:6231.got - 2010.06.03 18:07:57.
