data_PCOD9356129
_publ_section_title
;
Structure prediction by ZEFSAII (Michael W. Deem and Ramdas Pophale) SiO2 
 PCOD9356129
Probable space group: A M M 2
;
_chemical_formula_sum "Si O2"
_cell_formula_units_Z 64
_cell_length_a 20.239775
_cell_length_b 7.555124
_cell_length_c 20.964361
_cell_angle_alpha 90.000000
_cell_angle_beta 90.000000
_cell_angle_gamma 90.000000
_cell_volume 3205.744505
_symmetry_space_group_name_H-M "A M M 2"
_symmetry_group_IT_number 38
_symmetry_cell_setting 'orthorhombic'
loop_
_space_group_symop_operation_xyz
x,y,z
-x,-y,z
-x,y,z
x,-y,z
x,1/2+y,1/2+z
-x,1/2-y,1/2+z
-x,1/2+y,1/2+z
x,1/2-y,1/2+z
loop_
_atom_site_type_symbol
_atom_site_label
_atom_site_fract_x
_atom_site_fract_y
_atom_site_fract_z
Si Si1 0.183955 0.715385 0.463930
Si Si2 0.926613 0.789496 0.062465
Si Si3 0.331085 0.209169 0.512356
Si Si4 0.824114 0.202719 0.822517
Si Si5 0.424301 0.283140 0.899693
Si Si6 0.299796 0.713680 0.150809
Si Si7 0.152143 0.213689 0.685496
Si Si8 0.324470 0.291336 0.791048
O O1 0.184160 0.500000 0.463025
O O2 0.130368 0.779017 0.515332
O O3 0.257639 0.769673 0.483747
O O4 0.167064 0.780668 0.392697
O O5 0.903212 0.761642 0.134871
O O6 0.000000 0.717217 0.051491
O O7 0.929271 0.000000 0.051556
O O8 0.384262 0.279290 0.462049
O O9 0.329474 0.281117 0.584434
O O10 0.344420 0.000000 0.517569
O O11 0.855165 0.281251 0.757969
O O12 0.745335 0.203032 0.808655
O O13 0.847538 0.000000 0.826610
O O14 0.500000 0.225219 0.898650
O O15 0.424517 0.500000 0.900200
O O16 0.382539 0.229449 0.837407
O O17 0.297916 0.500000 0.147804
O O18 0.223646 0.775031 0.158992
O O19 0.336401 0.763240 0.216055
O O20 0.155347 0.000000 0.688995
O O21 0.314753 0.500000 0.802326
#
# Coordination Sequence:
#
# PCOD9356129 Si02
#       8
#     8   8   8   8   8   8   8   8
#     4  10  19  32  52  76 102 132 166 209 255 299
#     4  10  21  35  50  72 103 136 168 205 253 306
#     4  10  18  32  53  75 100 133 171 211 251 297
#     4   9  18  32  50  74 103 128 159 208 258 293
#     4   9  18  32  50  74 103 135 172 211 253 302
#     4   9  18  31  49  74 104 128 158 210 258 293
#     4   9  17  31  50  72  99 129 163 204 249 297
#     4  10  18  29  50  75  98 129 169 207 247 299
#
# _framework density 19.96416
#
# number of rings (size 3 to 8) (size 9 to 14) (size 15 to 20)
#    0.000    2.500    2.500    1.125    0.000    2.750 
#    0.000    1.250    0.000    6.375    0.000    0.000 
#    0.000    0.000    0.000    0.000    0.000    0.000 
#
# Total GULP energy -178510.995604 kJ/mol
# GULP energy per Si atom -5578.468613 kJ/mol
# Density = 1.991872 g / cm^3
# Si number density = 19.964160 Si / 1000 Ang^3
#
#
#
# Elastic Constant Matrix: (Units=GPa)
#
#
# Indices 1 2 3 4 5 6 
#
# 1 75.4742 -12.5990 39.4822 0.0000 0.0000 0.0000
# 2 -12.5990 45.6416 -10.5744 0.0000 0.0000 0.0000
# 3 39.4822 -10.5744 146.7184 0.0000 0.0000 0.0000
# 4 0.0000 0.0000 0.0000 9.9395 0.0000 0.0000
# 5 0.0000 0.0000 0.0000 0.0000 23.1670 0.0000
# 6 0.0000 0.0000 0.0000 0.0000 0.0000 12.5915
#
#
#
# Elastic Compliance Matrix: (Units=1/GPa)
#
#
# Indices 1 2 3 4 5 6 
#
# 1 0.015941 0.003464 -0.004040 0.000000 0.000000 0.000000
# 2 0.003464 0.023035 0.000728 0.000000 0.000000 0.000000
# 3 -0.004040 0.000728 0.007955 0.000000 0.000000 0.000000
# 4 0.000000 0.000000 0.000000 0.100609 0.000000 0.000000
# 5 0.000000 0.000000 0.000000 0.000000 0.043165 0.000000
# 6 0.000000 0.000000 0.000000 0.000000 0.000000 0.079419
#
#
# Mechanical properties :
#
#
# Convention : Reuss Voigt Hill
#
# Bulk Modulus (GPa) = 21.17028 33.38354 27.27691
# Shear Modulus (GPa) = 17.50916 25.90796 21.70856
#
# Velocity S-wave (km/s) = 2.96468 3.60630 3.30112
# Velocity P-wave (km/s) = 4.72719 5.83940 5.31248
#
# Compressibility (1/GPa) = 0.04723603
#
# Stress axis : x y z
#
# Youngs Moduli (GPa) = 62.72982 43.41254 125.69987
#
# Poissons Ratio (x) = -0.15040 0.50785
# Poissons Ratio (y) = -0.21733 -0.09150
# Poissons Ratio (z) = 0.25344 -0.03160
#
# Static dielectric constant tensor:
#      x y z
#    x 1.657170 0.000000 0.000000 
#    y 0.000000 1.772350 0.000000 
#    z 0.000000 0.000000 1.734230 
# 
# From -- ./inp_files/21446.got.cif
#   From: 2010.05.17/outbox.cif.g08.bks.cpg/sg38_11_cif.got.tgz:21446.got - 2010.06.03 18:07:57.
