data_PCOD9356590
_publ_section_title
;
Structure prediction by ZEFSAII (Michael W. Deem and Ramdas Pophale) SiO2 
 PCOD9356590
Probable space group: A M M 2
;
_chemical_formula_sum "Si O2"
_cell_formula_units_Z 64
_cell_length_a 20.299593
_cell_length_b 7.567444
_cell_length_c 20.873452
_cell_angle_alpha 90.000000
_cell_angle_beta 90.000000
_cell_angle_gamma 90.000000
_cell_volume 3206.496896
_symmetry_space_group_name_H-M "A M M 2"
_symmetry_group_IT_number 38
_symmetry_cell_setting 'orthorhombic'
loop_
_space_group_symop_operation_xyz
x,y,z
-x,-y,z
-x,y,z
x,-y,z
x,1/2+y,1/2+z
-x,1/2-y,1/2+z
-x,1/2+y,1/2+z
x,1/2-y,1/2+z
loop_
_atom_site_type_symbol
_atom_site_label
_atom_site_fract_x
_atom_site_fract_y
_atom_site_fract_z
Si Si1 0.856853 0.704282 0.093100
Si Si2 0.671340 0.796561 0.273100
Si Si3 0.074238 0.216941 0.718367
Si Si4 0.575716 0.716715 0.884106
Si Si5 0.185404 0.206315 0.816583
Si Si6 0.289411 0.292138 0.635913
Si Si7 0.812881 0.214161 0.459884
Si Si8 0.666107 0.286834 0.999497
O O1 0.876412 0.500000 0.085984
O O2 0.903008 0.779860 0.148180
O O3 0.781582 0.709179 0.119369
O O4 0.853352 0.780182 0.021542
O O5 0.619861 0.720528 0.324150
O O6 0.743918 0.794014 0.304562
O O7 0.680140 0.719538 0.201795
O O8 0.650711 0.000000 0.263660
O O9 0.128909 0.274775 0.769433
O O10 0.000000 0.271096 0.733459
O O11 0.075457 0.000000 0.718278
O O12 0.500000 0.770427 0.879478
O O13 0.577723 0.500000 0.883980
O O14 0.609883 0.772865 0.950672
O O15 0.165152 0.226550 0.890274
O O16 0.195450 0.000000 0.802173
O O17 0.276236 0.500000 0.645466
O O18 0.334850 0.270752 0.573368
O O19 0.737081 0.270251 0.471430
O O20 0.813437 0.000000 0.460924
O O21 0.665976 0.500000 0.000014
#
# Coordination Sequence:
#
# PCOD9356590 Si02
#       8
#     8   8   8   8   8   8   8   8
#     4   9  17  32  52  72  96 130 169 207 247 294
#     4  10  19  33  51  74 103 133 167 211 254 295
#     4   9  18  33  52  74 100 132 173 213 251 301
#     4   9  17  32  54  75  96 132 179 213 245 299
#     4  11  20  30  51  78 101 131 169 209 253 301
#     4  10  19  29  48  76 104 129 159 206 258 297
#     4   9  17  30  49  73 101 127 159 207 256 293
#     4   9  17  31  51  73  98 129 166 208 248 294
#
# _framework density 19.959477
#
# number of rings (size 3 to 8) (size 9 to 14) (size 15 to 20)
#    0.000    2.500    2.500    1.500    0.000    2.500 
#    0.000    1.250    0.000    6.375    0.000    0.000 
#    0.000    0.000    0.000    0.000    0.000    0.000 
#
# Total GULP energy -178505.568070 kJ/mol
# GULP energy per Si atom -5578.299002 kJ/mol
# Density = 1.991405 g / cm^3
# Si number density = 19.959477 Si / 1000 Ang^3
#
#
#
# Elastic Constant Matrix: (Units=GPa)
#
#
# Indices 1 2 3 4 5 6 
#
# 1 85.7899 -6.7816 45.6088 0.0000 0.0000 0.0000
# 2 -6.7816 45.4173 -7.8513 0.0000 0.0000 0.0000
# 3 45.6088 -7.8513 145.9859 0.0000 0.0000 0.0000
# 4 0.0000 0.0000 0.0000 16.0356 0.0000 0.0000
# 5 0.0000 0.0000 0.0000 0.0000 27.9828 0.0000
# 6 0.0000 0.0000 0.0000 0.0000 0.0000 6.7696
#
#
#
# Elastic Compliance Matrix: (Units=1/GPa)
#
#
# Indices 1 2 3 4 5 6 
#
# 1 0.014060 0.001353 -0.004320 0.000000 0.000000 0.000000
# 2 0.001353 0.022355 0.000780 0.000000 0.000000 0.000000
# 3 -0.004320 0.000780 0.008242 0.000000 0.000000 0.000000
# 4 0.000000 0.000000 0.000000 0.062361 0.000000 0.000000
# 5 0.000000 0.000000 0.000000 0.000000 0.035736 0.000000
# 6 0.000000 0.000000 0.000000 0.000000 0.000000 0.147719
#
#
# Mechanical properties :
#
#
# Convention : Reuss Voigt Hill
#
# Bulk Modulus (GPa) = 24.82553 37.68277 31.25415
# Shear Modulus (GPa) = 16.21931 26.57207 21.39569
#
# Velocity S-wave (km/s) = 2.85373 3.65266 3.27763
# Velocity P-wave (km/s) = 4.82942 6.05886 5.47874
#
# Compressibility (1/GPa) = 0.04028111
#
# Stress axis : x y z
#
# Youngs Moduli (GPa) = 71.12435 44.73314 121.33700
#
# Poissons Ratio (x) = -0.06051 0.52416
# Poissons Ratio (y) = -0.09620 -0.09461
# Poissons Ratio (z) = 0.30725 -0.03488
#
# Static dielectric constant tensor:
#      x y z
#    x 1.659000 0.000000 0.000000 
#    y 0.000000 1.773680 0.000000 
#    z 0.000000 0.000000 1.726860 
# 
# From -- ./inp_files/21516.got.cif
#   From: 2010.05.17/outbox.cif.g08.bks.cpg/sg38_11_cif.got.tgz:21516.got - 2010.06.03 18:07:57.
