data_PCOD9356756
_publ_section_title
;
Structure prediction by ZEFSAII (Michael W. Deem and Ramdas Pophale) SiO2 
 PCOD9356756
Probable space group: A M M 2
;
_chemical_formula_sum "Si O2"
_cell_formula_units_Z 56
_cell_length_a 7.758405
_cell_length_b 19.525384
_cell_length_c 18.668595
_cell_angle_alpha 90.000000
_cell_angle_beta 90.000000
_cell_angle_gamma 90.000000
_cell_volume 2828.027736
_symmetry_space_group_name_H-M "A M M 2"
_symmetry_group_IT_number 38
_symmetry_cell_setting 'orthorhombic'
loop_
_space_group_symop_operation_xyz
x,y,z
-x,-y,z
-x,y,z
x,-y,z
x,1/2+y,1/2+z
-x,1/2-y,1/2+z
-x,1/2+y,1/2+z
x,1/2-y,1/2+z
loop_
_atom_site_type_symbol
_atom_site_label
_atom_site_fract_x
_atom_site_fract_y
_atom_site_fract_z
Si Si1 0.194095 0.651247 0.561750
Si Si2 0.801012 0.198067 0.210881
Si Si3 0.789099 0.422288 0.421210
Si Si4 0.790797 0.288406 0.335175
Si Si5 0.706241 0.076197 0.310838
Si Si6 0.202840 0.925772 0.478054
Si Si7 0.694170 0.276901 0.980362
O O1 0.280243 0.670005 0.637341
O O2 0.269638 0.601152 0.500904
O O3 0.186020 0.723954 0.521172
O O4 0.000000 0.625178 0.576906
O O5 0.729233 0.261517 0.257710
O O6 0.794490 0.134475 0.265002
O O7 0.000000 0.215849 0.193489
O O8 0.736195 0.500000 0.404944
O O9 0.736569 0.363201 0.364587
O O10 0.000000 0.420589 0.422513
O O11 0.730860 0.234884 0.396213
O O12 0.000000 0.286961 0.334062
O O13 0.500000 0.087557 0.311756
O O14 0.770225 0.075750 0.392402
O O15 0.739060 0.000000 0.281087
O O16 0.283562 0.855018 0.503731
O O17 0.000000 0.923307 0.493256
O O18 0.271032 0.000000 0.503109
O O19 0.500000 0.254660 0.994503
#
# Coordination Sequence:
#
# PCOD9356756 Si02
#       7
#     8   8   8   8   8   8   8
#     4   9  19  33  49  70  97 130 168 208 249 302
#     4  10  19  31  49  71  97 133 171 209 251 296
#     4   8  14  27  48  71  93 120 159 207 252 294
#     4   9  17  30  49  71  95 125 164 209 252 297
#     4  10  20  31  44  68 102 134 162 196 239 290
#     4  10  19  31  49  71  95 125 161 202 245 290
#     4  11  20  31  49  72  97 128 163 204 252 301
#
# _framework density 19.801786
#
# number of rings (size 3 to 8) (size 9 to 14) (size 15 to 20)
#    0.000    2.429    1.429    3.000    0.000    2.857 
#    0.000    1.429    0.000    7.714    0.000    4.000 
#    0.000    0.000    0.000    0.000    0.000    0.000 
#
# Total GULP energy -155969.700101 kJ/mol
# GULP energy per Si atom -5570.346432 kJ/mol
# Density = 1.975672 g / cm^3
# Si number density = 19.801786 Si / 1000 Ang^3
#
#
#
# Elastic Constant Matrix: (Units=GPa)
#
#
# Indices 1 2 3 4 5 6 
#
# 1 47.6106 2.7716 -2.4063 0.0000 0.0000 0.0000
# 2 2.7716 118.4858 7.3270 0.0000 0.0000 0.0000
# 3 -2.4063 7.3270 42.1384 0.0000 0.0000 0.0000
# 4 0.0000 0.0000 0.0000 15.8621 0.0000 0.0000
# 5 0.0000 0.0000 0.0000 0.0000 16.6849 0.0000
# 6 0.0000 0.0000 0.0000 0.0000 0.0000 0.4569
#
#
#
# Elastic Compliance Matrix: (Units=1/GPa)
#
#
# Indices 1 2 3 4 5 6 
#
# 1 0.021103 -0.000574 0.001305 0.000000 0.000000 0.000000
# 2 -0.000574 0.008547 -0.001519 0.000000 0.000000 0.000000
# 3 0.001305 -0.001519 0.024070 0.000000 0.000000 0.000000
# 4 0.000000 0.000000 0.000000 0.063043 0.000000 0.000000
# 5 0.000000 0.000000 0.000000 0.000000 0.059935 0.000000
# 6 0.000000 0.000000 0.000000 0.000000 0.000000 2.188503
#
#
# Mechanical properties :
#
#
# Convention : Reuss Voigt Hill
#
# Bulk Modulus (GPa) = 19.17784 24.84662 22.01223
# Shear Modulus (GPa) = 2.09718 19.97028 11.03373
#
# Velocity S-wave (km/s) = 1.03023 3.17915 2.36309
# Velocity P-wave (km/s) = 3.33483 5.10401 4.31115
#
# Compressibility (1/GPa) = 0.05214351
#
# Stress axis : x y z
#
# Youngs Moduli (GPa) = 47.38636 116.99747 41.54557
#
# Poissons Ratio (x) = 0.06720 -0.05421
# Poissons Ratio (y) = 0.02722 0.06311
# Poissons Ratio (z) = -0.06184 0.17772
#
# Static dielectric constant tensor:
#      x y z
#    x 1.709240 0.000000 0.000000 
#    y 0.000000 1.717670 0.000000 
#    z 0.000000 0.000000 1.709500 
# 
# From -- ./inp_files/17118.got.cif
#   From: 2010.05.17/outbox.cif.g08.bks.cpg/sg38_9_cif.got.tgz:17118.got - 2010.06.03 18:07:57.
