data_PCOD9356483
_publ_section_title
;
Structure prediction by ZEFSAII (Michael W. Deem and Ramdas Pophale) SiO2 
 PCOD9356483
Probable space group: A M M 2
;
_chemical_formula_sum "Si O2"
_cell_formula_units_Z 40
_cell_length_a 11.925558
_cell_length_b 7.870832
_cell_length_c 21.031929
_cell_angle_alpha 90.000000
_cell_angle_beta 90.000000
_cell_angle_gamma 90.000000
_cell_volume 1974.142320
_symmetry_space_group_name_H-M "A M M 2"
_symmetry_group_IT_number 38
_symmetry_cell_setting 'orthorhombic'
loop_
_space_group_symop_operation_xyz
x,y,z
-x,-y,z
-x,y,z
x,-y,z
x,1/2+y,1/2+z
-x,1/2-y,1/2+z
-x,1/2+y,1/2+z
x,1/2-y,1/2+z
loop_
_atom_site_type_symbol
_atom_site_label
_atom_site_fract_x
_atom_site_fract_y
_atom_site_fract_z
Si Si1 0.871363 0.202348 0.571460
Si Si2 0.741942 0.701754 0.444391
Si Si3 0.500000 0.204702 0.746989
Si Si4 0.738357 0.708144 0.195155
Si Si5 0.500000 0.798750 0.397121
Si Si6 0.872205 0.207631 0.820300
O O1 0.801948 0.229755 0.507073
O O2 0.797893 0.268570 0.630769
O O3 0.000000 0.269204 0.568379
O O4 0.881026 0.000000 0.581015
O O5 0.756755 0.500000 0.446312
O O6 0.611221 0.738066 0.433502
O O7 0.804324 0.768346 0.381424
O O8 0.612365 0.265661 0.711606
O O9 0.500000 0.243204 0.822692
O O10 0.500000 0.000000 0.743353
O O11 0.735181 0.500000 0.193068
O O12 0.813684 0.758773 0.255176
O O13 0.500000 0.000000 0.397118
O O14 0.000000 0.263066 0.823219
O O15 0.870668 0.000000 0.821113
#
# Coordination Sequence:
#
# PCOD9356483 Si02
#       6
#     8   8   4   8   4   8
#     4  10  21  37  57  86 125 162 198 245 297 347
#     4  11  22  38  60  85 116 155 200 246 295 351
#     4  10  18  35  60  87 115 151 201 249 290 344
#     4   9  17  31  55  84 116 155 199 243 287 340
#     4  12  24  39  60  87 119 151 191 245 310 364
#     4   9  16  28  52  84 111 143 195 246 282 330
#
# _framework density 20.261962
#
# number of rings (size 3 to 8) (size 9 to 14) (size 15 to 20)
#    0.000    2.000    2.000    2.700    0.000    4.400 
#    0.000    3.000    0.000    0.000    0.000    0.000 
#    0.000    0.000    0.000    0.000    0.000    0.000 
#
# Total GULP energy -111675.202426 kJ/mol
# GULP energy per Si atom -5583.760121 kJ/mol
# Density = 2.021585 g / cm^3
# Si number density = 20.261962 Si / 1000 Ang^3
#
#
#
# Elastic Constant Matrix: (Units=GPa)
#
#
# Indices 1 2 3 4 5 6 
#
# 1 197.6203 -6.6364 100.4082 0.0000 0.0000 0.0000
# 2 -6.6364 21.1475 -3.2969 0.0000 0.0000 0.0000
# 3 100.4082 -3.2969 180.9679 0.0000 0.0000 0.0000
# 4 0.0000 0.0000 0.0000 22.8754 0.0000 0.0000
# 5 0.0000 0.0000 0.0000 0.0000 31.0973 0.0000
# 6 0.0000 0.0000 0.0000 0.0000 0.0000 7.5254
#
#
#
# Elastic Compliance Matrix: (Units=1/GPa)
#
#
# Indices 1 2 3 4 5 6 
#
# 1 0.007102 0.001619 -0.003911 0.000000 0.000000 0.000000
# 2 0.001619 0.047791 -0.000028 0.000000 0.000000 0.000000
# 3 -0.003911 -0.000028 0.007695 0.000000 0.000000 0.000000
# 4 0.000000 0.000000 0.000000 0.043715 0.000000 0.000000
# 5 0.000000 0.000000 0.000000 0.000000 0.032157 0.000000
# 6 0.000000 0.000000 0.000000 0.000000 0.000000 0.132884
#
#
# Mechanical properties :
#
#
# Convention : Reuss Voigt Hill
#
# Bulk Modulus (GPa) = 17.25664 64.52058 40.88861
# Shear Modulus (GPa) = 16.93201 32.91700 24.92451
#
# Velocity S-wave (km/s) = 2.89391 4.03497 3.51110
# Velocity P-wave (km/s) = 4.43864 7.32259 6.05483
#
# Compressibility (1/GPa) = 0.05794870
#
# Stress axis : x y z
#
# Youngs Moduli (GPa) = 140.81393 20.92455 129.95154
#
# Poissons Ratio (x) = -0.03387 0.50821
# Poissons Ratio (y) = -0.22796 0.00358
# Poissons Ratio (z) = 0.55069 0.00058
#
# Static dielectric constant tensor:
#      x y z
#    x 1.713950 0.000000 0.000000 
#    y 0.000000 1.751070 0.000000 
#    z 0.000000 0.000000 1.692800 
# 
# From -- ./inp_files/20465.got.cif
#   From: 2010.05.17/outbox.cif.g08.bks.cpg/sg38_11_cif.got.tgz:20465.got - 2010.06.03 18:07:57.
