data_PCOD9356605
_publ_section_title
;
Structure prediction by ZEFSAII (Michael W. Deem and Ramdas Pophale) SiO2 
 PCOD9356605
Probable space group: A M M 2
;
_chemical_formula_sum "Si O2"
_cell_formula_units_Z 48
_cell_length_a 7.499638
_cell_length_b 18.641362
_cell_length_c 13.656312
_cell_angle_alpha 90.000000
_cell_angle_beta 90.000000
_cell_angle_gamma 90.000000
_cell_volume 1909.199762
_symmetry_space_group_name_H-M "A M M 2"
_symmetry_group_IT_number 38
_symmetry_cell_setting 'orthorhombic'
loop_
_space_group_symop_operation_xyz
x,y,z
-x,-y,z
-x,y,z
x,-y,z
x,1/2+y,1/2+z
-x,1/2-y,1/2+z
-x,1/2+y,1/2+z
x,1/2-y,1/2+z
loop_
_atom_site_type_symbol
_atom_site_label
_atom_site_fract_x
_atom_site_fract_y
_atom_site_fract_z
Si Si1 0.281769 0.233175 0.257130
Si Si2 0.203238 0.270535 0.037158
Si Si3 0.287681 0.386447 0.310900
Si Si4 0.788826 0.383240 0.519643
Si Si5 0.789081 0.922351 0.586664
Si Si6 0.707932 0.577102 0.740160
O O1 0.500000 0.232326 0.251747
O O2 0.202335 0.252652 0.152313
O O3 0.225872 0.303321 0.315642
O O4 0.221735 0.152652 0.282613
O O5 0.294315 0.196498 0.005301
O O6 0.285374 0.350322 0.035007
O O7 0.000000 0.274067 0.999513
O O8 0.500000 0.389044 0.305490
O O9 0.235203 0.420341 0.414643
O O10 0.226712 0.415765 0.205330
O O11 0.717502 0.415696 0.620981
O O12 0.000000 0.376499 0.536393
O O13 0.000000 0.921709 0.565963
O O14 0.715340 0.000000 0.557067
O O15 0.500000 0.575176 0.766530
O O16 0.788466 0.500000 0.767791
#
# Coordination Sequence:
#
# PCOD9356605 Si02
#       6
#     8   8   8   8   8   8
#     4   8  15  28  45  64  84 110 145 180 213 251
#     4   8  15  28  45  64  84 110 145 180 213 251
#     4  10  19  30  45  65  90 118 147 179 214 255
#     4  10  19  30  45  65  90 118 147 179 214 255
#     4   9  17  30  48  68  89 113 142 178 220 263
#     4   9  17  30  48  68  89 113 142 178 220 263
#
# _framework density 25.141421999999999
#
# number of rings (size 3 to 8) (size 9 to 14) (size 15 to 20)
#    0.000    3.000    0.000    1.000    0.000    2.667 
#    0.000    0.000    0.000    1.000    0.000    0.000 
#    0.000    0.000    0.000    0.000    0.000    1.667 
#
# Total GULP energy -133698.093577 kJ/mol
# GULP energy per Si atom -5570.753899 kJ/mol
# Density = 2.508420 g / cm^3
# Si number density = 25.141422 Si / 1000 Ang^3
#
#
#
# Elastic Constant Matrix: (Units=GPa)
#
#
# Indices 1 2 3 4 5 6 
#
# 1 86.3163 14.5710 -14.5607 0.0000 0.0000 0.0000
# 2 14.5710 217.4281 -16.5002 0.0000 0.0000 0.0000
# 3 -14.5607 -16.5002 43.3532 0.0000 0.0000 0.0000
# 4 0.0000 0.0000 0.0000 -11.9532 0.0000 0.0000
# 5 0.0000 0.0000 0.0000 0.0000 7.6209 0.0000
# 6 0.0000 0.0000 0.0000 0.0000 0.0000 4.5108
#
#
#
# Elastic Compliance Matrix: (Units=1/GPa)
#
#
# Indices 1 2 3 4 5 6 
#
# 1 0.012340 -0.000528 0.003944 0.000000 0.000000 0.000000
# 2 -0.000528 0.004759 0.001634 0.000000 0.000000 0.000000
# 3 0.003944 0.001634 0.025013 0.000000 0.000000 0.000000
# 4 0.000000 0.000000 0.000000 -0.083659 0.000000 0.000000
# 5 0.000000 0.000000 0.000000 0.000000 0.131218 0.000000
# 6 0.000000 0.000000 0.000000 0.000000 0.000000 0.221689
#
#
# Mechanical properties :
#
#
# Convention : Reuss Voigt Hill
#
# Bulk Modulus (GPa) = 19.15327 34.90200 27.02764
# Shear Modulus (GPa) = 15.69057 24.27486 19.98271
#
# Velocity S-wave (km/s) = 2.50089 3.11067 2.82230
# Velocity P-wave (km/s) = 3.99675 5.17824 4.62537
#
# Compressibility (1/GPa) = 0.05221040
#
# Stress axis : x y z
#
# Youngs Moduli (GPa) = 81.03979 210.14693 39.97974
#
# Poissons Ratio (x) = 0.11089 -0.15766
# Poissons Ratio (y) = 0.04276 -0.06532
# Poissons Ratio (z) = -0.31959 -0.34336
#
# Static dielectric constant tensor:
#      x y z
#    x 1.927450 0.000000 0.000000 
#    y 0.000000 2.097730 0.000000 
#    z 0.000000 0.000000 2.006780 
# 
# From -- ./inp_files/12237.got.cif
#   From: 2010.05.17/outbox.cif.g08.bks.cpg/sg38_7_cif.got.tgz:12237.got - 2010.06.03 18:07:57.
