data_PCOD9356784
_publ_section_title
;
Structure prediction by ZEFSAII (Michael W. Deem and Ramdas Pophale) SiO2 
 PCOD9356784
Probable space group: A M M 2
;
_chemical_formula_sum "Si O2"
_cell_formula_units_Z 64
_cell_length_a 9.510361
_cell_length_b 17.580989
_cell_length_c 21.133957
_cell_angle_alpha 90.000000
_cell_angle_beta 90.000000
_cell_angle_gamma 90.000000
_cell_volume 3533.630413
_symmetry_space_group_name_H-M "A M M 2"
_symmetry_group_IT_number 38
_symmetry_cell_setting 'orthorhombic'
loop_
_space_group_symop_operation_xyz
x,y,z
-x,-y,z
-x,y,z
x,-y,z
x,1/2+y,1/2+z
-x,1/2-y,1/2+z
-x,1/2+y,1/2+z
x,1/2-y,1/2+z
loop_
_atom_site_type_symbol
_atom_site_label
_atom_site_fract_x
_atom_site_fract_y
_atom_site_fract_z
Si Si1 0.662179 0.809862 0.803580
Si Si2 0.661949 0.875617 0.303016
Si Si3 0.329399 0.806715 0.942299
Si Si4 0.834967 0.809823 0.681154
Si Si5 0.834510 0.585206 0.066971
Si Si6 0.664814 0.413219 0.556304
Si Si7 0.330956 0.128350 0.444864
Si Si8 0.164801 0.626590 0.680162
O O1 0.500000 0.833696 0.796583
O O2 0.662213 0.717126 0.804750
O O3 0.717726 0.833693 0.872702
O O4 0.751849 0.834391 0.743610
O O5 0.500000 0.899137 0.291799
O O6 0.705096 0.899380 0.373912
O O7 0.761561 0.898583 0.245503
O O8 0.500000 0.810552 0.940481
O O9 0.293867 0.718062 0.949567
O O10 0.282963 0.856659 0.001548
O O11 0.785082 0.852932 0.618193
O O12 0.821188 0.718632 0.675491
O O13 0.000000 0.827112 0.688569
O O14 0.821512 0.500000 0.093792
O O15 0.000000 0.599048 0.053854
O O16 0.748491 0.589631 0.002261
O O17 0.500000 0.395637 0.569896
O O18 0.671300 0.500000 0.533273
O O19 0.753862 0.405611 0.619897
O O20 0.500000 0.121104 0.450880
O O21 0.000000 0.607622 0.679713
#
# Coordination Sequence:
#
# PCOD9356784 Si02
#       8
#     8   8   8   8   8   8   8   8
#     4   8  14  27  49  74  97 121 152 193 237 279
#     4   8  15  29  49  73  98 122 151 190 238 288
#     4   8  15  30  51  74  98 123 154 193 238 283
#     4   9  18  32  49  71  97 125 159 195 234 281
#     4  10  21  35  48  65  96 134 163 191 233 283
#     4  10  20  33  49  69  96 131 164 192 229 281
#     4   9  17  31  53  76  95 119 155 199 239 277
#     4  10  19  31  50  74  97 122 156 200 240 274
#
# _framework density 18.111684
#
# number of rings (size 3 to 8) (size 9 to 14) (size 15 to 20)
#    0.000    3.000    0.000    2.625    0.000    2.000 
#    0.000    3.750    0.000    1.500    0.000    0.000 
#    0.000    0.000    0.000    0.000    0.000    0.000 
#
# Total GULP energy -178366.675029 kJ/mol
# GULP energy per Si atom -5573.958595 kJ/mol
# Density = 1.807046 g / cm^3
# Si number density = 18.111684 Si / 1000 Ang^3
#
#
#
# Elastic Constant Matrix: (Units=GPa)
#
#
# Indices 1 2 3 4 5 6 
#
# 1 40.4365 20.2569 42.0354 0.0000 0.0000 0.0000
# 2 20.2569 34.8575 32.8908 0.0000 0.0000 0.0000
# 3 42.0354 32.8908 119.0902 0.0000 0.0000 0.0000
# 4 0.0000 0.0000 0.0000 -15.7646 0.0000 0.0000
# 5 0.0000 0.0000 0.0000 0.0000 9.9965 0.0000
# 6 0.0000 0.0000 0.0000 0.0000 0.0000 11.1764
#
#
#
# Elastic Compliance Matrix: (Units=1/GPa)
#
#
# Indices 1 2 3 4 5 6 
#
# 1 0.044057 -0.014782 -0.011468 0.000000 0.000000 0.000000
# 2 -0.014782 0.043759 -0.006868 0.000000 0.000000 0.000000
# 3 -0.011468 -0.006868 0.014342 0.000000 0.000000 0.000000
# 4 0.000000 0.000000 0.000000 -0.063433 0.000000 0.000000
# 5 0.000000 0.000000 0.000000 0.000000 0.100036 0.000000
# 6 0.000000 0.000000 0.000000 0.000000 0.000000 0.089474
#
#
# Mechanical properties :
#
#
# Convention : Reuss Voigt Hill
#
# Bulk Modulus (GPa) = 27.83847 42.75004 35.29426
# Shear Modulus (GPa) = 16.31619 7.69506 12.00562
#
# Velocity S-wave (km/s) = 3.00470 2.06347 2.57741
# Velocity P-wave (km/s) = 5.23846 5.41590 5.32792
#
# Compressibility (1/GPa) = 0.03592151
#
# Stress axis : x y z
#
# Youngs Moduli (GPa) = 22.69791 22.85252 69.72621
#
# Poissons Ratio (x) = 0.33780 0.79964
# Poissons Ratio (y) = 0.33551 0.47888
# Poissons Ratio (z) = 0.26031 0.15695
#
# Static dielectric constant tensor:
#      x y z
#    x 1.600680 0.000000 0.000000 
#    y 0.000000 1.627650 0.000000 
#    z 0.000000 0.000000 1.616650 
# 
# From -- ./inp_files/20037.got.cif
#   From: 2010.05.17/outbox.cif.g08.bks.cpg/sg38_11_cif.got.tgz:20037.got - 2010.06.03 18:07:57.
