data_PCOD9356315
_publ_section_title
;
Structure prediction by ZEFSAII (Michael W. Deem and Ramdas Pophale) SiO2 
 PCOD9356315
Probable space group: A M M 2
;
_chemical_formula_sum "Si O2"
_cell_formula_units_Z 58
_cell_length_a 15.011799
_cell_length_b 10.212044
_cell_length_c 20.468404
_cell_angle_alpha 90.000000
_cell_angle_beta 90.000000
_cell_angle_gamma 90.000000
_cell_volume 3137.829911
_symmetry_space_group_name_H-M "A M M 2"
_symmetry_group_IT_number 38
_symmetry_cell_setting 'orthorhombic'
loop_
_space_group_symop_operation_xyz
x,y,z
-x,-y,z
-x,y,z
x,-y,z
x,1/2+y,1/2+z
-x,1/2-y,1/2+z
-x,1/2+y,1/2+z
x,1/2-y,1/2+z
loop_
_atom_site_type_symbol
_atom_site_label
_atom_site_fract_x
_atom_site_fract_y
_atom_site_fract_z
Si Si1 0.402915 0.157466 0.546190
Si Si2 0.156353 0.283490 0.868904
Si Si3 0.403304 0.347526 0.281667
Si Si4 0.791961 0.158007 0.588388
Si Si5 0.106471 0.353972 0.494259
Si Si6 0.000000 0.000000 0.377375
Si Si7 0.640571 0.149672 0.395435
Si Si8 0.208095 0.154562 0.735474
O O1 0.500000 0.209453 0.566907
O O2 0.311684 0.198774 0.580721
O O3 0.389405 0.181601 0.468865
O O4 0.405631 0.000000 0.554588
O O5 0.078151 0.386821 0.876750
O O6 0.252442 0.340554 0.889669
O O7 0.164994 0.234569 0.794440
O O8 0.136127 0.167158 0.919562
O O9 0.500000 0.329783 0.248960
O O10 0.398209 0.500000 0.302538
O O11 0.396890 0.252005 0.343402
O O12 0.315183 0.323997 0.239237
O O13 0.848613 0.240284 0.536950
O O14 0.822547 0.185769 0.662348
O O15 0.798169 0.000000 0.576989
O O16 0.132512 0.500000 0.516497
O O17 0.000000 0.342609 0.498413
O O18 0.613547 0.000000 0.381191
O O19 0.192960 0.000000 0.746443
#
# Coordination Sequence:
#
# PCOD9356315 Si02
#       8
#     8   8   8   8   8   2   8   8
#     4   9  17  29  51  84 117 148 188 240 292 339
#     4  11  21  38  61  87 116 146 196 243 298 356
#     4   9  18  32  52  80 114 151 194 239 284 341
#     4  10  21  39  62  85 119 157 201 246 289 347
#     4  11  24  41  62  89 117 153 191 243 301 355
#     4  12  24  36  62 100 114 148 194 262 304 348
#     4  10  18  31  53  80 115 150 187 236 290 345
#     4   9  20  39  59  83 115 159 196 239 295 352
#
# _framework density 18.484113000000001
#
# number of rings (size 3 to 8) (size 9 to 14) (size 15 to 20)
#    0.000    2.069    2.759    0.828    0.966    2.207 
#    2.483    2.759    0.000    0.414    0.000    0.000 
#    0.000    0.000    0.000    0.000    0.000    0.000 
#
# Total GULP energy -161450.320532 kJ/mol
# GULP energy per Si atom -5567.252432 kJ/mol
# Density = 1.844204 g / cm^3
# Si number density = 18.484113 Si / 1000 Ang^3
#
#
#
# Elastic Constant Matrix: (Units=GPa)
#
#
# Indices 1 2 3 4 5 6 
#
# 1 90.0834 23.3054 13.9074 0.0000 0.0000 0.0000
# 2 23.3054 60.0233 34.9538 0.0000 0.0000 0.0000
# 3 13.9074 34.9538 71.5988 0.0000 0.0000 0.0000
# 4 0.0000 0.0000 0.0000 11.4300 0.0000 0.0000
# 5 0.0000 0.0000 0.0000 0.0000 -1.6836 0.0000
# 6 0.0000 0.0000 0.0000 0.0000 0.0000 17.0257
#
#
#
# Elastic Compliance Matrix: (Units=1/GPa)
#
#
# Indices 1 2 3 4 5 6 
#
# 1 0.012341 -0.004745 -0.000081 0.000000 0.000000 0.000000
# 2 -0.004745 0.025102 -0.011333 0.000000 0.000000 0.000000
# 3 -0.000081 -0.011333 0.019515 0.000000 0.000000 0.000000
# 4 0.000000 0.000000 0.000000 0.087489 0.000000 0.000000
# 5 0.000000 0.000000 0.000000 0.000000 -0.593971 0.000000
# 6 0.000000 0.000000 0.000000 0.000000 0.000000 0.058735
#
#
# Mechanical properties :
#
#
# Convention : Reuss Voigt Hill
#
# Bulk Modulus (GPa) = 40.58252 40.67098 40.62675
# Shear Modulus (GPa) = -14.27513 15.32368 0.52428
#
# Velocity S-wave (km/s) = -2.78203 2.88239 0.53315
# Velocity P-wave (km/s) = 3.41810 5.75574 4.73350
#
# Compressibility (1/GPa) = 0.02464115
#
# Stress axis : x y z
#
# Youngs Moduli (GPa) = 81.03233 39.83752 51.24252
#
# Poissons Ratio (x) = 0.18901 0.00414
# Poissons Ratio (y) = 0.38446 0.58073
# Poissons Ratio (z) = 0.00655 0.45148
#
# Static dielectric constant tensor:
#      x y z
#    x 1.662470 0.000000 0.000000 
#    y 0.000000 1.623650 0.000000 
#    z 0.000000 0.000000 1.627730 
# 
# From -- ./inp_files/22809.got.cif
#   From: 2010.05.17/outbox.cif.g08.bks.cpg/sg38_12_cif.got.tgz:22809.got - 2010.06.03 18:07:57.
