data_PCOD9356640
_publ_section_title
;
Structure prediction by ZEFSAII (Michael W. Deem and Ramdas Pophale) SiO2 
 PCOD9356640
Probable space group: A M M 2
;
_chemical_formula_sum "Si O2"
_cell_formula_units_Z 64
_cell_length_a 8.785823
_cell_length_b 23.947511
_cell_length_c 19.708248
_cell_angle_alpha 90.000000
_cell_angle_beta 90.000000
_cell_angle_gamma 90.000000
_cell_volume 4146.587648
_symmetry_space_group_name_H-M "A M M 2"
_symmetry_group_IT_number 38
_symmetry_cell_setting 'orthorhombic'
loop_
_space_group_symop_operation_xyz
x,y,z
-x,-y,z
-x,y,z
x,-y,z
x,1/2+y,1/2+z
-x,1/2-y,1/2+z
-x,1/2+y,1/2+z
x,1/2-y,1/2+z
loop_
_atom_site_type_symbol
_atom_site_label
_atom_site_fract_x
_atom_site_fract_y
_atom_site_fract_z
Si Si1 0.317440 0.337450 0.028950
Si Si2 0.816373 0.564766 0.112769
Si Si3 0.816976 0.751779 0.756173
Si Si4 0.683881 0.436179 0.392641
Si Si5 0.317717 0.225639 0.396658
Si Si6 0.316595 0.165576 0.984580
Si Si7 0.183790 0.118080 0.757344
Si Si8 0.817302 0.230363 0.105395
O O1 0.500000 0.334923 0.033864
O O2 0.256356 0.395918 0.055986
O O3 0.247961 0.288404 0.075702
O O4 0.274575 0.321318 0.951740
O O5 0.773253 0.500000 0.107149
O O6 0.771858 0.589033 0.186598
O O7 0.000000 0.568730 0.108354
O O8 0.754282 0.722147 0.822894
O O9 0.768433 0.816993 0.757411
O O10 0.770330 0.725978 0.683955
O O11 0.000000 0.751329 0.758645
O O12 0.500000 0.434633 0.389314
O O13 0.731665 0.500000 0.404326
O O14 0.730213 0.392981 0.451624
O O15 0.747766 0.413604 0.321609
O O16 0.500000 0.225466 0.389996
O O17 0.274578 0.284821 0.431816
O O18 0.500000 0.166936 0.991545
O O19 0.243538 0.182146 0.056029
O O20 0.000000 0.116306 0.761649
O O21 0.000000 0.232748 0.102246
#
# Coordination Sequence:
#
# PCOD9356640 Si02
#       8
#     8   8   8   8   8   8   8   8
#     4  10  20  33  48  69  95 124 159 199 239 278
#     4  10  20  34  50  68  95 131 166 199 234 274
#     4  10  19  30  47  71  95 123 157 191 234 282
#     4  10  20  33  48  67  95 130 165 199 234 275
#     4   9  18  31  47  67  93 123 154 193 238 280
#     4   9  18  32  46  67  94 122 158 197 235 277
#     4  10  19  32  46  66  97 130 164 197 229 271
#     4  10  19  32  49  69  94 123 157 195 239 287
#
# _framework density 15.434378000000001
#
# number of rings (size 3 to 8) (size 9 to 14) (size 15 to 20)
#    0.000    2.250    2.500    1.875    0.000    5.500 
#    0.000    0.000    0.000    0.000    0.000    0.875 
#    0.000    3.000    0.000    0.000    0.000    0.000 
#
# Total GULP energy -178471.529274 kJ/mol
# GULP energy per Si atom -5577.235290 kJ/mol
# Density = 1.539925 g / cm^3
# Si number density = 15.434378 Si / 1000 Ang^3
#
#
#
# Elastic Constant Matrix: (Units=GPa)
#
#
# Indices 1 2 3 4 5 6 
#
# 1 15.9470 25.3370 36.1326 0.0000 0.0000 0.0000
# 2 25.3370 98.1354 75.9470 0.0000 0.0000 0.0000
# 3 36.1326 75.9470 158.1286 0.0000 0.0000 0.0000
# 4 0.0000 0.0000 0.0000 20.5753 0.0000 0.0000
# 5 0.0000 0.0000 0.0000 0.0000 30.5998 0.0000
# 6 0.0000 0.0000 0.0000 0.0000 0.0000 19.9213
#
#
#
# Elastic Compliance Matrix: (Units=1/GPa)
#
#
# Indices 1 2 3 4 5 6 
#
# 1 0.150215 -0.019448 -0.024984 0.000000 0.000000 0.000000
# 2 -0.019448 0.018736 -0.004555 0.000000 0.000000 0.000000
# 3 -0.024984 -0.004555 0.014220 0.000000 0.000000 0.000000
# 4 0.000000 0.000000 0.000000 0.048602 0.000000 0.000000
# 5 0.000000 0.000000 0.000000 0.000000 0.032680 0.000000
# 6 0.000000 0.000000 0.000000 0.000000 0.000000 0.050198
#
#
# Mechanical properties :
#
#
# Convention : Reuss Voigt Hill
#
# Bulk Modulus (GPa) = 11.73733 60.78268 36.26000
# Shear Modulus (GPa) = 11.33726 23.20557 17.27141
#
# Velocity S-wave (km/s) = 2.71319 3.88170 3.34881
# Velocity P-wave (km/s) = 4.17569 7.71732 6.20457
#
# Compressibility (1/GPa) = 0.08519827
#
# Stress axis : x y z
#
# Youngs Moduli (GPa) = 6.65712 53.37266 70.32181
#
# Poissons Ratio (x) = 1.03801 1.75689
# Poissons Ratio (y) = 0.12947 0.32030
# Poissons Ratio (z) = 0.16632 0.24310
#
# Static dielectric constant tensor:
#      x y z
#    x 1.521890 0.000000 0.000000 
#    y 0.000000 1.502830 0.000000 
#    z 0.000000 0.000000 1.507080 
# 
# From -- ./inp_files/17273.got.cif
#   From: 2010.05.17/outbox.cif.g08.bks.cpg/sg38_9_cif.got.tgz:17273.got - 2010.06.03 18:07:57.
