data_PCOD9356593
_publ_section_title
;
Structure prediction by ZEFSAII (Michael W. Deem and Ramdas Pophale) SiO2 
 PCOD9356593
Probable space group: A M M 2
;
_chemical_formula_sum "Si O2"
_cell_formula_units_Z 64
_cell_length_a 14.442602
_cell_length_b 26.343597
_cell_length_c 9.619402
_cell_angle_alpha 90.000000
_cell_angle_beta 90.000000
_cell_angle_gamma 90.000000
_cell_volume 3659.894713
_symmetry_space_group_name_H-M "A M M 2"
_symmetry_group_IT_number 38
_symmetry_cell_setting 'orthorhombic'
loop_
_space_group_symop_operation_xyz
x,y,z
-x,-y,z
-x,y,z
x,-y,z
x,1/2+y,1/2+z
-x,1/2-y,1/2+z
-x,1/2+y,1/2+z
x,1/2-y,1/2+z
loop_
_atom_site_type_symbol
_atom_site_label
_atom_site_fract_x
_atom_site_fract_y
_atom_site_fract_z
Si Si1 0.389676 0.059728 0.264510
Si Si2 0.712147 0.218153 0.270557
Si Si3 0.103098 0.139517 0.926791
Si Si4 0.895294 0.355716 0.093424
Si Si5 0.703930 0.632620 0.542599
Si Si6 0.303699 0.870352 0.489784
Si Si7 0.101432 0.757211 0.417896
Si Si8 0.389519 0.673716 0.266510
O O1 0.500000 0.067756 0.263523
O O2 0.344618 0.090656 0.137483
O O3 0.347838 0.083687 0.404916
O O4 0.371123 0.000000 0.254622
O O5 0.707576 0.184594 0.132244
O O6 0.682423 0.179744 0.393727
O O7 0.816433 0.232743 0.311429
O O8 0.653229 0.269449 0.261899
O O9 0.114410 0.138405 0.759099
O O10 0.105623 0.199190 0.964258
O O11 0.000000 0.119775 0.960619
O O12 0.191938 0.116242 0.001201
O O13 0.805992 0.379113 0.017356
O O14 0.000000 0.373360 0.055905
O O15 0.890419 0.296976 0.044155
O O16 0.648106 0.646165 0.404096
O O17 0.351766 0.857372 0.634745
O O18 0.000000 0.765343 0.352946
O O19 0.500000 0.676380 0.265865
#
# Coordination Sequence:
#
# PCOD9356593 Si02
#       8
#     8   8   8   8   8   8   8   8
#     4  10  23  45  67  83 103 138 186 243 302 343
#     4  10  21  32  49  77 117 158 188 217 267 328
#     4  10  19  29  49  78 114 153 186 224 270 321
#     4   9  17  31  51  78 114 151 185 224 270 321
#     4  11  22  36  56  82 115 149 187 232 285 335
#     4  10  20  37  59  82 110 146 190 231 274 331
#     4   9  17  28  45  71 108 155 199 228 254 303
#     4  12  23  34  51  78 114 151 190 229 270 330
#
# _framework density 17.486840999999998
#
# number of rings (size 3 to 8) (size 9 to 14) (size 15 to 20)
#    0.000    1.875    2.500    1.500    3.500    4.500 
#    0.000    2.500    0.000    3.750    0.000    1.750 
#    0.000    0.000    0.000    0.000    0.000    0.000 
#
# Total GULP energy -178586.654596 kJ/mol
# GULP energy per Si atom -5580.832956 kJ/mol
# Density = 1.744704 g / cm^3
# Si number density = 17.486841 Si / 1000 Ang^3
#
#
#
# Elastic Constant Matrix: (Units=GPa)
#
#
# Indices 1 2 3 4 5 6 
#
# 1 155.4171 63.8928 71.4684 0.0000 0.0000 0.0000
# 2 63.8928 70.3464 39.8128 0.0000 0.0000 0.0000
# 3 71.4684 39.8128 117.0838 0.0000 0.0000 0.0000
# 4 0.0000 0.0000 0.0000 4.8628 0.0000 0.0000
# 5 0.0000 0.0000 0.0000 0.0000 23.5120 0.0000
# 6 0.0000 0.0000 0.0000 0.0000 0.0000 8.8883
#
#
#
# Elastic Compliance Matrix: (Units=1/GPa)
#
#
# Indices 1 2 3 4 5 6 
#
# 1 0.011876 -0.008277 -0.004435 0.000000 0.000000 0.000000
# 2 -0.008277 0.023371 -0.002895 0.000000 0.000000 0.000000
# 3 -0.004435 -0.002895 0.012232 0.000000 0.000000 0.000000
# 4 0.000000 0.000000 0.000000 0.205643 0.000000 0.000000
# 5 0.000000 0.000000 0.000000 0.000000 0.042531 0.000000
# 6 0.000000 0.000000 0.000000 0.000000 0.000000 0.112508
#
#
# Mechanical properties :
#
#
# Convention : Reuss Voigt Hill
#
# Bulk Modulus (GPa) = 61.47543 77.02169 69.24856
# Shear Modulus (GPa) = 11.24107 18.63084 14.93596
#
# Velocity S-wave (km/s) = 2.53816 3.26762 2.92571
# Velocity P-wave (km/s) = 6.61976 7.64052 7.14839
#
# Compressibility (1/GPa) = 0.01626666
#
# Stress axis : x y z
#
# Youngs Moduli (GPa) = 84.20094 42.78759 81.75040
#
# Poissons Ratio (x) = 0.35415 0.36256
# Poissons Ratio (y) = 0.69692 0.23666
# Poissons Ratio (z) = 0.37343 0.12386
#
# Static dielectric constant tensor:
#      x y z
#    x 1.626630 0.000000 0.000000 
#    y 0.000000 1.553150 0.000000 
#    z 0.000000 0.000000 1.607310 
# 
# From -- ./inp_files/5904.got.cif
#   From: 2010.05.17/outbox.cif.g08.bks.cpg/sg38_3_cif.got.tgz:5904.got - 2010.06.03 18:07:57.
