data_PCOD9356825
_publ_section_title
;
Structure prediction by ZEFSAII (Michael W. Deem and Ramdas Pophale) SiO2 
 PCOD9356825
Probable space group: A M M 2
;
_chemical_formula_sum "Si O2"
_cell_formula_units_Z 64
_cell_length_a 9.372557
_cell_length_b 28.796767
_cell_length_c 13.005990
_cell_angle_alpha 90.000000
_cell_angle_beta 90.000000
_cell_angle_gamma 90.000000
_cell_volume 3510.308119
_symmetry_space_group_name_H-M "A M M 2"
_symmetry_group_IT_number 38
_symmetry_cell_setting 'orthorhombic'
loop_
_space_group_symop_operation_xyz
x,y,z
-x,-y,z
-x,y,z
x,-y,z
x,1/2+y,1/2+z
-x,1/2-y,1/2+z
-x,1/2+y,1/2+z
x,1/2-y,1/2+z
loop_
_atom_site_type_symbol
_atom_site_label
_atom_site_fract_x
_atom_site_fract_y
_atom_site_fract_z
Si Si1 0.337291 0.927436 0.456430
Si Si2 0.826918 0.116770 0.070720
Si Si3 0.829439 0.203958 0.192480
Si Si4 0.830861 0.197946 0.599086
Si Si5 0.828945 0.907853 0.657427
Si Si6 0.662567 0.818468 0.398956
Si Si7 0.173848 0.553543 0.381436
Si Si8 0.835081 0.948387 0.256461
O O1 0.500000 0.943598 0.465142
O O2 0.252436 0.931970 0.562985
O O3 0.339694 0.872745 0.428627
O O4 0.254735 0.948543 0.360064
O O5 0.789319 0.169976 0.097124
O O6 0.782484 0.087494 0.171269
O O7 0.000000 0.114851 0.066427
O O8 0.776287 0.089879 0.968933
O O9 0.800726 0.257762 0.169612
O O10 0.746815 0.188474 0.293723
O O11 0.000000 0.198426 0.208494
O O12 0.798580 0.147626 0.648972
O O13 0.744941 0.204284 0.493970
O O14 0.000000 0.197861 0.576064
O O15 0.786955 0.928599 0.767700
O O16 0.000000 0.913730 0.645046
O O17 0.500000 0.802106 0.389648
O O18 0.219421 0.500000 0.398749
O O19 0.000000 0.553372 0.384725
O O20 0.000000 0.936704 0.281848
O O21 0.833681 0.000000 0.210096
#
# Coordination Sequence:
#
# PCOD9356825 Si02
#       8
#     8   8   8   8   8   8   8   8
#     4  10  20  34  52  74 102 138 175 216 267 318
#     4   9  17  30  50  77 107 135 168 215 266 317
#     4  10  19  32  54  80 105 137 176 221 271 322
#     4   9  19  33  51  77 105 138 177 221 271 320
#     4   9  18  33  53  76 105 137 174 220 265 315
#     4  10  20  34  52  73 103 141 175 216 269 323
#     4   9  17  30  50  76 105 136 172 217 267 317
#     4  10  19  31  51  78 105 134 170 214 265 319
#
# _framework density 18.232018
#
# number of rings (size 3 to 8) (size 9 to 14) (size 15 to 20)
#    0.000    2.500    1.250    1.125    0.000    4.750 
#    0.000    5.000    0.000    1.500    0.000    0.000 
#    0.000    0.000    0.000    0.000    0.000    0.000 
#
# Total GULP energy -178365.890662 kJ/mol
# GULP energy per Si atom -5573.934083 kJ/mol
# Density = 1.819052 g / cm^3
# Si number density = 18.232018 Si / 1000 Ang^3
#
#
#
# Elastic Constant Matrix: (Units=GPa)
#
#
# Indices 1 2 3 4 5 6 
#
# 1 27.3587 15.7987 29.0685 0.0000 0.0000 0.0000
# 2 15.7987 44.9602 15.7236 0.0000 0.0000 0.0000
# 3 29.0685 15.7236 94.4622 0.0000 0.0000 0.0000
# 4 0.0000 0.0000 0.0000 22.2294 0.0000 0.0000
# 5 0.0000 0.0000 0.0000 0.0000 -4.0995 0.0000
# 6 0.0000 0.0000 0.0000 0.0000 0.0000 8.0144
#
#
#
# Elastic Compliance Matrix: (Units=1/GPa)
#
#
# Indices 1 2 3 4 5 6 
#
# 1 0.064199 -0.016617 -0.016990 0.000000 0.000000 0.000000
# 2 -0.016617 0.027918 0.000467 0.000000 0.000000 0.000000
# 3 -0.016990 0.000467 0.015737 0.000000 0.000000 0.000000
# 4 0.000000 0.000000 0.000000 0.044986 0.000000 0.000000
# 5 0.000000 0.000000 0.000000 0.000000 -0.243932 0.000000
# 6 0.000000 0.000000 0.000000 0.000000 0.000000 0.124776
#
#
# Mechanical properties :
#
#
# Convention : Reuss Voigt Hill
#
# Bulk Modulus (GPa) = 24.05434 31.99586 28.02510
# Shear Modulus (GPa) = 43.92868 12.30821 28.11844
#
# Velocity S-wave (km/s) = 4.91391 2.60106 3.93142
# Velocity P-wave (km/s) = 6.73925 5.15830 6.00107
#
# Compressibility (1/GPa) = 0.04157254
#
# Stress axis : x y z
#
# Youngs Moduli (GPa) = 15.57665 35.81920 63.54564
#
# Poissons Ratio (x) = 0.59522 1.07961
# Poissons Ratio (y) = 0.25884 -0.02965
# Poissons Ratio (z) = 0.26464 -0.01671
#
# Static dielectric constant tensor:
#      x y z
#    x 1.609590 0.000000 0.000000 
#    y 0.000000 1.656430 0.000000 
#    z 0.000000 0.000000 1.598440 
# 
# From -- ./inp_files/8603.got.cif
#   From: 2010.05.17/outbox.cif.g08.bks.cpg/sg38_5_cif.got.tgz:8603.got - 2010.06.03 18:07:57.
