data_PCOD9356678
_publ_section_title
;
Structure prediction by ZEFSAII (Michael W. Deem and Ramdas Pophale) SiO2 
 PCOD9356678
Probable space group: A M M 2
;
_chemical_formula_sum "Si O2"
_cell_formula_units_Z 48
_cell_length_a 16.194459
_cell_length_b 8.725770
_cell_length_c 19.842632
_cell_angle_alpha 90.000000
_cell_angle_beta 90.000000
_cell_angle_gamma 90.000000
_cell_volume 2803.944956
_symmetry_space_group_name_H-M "A M M 2"
_symmetry_group_IT_number 38
_symmetry_cell_setting 'orthorhombic'
loop_
_space_group_symop_operation_xyz
x,y,z
-x,-y,z
-x,y,z
x,-y,z
x,1/2+y,1/2+z
-x,1/2-y,1/2+z
-x,1/2+y,1/2+z
x,1/2-y,1/2+z
loop_
_atom_site_type_symbol
_atom_site_label
_atom_site_fract_x
_atom_site_fract_y
_atom_site_fract_z
Si Si1 0.905057 0.683255 0.044040
Si Si2 0.232475 0.184527 0.946573
Si Si3 0.588278 0.681500 0.453776
Si Si4 0.409258 0.180765 0.790502
Si Si5 0.763553 0.183251 0.296392
Si Si6 0.094443 0.815304 0.192282
O O1 0.888970 0.741423 0.119743
O O2 0.000000 0.725718 0.027605
O O3 0.901622 0.000000 0.185428
O O4 0.841250 0.756551 0.992397
O O5 0.321964 0.241115 0.974762
O O6 0.224670 0.243308 0.870048
O O7 0.234092 0.000000 0.945469
O O8 0.500000 0.747992 0.477293
O O9 0.586809 0.500000 0.469636
O O10 0.589114 0.693371 0.372207
O O11 0.500000 0.234769 0.766481
O O12 0.326464 0.266587 0.768836
O O13 0.402046 0.000000 0.775106
O O14 0.837283 0.231141 0.246731
O O15 0.765164 0.000000 0.303304
O O16 0.101574 0.500000 0.041708
O O17 0.000000 0.775701 0.212201
#
# Coordination Sequence:
#
# PCOD9356678 Si02
#       6
#     8   8   8   8   8   8
#     4  10  21  36  53  72  95 125 162 205 250 294
#     4  10  19  31  50  75 102 132 164 198 240 290
#     4   7  11  22  41  65  92 122 156 191 227 271
#     4   8  14  26  44  66  95 131 166 199 239 287
#     4  10  19  30  48  76 105 130 161 204 248 286
#     4   9  19  36  54  70  93 128 165 199 242 298
#
# _framework density 17.118739000000001
#
# number of rings (size 3 to 8) (size 9 to 14) (size 15 to 20)
#    0.000    3.000    0.000    3.500    0.000    3.333 
#    0.000    1.667    0.000    2.500    0.000    2.333 
#    0.000    0.000    0.000    0.000    0.000    0.000 
#
# Total GULP energy -133605.145096 kJ/mol
# GULP energy per Si atom -5566.881046 kJ/mol
# Density = 1.707978 g / cm^3
# Si number density = 17.118739 Si / 1000 Ang^3
#
#
#
# Elastic Constant Matrix: (Units=GPa)
#
#
# Indices 1 2 3 4 5 6 
#
# 1 195.1737 51.2610 88.4428 0.0000 0.0000 0.0000
# 2 51.2610 32.7000 26.4144 0.0000 0.0000 0.0000
# 3 88.4428 26.4144 55.8243 0.0000 0.0000 0.0000
# 4 0.0000 0.0000 0.0000 21.9115 0.0000 0.0000
# 5 0.0000 0.0000 0.0000 0.0000 -9.1884 0.0000
# 6 0.0000 0.0000 0.0000 0.0000 0.0000 27.9283
#
#
#
# Elastic Compliance Matrix: (Units=1/GPa)
#
#
# Indices 1 2 3 4 5 6 
#
# 1 0.019736 -0.009196 -0.026917 0.000000 0.000000 0.000000
# 2 -0.009196 0.053786 -0.010881 0.000000 0.000000 0.000000
# 3 -0.026917 -0.010881 0.065707 0.000000 0.000000 0.000000
# 4 0.000000 0.000000 0.000000 0.045638 0.000000 0.000000
# 5 0.000000 0.000000 0.000000 0.000000 -0.108832 0.000000
# 6 0.000000 0.000000 0.000000 0.000000 0.000000 0.035806
#
#
# Mechanical properties :
#
#
# Convention : Reuss Voigt Hill
#
# Bulk Modulus (GPa) = 22.10366 68.43712 45.27039
# Shear Modulus (GPa) = 22.63365 15.96892 19.30128
#
# Velocity S-wave (km/s) = 3.64009 3.05754 3.36146
# Velocity P-wave (km/s) = 5.53236 7.24772 6.44734
#
# Compressibility (1/GPa) = 0.04524138
#
# Stress axis : x y z
#
# Youngs Moduli (GPa) = 50.66767 18.59229 15.21901
#
# Poissons Ratio (x) = 0.17097 0.40966
# Poissons Ratio (y) = 0.46593 0.16560
# Poissons Ratio (z) = 1.36384 0.20230
#
# Static dielectric constant tensor:
#      x y z
#    x 1.635200 0.000000 0.000000 
#    y 0.000000 1.577580 0.000000 
#    z 0.000000 0.000000 1.537740 
# 
# From -- ./inp_files/18145.got.cif
#   From: 2010.05.17/outbox.cif.g08.bks.cpg/sg38_10_cif.got.tgz:18145.got - 2010.06.03 18:07:57.
