data_PCOD9356278
_publ_section_title
;
Structure prediction by ZEFSAII (Michael W. Deem and Ramdas Pophale) SiO2 
 PCOD9356278
Probable space group: A M M 2
;
_chemical_formula_sum "Si O2"
_cell_formula_units_Z 40
_cell_length_a 10.525524
_cell_length_b 23.078033
_cell_length_c 9.010208
_cell_angle_alpha 90.000000
_cell_angle_beta 90.000000
_cell_angle_gamma 90.000000
_cell_volume 2188.655121
_symmetry_space_group_name_H-M "A M M 2"
_symmetry_group_IT_number 38
_symmetry_cell_setting 'orthorhombic'
loop_
_space_group_symop_operation_xyz
x,y,z
-x,-y,z
-x,y,z
x,-y,z
x,1/2+y,1/2+z
-x,1/2-y,1/2+z
-x,1/2+y,1/2+z
x,1/2-y,1/2+z
loop_
_atom_site_type_symbol
_atom_site_label
_atom_site_fract_x
_atom_site_fract_y
_atom_site_fract_z
Si Si1 0.140313 0.163989 0.626850
Si Si2 0.352061 0.321323 0.613593
Si Si3 0.224275 0.255159 0.865430
Si Si4 0.652689 0.562387 0.740127
Si Si5 0.650228 0.932193 0.595592
O O1 0.147907 0.215583 0.748712
O O2 0.158247 0.195671 0.466703
O O3 0.252297 0.116761 0.653381
O O4 0.000000 0.137102 0.632450
O O5 0.500000 0.325176 0.579715
O O6 0.330721 0.286182 0.765636
O O7 0.283591 0.288454 0.483070
O O8 0.296170 0.384541 0.646400
O O9 0.500000 0.561870 0.718261
O O10 0.704619 0.500000 0.696242
O O11 0.668012 0.569890 0.916661
O O12 0.500000 0.919574 0.626650
O O13 0.673102 0.000000 0.639895
#
# Coordination Sequence:
#
# PCOD9356278 Si02
#       5
#     8   8   8   8   8
#     4  11  22  38  57  79 110 151 189 227 273 328
#     4  10  18  31  51  79 109 143 180 225 277 329
#     4  10  22  34  50  77 111 147 186 226 272 324
#     4   8  14  27  49  76 106 137 170 214 268 319
#     4   9  18  34  57  84 112 141 179 229 277 324
#
# _framework density 18.276064000000002
#
# number of rings (size 3 to 8) (size 9 to 14) (size 15 to 20)
#    0.000    2.400    2.000    2.400    0.000    4.400 
#    0.000    1.000    0.000    2.400    0.000    0.000 
#    0.000    0.000    0.000    0.000    0.000    0.000 
#
# Total GULP energy -111352.326932 kJ/mol
# GULP energy per Si atom -5567.616347 kJ/mol
# Density = 1.823447 g / cm^3
# Si number density = 18.276064 Si / 1000 Ang^3
#
#
#
# Elastic Constant Matrix: (Units=GPa)
#
#
# Indices 1 2 3 4 5 6 
#
# 1 76.3303 36.2427 5.6546 0.0000 0.0000 0.0000
# 2 36.2427 106.1686 13.8054 0.0000 0.0000 0.0000
# 3 5.6546 13.8054 49.9526 0.0000 0.0000 0.0000
# 4 0.0000 0.0000 0.0000 20.3181 0.0000 0.0000
# 5 0.0000 0.0000 0.0000 0.0000 0.7578 0.0000
# 6 0.0000 0.0000 0.0000 0.0000 0.0000 15.7780
#
#
#
# Elastic Compliance Matrix: (Units=1/GPa)
#
#
# Indices 1 2 3 4 5 6 
#
# 1 0.015640 -0.005299 -0.000306 0.000000 0.000000 0.000000
# 2 -0.005299 0.011566 -0.002597 0.000000 0.000000 0.000000
# 3 -0.000306 -0.002597 0.020771 0.000000 0.000000 0.000000
# 4 0.000000 0.000000 0.000000 0.049217 0.000000 0.000000
# 5 0.000000 0.000000 0.000000 0.000000 1.319660 0.000000
# 6 0.000000 0.000000 0.000000 0.000000 0.000000 0.063379
#
#
# Mechanical properties :
#
#
# Convention : Reuss Voigt Hill
#
# Bulk Modulus (GPa) = 31.67220 38.20630 34.93925
# Shear Modulus (GPa) = 3.31750 19.15404 11.23577
#
# Velocity S-wave (km/s) = 1.34876 3.24086 2.48217
# Velocity P-wave (km/s) = 4.44894 5.91225 5.23200
#
# Compressibility (1/GPa) = 0.03157343
#
# Stress axis : x y z
#
# Youngs Moduli (GPa) = 63.93973 86.46348 48.14358
#
# Poissons Ratio (x) = 0.45818 0.01473
# Poissons Ratio (y) = 0.33883 0.12501
# Poissons Ratio (z) = 0.01956 0.22450
#
# Static dielectric constant tensor:
#      x y z
#    x 1.620780 0.000000 0.000000 
#    y 0.000000 1.677780 0.000000 
#    z 0.000000 0.000000 1.621410 
# 
# From -- ./inp_files/3302.got.cif
#   From: 2010.05.17/outbox.cif.g08.bks.cpg/sg38_2_cif.got.tgz:3302.got - 2010.06.03 18:07:57.
