data_PCOD9356374
_publ_section_title
;
Structure prediction by ZEFSAII (Michael W. Deem and Ramdas Pophale) SiO2 
 PCOD9356374
Probable space group: A M M 2
;
_chemical_formula_sum "Si O2"
_cell_formula_units_Z 56
_cell_length_a 8.707318
_cell_length_b 19.977223
_cell_length_c 15.514019
_cell_angle_alpha 90.000000
_cell_angle_beta 90.000000
_cell_angle_gamma 90.000000
_cell_volume 2698.633095
_symmetry_space_group_name_H-M "A M M 2"
_symmetry_group_IT_number 38
_symmetry_cell_setting 'orthorhombic'
loop_
_space_group_symop_operation_xyz
x,y,z
-x,-y,z
-x,y,z
x,-y,z
x,1/2+y,1/2+z
-x,1/2-y,1/2+z
-x,1/2+y,1/2+z
x,1/2-y,1/2+z
loop_
_atom_site_type_symbol
_atom_site_label
_atom_site_fract_x
_atom_site_fract_y
_atom_site_fract_z
Si Si1 0.816696 0.378710 0.878460
Si Si2 0.833707 0.500000 0.452994
Si Si3 0.315103 0.269473 0.385623
Si Si4 0.175021 0.355851 0.540638
Si Si5 0.316709 0.076487 0.198053
Si Si6 0.815534 0.075320 0.568183
Si Si7 0.685533 0.641703 0.222325
Si Si8 0.323192 0.000000 0.786805
O O1 0.762143 0.302570 0.888059
O O2 0.737251 0.409724 0.794919
O O3 0.000000 0.382271 0.867088
O O4 0.777457 0.414973 0.968002
O O5 0.828787 0.568158 0.505423
O O6 0.691668 0.500000 0.389102
O O7 0.000000 0.500000 0.405444
O O8 0.500000 0.264342 0.386296
O O9 0.262503 0.312442 0.468748
O O10 0.268670 0.304848 0.294787
O O11 0.250205 0.366839 0.634107
O O12 0.000000 0.331142 0.548380
O O13 0.500000 0.079208 0.192342
O O14 0.268513 0.000000 0.175167
O O15 0.746861 0.135941 0.625107
O O16 0.000000 0.076967 0.577104
O O17 0.761432 0.000000 0.593831
O O18 0.500000 0.643253 0.219631
O O19 0.744844 0.570147 0.257910
O O20 0.500000 0.000000 0.759265
#
# Coordination Sequence:
#
# PCOD9356374 Si02
#       8
#     8   4   8   8   8   8   8   4
#     4  11  25  45  65  87 122 167 213 261 312 370
#     4  10  20  32  54  89 124 159 200 249 306 368
#     4  11  24  42  62  90 129 170 210 253 306 373
#     4  11  22  38  62  94 128 164 206 254 314 377
#     4  11  24  42  67  97 125 159 207 263 321 378
#     4  10  22  40  64  92 119 152 198 252 307 361
#     4  10  21  36  59  90 123 158 196 244 302 364
#     4  10  18  32  54  85 122 159 196 241 308 366
#
# _framework density 20.751246999999999
#
# number of rings (size 3 to 8) (size 9 to 14) (size 15 to 20)
#    0.000    1.429    2.857    2.143    0.000    6.000 
#    0.000    2.857    0.000    0.000    0.000    0.000 
#    0.000    0.000    0.000    0.000    0.000    0.000 
#
# Total GULP energy -156276.153074 kJ/mol
# GULP energy per Si atom -5581.291181 kJ/mol
# Density = 2.070402 g / cm^3
# Si number density = 20.751247 Si / 1000 Ang^3
#
#
#
# Elastic Constant Matrix: (Units=GPa)
#
#
# Indices 1 2 3 4 5 6 
#
# 1 6.9388 -4.2261 14.4899 0.0000 0.0000 0.0000
# 2 -4.2261 53.3344 9.4596 0.0000 0.0000 0.0000
# 3 14.4899 9.4596 108.0182 0.0000 0.0000 0.0000
# 4 0.0000 0.0000 0.0000 27.1385 0.0000 0.0000
# 5 0.0000 0.0000 0.0000 0.0000 37.7680 0.0000
# 6 0.0000 0.0000 0.0000 0.0000 0.0000 14.8229
#
#
#
# Elastic Compliance Matrix: (Units=1/GPa)
#
#
# Indices 1 2 3 4 5 6 
#
# 1 0.226244 0.023678 -0.032423 0.000000 0.000000 0.000000
# 2 0.023678 0.021523 -0.005061 0.000000 0.000000 0.000000
# 3 -0.032423 -0.005061 0.014050 0.000000 0.000000 0.000000
# 4 0.000000 0.000000 0.000000 0.036848 0.000000 0.000000
# 5 0.000000 0.000000 0.000000 0.000000 0.026477 0.000000
# 6 0.000000 0.000000 0.000000 0.000000 0.000000 0.067463
#
#
# Mechanical properties :
#
#
# Convention : Reuss Voigt Hill
#
# Bulk Modulus (GPa) = 4.26975 23.08201 13.67588
# Shear Modulus (GPa) = 10.03437 25.85042 17.94239
#
# Velocity S-wave (km/s) = 2.20137 3.53332 2.94367
# Velocity P-wave (km/s) = 2.91950 5.27192 4.26125
#
# Compressibility (1/GPa) = 0.23420576
#
# Stress axis : x y z
#
# Youngs Moduli (GPa) = 4.42000 46.46103 71.17351
#
# Poissons Ratio (x) = -1.10008 2.30763
# Poissons Ratio (y) = -0.10465 0.36021
# Poissons Ratio (z) = 0.14331 0.23514
#
# Static dielectric constant tensor:
#      x y z
#    x 1.723360 0.000000 0.000000 
#    y 0.000000 1.736220 0.000000 
#    z 0.000000 0.000000 1.790510 
# 
# From -- ./inp_files/12494.got.cif
#   From: 2010.05.17/outbox.cif.g08.bks.cpg/sg38_7_cif.got.tgz:12494.got - 2010.06.03 18:07:57.
