data_PCOD9356469
_publ_section_title
;
Structure prediction by ZEFSAII (Michael W. Deem and Ramdas Pophale) SiO2 
 PCOD9356469
Probable space group: A M M 2
;
_chemical_formula_sum "Si O2"
_cell_formula_units_Z 48
_cell_length_a 10.727718
_cell_length_b 7.644976
_cell_length_c 28.942305
_cell_angle_alpha 90.000000
_cell_angle_beta 90.000000
_cell_angle_gamma 90.000000
_cell_volume 2373.649504
_symmetry_space_group_name_H-M "A M M 2"
_symmetry_group_IT_number 38
_symmetry_cell_setting 'orthorhombic'
loop_
_space_group_symop_operation_xyz
x,y,z
-x,-y,z
-x,y,z
x,-y,z
x,1/2+y,1/2+z
-x,1/2-y,1/2+z
-x,1/2+y,1/2+z
x,1/2-y,1/2+z
loop_
_atom_site_type_symbol
_atom_site_label
_atom_site_fract_x
_atom_site_fract_y
_atom_site_fract_z
Si Si1 0.500000 0.785495 0.041461
Si Si2 0.250191 0.707487 0.493113
Si Si3 0.248423 0.711441 0.699500
Si Si4 0.355615 0.286824 0.793964
Si Si5 0.500000 0.213428 0.148058
Si Si6 0.000000 0.200754 0.643089
Si Si7 0.000000 0.203325 0.038090
Si Si8 0.642939 0.788977 0.397961
O O1 0.500000 0.735031 0.094815
O O2 0.500000 0.000000 0.039783
O O3 0.624090 0.721134 0.016268
O O4 0.251449 0.500000 0.502633
O O5 0.125845 0.781167 0.516409
O O6 0.265399 0.731960 0.438413
O O7 0.249858 0.500000 0.699665
O O8 0.266432 0.771047 0.752503
O O9 0.372924 0.770884 0.672704
O O10 0.122877 0.763064 0.673392
O O11 0.500000 0.237252 0.784350
O O12 0.354239 0.500000 0.794107
O O13 0.324406 0.229926 0.846012
O O14 0.500000 0.000000 0.150077
O O15 0.000000 0.295564 0.593637
O O16 0.000000 0.000000 0.629862
O O17 0.000000 0.000000 0.023524
O O18 0.500000 0.729802 0.407807
O O19 0.640900 0.000000 0.397617
#
# Coordination Sequence:
#
# PCOD9356469 Si02
#       8
#     4   8   8   8   4   4   4   8
#     4   9  16  26  44  73 103 125 159 219 272 311
#     4  10  19  33  53  77 105 135 178 226 267 312
#     4  10  18  34  60  84 106 139 187 231 269 316
#     4   8  14  28  53  85 111 134 172 224 270 312
#     4   9  16  28  54  85 103 125 175 239 280 305
#     4  12  26  40  53  76 115 153 180 217 275 338
#     4  10  22  40  59  76  99 139 186 231 271 312
#     4   9  17  30  51  80 114 143 170 211 268 326
#
# _framework density 20.222026
#
# number of rings (size 3 to 8) (size 9 to 14) (size 15 to 20)
#    0.000    2.500    1.667    2.750    0.000    3.333 
#    0.000    2.083    0.000    4.000    0.000    0.000 
#    0.000    0.000    0.000    0.000    0.000    0.000 
#
# Total GULP energy -133924.688053 kJ/mol
# GULP energy per Si atom -5580.195336 kJ/mol
# Density = 2.017600 g / cm^3
# Si number density = 20.222026 Si / 1000 Ang^3
#
#
#
# Elastic Constant Matrix: (Units=GPa)
#
#
# Indices 1 2 3 4 5 6 
#
# 1 168.9143 5.4351 98.1377 0.0000 0.0000 0.0000
# 2 5.4351 35.7289 -12.2765 0.0000 0.0000 0.0000
# 3 98.1377 -12.2765 150.7037 0.0000 0.0000 0.0000
# 4 0.0000 0.0000 0.0000 16.2547 0.0000 0.0000
# 5 0.0000 0.0000 0.0000 0.0000 33.1653 0.0000
# 6 0.0000 0.0000 0.0000 0.0000 0.0000 -6.2575
#
#
#
# Elastic Compliance Matrix: (Units=1/GPa)
#
#
# Indices 1 2 3 4 5 6 
#
# 1 0.010019 -0.003874 -0.006840 0.000000 0.000000 0.000000
# 2 -0.003874 0.030293 0.004990 0.000000 0.000000 0.000000
# 3 -0.006840 0.004990 0.011496 0.000000 0.000000 0.000000
# 4 0.000000 0.000000 0.000000 0.061521 0.000000 0.000000
# 5 0.000000 0.000000 0.000000 0.000000 0.030152 0.000000
# 6 0.000000 0.000000 0.000000 0.000000 0.000000 -0.159807
#
#
# Mechanical properties :
#
#
# Convention : Reuss Voigt Hill
#
# Bulk Modulus (GPa) = 24.77662 59.77104 42.27383
# Shear Modulus (GPa) = 583.23609 26.23588 304.73598
#
# Velocity S-wave (km/s) = 17.00125 3.60584 12.28911
# Velocity P-wave (km/s) = 19.94163 6.85257 14.91017
#
# Compressibility (1/GPa) = 0.04036062
#
# Stress axis : x y z
#
# Youngs Moduli (GPa) = 99.81437 33.01135 86.98657
#
# Poissons Ratio (x) = 0.12789 0.59496
# Poissons Ratio (y) = 0.38669 -0.43411
# Poissons Ratio (z) = 0.68270 -0.16474
#
# Static dielectric constant tensor:
#      x y z
#    x 1.705870 0.000000 0.000000 
#    y 0.000000 1.761680 0.000000 
#    z 0.000000 0.000000 1.716550 
# 
# From -- ./inp_files/24487.got.cif
#   From: 2010.05.17/outbox.cif.g08.bks.cpg/sg38_13_cif.got.tgz:24487.got - 2010.06.03 18:07:57.
