data_PCOD9356177
_publ_section_title
;
Structure prediction by ZEFSAII (Michael W. Deem and Ramdas Pophale) SiO2 
 PCOD9356177
Probable space group: A M M 2
;
_chemical_formula_sum "Si O2"
_cell_formula_units_Z 48
_cell_length_a 11.409745
_cell_length_b 7.237047
_cell_length_c 24.011143
_cell_angle_alpha 90.000000
_cell_angle_beta 90.000000
_cell_angle_gamma 90.000000
_cell_volume 1982.668769
_symmetry_space_group_name_H-M "A M M 2"
_symmetry_group_IT_number 38
_symmetry_cell_setting 'orthorhombic'
loop_
_space_group_symop_operation_xyz
x,y,z
-x,-y,z
-x,y,z
x,-y,z
x,1/2+y,1/2+z
-x,1/2-y,1/2+z
-x,1/2+y,1/2+z
x,1/2-y,1/2+z
loop_
_atom_site_type_symbol
_atom_site_label
_atom_site_fract_x
_atom_site_fract_y
_atom_site_fract_z
Si Si1 0.866997 0.789165 0.267260
Si Si2 0.743893 0.275796 0.934118
Si Si3 0.205284 0.722616 0.142366
Si Si4 0.371296 0.275291 0.823708
Si Si5 0.000000 0.276701 0.060321
Si Si6 0.000000 0.723598 0.932369
Si Si7 0.367071 0.725052 0.049280
O O1 0.836425 0.793706 0.201642
O O2 0.747578 0.709251 0.293611
O O3 0.000000 0.712160 0.274860
O O4 0.874197 0.000000 0.288511
O O5 0.747971 0.500000 0.936523
O O6 0.647413 0.227615 0.888511
O O7 0.872302 0.215735 0.912109
O O8 0.711521 0.215138 0.996479
O O9 0.204840 0.500000 0.148076
O O10 0.324011 0.779580 0.111015
O O11 0.110988 0.777278 0.096030
O O12 0.500000 0.213636 0.803833
O O13 0.371452 0.500000 0.818940
O O14 0.000000 0.500000 0.057774
O O15 0.000000 0.218901 0.997052
O O16 0.000000 0.500000 0.928136
O O17 0.500000 0.780273 0.039305
O O18 0.361550 0.500000 0.048866
#
# Coordination Sequence:
#
# PCOD9356177 Si02
#       7
#     8   8   8   8   4   4   8
#     4  10  21  34  48  69  96 125 160 202 239 272
#     4   9  15  23  39  63  93 123 151 187 236 287
#     4  10  18  30  49  70  94 125 157 190 232 283
#     4   9  18  31  45  61  88 128 163 191 233 287
#     4   9  14  24  40  63  93 121 147 176 223 280
#     4   9  14  20  35  63  95 123 147 182 235 288
#     4   9  16  25  40  67  99 124 150 191 238 282
#
# _framework density 24.209792
#
# number of rings (size 3 to 8) (size 9 to 14) (size 15 to 20)
#    0.000    2.667    2.500    0.500    1.167    2.667 
#    0.000    0.000    0.000    0.000    0.000    1.167 
#    0.000    2.667    0.000    0.000    0.000    0.000 
#
# Total GULP energy -133922.965789 kJ/mol
# GULP energy per Si atom -5580.123575 kJ/mol
# Density = 2.415469 g / cm^3
# Si number density = 24.209792 Si / 1000 Ang^3
#
#
#
# Elastic Constant Matrix: (Units=GPa)
#
#
# Indices 1 2 3 4 5 6 
#
# 1 209.7728 6.9666 56.0171 0.0000 0.0000 0.0000
# 2 6.9666 110.4159 -4.1086 0.0000 0.0000 0.0000
# 3 56.0171 -4.1086 73.9957 0.0000 0.0000 0.0000
# 4 0.0000 0.0000 0.0000 -61.0851 0.0000 0.0000
# 5 0.0000 0.0000 0.0000 0.0000 35.7157 0.0000
# 6 0.0000 0.0000 0.0000 0.0000 0.0000 -17.3431
#
#
#
# Elastic Compliance Matrix: (Units=1/GPa)
#
#
# Indices 1 2 3 4 5 6 
#
# 1 0.006008 -0.000549 -0.004579 0.000000 0.000000 0.000000
# 2 -0.000549 0.009126 0.000923 0.000000 0.000000 0.000000
# 3 -0.004579 0.000923 0.017032 0.000000 0.000000 0.000000
# 4 0.000000 0.000000 0.000000 -0.016371 0.000000 0.000000
# 5 0.000000 0.000000 0.000000 0.000000 0.027999 0.000000
# 6 0.000000 0.000000 0.000000 0.000000 0.000000 -0.057660
#
#
# Mechanical properties :
#
#
# Convention : Reuss Voigt Hill
#
# Bulk Modulus (GPa) = 42.09754 56.88162 49.48958
# Shear Modulus (GPa) = 2029.89443 13.81146 1021.85295
#
# Velocity S-wave (km/s) = 28.98759 2.39109 20.56693
# Velocity P-wave (km/s) = 33.73129 5.58295 24.17612
#
# Compressibility (1/GPa) = 0.02375436
#
# Stress axis : x y z
#
# Youngs Moduli (GPa) = 166.44443 109.58104 58.71366
#
# Poissons Ratio (x) = 0.06021 0.26884
# Poissons Ratio (y) = 0.09145 -0.05417
# Poissons Ratio (z) = 0.76211 -0.10110
#
# Static dielectric constant tensor:
#      x y z
#    x 1.948840 0.000000 0.000000 
#    y 0.000000 2.344230 0.000000 
#    z 0.000000 0.000000 1.864320 
# 
# From -- ./inp_files/20607.got.cif
#   From: 2010.05.17/outbox.cif.g08.bks.cpg/sg38_11_cif.got.tgz:20607.got - 2010.06.03 18:07:57.
