data_PCOD9356194
_publ_section_title
;
Structure prediction by ZEFSAII (Michael W. Deem and Ramdas Pophale) SiO2 
 PCOD9356194
Probable space group: A M M 2
;
_chemical_formula_sum "Si O2"
_cell_formula_units_Z 64
_cell_length_a 9.051080
_cell_length_b 23.613201
_cell_length_c 19.558686
_cell_angle_alpha 90.000000
_cell_angle_beta 90.000000
_cell_angle_gamma 90.000000
_cell_volume 4180.179604
_symmetry_space_group_name_H-M "A M M 2"
_symmetry_group_IT_number 38
_symmetry_cell_setting 'orthorhombic'
loop_
_space_group_symop_operation_xyz
x,y,z
-x,-y,z
-x,y,z
x,-y,z
x,1/2+y,1/2+z
-x,1/2-y,1/2+z
-x,1/2+y,1/2+z
x,1/2-y,1/2+z
loop_
_atom_site_type_symbol
_atom_site_label
_atom_site_fract_x
_atom_site_fract_y
_atom_site_fract_z
Si Si1 0.176408 0.767836 0.397220
Si Si2 0.823501 0.619190 0.549527
Si Si3 0.824182 0.745777 0.050199
Si Si4 0.822332 0.434223 0.402910
Si Si5 0.324109 0.268062 0.189393
Si Si6 0.823947 0.337805 0.765564
Si Si7 0.323520 0.066380 0.183494
Si Si8 0.675738 0.337406 0.321590
O O1 0.215805 0.778652 0.475825
O O2 0.205031 0.818008 0.343363
O O3 0.259341 0.712592 0.369147
O O4 0.000000 0.755698 0.395497
O O5 0.795625 0.686486 0.547444
O O6 0.781856 0.591073 0.477306
O O7 0.739091 0.590585 0.612165
O O8 0.000000 0.611245 0.559160
O O9 0.735956 0.720953 0.113897
O O10 0.000000 0.738346 0.060981
O O11 0.780821 0.500000 0.398719
O O12 0.748658 0.395476 0.345492
O O13 0.000000 0.429898 0.397375
O O14 0.500000 0.258413 0.188830
O O15 0.243656 0.211899 0.218231
O O16 0.291803 0.317485 0.244142
O O17 0.750058 0.395977 0.742657
O O18 0.000000 0.340083 0.754820
O O19 0.500000 0.073199 0.185104
O O20 0.288054 0.000000 0.189371
O O21 0.500000 0.340067 0.329873
#
# Coordination Sequence:
#
# PCOD9356194 Si02
#       8
#     8   8   8   8   8   8   8   8
#     4   9  18  33  51  70  95 122 156 197 240 286
#     4  10  19  32  49  69  95 129 166 198 229 273
#     4  10  18  30  50  74  97 126 158 193 237 283
#     4  10  20  34  51  69  93 128 166 202 238 276
#     4  10  20  32  47  69  98 127 157 195 237 284
#     4  10  19  32  51  71  91 123 160 199 240 279
#     4  11  23  35  47  66  96 132 165 199 236 275
#     4  10  20  32  47  69  96 127 160 196 238 279
#
# _framework density 15.310347999999999
#
# number of rings (size 3 to 8) (size 9 to 14) (size 15 to 20)
#    0.000    2.000    2.500    1.875    0.000    4.750 
#    0.000    0.000    0.000    0.000    0.000    0.875 
#    0.000    1.000    0.000    0.000    0.000    0.000 
#
# Total GULP energy -178562.978081 kJ/mol
# GULP energy per Si atom -5580.093065 kJ/mol
# Density = 1.527550 g / cm^3
# Si number density = 15.310348 Si / 1000 Ang^3
#
#
#
# Elastic Constant Matrix: (Units=GPa)
#
#
# Indices 1 2 3 4 5 6 
#
# 1 41.4668 40.6672 52.4700 0.0000 0.0000 0.0000
# 2 40.6672 76.3740 56.3231 0.0000 0.0000 0.0000
# 3 52.4700 56.3231 134.1230 0.0000 0.0000 0.0000
# 4 0.0000 0.0000 0.0000 19.9571 0.0000 0.0000
# 5 0.0000 0.0000 0.0000 0.0000 18.0488 0.0000
# 6 0.0000 0.0000 0.0000 0.0000 0.0000 23.7091
#
#
#
# Elastic Compliance Matrix: (Units=1/GPa)
#
#
# Indices 1 2 3 4 5 6 
#
# 1 0.069663 -0.024621 -0.016914 0.000000 0.000000 0.000000
# 2 -0.024621 0.027669 -0.001987 0.000000 0.000000 0.000000
# 3 -0.016914 -0.001987 0.014907 0.000000 0.000000 0.000000
# 4 0.000000 0.000000 0.000000 0.050107 0.000000 0.000000
# 5 0.000000 0.000000 0.000000 0.000000 0.055405 0.000000
# 6 0.000000 0.000000 0.000000 0.000000 0.000000 0.042178
#
#
# Mechanical properties :
#
#
# Convention : Reuss Voigt Hill
#
# Bulk Modulus (GPa) = 39.68896 61.20937 50.44916
# Shear Modulus (GPa) = 14.06976 19.17659 16.62317
#
# Velocity S-wave (km/s) = 3.03474 3.54294 3.29864
# Velocity P-wave (km/s) = 6.18537 7.53674 6.89425
#
# Compressibility (1/GPa) = 0.02519592
#
# Stress axis : x y z
#
# Youngs Moduli (GPa) = 14.35476 36.14159 67.08158
#
# Poissons Ratio (x) = 0.88983 1.13460
# Poissons Ratio (y) = 0.35342 0.13332
# Poissons Ratio (z) = 0.24279 0.07183
#
# Static dielectric constant tensor:
#      x y z
#    x 1.510230 0.000000 0.000000 
#    y 0.000000 1.485470 0.000000 
#    z 0.000000 0.000000 1.516380 
# 
# From -- ./inp_files/17290.got.cif
#   From: 2010.05.17/outbox.cif.g08.bks.cpg/sg38_9_cif.got.tgz:17290.got - 2010.06.03 18:07:57.
