data_PCOD9356963
_publ_section_title
;
Structure prediction by ZEFSAII (Michael W. Deem and Ramdas Pophale) SiO2 
 PCOD9356963
Probable space group: A M M 2
;
_chemical_formula_sum "Si O2"
_cell_formula_units_Z 64
_cell_length_a 21.696442
_cell_length_b 9.621479
_cell_length_c 16.503238
_cell_angle_alpha 90.000000
_cell_angle_beta 90.000000
_cell_angle_gamma 90.000000
_cell_volume 3445.081646
_symmetry_space_group_name_H-M "A M M 2"
_symmetry_group_IT_number 38
_symmetry_cell_setting 'orthorhombic'
loop_
_space_group_symop_operation_xyz
x,y,z
-x,-y,z
-x,y,z
x,-y,z
x,1/2+y,1/2+z
-x,1/2-y,1/2+z
-x,1/2+y,1/2+z
x,1/2-y,1/2+z
loop_
_atom_site_type_symbol
_atom_site_label
_atom_site_fract_x
_atom_site_fract_y
_atom_site_fract_z
Si Si1 0.929481 0.331571 0.895680
Si Si2 0.286986 0.164059 0.563097
Si Si3 0.431393 0.156287 0.797881
Si Si4 0.860146 0.333262 0.060513
Si Si5 0.244172 0.149621 0.308518
Si Si6 0.881627 0.162153 0.218663
Si Si7 0.641471 0.346348 0.692320
Si Si8 0.687746 0.841897 0.912831
O O1 0.925430 0.500000 0.892673
O O2 0.911815 0.287155 0.803838
O O3 0.000000 0.292425 0.912411
O O4 0.887347 0.289621 0.972482
O O5 0.213480 0.191976 0.562924
O O6 0.322908 0.244659 0.632641
O O7 0.315169 0.228087 0.482145
O O8 0.295488 0.000000 0.569854
O O9 0.500000 0.175230 0.832531
O O10 0.417195 0.270411 0.730096
O O11 0.375841 0.161165 0.862408
O O12 0.428505 0.000000 0.762564
O O13 0.870142 0.500000 0.069075
O O14 0.889603 0.252380 0.137439
O O15 0.190676 0.163287 0.242904
O O16 0.309401 0.137526 0.264760
O O17 0.253558 0.287015 0.361154
O O18 0.231991 0.000000 0.352624
O O19 0.899568 0.000000 0.204972
O O20 0.629167 0.500000 0.658431
O O21 0.697440 0.000000 0.941029
#
# Coordination Sequence:
#
# PCOD9356963 Si02
#       8
#     8   8   8   8   8   8   8   8
#     4   9  19  36  56  79 111 153 196 235 282 346
#     4  11  21  34  52  77 111 144 178 223 283 343
#     4   9  19  37  57  77 105 142 181 221 268 326
#     4  10  21  36  57  83 113 149 191 236 288 347
#     4   9  17  31  50  74 105 136 169 214 274 336
#     4  10  19  34  57  82 110 145 187 234 287 344
#     4  10  19  32  53  79 107 138 174 222 271 321
#     4  10  20  32  52  79 106 138 178 224 272 325
#
# _framework density 18.577209
#
# number of rings (size 3 to 8) (size 9 to 14) (size 15 to 20)
#    0.000    2.250    1.250    1.875    0.000    4.750 
#    0.000    1.250    0.000    3.000    0.000    0.000 
#    0.000    0.000    0.000    0.000    0.000    0.000 
#
# Total GULP energy -178157.046596 kJ/mol
# GULP energy per Si atom -5567.407706 kJ/mol
# Density = 1.853493 g / cm^3
# Si number density = 18.577209 Si / 1000 Ang^3
#
#
#
# Elastic Constant Matrix: (Units=GPa)
#
#
# Indices 1 2 3 4 5 6 
#
# 1 52.7104 33.1960 31.9427 0.0000 0.0000 0.0000
# 2 33.1960 91.8965 53.2787 0.0000 0.0000 0.0000
# 3 31.9427 53.2787 83.0165 0.0000 0.0000 0.0000
# 4 0.0000 0.0000 0.0000 37.3294 0.0000 0.0000
# 5 0.0000 0.0000 0.0000 0.0000 17.0686 0.0000
# 6 0.0000 0.0000 0.0000 0.0000 0.0000 11.3403
#
#
#
# Elastic Compliance Matrix: (Units=1/GPa)
#
#
# Indices 1 2 3 4 5 6 
#
# 1 0.026577 -0.005847 -0.006473 0.000000 0.000000 0.000000
# 2 -0.005847 0.018617 -0.009698 0.000000 0.000000 0.000000
# 3 -0.006473 -0.009698 0.020761 0.000000 0.000000 0.000000
# 4 0.000000 0.000000 0.000000 0.026789 0.000000 0.000000
# 5 0.000000 0.000000 0.000000 0.000000 0.058587 0.000000
# 6 0.000000 0.000000 0.000000 0.000000 0.000000 0.088181
#
#
# Mechanical properties :
#
#
# Convention : Reuss Voigt Hill
#
# Bulk Modulus (GPa) = 45.62712 51.60647 48.61679
# Shear Modulus (GPa) = 17.19076 20.42807 18.80942
#
# Velocity S-wave (km/s) = 3.04529 3.31967 3.18543
# Velocity P-wave (km/s) = 6.08105 6.52176 6.30526
#
# Compressibility (1/GPa) = 0.02191679
#
# Stress axis : x y z
#
# Youngs Moduli (GPa) = 37.62633 53.71537 48.16817
#
# Poissons Ratio (x) = 0.31410 0.31181
# Poissons Ratio (y) = 0.22002 0.46713
# Poissons Ratio (z) = 0.24357 0.52093
#
# Static dielectric constant tensor:
#      x y z
#    x 1.644860 0.000000 0.000000 
#    y 0.000000 1.663070 0.000000 
#    z 0.000000 0.000000 1.727190 
# 
# From -- ./inp_files/18978.got.cif
#   From: 2010.05.17/outbox.cif.g08.bks.cpg/sg38_10_cif.got.tgz:18978.got - 2010.06.03 18:07:57.
