data_PCOD9356852
_publ_section_title
;
Structure prediction by ZEFSAII (Michael W. Deem and Ramdas Pophale) SiO2 
 PCOD9356852
Probable space group: A M M 2
;
_chemical_formula_sum "Si O2"
_cell_formula_units_Z 48
_cell_length_a 16.688223
_cell_length_b 13.485045
_cell_length_c 13.072342
_cell_angle_alpha 90.000000
_cell_angle_beta 90.000000
_cell_angle_gamma 90.000000
_cell_volume 2941.818643
_symmetry_space_group_name_H-M "A M M 2"
_symmetry_group_IT_number 38
_symmetry_cell_setting 'orthorhombic'
loop_
_space_group_symop_operation_xyz
x,y,z
-x,-y,z
-x,y,z
x,-y,z
x,1/2+y,1/2+z
-x,1/2-y,1/2+z
-x,1/2+y,1/2+z
x,1/2-y,1/2+z
loop_
_atom_site_type_symbol
_atom_site_label
_atom_site_fract_x
_atom_site_fract_y
_atom_site_fract_z
Si Si1 0.500000 0.119537 0.565380
Si Si2 0.671846 0.799283 0.600729
Si Si3 0.329519 0.115086 0.231634
Si Si4 0.500000 0.380536 0.827973
Si Si5 0.906778 0.619149 0.055717
Si Si6 0.223376 0.203856 0.401809
Si Si7 0.198541 0.615968 0.249586
O O1 0.418858 0.164874 0.608818
O O2 0.500000 0.147779 0.445869
O O3 0.500000 0.000000 0.574485
O O4 0.684128 0.687139 0.637362
O O5 0.706272 0.802045 0.486503
O O6 0.724070 0.867130 0.677069
O O7 0.415771 0.148814 0.277554
O O8 0.257903 0.133760 0.312082
O O9 0.334357 0.000000 0.205733
O O10 0.500000 0.500000 0.824861
O O11 0.898200 0.500000 0.045689
O O12 0.872406 0.643617 0.169150
O O13 0.000000 0.854702 0.547600
O O14 0.853656 0.668437 0.966428
O O15 0.206749 0.308808 0.345006
O O16 0.191190 0.500000 0.278189
#
# Coordination Sequence:
#
# PCOD9356852 Si02
#       7
#     4   8   8   4   8   8   8
#     4  11  19  30  51  72  94 128 169 209 246 285
#     4  10  20  32  49  73  97 129 167 206 244 286
#     4  10  19  32  49  71  99 130 164 202 245 289
#     4   9  17  28  46  68  90 124 164 199 237 281
#     4   9  18  33  53  76  99 124 158 200 243 289
#     4  10  19  32  51  75  99 127 163 200 243 291
#     4   9  19  34  51  72 101 132 164 200 242 291
#
# _framework density 16.316438000000002
#
# number of rings (size 3 to 8) (size 9 to 14) (size 15 to 20)
#    0.000    2.333    1.667    1.500    0.000    2.667 
#    0.000    0.000    0.000    0.000    0.000    0.000 
#    0.000    0.000    0.000    0.000    0.000    0.000 
#
# Total GULP energy -133639.560102 kJ/mol
# GULP energy per Si atom -5568.315004 kJ/mol
# Density = 1.627930 g / cm^3
# Si number density = 16.316438 Si / 1000 Ang^3
#
#
#
# Elastic Constant Matrix: (Units=GPa)
#
#
# Indices 1 2 3 4 5 6 
#
# 1 106.0315 17.9031 18.0566 0.0000 0.0000 0.0000
# 2 17.9031 60.9915 13.2361 0.0000 0.0000 0.0000
# 3 18.0566 13.2361 35.0134 0.0000 0.0000 0.0000
# 4 0.0000 0.0000 0.0000 13.4325 0.0000 0.0000
# 5 0.0000 0.0000 0.0000 0.0000 5.2941 0.0000
# 6 0.0000 0.0000 0.0000 0.0000 0.0000 19.8990
#
#
#
# Elastic Compliance Matrix: (Units=1/GPa)
#
#
# Indices 1 2 3 4 5 6 
#
# 1 0.010579 -0.002093 -0.004664 0.000000 0.000000 0.000000
# 2 -0.002093 0.018275 -0.005829 0.000000 0.000000 0.000000
# 3 -0.004664 -0.005829 0.033170 0.000000 0.000000 0.000000
# 4 0.000000 0.000000 0.000000 0.074446 0.000000 0.000000
# 5 0.000000 0.000000 0.000000 0.000000 0.188891 0.000000
# 6 0.000000 0.000000 0.000000 0.000000 0.000000 0.050254
#
#
# Mechanical properties :
#
#
# Convention : Reuss Voigt Hill
#
# Bulk Modulus (GPa) = 27.13673 33.38090 30.25882
# Shear Modulus (GPa) = 12.10446 17.91449 15.00948
#
# Velocity S-wave (km/s) = 2.72666 3.31711 3.03627
# Velocity P-wave (km/s) = 5.15563 5.93076 5.55673
#
# Compressibility (1/GPa) = 0.03685042
#
# Stress axis : x y z
#
# Youngs Moduli (GPa) = 94.52801 54.71922 30.14816
#
# Poissons Ratio (x) = 0.11453 0.14062
# Poissons Ratio (y) = 0.19785 0.17574
# Poissons Ratio (z) = 0.44091 0.31897
#
# Static dielectric constant tensor:
#      x y z
#    x 1.565110 0.000000 0.000000 
#    y 0.000000 1.533540 0.000000 
#    z 0.000000 0.000000 1.534330 
# 
# From -- ./inp_files/10030.got.cif
#   From: 2010.05.17/outbox.cif.g08.bks.cpg/sg38_6_cif.got.tgz:10030.got - 2010.06.03 18:07:57.
