data_PCOD9356089
_publ_section_title
;
Structure prediction by ZEFSAII (Michael W. Deem and Ramdas Pophale) SiO2 
 PCOD9356089
Probable space group: A M M 2
;
_chemical_formula_sum "Si O2"
_cell_formula_units_Z 64
_cell_length_a 20.225947
_cell_length_b 8.609707
_cell_length_c 21.032579
_cell_angle_alpha 90.000000
_cell_angle_beta 90.000000
_cell_angle_gamma 90.000000
_cell_volume 3662.602317
_symmetry_space_group_name_H-M "A M M 2"
_symmetry_group_IT_number 38
_symmetry_cell_setting 'orthorhombic'
loop_
_space_group_symop_operation_xyz
x,y,z
-x,-y,z
-x,y,z
x,-y,z
x,1/2+y,1/2+z
-x,1/2-y,1/2+z
-x,1/2+y,1/2+z
x,1/2-y,1/2+z
loop_
_atom_site_type_symbol
_atom_site_label
_atom_site_fract_x
_atom_site_fract_y
_atom_site_fract_z
Si Si1 0.841251 0.185332 0.141110
Si Si2 0.570957 0.816062 0.347565
Si Si3 0.150216 0.187451 0.889636
Si Si4 0.711593 0.683340 0.197156
Si Si5 0.572433 0.183083 0.193593
Si Si6 0.922622 0.686885 0.259279
Si Si7 0.714850 0.686819 0.840614
Si Si8 0.923660 0.810317 0.017899
O O1 0.769170 0.257873 0.151113
O O2 0.883881 0.232111 0.202518
O O3 0.880818 0.238989 0.078681
O O4 0.834583 0.000000 0.138221
O O5 0.500000 0.749372 0.369661
O O6 0.571234 0.804719 0.270619
O O7 0.643259 0.754923 0.366180
O O8 0.570094 0.000000 0.362819
O O9 0.108781 0.230998 0.826884
O O10 0.223471 0.253634 0.880776
O O11 0.154210 0.000000 0.891042
O O12 0.112169 0.238652 0.952952
O O13 0.716235 0.500000 0.204983
O O14 0.638570 0.730017 0.173253
O O15 0.722049 0.758203 0.267267
O O16 0.500000 0.238049 0.170890
O O17 0.578411 0.000000 0.178917
O O18 0.915531 0.500000 0.252524
O O19 0.000000 0.724597 0.257466
O O20 0.713732 0.500000 0.839976
O O21 0.000000 0.758713 0.021272
O O22 0.924948 0.000000 0.018008
#
# Coordination Sequence:
#
# PCOD9356089 Si02
#       8
#     8   8   8   8   8   8   8   8
#     4  11  21  34  53  75 100 132 172 216 257 301
#     4   7  11  21  38  61  91 127 162 194 233 282
#     4  10  19  33  53  75 101 133 166 204 254 312
#     4  11  20  30  46  71 104 138 172 212 258 305
#     4   8  14  26  44  67  98 135 171 207 251 302
#     4  10  20  33  51  75 101 129 161 200 254 316
#     4  10  18  29  47  72 101 132 168 211 253 298
#     4   9  19  36  56  76  98 129 170 213 257 310
#
# _framework density 17.473915000000002
#
# number of rings (size 3 to 8) (size 9 to 14) (size 15 to 20)
#    0.000    2.500    1.250    4.125    0.000    2.500 
#    0.000    1.250    0.000    3.750    0.000    0.875 
#    0.000    5.000    0.000    0.000    0.000    0.000 
#
# Total GULP energy -178338.650095 kJ/mol
# GULP energy per Si atom -5573.082815 kJ/mol
# Density = 1.743414 g / cm^3
# Si number density = 17.473915 Si / 1000 Ang^3
#
#
#
# Elastic Constant Matrix: (Units=GPa)
#
#
# Indices 1 2 3 4 5 6 
#
# 1 181.9335 34.7566 58.4746 0.0000 0.0000 0.0000
# 2 34.7566 25.9922 20.5779 0.0000 0.0000 0.0000
# 3 58.4746 20.5779 85.7829 0.0000 0.0000 0.0000
# 4 0.0000 0.0000 0.0000 13.7166 0.0000 0.0000
# 5 0.0000 0.0000 0.0000 0.0000 17.6256 0.0000
# 6 0.0000 0.0000 0.0000 0.0000 0.0000 26.9327
#
#
#
# Elastic Compliance Matrix: (Units=1/GPa)
#
#
# Indices 1 2 3 4 5 6 
#
# 1 0.008219 -0.008092 -0.003662 0.000000 0.000000 0.000000
# 2 -0.008092 0.055459 -0.007788 0.000000 0.000000 0.000000
# 3 -0.003662 -0.007788 0.016021 0.000000 0.000000 0.000000
# 4 0.000000 0.000000 0.000000 0.072905 0.000000 0.000000
# 5 0.000000 0.000000 0.000000 0.000000 0.056736 0.000000
# 6 0.000000 0.000000 0.000000 0.000000 0.000000 0.037130
#
#
# Mechanical properties :
#
#
# Convention : Reuss Voigt Hill
#
# Bulk Modulus (GPa) = 24.62014 57.92522 41.27268
# Shear Modulus (GPa) = 16.71731 23.64827 20.18279
#
# Velocity S-wave (km/s) = 3.09641 3.68278 3.40225
# Velocity P-wave (km/s) = 5.18690 7.16277 6.25337
#
# Compressibility (1/GPa) = 0.04061716
#
# Stress axis : x y z
#
# Youngs Moduli (GPa) = 121.66566 18.03132 62.41621
#
# Poissons Ratio (x) = 0.14591 0.22854
# Poissons Ratio (y) = 0.98450 0.48609
# Poissons Ratio (z) = 0.44549 0.14043
#
# Static dielectric constant tensor:
#      x y z
#    x 1.639170 0.000000 0.000000 
#    y 0.000000 1.594240 0.000000 
#    z 0.000000 0.000000 1.565690 
# 
# From -- ./inp_files/18931.got.cif
#   From: 2010.05.17/outbox.cif.g08.bks.cpg/sg38_10_cif.got.tgz:18931.got - 2010.06.03 18:07:57.
