data_PCOD9356203
_publ_section_title
;
Structure prediction by ZEFSAII (Michael W. Deem and Ramdas Pophale) SiO2 
 PCOD9356203
Probable space group: A M M 2
;
_chemical_formula_sum "Si O2"
_cell_formula_units_Z 40
_cell_length_a 7.566155
_cell_length_b 19.089721
_cell_length_c 14.005990
_cell_angle_alpha 90.000000
_cell_angle_beta 90.000000
_cell_angle_gamma 90.000000
_cell_volume 2022.966202
_symmetry_space_group_name_H-M "A M M 2"
_symmetry_group_IT_number 38
_symmetry_cell_setting 'orthorhombic'
loop_
_space_group_symop_operation_xyz
x,y,z
-x,-y,z
-x,y,z
x,-y,z
x,1/2+y,1/2+z
-x,1/2-y,1/2+z
-x,1/2+y,1/2+z
x,1/2-y,1/2+z
loop_
_atom_site_type_symbol
_atom_site_label
_atom_site_fract_x
_atom_site_fract_y
_atom_site_fract_z
Si Si1 0.214171 0.212164 0.362660
Si Si2 0.707751 0.648683 0.062935
Si Si3 0.216287 0.857232 0.955577
Si Si4 0.785487 0.000000 0.856466
Si Si5 0.794204 0.296759 0.651457
Si Si6 0.707487 0.500000 0.133686
O O1 0.268749 0.162997 0.450339
O O2 0.269595 0.290891 0.391353
O O3 0.281380 0.194121 0.257196
O O4 0.000000 0.212110 0.360642
O O5 0.500000 0.650140 0.085592
O O6 0.786623 0.715390 0.118750
O O7 0.781629 0.573292 0.093814
O O8 0.000000 0.857205 0.957555
O O9 0.273573 0.930116 0.910839
O O10 0.280217 0.840942 0.062859
O O11 0.724759 0.000000 0.747510
O O12 0.000000 0.000000 0.855391
O O13 0.000000 0.316313 0.658232
O O14 0.500000 0.500000 0.107034
#
# Coordination Sequence:
#
# PCOD9356203 Si02
#       6
#     8   8   8   4   8   4
#     4   9  17  31  50  70  94 126 162 201 241 279
#     4  10  20  33  49  70  97 128 162 199 239 286
#     4   8  15  27  45  71  97 120 153 194 233 275
#     4  10  18  30  51  74  96 126 159 190 233 290
#     4   9  17  32  52  73  99 127 157 198 242 281
#     4  10  22  36  47  66  98 128 155 198 247 280
#
# _framework density 19.772945
#
# number of rings (size 3 to 8) (size 9 to 14) (size 15 to 20)
#    0.000    2.800    0.000    3.000    0.000    4.000 
#    0.000    7.000    0.000    2.400    0.000    0.000 
#    0.000    0.000    0.000    0.000    0.000    0.000 
#
# Total GULP energy -111567.626931 kJ/mol
# GULP energy per Si atom -5578.381347 kJ/mol
# Density = 1.972794 g / cm^3
# Si number density = 19.772945 Si / 1000 Ang^3
#
#
#
# Elastic Constant Matrix: (Units=GPa)
#
#
# Indices 1 2 3 4 5 6 
#
# 1 43.1213 -11.1019 -14.5423 0.0000 0.0000 0.0000
# 2 -11.1019 138.0740 70.8605 0.0000 0.0000 0.0000
# 3 -14.5423 70.8605 147.6063 0.0000 0.0000 0.0000
# 4 0.0000 0.0000 0.0000 15.9258 0.0000 0.0000
# 5 0.0000 0.0000 0.0000 0.0000 32.3692 0.0000
# 6 0.0000 0.0000 0.0000 0.0000 0.0000 6.0426
#
#
#
# Elastic Compliance Matrix: (Units=1/GPa)
#
#
# Indices 1 2 3 4 5 6 
#
# 1 0.024082 0.000954 0.001915 0.000000 0.000000 0.000000
# 2 0.000954 0.009648 -0.004538 0.000000 0.000000 0.000000
# 3 0.001915 -0.004538 0.009142 0.000000 0.000000 0.000000
# 4 0.000000 0.000000 0.000000 0.062791 0.000000 0.000000
# 5 0.000000 0.000000 0.000000 0.000000 0.030894 0.000000
# 6 0.000000 0.000000 0.000000 0.000000 0.000000 0.165490
#
#
# Mechanical properties :
#
#
# Convention : Reuss Voigt Hill
#
# Bulk Modulus (GPa) = 25.29545 46.58157 35.93851
# Shear Modulus (GPa) = 15.69550 29.77322 22.73436
#
# Velocity S-wave (km/s) = 2.82048 3.88462 3.39451
# Velocity P-wave (km/s) = 4.84020 6.61284 5.79471
#
# Compressibility (1/GPa) = 0.03953280
#
# Stress axis : x y z
#
# Youngs Moduli (GPa) = 41.52538 103.64907 109.38772
#
# Poissons Ratio (x) = -0.09885 -0.20945
# Poissons Ratio (y) = -0.03960 0.49637
# Poissons Ratio (z) = -0.07951 0.47033
#
# Static dielectric constant tensor:
#      x y z
#    x 1.712000 0.000000 0.000000 
#    y 0.000000 1.673050 0.000000 
#    z 0.000000 0.000000 1.692200 
# 
# From -- ./inp_files/11848.got.cif
#   From: 2010.05.17/outbox.cif.g08.bks.cpg/sg38_6_cif.got.tgz:11848.got - 2010.06.03 18:07:57.
