data_PCOD9356724
_publ_section_title
;
Structure prediction by ZEFSAII (Michael W. Deem and Ramdas Pophale) SiO2 
 PCOD9356724
Probable space group: A M M 2
;
_chemical_formula_sum "Si O2"
_cell_formula_units_Z 56
_cell_length_a 7.825270
_cell_length_b 14.031774
_cell_length_c 33.303239
_cell_angle_alpha 90.000000
_cell_angle_beta 90.000000
_cell_angle_gamma 90.000000
_cell_volume 3656.776240
_symmetry_space_group_name_H-M "A M M 2"
_symmetry_group_IT_number 38
_symmetry_cell_setting 'orthorhombic'
loop_
_space_group_symop_operation_xyz
x,y,z
-x,-y,z
-x,y,z
x,-y,z
x,1/2+y,1/2+z
-x,1/2-y,1/2+z
-x,1/2+y,1/2+z
x,1/2-y,1/2+z
loop_
_atom_site_type_symbol
_atom_site_label
_atom_site_fract_x
_atom_site_fract_y
_atom_site_fract_z
Si Si1 0.705229 0.893868 0.156270
Si Si2 0.000000 0.384157 0.879681
Si Si3 0.292805 0.892872 0.699241
Si Si4 0.308939 0.612867 0.822576
Si Si5 0.800722 0.299937 0.740428
Si Si6 0.700483 0.114737 0.531399
Si Si7 0.708136 0.202377 0.616368
Si Si8 0.000000 0.115714 0.471369
O O1 0.500000 0.896898 0.152039
O O2 0.742129 0.860338 0.201680
O O3 0.767559 0.809120 0.127296
O O4 0.772915 0.000000 0.148932
O O5 0.833441 0.355843 0.854328
O O6 0.000000 0.349913 0.925512
O O7 0.000000 0.500000 0.881179
O O8 0.500000 0.890335 0.700080
O O9 0.229288 0.809969 0.728527
O O10 0.239448 0.863522 0.653973
O O11 0.237037 0.000000 0.708761
O O12 0.500000 0.623902 0.838916
O O13 0.281674 0.500000 0.814183
O O14 0.292336 0.667990 0.780714
O O15 0.000000 0.317773 0.746783
O O16 0.500000 0.137961 0.523714
O O17 0.757616 0.162656 0.573190
O O18 0.830104 0.143041 0.496094
O O19 0.709665 0.000000 0.536258
O O20 0.500000 0.202311 0.616551
O O21 0.000000 0.000000 0.470141
#
# Coordination Sequence:
#
# PCOD9356724 Si02
#       8
#     8   4   8   8   8   8   8   4
#     4   9  17  29  44  61  84 118 158 194 226 259
#     4   9  18  32  46  65  91 115 143 179 222 272
#     4   9  17  30  46  62  85 119 157 194 226 257
#     4  10  19  31  48  67  89 119 152 185 222 266
#     4  11  20  29  42  62  91 122 153 189 224 264
#     4   9  16  27  44  64  88 118 148 180 219 264
#     4   8  14  26  43  62  85 115 151 187 222 258
#     4   9  18  30  44  65  91 115 143 177 218 272
#
# _framework density 15.314036
#
# number of rings (size 3 to 8) (size 9 to 14) (size 15 to 20)
#    0.000    2.714    0.714    3.000    0.000    4.571 
#    5.143    2.857    0.000    0.000    0.000    0.000 
#    0.000    2.286    0.000    7.286    0.000    0.286 
#
# Total GULP energy -156040.724124 kJ/mol
# GULP energy per Si atom -5572.883004 kJ/mol
# Density = 1.527918 g / cm^3
# Si number density = 15.314036 Si / 1000 Ang^3
#
#
#
# Elastic Constant Matrix: (Units=GPa)
#
#
# Indices 1 2 3 4 5 6 
#
# 1 64.2902 19.4345 45.0463 0.0000 0.0000 0.0000
# 2 19.4345 61.8106 29.8530 0.0000 0.0000 0.0000
# 3 45.0463 29.8530 114.9093 0.0000 0.0000 0.0000
# 4 0.0000 0.0000 0.0000 16.0164 0.0000 0.0000
# 5 0.0000 0.0000 0.0000 0.0000 23.7320 0.0000
# 6 0.0000 0.0000 0.0000 0.0000 0.0000 8.9530
#
#
#
# Elastic Compliance Matrix: (Units=1/GPa)
#
#
# Indices 1 2 3 4 5 6 
#
# 1 0.021966 -0.003142 -0.007795 0.000000 0.000000 0.000000
# 2 -0.003142 0.018949 -0.003691 0.000000 0.000000 0.000000
# 3 -0.007795 -0.003691 0.012717 0.000000 0.000000 0.000000
# 4 0.000000 0.000000 0.000000 0.062436 0.000000 0.000000
# 5 0.000000 0.000000 0.000000 0.000000 0.042137 0.000000
# 6 0.000000 0.000000 0.000000 0.000000 0.000000 0.111694
#
#
# Mechanical properties :
#
#
# Convention : Reuss Voigt Hill
#
# Bulk Modulus (GPa) = 41.02327 47.74197 44.38262
# Shear Modulus (GPa) = 16.27176 19.51869 17.89523
#
# Velocity S-wave (km/s) = 3.26320 3.57397 3.42212
# Velocity P-wave (km/s) = 6.40657 6.94795 6.68274
#
# Compressibility (1/GPa) = 0.02437641
#
# Stress axis : x y z
#
# Youngs Moduli (GPa) = 45.52544 52.77299 78.63406
#
# Poissons Ratio (x) = 0.16580 0.61293
# Poissons Ratio (y) = 0.14303 0.29026
# Poissons Ratio (z) = 0.35486 0.19480
#
# Static dielectric constant tensor:
#      x y z
#    x 1.548230 0.000000 0.000000 
#    y 0.000000 1.506640 0.000000 
#    z 0.000000 0.000000 1.484430 
# 
# From -- ./inp_files/24676.got.cif
#   From: 2010.05.17/outbox.cif.g08.bks.cpg/sg38_13_cif.got.tgz:24676.got - 2010.06.03 18:07:57.
