data_PCOD9356745
_publ_section_title
;
Structure prediction by ZEFSAII (Michael W. Deem and Ramdas Pophale) SiO2 
 PCOD9356745
Probable space group: A M M 2
;
_chemical_formula_sum "Si O2"
_cell_formula_units_Z 56
_cell_length_a 26.500826
_cell_length_b 24.060170
_cell_length_c 5.119774
_cell_angle_alpha 90.000000
_cell_angle_beta 90.000000
_cell_angle_gamma 90.000000
_cell_volume 3264.441518
_symmetry_space_group_name_H-M "A M M 2"
_symmetry_group_IT_number 38
_symmetry_cell_setting 'orthorhombic'
loop_
_space_group_symop_operation_xyz
x,y,z
-x,-y,z
-x,y,z
x,-y,z
x,1/2+y,1/2+z
-x,1/2-y,1/2+z
-x,1/2+y,1/2+z
x,1/2-y,1/2+z
loop_
_atom_site_type_symbol
_atom_site_label
_atom_site_fract_x
_atom_site_fract_y
_atom_site_fract_z
Si Si1 0.259651 0.632000 0.279240
Si Si2 0.287721 0.435398 0.788501
Si Si3 0.164010 0.710512 0.227952
Si Si4 0.647604 0.214021 0.656763
Si Si5 0.054726 0.788106 0.820304
Si Si6 0.590853 0.564586 0.784503
Si Si7 0.557756 0.131227 0.776515
O O1 0.268230 0.603806 0.558046
O O2 0.208183 0.666403 0.262670
O O3 0.305362 0.674411 0.219761
O O4 0.263792 0.584958 0.058345
O O5 0.276961 0.500000 0.735757
O O6 0.348524 0.429614 0.806619
O O7 0.168057 0.758153 0.450763
O O8 0.108285 0.683549 0.264120
O O9 0.649876 0.234916 0.359738
O O10 0.596552 0.180387 0.712549
O O11 0.055501 0.737291 0.611234
O O12 0.000000 0.816500 0.783144
O O13 0.579359 0.500000 0.733128
O O14 0.571649 0.603169 0.551110
O O15 0.566474 0.585255 0.052586
O O16 0.500000 0.149958 0.776868
#
# Coordination Sequence:
#
# PCOD9356745 Si02
#       7
#     8   8   8   8   8   8   8
#     4  12  21  37  57  80 106 135 172 215 257 304
#     4  11  22  38  60  80 103 133 167 209 266 321
#     4  10  19  31  48  78 111 145 181 213 253 299
#     4  12  24  39  57  76 102 137 172 202 245 294
#     4   8  14  25  42  65 101 144 180 213 250 293
#     4  11  22  41  62  83 106 129 161 209 268 319
#     4  12  25  41  59  82 106 132 170 209 250 310
#
# _framework density 17.154544000000001
#
# number of rings (size 3 to 8) (size 9 to 14) (size 15 to 20)
#    0.000    1.143    2.857    4.714    0.000    4.571 
#    0.000    0.000    0.000    0.000    0.000    0.000 
#    0.000    3.429    0.000    0.000    0.000    0.000 
#
# Total GULP energy -156409.295018 kJ/mol
# GULP energy per Si atom -5586.046251 kJ/mol
# Density = 1.711550 g / cm^3
# Si number density = 17.154544 Si / 1000 Ang^3
#
#
#
# Elastic Constant Matrix: (Units=GPa)
#
#
# Indices 1 2 3 4 5 6 
#
# 1 131.1217 27.3769 -10.0361 0.0000 0.0000 0.0000
# 2 27.3769 33.6170 -14.4980 0.0000 0.0000 0.0000
# 3 -10.0361 -14.4980 54.0149 0.0000 0.0000 0.0000
# 4 0.0000 0.0000 0.0000 31.3371 0.0000 0.0000
# 5 0.0000 0.0000 0.0000 0.0000 17.3818 0.0000
# 6 0.0000 0.0000 0.0000 0.0000 0.0000 -2.9837
#
#
#
# Elastic Compliance Matrix: (Units=1/GPa)
#
#
# Indices 1 2 3 4 5 6 
#
# 1 0.009194 -0.007635 -0.000341 0.000000 0.000000 0.000000
# 2 -0.007635 0.039981 0.009313 0.000000 0.000000 0.000000
# 3 -0.000341 0.009313 0.020950 0.000000 0.000000 0.000000
# 4 0.000000 0.000000 0.000000 0.031911 0.000000 0.000000
# 5 0.000000 0.000000 0.000000 0.000000 0.057531 0.000000
# 6 0.000000 0.000000 0.000000 0.000000 0.000000 -0.335152
#
#
# Mechanical properties :
#
#
# Convention : Reuss Voigt Hill
#
# Bulk Modulus (GPa) = 13.73654 24.93768 19.33711
# Shear Modulus (GPa) = -32.46921 23.54110 -4.46405
#
# Velocity S-wave (km/s) = -4.35529 3.70847 -1.61490
# Velocity P-wave (km/s) = 4.15530 5.73634 2.79635
#
# Compressibility (1/GPa) = 0.07279855
#
# Stress axis : x y z
#
# Youngs Moduli (GPa) = 108.76099 25.01212 47.73353
#
# Poissons Ratio (x) = 0.19096 0.01627
# Poissons Ratio (y) = 0.83036 -0.44452
# Poissons Ratio (z) = 0.03707 -0.23293
#
# Static dielectric constant tensor:
#      x y z
#    x 1.601230 0.000000 0.000000 
#    y 0.000000 1.557260 0.000000 
#    z 0.000000 0.000000 1.581850 
# 
# From -- ./inp_files/2113.got.cif
#   From: 2010.05.17/outbox.cif.g08.bks.cpg/sg38_2_cif.got.tgz:2113.got - 2010.06.03 18:07:57.
