data_PCOD9356630
_publ_section_title
;
Structure prediction by ZEFSAII (Michael W. Deem and Ramdas Pophale) SiO2 
 PCOD9356630
Probable space group: A M M 2
;
_chemical_formula_sum "Si O2"
_cell_formula_units_Z 48
_cell_length_a 11.962456
_cell_length_b 26.098372
_cell_length_c 9.595230
_cell_angle_alpha 90.000000
_cell_angle_beta 90.000000
_cell_angle_gamma 90.000000
_cell_volume 2995.636820
_symmetry_space_group_name_H-M "A M M 2"
_symmetry_group_IT_number 38
_symmetry_cell_setting 'orthorhombic'
loop_
_space_group_symop_operation_xyz
x,y,z
-x,-y,z
-x,y,z
x,-y,z
x,1/2+y,1/2+z
-x,1/2-y,1/2+z
-x,1/2+y,1/2+z
x,1/2-y,1/2+z
loop_
_atom_site_type_symbol
_atom_site_label
_atom_site_fract_x
_atom_site_fract_y
_atom_site_fract_z
Si Si1 0.868053 0.279094 0.617160
Si Si2 0.130334 0.862284 0.877687
Si Si3 0.500000 0.683892 0.765787
Si Si4 0.740010 0.171701 0.616673
Si Si5 0.500000 0.783125 0.583442
Si Si6 0.868269 0.560384 0.624916
Si Si7 0.258767 0.859799 0.304765
O O1 0.853031 0.312352 0.476154
O O2 0.810003 0.224448 0.606291
O O3 0.811373 0.312639 0.738580
O O4 0.000000 0.273824 0.642945
O O5 0.210629 0.858913 0.746480
O O6 0.000000 0.862733 0.834346
O O7 0.150579 0.910684 0.978225
O O8 0.500000 0.725796 0.643512
O O9 0.612608 0.650576 0.763528
O O10 0.500000 0.713796 0.914874
O O11 0.611510 0.188412 0.634315
O O12 0.750548 0.142224 0.470855
O O13 0.848164 0.500000 0.617283
O O14 0.792396 0.589385 0.737183
O O15 0.000000 0.568945 0.658634
#
# Coordination Sequence:
#
# PCOD9356630 Si02
#       7
#     8   8   4   8   4   8   8
#     4  10  19  30  46  71 104 139 168 198 242 300
#     4   9  19  32  49  74 101 133 167 204 252 299
#     4  10  20  34  49  73 104 138 177 209 238 289
#     4  11  20  31  47  74 106 135 169 205 246 295
#     4  10  22  32  48  71 104 146 176 203 240 281
#     4   9  19  38  59  76  97 127 166 212 261 310
#     4  10  20  33  51  74 101 134 171 209 249 296
#
# _framework density 16.023305000000001
#
# number of rings (size 3 to 8) (size 9 to 14) (size 15 to 20)
#    0.000    2.167    1.667    3.000    2.333    4.000 
#    0.000    1.250    0.000    2.000    0.000    1.167 
#    0.000    0.000    0.000    0.000    0.000    0.000 
#
# Total GULP energy -133940.372844 kJ/mol
# GULP energy per Si atom -5580.848868 kJ/mol
# Density = 1.598683 g / cm^3
# Si number density = 16.023305 Si / 1000 Ang^3
#
#
#
# Elastic Constant Matrix: (Units=GPa)
#
#
# Indices 1 2 3 4 5 6 
#
# 1 127.4009 58.9584 71.0936 0.0000 0.0000 0.0000
# 2 58.9584 103.8603 49.8058 0.0000 0.0000 0.0000
# 3 71.0936 49.8058 80.9978 0.0000 0.0000 0.0000
# 4 0.0000 0.0000 0.0000 6.5218 0.0000 0.0000
# 5 0.0000 0.0000 0.0000 0.0000 25.6925 0.0000
# 6 0.0000 0.0000 0.0000 0.0000 0.0000 15.7281
#
#
#
# Elastic Compliance Matrix: (Units=1/GPa)
#
#
# Indices 1 2 3 4 5 6 
#
# 1 0.016174 -0.003366 -0.012126 0.000000 0.000000 0.000000
# 2 -0.003366 0.014355 -0.005872 0.000000 0.000000 0.000000
# 3 -0.012126 -0.005872 0.026600 0.000000 0.000000 0.000000
# 4 0.000000 0.000000 0.000000 0.153331 0.000000 0.000000
# 5 0.000000 0.000000 0.000000 0.000000 0.038922 0.000000
# 6 0.000000 0.000000 0.000000 0.000000 0.000000 0.063581
#
#
# Mechanical properties :
#
#
# Convention : Reuss Voigt Hill
#
# Bulk Modulus (GPa) = 69.44588 74.66385 72.05487
# Shear Modulus (GPa) = 13.86988 18.41523 16.14255
#
# Velocity S-wave (km/s) = 2.94531 3.39378 3.17747
# Velocity P-wave (km/s) = 7.41627 7.87751 7.65037
#
# Compressibility (1/GPa) = 0.01439970
#
# Stress axis : x y z
#
# Youngs Moduli (GPa) = 61.82794 69.66010 37.59337
#
# Poissons Ratio (x) = 0.23450 0.45586
# Poissons Ratio (y) = 0.20814 0.22077
# Poissons Ratio (z) = 0.74974 0.40908
#
# Static dielectric constant tensor:
#      x y z
#    x 1.536010 0.000000 0.000000 
#    y 0.000000 1.505660 0.000000 
#    z 0.000000 0.000000 1.540220 
# 
# From -- ./inp_files/4721.got.cif
#   From: 2010.05.17/outbox.cif.g08.bks.cpg/sg38_3_cif.got.tgz:4721.got - 2010.06.03 18:07:57.
