data_PCOD9356715
_publ_section_title
;
Structure prediction by ZEFSAII (Michael W. Deem and Ramdas Pophale) SiO2 
 PCOD9356715
Probable space group: A M M 2
;
_chemical_formula_sum "Si O2"
_cell_formula_units_Z 64
_cell_length_a 11.100955
_cell_length_b 26.093209
_cell_length_c 12.397830
_cell_angle_alpha 90.000000
_cell_angle_beta 90.000000
_cell_angle_gamma 90.000000
_cell_volume 3591.149721
_symmetry_space_group_name_H-M "A M M 2"
_symmetry_group_IT_number 38
_symmetry_cell_setting 'orthorhombic'
loop_
_space_group_symop_operation_xyz
x,y,z
-x,-y,z
-x,y,z
x,-y,z
x,1/2+y,1/2+z
-x,1/2-y,1/2+z
-x,1/2+y,1/2+z
x,1/2-y,1/2+z
loop_
_atom_site_type_symbol
_atom_site_label
_atom_site_fract_x
_atom_site_fract_y
_atom_site_fract_z
Si Si1 0.870181 0.628286 0.649610
Si Si2 0.791952 0.198285 0.957445
Si Si3 0.646442 0.057370 0.635631
Si Si4 0.360047 0.611981 0.357287
Si Si5 0.639079 0.061401 0.092457
Si Si6 0.637682 0.246437 0.636719
Si Si7 0.797144 0.791897 0.324485
Si Si8 0.640276 0.350595 0.998765
O O1 0.864732 0.663256 0.541333
O O2 0.748973 0.593162 0.647473
O O3 0.866909 0.667902 0.749679
O O4 0.000000 0.600597 0.650787
O O5 0.726342 0.160032 0.875509
O O6 0.853898 0.246117 0.896699
O O7 0.688568 0.222873 0.033751
O O8 0.500000 0.056857 0.631917
O O9 0.676635 0.079860 0.752725
O O10 0.685405 0.094922 0.540380
O O11 0.691048 0.000000 0.623157
O O12 0.500000 0.628337 0.344230
O O13 0.354734 0.577803 0.466239
O O14 0.500000 0.074205 0.127970
O O15 0.654192 0.000000 0.103892
O O16 0.500000 0.260251 0.654918
O O17 0.713583 0.261878 0.739591
O O18 0.645577 0.187316 0.602082
O O19 0.717895 0.825746 0.405480
O O20 0.500000 0.353377 0.966254
#
# Coordination Sequence:
#
# PCOD9356715 Si02
#       8
#     8   8   8   8   8   8   8   8
#     4  10  22  37  53  76 104 135 173 214 256 306
#     4   9  18  30  46  69  97 129 167 209 253 299
#     4   9  16  25  38  60  93 130 163 195 235 288
#     4   9  15  25  45  73 103 132 162 200 251 307
#     4   9  18  34  56  81 107 134 167 211 262 310
#     4   9  16  26  42  67  97 126 160 206 256 301
#     4  10  19  31  47  66  93 132 173 208 247 296
#     4   9  17  27  41  64  93 125 162 204 250 298
#
# _framework density 17.821591999999999
#
# number of rings (size 3 to 8) (size 9 to 14) (size 15 to 20)
#    0.000    2.750    0.000    1.875    0.000    8.250 
#    0.000    0.625    0.000    1.500    0.000    0.875 
#    0.000    4.000    0.000    0.000    0.000    0.000 
#
# Total GULP energy -178222.227464 kJ/mol
# GULP energy per Si atom -5569.444608 kJ/mol
# Density = 1.778103 g / cm^3
# Si number density = 17.821592 Si / 1000 Ang^3
#
#
#
# Elastic Constant Matrix: (Units=GPa)
#
#
# Indices 1 2 3 4 5 6 
#
# 1 85.9677 41.1243 25.0956 0.0000 0.0000 0.0000
# 2 41.1243 104.4333 33.0750 0.0000 0.0000 0.0000
# 3 25.0956 33.0750 65.5859 0.0000 0.0000 0.0000
# 4 0.0000 0.0000 0.0000 22.4258 0.0000 0.0000
# 5 0.0000 0.0000 0.0000 0.0000 -10.7979 0.0000
# 6 0.0000 0.0000 0.0000 0.0000 0.0000 6.0588
#
#
#
# Elastic Compliance Matrix: (Units=1/GPa)
#
#
# Indices 1 2 3 4 5 6 
#
# 1 0.014897 -0.004833 -0.003263 0.000000 0.000000 0.000000
# 2 -0.004833 0.012963 -0.004688 0.000000 0.000000 0.000000
# 3 -0.003263 -0.004688 0.018860 0.000000 0.000000 0.000000
# 4 0.000000 0.000000 0.000000 0.044592 0.000000 0.000000
# 5 0.000000 0.000000 0.000000 0.000000 -0.092611 0.000000
# 6 0.000000 0.000000 0.000000 0.000000 0.000000 0.165049
#
#
# Mechanical properties :
#
#
# Convention : Reuss Voigt Hill
#
# Bulk Modulus (GPa) = 47.27622 50.50854 48.89238
# Shear Modulus (GPa) = 25.46243 13.98346 19.72295
#
# Velocity S-wave (km/s) = 3.78397 2.80417 3.33030
# Velocity P-wave (km/s) = 6.75843 6.23596 6.50244
#
# Compressibility (1/GPa) = 0.02115228
#
# Stress axis : x y z
#
# Youngs Moduli (GPa) = 67.12955 77.14054 53.02231
#
# Poissons Ratio (x) = 0.37280 0.17300
# Poissons Ratio (y) = 0.32442 0.24858
# Poissons Ratio (z) = 0.21904 0.36166
#
# Static dielectric constant tensor:
#      x y z
#    x 1.606690 0.000000 0.000000 
#    y 0.000000 1.632950 0.000000 
#    z 0.000000 0.000000 1.603030 
# 
# From -- ./inp_files/9554.got.cif
#   From: 2010.05.17/outbox.cif.g08.bks.cpg/sg38_5_cif.got.tgz:9554.got - 2010.06.03 18:07:57.
