data_PCOD9356521
_publ_section_title
;
Structure prediction by ZEFSAII (Michael W. Deem and Ramdas Pophale) SiO2 
 PCOD9356521
Probable space group: A M M 2
;
_chemical_formula_sum "Si O2"
_cell_formula_units_Z 56
_cell_length_a 8.390993
_cell_length_b 14.194741
_cell_length_c 30.432539
_cell_angle_alpha 90.000000
_cell_angle_beta 90.000000
_cell_angle_gamma 90.000000
_cell_volume 3624.758014
_symmetry_space_group_name_H-M "A M M 2"
_symmetry_group_IT_number 38
_symmetry_cell_setting 'orthorhombic'
loop_
_space_group_symop_operation_xyz
x,y,z
-x,-y,z
-x,y,z
x,-y,z
x,1/2+y,1/2+z
-x,1/2-y,1/2+z
-x,1/2+y,1/2+z
x,1/2-y,1/2+z
loop_
_atom_site_type_symbol
_atom_site_label
_atom_site_fract_x
_atom_site_fract_y
_atom_site_fract_z
Si Si1 0.815576 0.614484 0.301970
Si Si2 0.305785 0.606007 0.032569
Si Si3 0.806915 0.109111 0.897754
Si Si4 0.192900 0.108778 0.706060
Si Si5 0.191062 0.606926 0.571802
Si Si6 0.690598 0.787041 0.620581
Si Si7 0.308925 0.291667 0.484560
O O1 0.817944 0.500000 0.302144
O O2 0.746466 0.641169 0.349469
O O3 0.746257 0.640315 0.254412
O O4 0.000000 0.646311 0.301947
O O5 0.500000 0.604341 0.032366
O O6 0.249311 0.500000 0.024516
O O7 0.256773 0.644035 0.080643
O O8 0.256263 0.685910 0.997847
O O9 0.751654 0.172264 0.937978
O O10 0.000000 0.109155 0.896167
O O11 0.757401 0.000000 0.904894
O O12 0.245839 0.174463 0.666461
O O13 0.000000 0.107822 0.708096
O O14 0.244203 0.000000 0.698333
O O15 0.245046 0.500000 0.580080
O O16 0.253276 0.683216 0.606649
O O17 0.248570 0.641405 0.523894
O O18 0.000000 0.608701 0.572147
O O19 0.500000 0.788163 0.621365
O O20 0.500000 0.293796 0.485021
#
# Coordination Sequence:
#
# PCOD9356521 Si02
#       7
#     8   8   8   8   8   8   8
#     4   7  12  24  41  60  82 111 146 178 209 248
#     4   8  15  28  42  56  79 111 142 168 198 243
#     4   9  16  27  43  61  84 116 148 175 208 253
#     4   9  16  27  44  65  89 116 146 180 214 252
#     4  10  20  33  47  62  83 113 147 179 210 252
#     4  10  19  29  44  66  89 113 141 175 216 260
#     4  10  19  28  42  65  88 111 140 176 218 258
#
# _framework density 15.449308
#
# number of rings (size 3 to 8) (size 9 to 14) (size 15 to 20)
#    0.000    3.000    0.000    4.714    0.000    4.000 
#    0.000    0.714    0.000   11.143    0.000    1.000 
#    0.000    5.714    0.000    0.000    0.000    0.000 
#
# Total GULP energy -155905.233867 kJ/mol
# GULP energy per Si atom -5568.044067 kJ/mol
# Density = 1.541414 g / cm^3
# Si number density = 15.449308 Si / 1000 Ang^3
#
#
#
# Elastic Constant Matrix: (Units=GPa)
#
#
# Indices 1 2 3 4 5 6 
#
# 1 17.1346 15.8167 20.4093 0.0000 0.0000 0.0000
# 2 15.8167 109.8585 79.0337 0.0000 0.0000 0.0000
# 3 20.4093 79.0337 166.2664 0.0000 0.0000 0.0000
# 4 0.0000 0.0000 0.0000 23.7773 0.0000 0.0000
# 5 0.0000 0.0000 0.0000 0.0000 -4.3381 0.0000
# 6 0.0000 0.0000 0.0000 0.0000 0.0000 16.2864
#
#
#
# Elastic Compliance Matrix: (Units=1/GPa)
#
#
# Indices 1 2 3 4 5 6 
#
# 1 0.070862 -0.005994 -0.005849 0.000000 0.000000 0.000000
# 2 -0.005994 0.014340 -0.006081 0.000000 0.000000 0.000000
# 3 -0.005849 -0.006081 0.009623 0.000000 0.000000 0.000000
# 4 0.000000 0.000000 0.000000 0.042057 0.000000 0.000000
# 5 0.000000 0.000000 0.000000 0.000000 -0.230517 0.000000
# 6 0.000000 0.000000 0.000000 0.000000 0.000000 0.061401
#
#
# Mechanical properties :
#
#
# Convention : Reuss Voigt Hill
#
# Bulk Modulus (GPa) = 16.95587 58.19764 37.57675
# Shear Modulus (GPa) = 214.85105 19.01178 116.93141
#
# Velocity S-wave (km/s) = 11.80552 3.51178 8.70927
# Velocity P-wave (km/s) = 14.02947 7.36175 11.20316
#
# Compressibility (1/GPa) = 0.05897663
#
# Stress axis : x y z
#
# Youngs Moduli (GPa) = 14.11201 69.73397 103.91956
#
# Poissons Ratio (x) = 0.41802 0.60781
# Poissons Ratio (y) = 0.08459 0.63191
# Poissons Ratio (z) = 0.08254 0.42403
#
# Static dielectric constant tensor:
#      x y z
#    x 1.536010 0.000000 0.000000 
#    y 0.000000 1.505650 0.000000 
#    z 0.000000 0.000000 1.531090 
# 
# From -- ./inp_files/24646.got.cif
#   From: 2010.05.17/outbox.cif.g08.bks.cpg/sg38_13_cif.got.tgz:24646.got - 2010.06.03 18:07:57.
