data_PCOD9356787
_publ_section_title
;
Structure prediction by ZEFSAII (Michael W. Deem and Ramdas Pophale) SiO2 
 PCOD9356787
Probable space group: A M M 2
;
_chemical_formula_sum "Si O2"
_cell_formula_units_Z 64
_cell_length_a 22.153675
_cell_length_b 7.480441
_cell_length_c 18.282536
_cell_angle_alpha 90.000000
_cell_angle_beta 90.000000
_cell_angle_gamma 90.000000
_cell_volume 3029.768314
_symmetry_space_group_name_H-M "A M M 2"
_symmetry_group_IT_number 38
_symmetry_cell_setting 'orthorhombic'
loop_
_space_group_symop_operation_xyz
x,y,z
-x,-y,z
-x,y,z
x,-y,z
x,1/2+y,1/2+z
-x,1/2-y,1/2+z
-x,1/2+y,1/2+z
x,1/2-y,1/2+z
loop_
_atom_site_type_symbol
_atom_site_label
_atom_site_fract_x
_atom_site_fract_y
_atom_site_fract_z
Si Si1 0.815749 0.712463 0.229070
Si Si2 0.564728 0.782646 0.973345
Si Si3 0.565389 0.208455 0.300130
Si Si4 0.304787 0.286234 0.820140
Si Si5 0.932862 0.717545 0.316544
Si Si6 0.933531 0.782007 0.986864
Si Si7 0.186620 0.793068 0.061339
Si Si8 0.306176 0.292950 0.490530
O O1 0.822158 0.500000 0.221593
O O2 0.755366 0.747125 0.275249
O O3 0.875903 0.780467 0.269912
O O4 0.810377 0.788593 0.148183
O O5 0.500000 0.728747 0.005789
O O6 0.564893 0.721587 0.888774
O O7 0.627337 0.717213 0.007590
O O8 0.566484 0.000000 0.972083
O O9 0.500000 0.285513 0.276131
O O10 0.632484 0.280523 0.282885
O O11 0.564710 0.000000 0.278543
O O12 0.310672 0.500000 0.827214
O O13 0.299547 0.212769 0.902570
O O14 0.932379 0.500000 0.314789
O O15 0.925911 0.767414 0.401704
O O16 0.000000 0.774484 0.291797
O O17 0.876603 0.716409 0.032813
O O18 0.000000 0.721537 0.011650
O O19 0.934738 0.000000 0.989836
O O20 0.186053 0.000000 0.036056
O O21 0.247128 0.710693 0.027081
O O22 0.308504 0.500000 0.514408
#
# Coordination Sequence:
#
# PCOD9356787 Si02
#       8
#     8   8   8   8   8   8   8   8
#     4  11  22  34  49  70  98 132 167 202 240 283
#     4   8  13  22  39  65  93 117 146 189 238 284
#     4   8  14  25  42  66  94 121 151 190 237 286
#     4  10  19  31  50  74  99 127 160 200 243 288
#     4   8  15  30  52  75  96 121 157 198 239 285
#     4   8  14  27  49  73  93 116 150 192 237 286
#     4  10  20  33  48  68  96 129 163 198 237 282
#     4   9  17  30  49  71  95 125 160 197 239 288
#
# _framework density 21.123726000000001
#
# number of rings (size 3 to 8) (size 9 to 14) (size 15 to 20)
#    0.000    3.000    0.000    2.250    0.000    3.500 
#    0.000    0.000    0.000    1.875    0.000    7.000 
#    0.000    0.000    0.000    0.000    0.000    0.000 
#
# Total GULP energy -178318.848188 kJ/mol
# GULP energy per Si atom -5572.464006 kJ/mol
# Density = 2.107565 g / cm^3
# Si number density = 21.123726 Si / 1000 Ang^3
#
#
#
# Elastic Constant Matrix: (Units=GPa)
#
#
# Indices 1 2 3 4 5 6 
#
# 1 268.4089 -1.7170 75.6813 0.0000 0.0000 0.0000
# 2 -1.7170 64.4821 -12.5814 0.0000 0.0000 0.0000
# 3 75.6813 -12.5814 43.0232 0.0000 0.0000 0.0000
# 4 0.0000 0.0000 0.0000 12.4971 0.0000 0.0000
# 5 0.0000 0.0000 0.0000 0.0000 -7.2779 0.0000
# 6 0.0000 0.0000 0.0000 0.0000 0.0000 -13.9773
#
#
#
# Elastic Compliance Matrix: (Units=1/GPa)
#
#
# Indices 1 2 3 4 5 6 
#
# 1 0.007787 -0.002614 -0.014462 0.000000 0.000000 0.000000
# 2 -0.002614 0.017324 0.009665 0.000000 0.000000 0.000000
# 3 -0.014462 0.009665 0.051509 0.000000 0.000000 0.000000
# 4 0.000000 0.000000 0.000000 0.080018 0.000000 0.000000
# 5 0.000000 0.000000 0.000000 0.000000 -0.137401 0.000000
# 6 0.000000 0.000000 0.000000 0.000000 0.000000 -0.071544
#
#
# Mechanical properties :
#
#
# Convention : Reuss Voigt Hill
#
# Bulk Modulus (GPa) = 16.18177 55.40889 35.79533
# Shear Modulus (GPa) = -296.10300 19.21714 -138.44293
#
# Velocity S-wave (km/s) = -11.85242 3.01946 -8.10440
# Velocity P-wave (km/s) = 13.40259 6.20031 8.40195
#
# Compressibility (1/GPa) = 0.06179794
#
# Stress axis : x y z
#
# Youngs Moduli (GPa) = 128.42540 57.72216 19.41405
#
# Poissons Ratio (x) = 0.15091 0.28076
# Poissons Ratio (y) = 0.33575 -0.18764
# Poissons Ratio (z) = 1.85726 -0.55789
#
# Static dielectric constant tensor:
#      x y z
#    x 1.840640 0.000000 0.000000 
#    y 0.000000 1.763540 0.000000 
#    z 0.000000 0.000000 1.678920 
# 
# From -- ./inp_files/18927.got.cif
#   From: 2010.05.17/outbox.cif.g08.bks.cpg/sg38_10_cif.got.tgz:18927.got - 2010.06.03 18:07:57.
