data_PCOD9356159
_publ_section_title
;
Structure prediction by ZEFSAII (Michael W. Deem and Ramdas Pophale) SiO2 
 PCOD9356159
Probable space group: A M M 2
;
_chemical_formula_sum "Si O2"
_cell_formula_units_Z 48
_cell_length_a 7.255027
_cell_length_b 14.350202
_cell_length_c 19.207392
_cell_angle_alpha 90.000000
_cell_angle_beta 90.000000
_cell_angle_gamma 90.000000
_cell_volume 1999.702766
_symmetry_space_group_name_H-M "A M M 2"
_symmetry_group_IT_number 38
_symmetry_cell_setting 'orthorhombic'
loop_
_space_group_symop_operation_xyz
x,y,z
-x,-y,z
-x,y,z
x,-y,z
x,1/2+y,1/2+z
-x,1/2-y,1/2+z
-x,1/2+y,1/2+z
x,1/2-y,1/2+z
loop_
_atom_site_type_symbol
_atom_site_label
_atom_site_fract_x
_atom_site_fract_y
_atom_site_fract_z
Si Si1 0.288829 0.101326 0.983920
Si Si2 0.274770 0.607791 0.823435
Si Si3 0.724305 0.897399 0.607689
Si Si4 0.221407 0.398414 0.320326
Si Si5 0.724025 0.696004 0.968981
Si Si6 0.705370 0.256205 0.711790
O O1 0.500000 0.101294 0.008812
O O2 0.286210 0.102407 0.899703
O O3 0.209271 0.203587 0.997477
O O4 0.208763 0.000000 0.004675
O O5 0.500000 0.611558 0.822593
O O6 0.222484 0.500000 0.829728
O O7 0.214839 0.665543 0.892009
O O8 0.211935 0.654652 0.750921
O O9 0.500000 0.896679 0.614127
O O10 0.769043 0.879856 0.527141
O O11 0.791115 0.809123 0.652534
O O12 0.787639 0.000000 0.629735
O O13 0.270134 0.500000 0.291098
O O14 0.304682 0.316822 0.275611
O O15 0.000000 0.389393 0.320281
O O16 0.500000 0.702537 0.965646
O O17 0.500000 0.282682 0.687214
#
# Coordination Sequence:
#
# PCOD9356159 Si02
#       6
#     8   8   8   8   8   8
#     4   9  16  27  45  69  94 120 153 193 237 281
#     4   9  16  26  43  67  92 120 155 195 236 276
#     4   9  17  27  42  67  97 126 154 189 233 280
#     4  10  19  29  44  68  96 124 154 192 238 282
#     4   9  15  26  43  66  94 122 153 189 230 277
#     4  10  18  30  47  70  95 122 158 197 235 277
#
# _framework density 24.003567
#
# number of rings (size 3 to 8) (size 9 to 14) (size 15 to 20)
#    0.000    2.667    1.667    1.500    0.000    3.667 
#    0.000    0.833    0.000    6.500    0.000    0.000 
#    0.000    0.000    0.000    0.000    0.000    0.000 
#
# Total GULP energy -133902.633454 kJ/mol
# GULP energy per Si atom -5579.276394 kJ/mol
# Density = 2.394893 g / cm^3
# Si number density = 24.003567 Si / 1000 Ang^3
#
#
#
# Elastic Constant Matrix: (Units=GPa)
#
#
# Indices 1 2 3 4 5 6 
#
# 1 115.8625 4.0631 -3.7623 0.0000 0.0000 0.0000
# 2 4.0631 163.3595 38.0249 0.0000 0.0000 0.0000
# 3 -3.7623 38.0249 86.0859 0.0000 0.0000 0.0000
# 4 0.0000 0.0000 0.0000 29.7511 0.0000 0.0000
# 5 0.0000 0.0000 0.0000 0.0000 166.7990 0.0000
# 6 0.0000 0.0000 0.0000 0.0000 0.0000 -40.0059
#
#
#
# Elastic Compliance Matrix: (Units=1/GPa)
#
#
# Indices 1 2 3 4 5 6 
#
# 1 0.008660 -0.000338 0.000528 0.000000 0.000000 0.000000
# 2 -0.000338 0.006836 -0.003034 0.000000 0.000000 0.000000
# 3 0.000528 -0.003034 0.012980 0.000000 0.000000 0.000000
# 4 0.000000 0.000000 0.000000 0.033612 0.000000 0.000000
# 5 0.000000 0.000000 0.000000 0.000000 0.005995 0.000000
# 6 0.000000 0.000000 0.000000 0.000000 0.000000 -0.024996
#
#
# Mechanical properties :
#
#
# Convention : Reuss Voigt Hill
#
# Bulk Modulus (GPa) = 43.88608 49.10659 46.49634
# Shear Modulus (GPa) = 88.69677 53.10766 70.90221
#
# Velocity S-wave (km/s) = 6.08537 4.70881 5.44080
# Velocity P-wave (km/s) = 8.22791 7.07576 7.67349
#
# Compressibility (1/GPa) = 0.02278627
#
# Stress axis : x y z
#
# Youngs Moduli (GPa) = 115.47449 146.28034 77.04342
#
# Poissons Ratio (x) = 0.04948 -0.04067
# Poissons Ratio (y) = 0.03906 0.23378
# Poissons Ratio (z) = -0.06096 0.44387
#
# Static dielectric constant tensor:
#      x y z
#    x 1.903680 0.000000 0.000000 
#    y 0.000000 1.956750 0.000000 
#    z 0.000000 0.000000 1.870080 
# 
# From -- ./inp_files/16658.got.cif
#   From: 2010.05.17/outbox.cif.g08.bks.cpg/sg38_9_cif.got.tgz:16658.got - 2010.06.03 18:07:57.
