data_PCOD9356323
_publ_section_title
;
Structure prediction by ZEFSAII (Michael W. Deem and Ramdas Pophale) SiO2 
 PCOD9356323
Probable space group: A M M 2
;
_chemical_formula_sum "Si O2"
_cell_formula_units_Z 64
_cell_length_a 7.619496
_cell_length_b 20.576530
_cell_length_c 21.148685
_cell_angle_alpha 90.000000
_cell_angle_beta 90.000000
_cell_angle_gamma 90.000000
_cell_volume 3315.749797
_symmetry_space_group_name_H-M "A M M 2"
_symmetry_group_IT_number 38
_symmetry_cell_setting 'orthorhombic'
loop_
_space_group_symop_operation_xyz
x,y,z
-x,-y,z
-x,y,z
x,-y,z
x,1/2+y,1/2+z
-x,1/2-y,1/2+z
-x,1/2+y,1/2+z
x,1/2-y,1/2+z
loop_
_atom_site_type_symbol
_atom_site_label
_atom_site_fract_x
_atom_site_fract_y
_atom_site_fract_z
Si Si1 0.707670 0.071174 0.625000
Si Si2 0.287854 0.572347 0.523697
Si Si3 0.202657 0.789105 0.974695
Si Si4 0.288014 0.791558 0.217574
Si Si5 0.286226 0.071563 0.171842
Si Si6 0.294072 0.710086 0.097664
Si Si7 0.209968 0.703523 0.336855
Si Si8 0.787354 0.071961 0.773502
O O1 0.500000 0.067811 0.610986
O O2 0.780450 0.137054 0.594109
O O3 0.729546 0.079374 0.700663
O O4 0.783287 0.000000 0.608545
O O5 0.500000 0.575066 0.520632
O O6 0.232718 0.500000 0.502705
O O7 0.215750 0.633554 0.486305
O O8 0.239167 0.579498 0.597793
O O9 0.280209 0.776277 0.905404
O O10 0.000000 0.769469 0.975101
O O11 0.282792 0.751521 0.033981
O O12 0.500000 0.793497 0.213652
O O13 0.225499 0.865711 0.210219
O O14 0.220821 0.750288 0.157270
O O15 0.241644 0.755298 0.281849
O O16 0.500000 0.070904 0.173448
O O17 0.226527 0.000000 0.192816
O O18 0.500000 0.701825 0.112028
O O19 0.277247 0.633166 0.313664
O O20 0.000000 0.696441 0.344279
O O21 0.000000 0.073101 0.773661
O O22 0.731148 0.000000 0.795461
#
# Coordination Sequence:
#
# PCOD9356323 Si02
#       8
#     8   8   8   8   8   8   8   8
#     4   9  17  30  50  76 103 127 156 204 259 302
#     4   9  17  32  53  75 103 138 171 207 252 300
#     4  11  23  35  49  72 104 142 177 211 252 300
#     4  10  18  31  54  79  98 126 168 210 254 300
#     4   8  14  27  49  75 101 126 156 199 249 299
#     4  10  19  33  53  77 102 129 167 213 258 306
#     4  10  22  36  48  69 103 139 171 206 251 298
#     4   9  17  30  48  69  96 132 168 198 235 291
#
# _framework density 19.301818000000001
#
# number of rings (size 3 to 8) (size 9 to 14) (size 15 to 20)
#    0.000    2.500    2.500    1.125    0.000    2.750 
#    0.000    1.250    0.000    2.625    0.000    5.250 
#    0.000    0.000    0.000    0.000    0.000    0.000 
#
# Total GULP energy -178471.946685 kJ/mol
# GULP energy per Si atom -5577.248334 kJ/mol
# Density = 1.925789 g / cm^3
# Si number density = 19.301818 Si / 1000 Ang^3
#
#
#
# Elastic Constant Matrix: (Units=GPa)
#
#
# Indices 1 2 3 4 5 6 
#
# 1 35.3735 0.2118 -8.5664 0.0000 0.0000 0.0000
# 2 0.2118 150.2453 71.9847 0.0000 0.0000 0.0000
# 3 -8.5664 71.9847 101.2603 0.0000 0.0000 0.0000
# 4 0.0000 0.0000 0.0000 18.5159 0.0000 0.0000
# 5 0.0000 0.0000 0.0000 0.0000 13.9910 0.0000
# 6 0.0000 0.0000 0.0000 0.0000 0.0000 9.1985
#
#
#
# Elastic Compliance Matrix: (Units=1/GPa)
#
#
# Indices 1 2 3 4 5 6 
#
# 1 0.029199 -0.001857 0.003790 0.000000 0.000000 0.000000
# 2 -0.001857 0.010212 -0.007417 0.000000 0.000000 0.000000
# 3 0.003790 -0.007417 0.015469 0.000000 0.000000 0.000000
# 4 0.000000 0.000000 0.000000 0.054008 0.000000 0.000000
# 5 0.000000 0.000000 0.000000 0.000000 0.071475 0.000000
# 6 0.000000 0.000000 0.000000 0.000000 0.000000 0.108713
#
#
# Mechanical properties :
#
#
# Convention : Reuss Voigt Hill
#
# Bulk Modulus (GPa) = 22.77256 46.01548 34.39402
# Shear Modulus (GPa) = 15.88924 23.22435 19.55679
#
# Velocity S-wave (km/s) = 2.87226 3.47251 3.18655
# Velocity P-wave (km/s) = 4.77740 6.32214 5.60326
#
# Compressibility (1/GPa) = 0.04391250
#
# Stress axis : x y z
#
# Youngs Moduli (GPa) = 34.24793 97.92614 64.64736
#
# Poissons Ratio (x) = 0.18187 -0.24504
# Poissons Ratio (y) = 0.06361 0.47946
# Poissons Ratio (z) = -0.12981 0.72627
#
# Static dielectric constant tensor:
#      x y z
#    x 1.717000 0.000000 0.000000 
#    y 0.000000 1.710070 0.000000 
#    z 0.000000 0.000000 1.644570 
# 
# From -- ./inp_files/20259.got.cif
#   From: 2010.05.17/outbox.cif.g08.bks.cpg/sg38_11_cif.got.tgz:20259.got - 2010.06.03 18:07:57.
