data_PCOD9356747
_publ_section_title
;
Structure prediction by ZEFSAII (Michael W. Deem and Ramdas Pophale) SiO2 
 PCOD9356747
Probable space group: A M M 2
;
_chemical_formula_sum "Si O2"
_cell_formula_units_Z 48
_cell_length_a 8.839682
_cell_length_b 24.395999
_cell_length_c 14.097637
_cell_angle_alpha 90.000000
_cell_angle_beta 90.000000
_cell_angle_gamma 90.000000
_cell_volume 3040.195925
_symmetry_space_group_name_H-M "A M M 2"
_symmetry_group_IT_number 38
_symmetry_cell_setting 'orthorhombic'
loop_
_space_group_symop_operation_xyz
x,y,z
-x,-y,z
-x,y,z
x,-y,z
x,1/2+y,1/2+z
-x,1/2-y,1/2+z
-x,1/2+y,1/2+z
x,1/2-y,1/2+z
loop_
_atom_site_type_symbol
_atom_site_label
_atom_site_fract_x
_atom_site_fract_y
_atom_site_fract_z
Si Si1 0.680510 0.724584 0.675450
Si Si2 0.819152 0.227488 0.383062
Si Si3 0.317865 0.063450 0.892096
Si Si4 0.682048 0.333491 0.056463
Si Si5 0.315837 0.438127 0.173124
Si Si6 0.819139 0.164150 0.001033
O O1 0.500000 0.718991 0.679283
O O2 0.748843 0.720505 0.779749
O O3 0.715805 0.784284 0.630213
O O4 0.748397 0.680867 0.601769
O O5 0.758187 0.182922 0.457784
O O6 0.776430 0.286697 0.428126
O O7 0.000000 0.224899 0.377735
O O8 0.500000 0.069113 0.897356
O O9 0.272428 0.073663 0.782244
O O10 0.241622 0.107316 0.960098
O O11 0.281011 0.000000 0.913925
O O12 0.500000 0.334942 0.044076
O O13 0.733940 0.390655 0.102084
O O14 0.500000 0.438017 0.172226
O O15 0.266784 0.500000 0.148990
O O16 0.000000 0.163330 0.008629
#
# Coordination Sequence:
#
# PCOD9356747 Si02
#       6
#     8   8   8   8   8   8
#     4  10  19  31  49  70  92 121 158 197 233 275
#     4  10  20  32  46  67  96 126 154 189 235 282
#     4   9  17  30  49  72  97 125 158 195 232 273
#     4   9  17  29  47  70  93 120 154 189 227 273
#     4   8  14  26  46  71  96 121 151 189 229 268
#     4  10  20  32  47  69  98 128 155 189 236 286
#
# _framework density 15.788456
#
# number of rings (size 3 to 8) (size 9 to 14) (size 15 to 20)
#    0.000    2.667    0.000    3.500    0.000    4.333 
#    0.000    0.833    0.000    2.500    0.000    2.333 
#    0.000    0.000    0.000    0.000    0.000    0.000 
#
# Total GULP energy -133828.754562 kJ/mol
# GULP energy per Si atom -5576.198107 kJ/mol
# Density = 1.575252 g / cm^3
# Si number density = 15.788456 Si / 1000 Ang^3
#
#
#
# Elastic Constant Matrix: (Units=GPa)
#
#
# Indices 1 2 3 4 5 6 
#
# 1 32.6374 41.3153 52.1975 0.0000 0.0000 0.0000
# 2 41.3153 109.2854 86.2780 0.0000 0.0000 0.0000
# 3 52.1975 86.2780 158.1333 0.0000 0.0000 0.0000
# 4 0.0000 0.0000 0.0000 25.4320 0.0000 0.0000
# 5 0.0000 0.0000 0.0000 0.0000 16.1436 0.0000
# 6 0.0000 0.0000 0.0000 0.0000 0.0000 18.4356
#
#
#
# Elastic Compliance Matrix: (Units=1/GPa)
#
#
# Indices 1 2 3 4 5 6 
#
# 1 0.078375 -0.016171 -0.017047 0.000000 0.000000 0.000000
# 2 -0.016171 0.019411 -0.005253 0.000000 0.000000 0.000000
# 3 -0.017047 -0.005253 0.014817 0.000000 0.000000 0.000000
# 4 0.000000 0.000000 0.000000 0.039321 0.000000 0.000000
# 5 0.000000 0.000000 0.000000 0.000000 0.061944 0.000000
# 6 0.000000 0.000000 0.000000 0.000000 0.000000 0.054243
#
#
# Mechanical properties :
#
#
# Convention : Reuss Voigt Hill
#
# Bulk Modulus (GPa) = 28.04277 73.29307 50.66792
# Shear Modulus (GPa) = 14.00804 20.01994 17.01399
#
# Velocity S-wave (km/s) = 2.98188 3.56478 3.28628
# Velocity P-wave (km/s) = 5.44569 7.96657 6.82355
#
# Compressibility (1/GPa) = 0.03565982
#
# Stress axis : x y z
#
# Youngs Moduli (GPa) = 12.75924 51.51804 67.49128
#
# Poissons Ratio (x) = 0.83310 1.15055
# Poissons Ratio (y) = 0.20633 0.35451
# Poissons Ratio (z) = 0.21751 0.27061
#
# Static dielectric constant tensor:
#      x y z
#    x 1.522690 0.000000 0.000000 
#    y 0.000000 1.522640 0.000000 
#    z 0.000000 0.000000 1.498770 
# 
# From -- ./inp_files/8107.got.cif
#   From: 2010.05.17/outbox.cif.g08.bks.cpg/sg38_5_cif.got.tgz:8107.got - 2010.06.03 18:07:57.
