data_PCOD9356053
_publ_section_title
;
Structure prediction by ZEFSAII (Michael W. Deem and Ramdas Pophale) SiO2 
 PCOD9356053
Probable space group: A M M 2
;
_chemical_formula_sum "Si O2"
_cell_formula_units_Z 48
_cell_length_a 17.754673
_cell_length_b 7.707040
_cell_length_c 16.078897
_cell_angle_alpha 90.000000
_cell_angle_beta 90.000000
_cell_angle_gamma 90.000000
_cell_volume 2200.171548
_symmetry_space_group_name_H-M "A M M 2"
_symmetry_group_IT_number 38
_symmetry_cell_setting 'orthorhombic'
loop_
_space_group_symop_operation_xyz
x,y,z
-x,-y,z
-x,y,z
x,-y,z
x,1/2+y,1/2+z
-x,1/2-y,1/2+z
-x,1/2+y,1/2+z
x,1/2-y,1/2+z
loop_
_atom_site_type_symbol
_atom_site_label
_atom_site_fract_x
_atom_site_fract_y
_atom_site_fract_z
Si Si1 0.176616 0.296934 0.191090
Si Si2 0.338266 0.787361 0.940335
Si Si3 0.500000 0.698150 0.426595
Si Si4 0.180236 0.291461 0.370385
Si Si5 0.661968 0.793195 0.134459
Si Si6 0.085811 0.290608 0.032685
Si Si7 0.500000 0.298602 0.116497
O O1 0.156502 0.500000 0.191947
O O2 0.154943 0.222467 0.280762
O O3 0.266733 0.282709 0.181812
O O4 0.135902 0.222436 0.109730
O O5 0.418674 0.724165 0.905421
O O6 0.263934 0.727250 0.893485
O O7 0.340399 0.000000 0.939065
O O8 0.332094 0.736764 0.037465
O O9 0.500000 0.500000 0.395925
O O10 0.500000 0.695967 0.528549
O O11 0.186275 0.500000 0.363582
O O12 0.124881 0.254450 0.445981
O O13 0.578021 0.742035 0.162544
O O14 0.668267 0.000000 0.137128
O O15 0.084605 0.500000 0.036780
O O16 0.000000 0.228253 0.037487
O O17 0.500000 0.500000 0.094080
#
# Coordination Sequence:
#
# PCOD9356053 Si02
#       7
#     8   8   4   8   8   8   4
#     4  10  21  36  57  85 117 149 186 234 287 339
#     4   8  14  27  49  75 104 141 185 227 268 320
#     4   8  14  26  45  72 105 144 186 230 277 327
#     4  10  20  36  58  86 114 146 190 233 277 338
#     4  10  18  32  54  78 111 152 195 236 281 335
#     4  10  22  40  59  81 112 148 184 230 291 349
#     4  10  18  28  47  78 113 148 194 242 285 329
#
# _framework density 21.816479000000001
#
# number of rings (size 3 to 8) (size 9 to 14) (size 15 to 20)
#    0.000    2.500    1.667    2.250    0.000    1.667 
#    0.000    2.500    0.000    3.000    0.000    0.000 
#    0.000    0.000    0.000    0.000    0.000    0.000 
#
# Total GULP energy -133953.744681 kJ/mol
# GULP energy per Si atom -5581.406028 kJ/mol
# Density = 2.176682 g / cm^3
# Si number density = 21.816479 Si / 1000 Ang^3
#
#
#
# Elastic Constant Matrix: (Units=GPa)
#
#
# Indices 1 2 3 4 5 6 
#
# 1 133.9803 -13.6381 71.2356 0.0000 0.0000 0.0000
# 2 -13.6381 40.6134 3.9736 0.0000 0.0000 0.0000
# 3 71.2356 3.9736 134.4775 0.0000 0.0000 0.0000
# 4 0.0000 0.0000 0.0000 6.4757 0.0000 0.0000
# 5 0.0000 0.0000 0.0000 0.0000 -6.8358 0.0000
# 6 0.0000 0.0000 0.0000 0.0000 0.0000 17.8621
#
#
#
# Elastic Compliance Matrix: (Units=1/GPa)
#
#
# Indices 1 2 3 4 5 6 
#
# 1 0.011096 0.004313 -0.006005 0.000000 0.000000 0.000000
# 2 0.004313 0.026371 -0.003064 0.000000 0.000000 0.000000
# 3 -0.006005 -0.003064 0.010708 0.000000 0.000000 0.000000
# 4 0.000000 0.000000 0.000000 0.154423 0.000000 0.000000
# 5 0.000000 0.000000 0.000000 0.000000 -0.146290 0.000000
# 6 0.000000 0.000000 0.000000 0.000000 0.000000 0.055984
#
#
# Mechanical properties :
#
#
# Convention : Reuss Voigt Hill
#
# Bulk Modulus (GPa) = 25.86477 48.02373 36.94425
# Shear Modulus (GPa) = 37.12199 20.00043 28.56121
#
# Velocity S-wave (km/s) = 4.12947 3.03109 3.62215
# Velocity P-wave (km/s) = 5.88371 5.85750 5.87062
#
# Compressibility (1/GPa) = 0.03866263
#
# Stress axis : x y z
#
# Youngs Moduli (GPa) = 90.12509 37.92088 93.39031
#
# Poissons Ratio (x) = -0.16357 0.56082
# Poissons Ratio (y) = -0.38875 0.28616
# Poissons Ratio (z) = 0.54121 0.11620
#
# Static dielectric constant tensor:
#      x y z
#    x 1.800050 0.000000 0.000000 
#    y 0.000000 1.805610 0.000000 
#    z 0.000000 0.000000 1.808920 
# 
# From -- ./inp_files/15062.got.cif
#   From: 2010.05.17/outbox.cif.g08.bks.cpg/sg38_8_cif.got.tgz:15062.got - 2010.06.03 18:07:57.
