data_PCOD9356608
_publ_section_title
;
Structure prediction by ZEFSAII (Michael W. Deem and Ramdas Pophale) SiO2 
 PCOD9356608
Probable space group: A M M 2
;
_chemical_formula_sum "Si O2"
_cell_formula_units_Z 64
_cell_length_a 14.815143
_cell_length_b 8.431825
_cell_length_c 32.278270
_cell_angle_alpha 90.000000
_cell_angle_beta 90.000000
_cell_angle_gamma 90.000000
_cell_volume 4032.159305
_symmetry_space_group_name_H-M "A M M 2"
_symmetry_group_IT_number 38
_symmetry_cell_setting 'orthorhombic'
loop_
_space_group_symop_operation_xyz
x,y,z
-x,-y,z
-x,y,z
x,-y,z
x,1/2+y,1/2+z
-x,1/2-y,1/2+z
-x,1/2+y,1/2+z
x,1/2-y,1/2+z
loop_
_atom_site_type_symbol
_atom_site_label
_atom_site_fract_x
_atom_site_fract_y
_atom_site_fract_z
Si Si1 0.395618 0.808074 0.570180
Si Si2 0.898765 0.308800 0.780016
Si Si3 0.609537 0.683761 0.979400
Si Si4 0.603519 0.190248 0.891113
Si Si5 0.899412 0.306856 0.683686
Si Si6 0.286035 0.191290 0.811832
Si Si7 0.711048 0.809934 0.149410
Si Si8 0.604872 0.307946 0.230041
O O1 0.500000 0.756696 0.576771
O O2 0.363265 0.752206 0.524609
O O3 0.333895 0.753622 0.607715
O O4 0.396747 0.000000 0.568730
O O5 0.896108 0.500000 0.780891
O O6 0.885614 0.260297 0.731819
O O7 0.816890 0.243782 0.806730
O O8 0.000000 0.258853 0.792460
O O9 0.500000 0.689353 0.980468
O O10 0.636402 0.500000 0.976536
O O11 0.637334 0.767566 0.937063
O O12 0.500000 0.249503 0.886618
O O13 0.665665 0.249208 0.853677
O O14 0.599872 0.000000 0.888090
O O15 0.899808 0.500000 0.683122
O O16 0.813937 0.253430 0.657091
O O17 0.000000 0.254541 0.670852
O O18 0.341714 0.244770 0.771177
O O19 0.289023 0.000000 0.812033
O O20 0.652786 0.756205 0.189026
O O21 0.711371 0.000000 0.148062
O O22 0.500000 0.260242 0.231809
O O23 0.607601 0.500000 0.228701
#
# Coordination Sequence:
#
# PCOD9356608 Si02
#       8
#     8   8   8   8   8   8   8   8
#     4   9  18  32  47  63  90 125 152 177 219 272
#     4   9  17  31  49  65  85 116 151 188 231 272
#     4   8  15  29  47  65  85 114 152 188 221 261
#     4   9  17  29  45  66  93 122 150 183 224 266
#     4   8  15  29  46  62  84 114 145 182 229 270
#     4  10  19  30  45  66  91 120 153 186 220 262
#     4  11  20  29  45  68  89 113 151 192 224 258
#     4  10  20  32  43  57  87 129 159 176 207 260
#
# _framework density 15.872388000000001
#
# number of rings (size 3 to 8) (size 9 to 14) (size 15 to 20)
#    0.000    2.750    1.250    2.625    0.000    4.750 
#    0.000    1.250    0.000    3.750    0.000    0.875 
#    0.000    3.000    0.000    0.000    0.000    0.000 
#
# Total GULP energy -178287.297060 kJ/mol
# GULP energy per Si atom -5571.478033 kJ/mol
# Density = 1.583626 g / cm^3
# Si number density = 15.872388 Si / 1000 Ang^3
#
#
#
# Elastic Constant Matrix: (Units=GPa)
#
#
# Indices 1 2 3 4 5 6 
#
# 1 121.6488 15.4604 81.7274 0.0000 0.0000 0.0000
# 2 15.4604 6.3351 18.8962 0.0000 0.0000 0.0000
# 3 81.7274 18.8962 148.5002 0.0000 0.0000 0.0000
# 4 0.0000 0.0000 0.0000 22.7268 0.0000 0.0000
# 5 0.0000 0.0000 0.0000 0.0000 8.7683 0.0000
# 6 0.0000 0.0000 0.0000 0.0000 0.0000 19.6198
#
#
#
# Elastic Compliance Matrix: (Units=1/GPa)
#
#
# Indices 1 2 3 4 5 6 
#
# 1 0.014254 -0.018353 -0.005510 0.000000 0.000000 0.000000
# 2 -0.018353 0.278039 -0.025279 0.000000 0.000000 0.000000
# 3 -0.005510 -0.025279 0.012983 0.000000 0.000000 0.000000
# 4 0.000000 0.000000 0.000000 0.044001 0.000000 0.000000
# 5 0.000000 0.000000 0.000000 0.000000 0.114047 0.000000
# 6 0.000000 0.000000 0.000000 0.000000 0.000000 0.050969
#
#
# Mechanical properties :
#
#
# Convention : Reuss Voigt Hill
#
# Bulk Modulus (GPa) = 4.83107 56.51689 30.67398
# Shear Modulus (GPa) = 7.33596 20.91633 14.12615
#
# Velocity S-wave (km/s) = 2.15218 3.63406 2.98649
# Velocity P-wave (km/s) = 3.03745 7.30020 5.59102
#
# Compressibility (1/GPa) = 0.20699348
#
# Stress axis : x y z
#
# Youngs Moduli (GPa) = 70.15392 3.59661 77.02461
#
# Poissons Ratio (x) = 0.06601 0.42437
# Poissons Ratio (y) = 1.28753 1.94710
# Poissons Ratio (z) = 0.38652 0.09092
#
# Static dielectric constant tensor:
#      x y z
#    x 1.528750 0.000000 0.000000 
#    y 0.000000 1.553180 0.000000 
#    z 0.000000 0.000000 1.528070 
# 
# From -- ./inp_files/25032.got.cif
#   From: 2010.05.17/outbox.cif.g08.bks.cpg/sg38_13_cif.got.tgz:25032.got - 2010.06.03 18:07:57.
