data_PCOD9356961
_publ_section_title
;
Structure prediction by ZEFSAII (Michael W. Deem and Ramdas Pophale) SiO2 
 PCOD9356961
Probable space group: A M M 2
;
_chemical_formula_sum "Si O2"
_cell_formula_units_Z 64
_cell_length_a 8.734346
_cell_length_b 18.867272
_cell_length_c 21.529094
_cell_angle_alpha 90.000000
_cell_angle_beta 90.000000
_cell_angle_gamma 90.000000
_cell_volume 3547.850053
_symmetry_space_group_name_H-M "A M M 2"
_symmetry_group_IT_number 38
_symmetry_cell_setting 'orthorhombic'
loop_
_space_group_symop_operation_xyz
x,y,z
-x,-y,z
-x,y,z
x,-y,z
x,1/2+y,1/2+z
-x,1/2-y,1/2+z
-x,1/2+y,1/2+z
x,1/2-y,1/2+z
loop_
_atom_site_type_symbol
_atom_site_label
_atom_site_fract_x
_atom_site_fract_y
_atom_site_fract_z
Si Si1 0.824006 0.336435 0.652120
Si Si2 0.316634 0.168192 0.021314
Si Si3 0.684601 0.417672 0.398474
Si Si4 0.184481 0.917462 0.396849
Si Si5 0.186215 0.825918 0.516852
Si Si6 0.681925 0.831139 0.282819
Si Si7 0.184762 0.826677 0.786223
Si Si8 0.176102 0.663881 0.151373
O O1 0.746909 0.358085 0.587535
O O2 0.738111 0.356925 0.715097
O O3 0.823741 0.250022 0.651262
O O4 0.000000 0.359434 0.654592
O O5 0.500000 0.172561 0.024836
O O6 0.273194 0.118023 0.964068
O O7 0.250224 0.246728 0.009219
O O8 0.500000 0.412671 0.392720
O O9 0.727834 0.500000 0.397024
O O10 0.759832 0.374873 0.342307
O O11 0.228445 0.874668 0.458946
O O12 0.260821 0.882179 0.337103
O O13 0.000000 0.911730 0.390586
O O14 0.223860 0.000000 0.402260
O O15 0.241974 0.855332 0.583983
O O16 0.000000 0.821433 0.519836
O O17 0.500000 0.825133 0.283191
O O18 0.753736 0.753196 0.293850
O O19 0.242224 0.855097 0.718729
O O20 0.000000 0.823602 0.784146
O O21 0.000000 0.638964 0.151504
#
# Coordination Sequence:
#
# PCOD9356961 Si02
#       8
#     8   8   8   8   8   8   8   8
#     4   9  17  32  54  79 106 133 167 216 265 311
#     4  10  19  32  53  79 103 133 175 219 266 320
#     4  10  22  38  52  71 106 147 182 220 267 317
#     4  10  21  36  53  75 105 142 184 227 267 308
#     4   9  17  32  54  77 103 136 172 214 265 317
#     4  11  21  34  55  81 108 139 174 214 265 323
#     4  10  19  33  55  81 107 137 177 222 265 314
#     4   7  13  27  48  75 102 126 159 208 262 308
#
# _framework density 18.039093000000001
#
# number of rings (size 3 to 8) (size 9 to 14) (size 15 to 20)
#    0.000    2.500    0.000    4.500    0.000    4.000 
#    0.000    1.875    0.000    4.500    0.000    0.000 
#    0.000    0.000    0.000    0.000    0.000    0.000 
#
# Total GULP energy -178431.964269 kJ/mol
# GULP energy per Si atom -5575.998883 kJ/mol
# Density = 1.799804 g / cm^3
# Si number density = 18.039093 Si / 1000 Ang^3
#
#
#
# Elastic Constant Matrix: (Units=GPa)
#
#
# Indices 1 2 3 4 5 6 
#
# 1 52.5502 52.7848 82.2465 0.0000 0.0000 0.0000
# 2 52.7848 130.7364 156.5119 0.0000 0.0000 0.0000
# 3 82.2465 156.5119 307.7696 0.0000 0.0000 0.0000
# 4 0.0000 0.0000 0.0000 -6.1409 0.0000 0.0000
# 5 0.0000 0.0000 0.0000 0.0000 23.4557 0.0000
# 6 0.0000 0.0000 0.0000 0.0000 0.0000 16.3153
#
#
#
# Elastic Compliance Matrix: (Units=1/GPa)
#
#
# Indices 1 2 3 4 5 6 
#
# 1 0.035433 -0.007593 -0.005608 0.000000 0.000000 0.000000
# 2 -0.007593 0.021179 -0.008742 0.000000 0.000000 0.000000
# 3 -0.005608 -0.008742 0.009193 0.000000 0.000000 0.000000
# 4 0.000000 0.000000 0.000000 -0.162841 0.000000 0.000000
# 5 0.000000 0.000000 0.000000 0.000000 0.042634 0.000000
# 6 0.000000 0.000000 0.000000 0.000000 0.000000 0.061292
#
#
# Mechanical properties :
#
#
# Convention : Reuss Voigt Hill
#
# Bulk Modulus (GPa) = 45.61730 119.34918 82.48324
# Shear Modulus (GPa) = 86.08767 20.02686 53.05727
#
# Velocity S-wave (km/s) = 6.91567 3.33557 5.42920
# Velocity P-wave (km/s) = 9.43989 9.00776 9.22635
#
# Compressibility (1/GPa) = 0.02192151
#
# Stress axis : x y z
#
# Youngs Moduli (GPa) = 28.22264 47.21552 108.77713
#
# Poissons Ratio (x) = 0.35849 0.60998
# Poissons Ratio (y) = 0.21429 0.95088
# Poissons Ratio (z) = 0.15826 0.41273
#
# Static dielectric constant tensor:
#      x y z
#    x 1.613430 0.000000 0.000000 
#    y 0.000000 1.579700 0.000000 
#    z 0.000000 0.000000 1.644230 
# 
# From -- ./inp_files/20055.got.cif
#   From: 2010.05.17/outbox.cif.g08.bks.cpg/sg38_11_cif.got.tgz:20055.got - 2010.06.03 18:07:57.
