data_PCOD9356277
_publ_section_title
;
Structure prediction by ZEFSAII (Michael W. Deem and Ramdas Pophale) SiO2 
 PCOD9356277
Probable space group: A M M 2
;
_chemical_formula_sum "Si O2"
_cell_formula_units_Z 58
_cell_length_a 15.592019
_cell_length_b 7.542682
_cell_length_c 26.092589
_cell_angle_alpha 90.000000
_cell_angle_beta 90.000000
_cell_angle_gamma 90.000000
_cell_volume 3068.635656
_symmetry_space_group_name_H-M "A M M 2"
_symmetry_group_IT_number 38
_symmetry_cell_setting 'orthorhombic'
loop_
_space_group_symop_operation_xyz
x,y,z
-x,-y,z
-x,y,z
x,-y,z
x,1/2+y,1/2+z
-x,1/2-y,1/2+z
-x,1/2+y,1/2+z
x,1/2-y,1/2+z
loop_
_atom_site_type_symbol
_atom_site_label
_atom_site_fract_x
_atom_site_fract_y
_atom_site_fract_z
Si Si1 0.126811 0.294003 0.215720
Si Si2 0.402224 0.213356 0.078729
Si Si3 0.000000 0.500000 0.677987
Si Si4 0.401983 0.288602 0.962524
Si Si5 0.594919 0.783943 0.284599
Si Si6 0.279001 0.712300 0.872921
Si Si7 0.904915 0.788260 0.833720
Si Si8 0.317287 0.784812 0.182257
O O1 0.099584 0.500000 0.212180
O O2 0.113412 0.232560 0.274914
O O3 0.225594 0.282682 0.200270
O O4 0.073731 0.156911 0.181955
O O5 0.500000 0.278228 0.084660
O O6 0.345152 0.276544 0.125996
O O7 0.404440 0.000000 0.081891
O O8 0.374577 0.258642 0.021183
O O9 0.500000 0.218758 0.955956
O O10 0.407710 0.500000 0.954838
O O11 0.332043 0.220313 0.922075
O O12 0.500000 0.726456 0.300932
O O13 0.669806 0.722337 0.322620
O O14 0.615319 0.733089 0.226371
O O15 0.595250 0.000000 0.286181
O O16 0.286476 0.500000 0.873076
O O17 0.177882 0.746966 0.868014
O O18 0.000000 0.720861 0.848828
O O19 0.909704 0.000000 0.832655
O O20 0.313871 0.000000 0.181885
#
# Coordination Sequence:
#
# PCOD9356277 Si02
#       8
#     8   8   2   8   8   8   8   8
#     4  11  22  35  54  82 114 146 185 232 278 336
#     4   9  18  32  52  78 107 143 190 232 267 320
#     4  12  22  36  60  78 110 152 190 232 284 334
#     4   9  18  33  51  75 106 140 182 228 274 327
#     4   9  16  26  45  73 106 142 177 216 268 333
#     4  10  19  30  51  77 103 136 181 224 272 334
#     4  10  21  35  50  74 106 140 176 222 275 331
#     4  10  18  31  51  78 109 145 184 225 277 335
#
# _framework density 18.900908000000001
#
# number of rings (size 3 to 8) (size 9 to 14) (size 15 to 20)
#    0.000    2.207    2.759    1.034    0.966    4.690 
#    0.000    0.000    0.000    3.310    1.793    0.000 
#    0.000    0.000    0.000    0.000    0.000    0.000 
#
# Total GULP energy -161512.641040 kJ/mol
# GULP energy per Si atom -5569.401415 kJ/mol
# Density = 1.885789 g / cm^3
# Si number density = 18.900908 Si / 1000 Ang^3
#
#
#
# Elastic Constant Matrix: (Units=GPa)
#
#
# Indices 1 2 3 4 5 6 
#
# 1 147.5916 6.2785 73.3353 0.0000 0.0000 0.0000
# 2 6.2785 62.6518 4.1842 0.0000 0.0000 0.0000
# 3 73.3353 4.1842 109.0936 0.0000 0.0000 0.0000
# 4 0.0000 0.0000 0.0000 14.7894 0.0000 0.0000
# 5 0.0000 0.0000 0.0000 0.0000 40.2177 0.0000
# 6 0.0000 0.0000 0.0000 0.0000 0.0000 -1.5006
#
#
#
# Elastic Compliance Matrix: (Units=1/GPa)
#
#
# Indices 1 2 3 4 5 6 
#
# 1 0.010194 -0.000565 -0.006831 0.000000 0.000000 0.000000
# 2 -0.000565 0.016034 -0.000235 0.000000 0.000000 0.000000
# 3 -0.006831 -0.000235 0.013767 0.000000 0.000000 0.000000
# 4 0.000000 0.000000 0.000000 0.067616 0.000000 0.000000
# 5 0.000000 0.000000 0.000000 0.000000 0.024865 0.000000
# 6 0.000000 0.000000 0.000000 0.000000 0.000000 -0.666397
#
#
# Mechanical properties :
#
#
# Convention : Reuss Voigt Hill
#
# Bulk Modulus (GPa) = 40.43270 54.10367 47.26818
# Shear Modulus (GPa) = -9.79594 26.40390 8.30398
#
# Velocity S-wave (km/s) = -2.27904 3.74165 2.09832
# Velocity P-wave (km/s) = 3.80959 6.88140 5.56177
#
# Compressibility (1/GPa) = 0.02473246
#
# Stress axis : x y z
#
# Youngs Moduli (GPa) = 98.10172 62.36914 72.63658
#
# Poissons Ratio (x) = 0.03526 0.49615
# Poissons Ratio (y) = 0.05546 0.01706
# Poissons Ratio (z) = 0.67010 0.01465
#
# Static dielectric constant tensor:
#      x y z
#    x 1.657750 0.000000 0.000000 
#    y 0.000000 1.712140 0.000000 
#    z 0.000000 0.000000 1.645980 
# 
# From -- ./inp_files/23958.got.cif
#   From: 2010.05.17/outbox.cif.g08.bks.cpg/sg38_12_cif.got.tgz:23958.got - 2010.06.03 18:07:57.
