data_PCOD9356239
_publ_section_title
;
Structure prediction by ZEFSAII (Michael W. Deem and Ramdas Pophale) SiO2 
 PCOD9356239
Probable space group: A M M 2
;
_chemical_formula_sum "Si O2"
_cell_formula_units_Z 56
_cell_length_a 20.623204
_cell_length_b 8.127321
_cell_length_c 15.264961
_cell_angle_alpha 90.000000
_cell_angle_beta 90.000000
_cell_angle_gamma 90.000000
_cell_volume 2558.581468
_symmetry_space_group_name_H-M "A M M 2"
_symmetry_group_IT_number 38
_symmetry_cell_setting 'orthorhombic'
loop_
_space_group_symop_operation_xyz
x,y,z
-x,-y,z
-x,y,z
x,-y,z
x,1/2+y,1/2+z
-x,1/2-y,1/2+z
-x,1/2+y,1/2+z
x,1/2-y,1/2+z
loop_
_atom_site_type_symbol
_atom_site_label
_atom_site_fract_x
_atom_site_fract_y
_atom_site_fract_z
Si Si1 0.849611 0.184229 0.671020
Si Si2 0.074243 0.810453 0.330117
Si Si3 0.289703 0.806383 0.209855
Si Si4 0.290817 0.298964 0.412175
Si Si5 0.570143 0.300518 0.727250
Si Si6 0.569527 0.695099 0.430085
Si Si7 0.154112 0.309715 0.489919
O O1 0.885381 0.297462 0.740779
O O2 0.772602 0.217668 0.671434
O O3 0.872676 0.212323 0.572575
O O4 0.861802 0.000000 0.701150
O O5 0.109874 0.708156 0.404940
O O6 0.000000 0.758621 0.316471
O O7 0.074882 0.000000 0.359118
O O8 0.287146 0.776046 0.314786
O O9 0.362285 0.751272 0.182599
O O10 0.283645 0.000000 0.190528
O O11 0.291339 0.500000 0.403868
O O12 0.358834 0.245827 0.456273
O O13 0.226264 0.252190 0.463494
O O14 0.500000 0.260702 0.686215
O O15 0.572922 0.500000 0.736889
O O16 0.569916 0.223251 0.824624
O O17 0.500000 0.764871 0.461308
O O18 0.568277 0.500000 0.448798
O O19 0.159068 0.500000 0.516364
#
# Coordination Sequence:
#
# PCOD9356239 Si02
#       7
#     8   8   8   8   8   8   8
#     4  12  25  41  63  91 125 165 208 253 298 353
#     4  11  25  46  71  98 127 157 193 241 298 362
#     4  10  18  30  53  81 114 155 200 252 306 360
#     4   9  17  30  51  80 113 152 197 244 298 357
#     4   8  14  24  40  68 105 145 191 243 300 358
#     4   8  13  22  39  67 104 144 188 238 290 347
#     4  11  23  40  64  93 126 164 204 249 297 355
#
# _framework density 21.887129000000002
#
# number of rings (size 3 to 8) (size 9 to 14) (size 15 to 20)
#    0.000    2.143    1.429    2.571    0.000    2.857 
#    0.000    0.000    0.000    0.857    0.000    4.000 
#    0.000    0.000    0.000    0.000    0.000    0.000 
#
# Total GULP energy -156271.985189 kJ/mol
# GULP energy per Si atom -5581.142328 kJ/mol
# Density = 2.183731 g / cm^3
# Si number density = 21.887129 Si / 1000 Ang^3
#
#
#
# Elastic Constant Matrix: (Units=GPa)
#
#
# Indices 1 2 3 4 5 6 
#
# 1 123.9697 5.0195 22.8361 0.0000 0.0000 0.0000
# 2 5.0195 26.5255 -3.3418 0.0000 0.0000 0.0000
# 3 22.8361 -3.3418 61.1016 0.0000 0.0000 0.0000
# 4 0.0000 0.0000 0.0000 16.2100 0.0000 0.0000
# 5 0.0000 0.0000 0.0000 0.0000 -18.0206 0.0000
# 6 0.0000 0.0000 0.0000 0.0000 0.0000 21.0956
#
#
#
# Elastic Compliance Matrix: (Units=1/GPa)
#
#
# Indices 1 2 3 4 5 6 
#
# 1 0.008776 -0.002088 -0.003394 0.000000 0.000000 0.000000
# 2 -0.002088 0.038458 0.002884 0.000000 0.000000 0.000000
# 3 -0.003394 0.002884 0.017792 0.000000 0.000000 0.000000
# 4 0.000000 0.000000 0.000000 0.061690 0.000000 0.000000
# 5 0.000000 0.000000 0.000000 0.000000 -0.055492 0.000000
# 6 0.000000 0.000000 0.000000 0.000000 0.000000 0.047403
#
#
# Mechanical properties :
#
#
# Convention : Reuss Voigt Hill
#
# Bulk Modulus (GPa) = 16.71422 28.95827 22.83625
# Shear Modulus (GPa) = 34.77797 16.32920 25.55358
#
# Velocity S-wave (km/s) = 3.99051 2.73438 3.42060
# Velocity P-wave (km/s) = 5.37451 4.81960 5.10460
#
# Compressibility (1/GPa) = 0.05982928
#
# Stress axis : x y z
#
# Youngs Moduli (GPa) = 113.94337 26.00233 56.20351
#
# Poissons Ratio (x) = 0.05430 0.19077
# Poissons Ratio (y) = 0.23796 -0.16208
# Poissons Ratio (z) = 0.38675 -0.07499
#
# Static dielectric constant tensor:
#      x y z
#    x 1.842060 0.000000 0.000000 
#    y 0.000000 1.772360 0.000000 
#    z 0.000000 0.000000 1.777510 
# 
# From -- ./inp_files/15427.got.cif
#   From: 2010.05.17/outbox.cif.g08.bks.cpg/sg38_8_cif.got.tgz:15427.got - 2010.06.03 18:07:57.
