data_PCOD9356693
_publ_section_title
;
Structure prediction by ZEFSAII (Michael W. Deem and Ramdas Pophale) SiO2 
 PCOD9356693
Probable space group: A M M 2
;
_chemical_formula_sum "Si O2"
_cell_formula_units_Z 64
_cell_length_a 14.579846
_cell_length_b 18.604654
_cell_length_c 11.324654
_cell_angle_alpha 90.000000
_cell_angle_beta 90.000000
_cell_angle_gamma 90.000000
_cell_volume 3071.846261
_symmetry_space_group_name_H-M "A M M 2"
_symmetry_group_IT_number 38
_symmetry_cell_setting 'orthorhombic'
loop_
_space_group_symop_operation_xyz
x,y,z
-x,-y,z
-x,y,z
x,-y,z
x,1/2+y,1/2+z
-x,1/2-y,1/2+z
-x,1/2+y,1/2+z
x,1/2-y,1/2+z
loop_
_atom_site_type_symbol
_atom_site_label
_atom_site_fract_x
_atom_site_fract_y
_atom_site_fract_z
Si Si1 0.899662 0.584928 0.393310
Si Si2 0.398845 0.419181 0.277686
Si Si3 0.601278 0.879001 0.513265
Si Si4 0.219500 0.714992 0.776075
Si Si5 0.732736 0.337341 0.436604
Si Si6 0.797818 0.414947 0.922235
Si Si7 0.892783 0.666999 0.142269
Si Si8 0.605441 0.780853 0.124147
O O1 0.894017 0.500000 0.380290
O O2 0.817289 0.613531 0.472287
O O3 0.890356 0.620255 0.263372
O O4 0.000000 0.604968 0.439441
O O5 0.500000 0.389351 0.309568
O O6 0.390824 0.500000 0.324715
O O7 0.396186 0.421216 0.136892
O O8 0.316184 0.371759 0.322983
O O9 0.500000 0.888253 0.458749
O O10 0.688254 0.904021 0.439975
O O11 0.609244 0.796645 0.558924
O O12 0.223988 0.761880 0.896411
O O13 0.161966 0.760448 0.679507
O O14 0.324921 0.715032 0.732784
O O15 0.181109 0.637094 0.810832
O O16 0.652488 0.333376 0.530668
O O17 0.818855 0.500000 0.912114
O O18 0.846355 0.378922 0.037268
O O19 0.000000 0.681282 0.114703
O O20 0.500000 0.795168 0.153693
#
# Coordination Sequence:
#
# PCOD9356693 Si02
#       8
#     8   8   8   8   8   8   8   8
#     4   9  18  33  57  90 123 156 197 251 312 368
#     4  10  19  30  49  82 118 151 195 257 324 375
#     4  10  19  34  57  86 120 161 207 259 314 369
#     4  11  22  40  58  90 122 163 209 258 312 373
#     4  11  19  34  57  82 116 156 211 254 306 363
#     4  12  24  40  64  95 131 169 213 261 317 383
#     4  10  21  40  65  93 126 162 204 256 311 373
#     4  11  22  37  59  86 117 159 213 261 299 361
#
# _framework density 20.834377
#
# number of rings (size 3 to 8) (size 9 to 14) (size 15 to 20)
#    0.000    1.500    3.750    2.250    0.000    3.000 
#    0.000    4.375    0.000    1.500    0.000    0.000 
#    0.000    0.000    0.000    0.000    0.000    0.000 
#
# Total GULP energy -178605.722482 kJ/mol
# GULP energy per Si atom -5581.428828 kJ/mol
# Density = 2.078696 g / cm^3
# Si number density = 20.834377 Si / 1000 Ang^3
#
#
#
# Elastic Constant Matrix: (Units=GPa)
#
#
# Indices 1 2 3 4 5 6 
#
# 1 132.3924 59.3231 22.7149 0.0000 0.0000 0.0000
# 2 59.3231 111.1062 30.2568 0.0000 0.0000 0.0000
# 3 22.7149 30.2568 27.1959 0.0000 0.0000 0.0000
# 4 0.0000 0.0000 0.0000 21.0786 0.0000 0.0000
# 5 0.0000 0.0000 0.0000 0.0000 14.2434 0.0000
# 6 0.0000 0.0000 0.0000 0.0000 0.0000 23.0456
#
#
#
# Elastic Compliance Matrix: (Units=1/GPa)
#
#
# Indices 1 2 3 4 5 6 
#
# 1 0.010158 -0.004466 -0.003515 0.000000 0.000000 0.000000
# 2 -0.004466 0.014876 -0.012820 0.000000 0.000000 0.000000
# 3 -0.003515 -0.012820 0.053970 0.000000 0.000000 0.000000
# 4 0.000000 0.000000 0.000000 0.047442 0.000000 0.000000
# 5 0.000000 0.000000 0.000000 0.000000 0.070208 0.000000
# 6 0.000000 0.000000 0.000000 0.000000 0.000000 0.043392
#
#
# Mechanical properties :
#
#
# Convention : Reuss Voigt Hill
#
# Bulk Modulus (GPa) = 26.73785 55.03156 40.88470
# Shear Modulus (GPa) = 17.00012 22.23348 19.61680
#
# Velocity S-wave (km/s) = 2.85961 3.27028 3.07181
# Velocity P-wave (km/s) = 4.87489 6.38207 5.67870
#
# Compressibility (1/GPa) = 0.03740017
#
# Stress axis : x y z
#
# Youngs Moduli (GPa) = 98.44788 67.22083 18.52897
#
# Poissons Ratio (x) = 0.30022 0.06513
# Poissons Ratio (y) = 0.43969 0.23755
# Poissons Ratio (z) = 0.34605 0.86179
#
# Static dielectric constant tensor:
#      x y z
#    x 1.778240 0.000000 0.000000 
#    y 0.000000 1.811990 0.000000 
#    z 0.000000 0.000000 1.787950 
# 
# From -- ./inp_files/10276.got.cif
#   From: 2010.05.17/outbox.cif.g08.bks.cpg/sg38_6_cif.got.tgz:10276.got - 2010.06.03 18:07:57.
