data_PCOD9356767
_publ_section_title
;
Structure prediction by ZEFSAII (Michael W. Deem and Ramdas Pophale) SiO2 
 PCOD9356767
Probable space group: A M M 2
;
_chemical_formula_sum "Si O2"
_cell_formula_units_Z 64
_cell_length_a 8.863508
_cell_length_b 23.810246
_cell_length_c 19.599164
_cell_angle_alpha 90.000000
_cell_angle_beta 90.000000
_cell_angle_gamma 90.000000
_cell_volume 4136.252764
_symmetry_space_group_name_H-M "A M M 2"
_symmetry_group_IT_number 38
_symmetry_cell_setting 'orthorhombic'
loop_
_space_group_symop_operation_xyz
x,y,z
-x,-y,z
-x,y,z
x,-y,z
x,1/2+y,1/2+z
-x,1/2-y,1/2+z
-x,1/2+y,1/2+z
x,1/2-y,1/2+z
loop_
_atom_site_type_symbol
_atom_site_label
_atom_site_fract_x
_atom_site_fract_y
_atom_site_fract_z
Si Si1 0.818814 0.728384 0.775280
Si Si2 0.680736 0.334372 0.653730
Si Si3 0.317962 0.064656 0.058859
Si Si4 0.319326 0.565701 0.283184
Si Si5 0.819196 0.615247 0.421749
Si Si6 0.180876 0.340720 0.191322
Si Si7 0.680333 0.222528 0.568513
Si Si8 0.818299 0.752056 0.927257
O O1 0.752023 0.681037 0.726166
O O2 0.777507 0.788666 0.741753
O O3 0.770803 0.727520 0.853935
O O4 0.000000 0.725183 0.773554
O O5 0.500000 0.334743 0.660789
O O6 0.728497 0.392263 0.618381
O O7 0.720134 0.283022 0.602569
O O8 0.500000 0.069189 0.051258
O O9 0.281107 0.000000 0.073532
O O10 0.242855 0.084251 0.988511
O O11 0.500000 0.571469 0.284075
O O12 0.281766 0.500000 0.276009
O O13 0.252848 0.588930 0.354130
O O14 0.250722 0.603429 0.223044
O O15 0.781551 0.681442 0.426763
O O16 0.000000 0.610337 0.417701
O O17 0.245162 0.323549 0.117728
O O18 0.000000 0.344375 0.189491
O O19 0.500000 0.216999 0.569576
O O20 0.741869 0.223353 0.492010
O O21 0.000000 0.747394 0.933003
#
# Coordination Sequence:
#
# PCOD9356767 Si02
#       8
#     8   8   8   8   8   8   8   8
#     4   9  18  32  49  69  95 126 159 199 248 293
#     4   9  18  31  46  69  94 123 162 200 241 289
#     4  10  20  34  49  67  97 134 169 205 244 288
#     4  11  23  36  50  70  99 135 172 209 247 289
#     4  11  21  33  48  69  99 134 172 208 241 287
#     4  10  19  34  52  72  97 129 165 205 249 294
#     4  10  19  31  49  73  98 127 162 201 246 296
#     4  10  19  32  48  71  99 130 163 198 245 295
#
# _framework density 15.472942
#
# number of rings (size 3 to 8) (size 9 to 14) (size 15 to 20)
#    0.000    2.000    2.500    1.875    0.000    5.250 
#    0.000    0.000    0.000    0.000    0.000    0.875 
#    0.000    3.000    0.000    0.000    0.000    0.000 
#
# Total GULP energy -178581.974558 kJ/mol
# GULP energy per Si atom -5580.686705 kJ/mol
# Density = 1.543773 g / cm^3
# Si number density = 15.472942 Si / 1000 Ang^3
#
#
#
# Elastic Constant Matrix: (Units=GPa)
#
#
# Indices 1 2 3 4 5 6 
#
# 1 31.7560 39.3629 45.7629 0.0000 0.0000 0.0000
# 2 39.3629 98.5407 75.3241 0.0000 0.0000 0.0000
# 3 45.7629 75.3241 149.8045 0.0000 0.0000 0.0000
# 4 0.0000 0.0000 0.0000 18.3645 0.0000 0.0000
# 5 0.0000 0.0000 0.0000 0.0000 29.7454 0.0000
# 6 0.0000 0.0000 0.0000 0.0000 0.0000 20.8530
#
#
#
# Elastic Compliance Matrix: (Units=1/GPa)
#
#
# Indices 1 2 3 4 5 6 
#
# 1 0.074804 -0.020163 -0.012713 0.000000 0.000000 0.000000
# 2 -0.020163 0.021919 -0.004861 0.000000 0.000000 0.000000
# 3 -0.012713 -0.004861 0.013003 0.000000 0.000000 0.000000
# 4 0.000000 0.000000 0.000000 0.054453 0.000000 0.000000
# 5 0.000000 0.000000 0.000000 0.000000 0.033619 0.000000
# 6 0.000000 0.000000 0.000000 0.000000 0.000000 0.047955
#
#
# Mechanical properties :
#
#
# Convention : Reuss Voigt Hill
#
# Bulk Modulus (GPa) = 29.19674 66.77787 47.98731
# Shear Modulus (GPa) = 15.03109 21.76934 18.40022
#
# Velocity S-wave (km/s) = 3.12018 3.75498 3.45220
# Velocity P-wave (km/s) = 5.64723 7.87727 6.85356
#
# Compressibility (1/GPa) = 0.03425040
#
# Stress axis : x y z
#
# Youngs Moduli (GPa) = 13.36831 45.62350 76.90313
#
# Poissons Ratio (x) = 0.91992 0.97766
# Poissons Ratio (y) = 0.26955 0.37386
# Poissons Ratio (z) = 0.16995 0.22180
#
# Static dielectric constant tensor:
#      x y z
#    x 1.516870 0.000000 0.000000 
#    y 0.000000 1.501140 0.000000 
#    z 0.000000 0.000000 1.501080 
# 
# From -- ./inp_files/17186.got.cif
#   From: 2010.05.17/outbox.cif.g08.bks.cpg/sg38_9_cif.got.tgz:17186.got - 2010.06.03 18:07:57.
