data_PCOD9356744
_publ_section_title
;
Structure prediction by ZEFSAII (Michael W. Deem and Ramdas Pophale) SiO2 
 PCOD9356744
Probable space group: A M M 2
;
_chemical_formula_sum "Si O2"
_cell_formula_units_Z 64
_cell_length_a 8.747458
_cell_length_b 28.110207
_cell_length_c 15.089037
_cell_angle_alpha 90.000000
_cell_angle_beta 90.000000
_cell_angle_gamma 90.000000
_cell_volume 3710.286389
_symmetry_space_group_name_H-M "A M M 2"
_symmetry_group_IT_number 38
_symmetry_cell_setting 'orthorhombic'
loop_
_space_group_symop_operation_xyz
x,y,z
-x,-y,z
-x,y,z
x,-y,z
x,1/2+y,1/2+z
-x,1/2-y,1/2+z
-x,1/2+y,1/2+z
x,1/2-y,1/2+z
loop_
_atom_site_type_symbol
_atom_site_label
_atom_site_fract_x
_atom_site_fract_y
_atom_site_fract_z
Si Si1 0.684024 0.444623 0.984960
Si Si2 0.182061 0.556067 0.176567
Si Si3 0.816206 0.674288 0.472379
Si Si4 0.683606 0.364738 0.848362
Si Si5 0.317979 0.363767 0.298553
Si Si6 0.684020 0.720840 0.978227
Si Si7 0.183129 0.173018 0.174283
Si Si8 0.184076 0.716629 0.171293
O O1 0.500000 0.440235 0.995010
O O2 0.719536 0.500000 0.967739
O O3 0.733199 0.410402 0.905336
O O4 0.759955 0.430803 0.078163
O O5 0.215892 0.500000 0.189073
O O6 0.263181 0.588996 0.248330
O O7 0.000000 0.562873 0.181560
O O8 0.748094 0.640709 0.397293
O O9 0.753474 0.727637 0.456927
O O10 0.771678 0.661267 0.573254
O O11 0.000000 0.675251 0.466962
O O12 0.500000 0.365786 0.843341
O O13 0.727220 0.318053 0.905054
O O14 0.748361 0.359622 0.750299
O O15 0.500000 0.360991 0.299877
O O16 0.251131 0.319462 0.242516
O O17 0.500000 0.723836 0.982654
O O18 0.749084 0.705789 0.074001
O O19 0.226724 0.228382 0.190604
O O20 0.000000 0.170813 0.178592
O O21 0.000000 0.713240 0.169349
#
# Coordination Sequence:
#
# PCOD9356744 Si02
#       8
#     8   8   8   8   8   8   8   8
#     4   9  18  34  54  77 107 138 167 205 254 305
#     4  10  21  37  57  81 107 135 167 205 253 310
#     4  10  21  37  52  70 100 137 177 217 259 307
#     4  10  20  31  48  74 101 132 170 209 251 302
#     4  12  23  34  53  79 104 135 174 215 261 310
#     4  10  19  31  48  75 108 138 172 213 257 307
#     4   9  20  35  51  71  98 135 174 213 256 300
#     4  10  20  34  51  74 105 140 175 212 257 309
#
# _framework density 17.249341999999999
#
# number of rings (size 3 to 8) (size 9 to 14) (size 15 to 20)
#    0.000    2.000    0.000    4.875    0.000    8.250 
#    0.000    0.000    0.000    0.750    0.000    3.500 
#    0.000    0.000    0.000    0.000    0.000    0.000 
#
# Total GULP energy -178722.853069 kJ/mol
# GULP energy per Si atom -5585.089158 kJ/mol
# Density = 1.721008 g / cm^3
# Si number density = 17.249342 Si / 1000 Ang^3
#
#
#
# Elastic Constant Matrix: (Units=GPa)
#
#
# Indices 1 2 3 4 5 6 
#
# 1 57.1251 37.1644 49.3735 0.0000 0.0000 0.0000
# 2 37.1644 67.0105 78.1325 0.0000 0.0000 0.0000
# 3 49.3735 78.1325 140.0536 0.0000 0.0000 0.0000
# 4 0.0000 0.0000 0.0000 31.5851 0.0000 0.0000
# 5 0.0000 0.0000 0.0000 0.0000 34.0474 0.0000
# 6 0.0000 0.0000 0.0000 0.0000 0.0000 22.3695
#
#
#
# Elastic Compliance Matrix: (Units=1/GPa)
#
#
# Indices 1 2 3 4 5 6 
#
# 1 0.027958 -0.011483 -0.003450 0.000000 0.000000 0.000000
# 2 -0.011483 0.047411 -0.022401 0.000000 0.000000 0.000000
# 3 -0.003450 -0.022401 0.020853 0.000000 0.000000 0.000000
# 4 0.000000 0.000000 0.000000 0.031661 0.000000 0.000000
# 5 0.000000 0.000000 0.000000 0.000000 0.029371 0.000000
# 6 0.000000 0.000000 0.000000 0.000000 0.000000 0.044704
#
#
# Mechanical properties :
#
#
# Convention : Reuss Voigt Hill
#
# Bulk Modulus (GPa) = 46.39568 65.94778 56.17173
# Shear Modulus (GPa) = 17.61742 24.23497 20.92619
#
# Velocity S-wave (km/s) = 3.19931 3.75237 3.48682
# Velocity P-wave (km/s) = 6.37204 7.55571 6.98898
#
# Compressibility (1/GPa) = 0.02155373
#
# Stress axis : x y z
#
# Youngs Moduli (GPa) = 35.76808 21.09229 47.95379
#
# Poissons Ratio (x) = 0.24220 0.16544
# Poissons Ratio (y) = 0.41073 1.07422
# Poissons Ratio (z) = 0.12340 0.47249
#
# Static dielectric constant tensor:
#      x y z
#    x 1.575400 0.000000 0.000000 
#    y 0.000000 1.577730 0.000000 
#    z 0.000000 0.000000 1.579170 
# 
# From -- ./inp_files/13129.got.cif
#   From: 2010.05.17/outbox.cif.g08.bks.cpg/sg38_7_cif.got.tgz:13129.got - 2010.06.03 18:07:57.
