data_PCOD9356135
_publ_section_title
;
Structure prediction by ZEFSAII (Michael W. Deem and Ramdas Pophale) SiO2 
 PCOD9356135
Probable space group: A M M 2
;
_chemical_formula_sum "Si O2"
_cell_formula_units_Z 64
_cell_length_a 8.350934
_cell_length_b 30.298918
_cell_length_c 12.399935
_cell_angle_alpha 90.000000
_cell_angle_beta 90.000000
_cell_angle_gamma 90.000000
_cell_volume 3137.484433
_symmetry_space_group_name_H-M "A M M 2"
_symmetry_group_IT_number 38
_symmetry_cell_setting 'orthorhombic'
loop_
_space_group_symop_operation_xyz
x,y,z
-x,-y,z
-x,y,z
x,-y,z
x,1/2+y,1/2+z
-x,1/2-y,1/2+z
-x,1/2+y,1/2+z
x,1/2-y,1/2+z
loop_
_atom_site_type_symbol
_atom_site_label
_atom_site_fract_x
_atom_site_fract_y
_atom_site_fract_z
Si Si1 0.688723 0.453699 0.486380
Si Si2 0.310864 0.949965 0.437737
Si Si3 0.185464 0.160834 0.096579
Si Si4 0.187599 0.071546 0.208131
Si Si5 0.184933 0.279616 0.797758
Si Si6 0.686832 0.136816 0.878063
Si Si7 0.690456 0.651498 0.977362
Si Si8 0.185780 0.191551 0.699533
O O1 0.500000 0.449067 0.514704
O O2 0.710481 0.500000 0.428418
O O3 0.785468 0.453698 0.597042
O O4 0.731201 0.412169 0.415551
O O5 0.500000 0.950331 0.462591
O O6 0.282926 0.946893 0.308951
O O7 0.248681 0.900370 0.474919
O O8 0.249541 0.000000 0.470694
O O9 0.242953 0.120233 0.171059
O O10 0.188438 0.201394 0.176492
O O11 0.000000 0.151450 0.067147
O O12 0.282869 0.164774 0.987115
O O13 0.000000 0.072964 0.237412
O O14 0.257712 0.231321 0.774010
O O15 0.000000 0.273760 0.833090
O O16 0.254109 0.316273 0.879330
O O17 0.500000 0.138646 0.847831
O O18 0.795188 0.150897 0.779908
O O19 0.500000 0.648140 0.969723
O O20 0.736549 0.677226 0.087028
O O21 0.000000 0.202271 0.678569
#
# Coordination Sequence:
#
# PCOD9356135 Si02
#       8
#     8   8   8   8   8   8   8   8
#     4   9  18  33  53  78 112 155 197 239 294 355
#     4  10  21  37  57  83 119 162 201 240 298 365
#     4   9  18  34  56  83 117 154 190 231 285 352
#     4  10  18  29  50  82 118 152 189 239 290 342
#     4  10  22  41  64  88 117 157 196 234 293 366
#     4  10  21  37  58  85 117 151 195 246 292 340
#     4  11  24  42  65  92 123 156 201 259 304 349
#     4  11  25  43  64  86 117 161 202 242 299 366
#
# _framework density 20.398508
#
# number of rings (size 3 to 8) (size 9 to 14) (size 15 to 20)
#    0.000    2.000    1.250    1.875    1.750    5.000 
#    0.000    0.625    0.000    3.750    0.000    0.000 
#    0.000    0.000    0.000    0.000    0.000    0.000 
#
# Total GULP energy -178186.269267 kJ/mol
# GULP energy per Si atom -5568.320915 kJ/mol
# Density = 2.035208 g / cm^3
# Si number density = 20.398508 Si / 1000 Ang^3
#
#
#
# Elastic Constant Matrix: (Units=GPa)
#
#
# Indices 1 2 3 4 5 6 
#
# 1 16.5875 19.1566 14.0438 0.0000 0.0000 0.0000
# 2 19.1566 105.3338 45.0668 0.0000 0.0000 0.0000
# 3 14.0438 45.0668 73.8913 0.0000 0.0000 0.0000
# 4 0.0000 0.0000 0.0000 -79.5126 0.0000 0.0000
# 5 0.0000 0.0000 0.0000 0.0000 29.7230 0.0000
# 6 0.0000 0.0000 0.0000 0.0000 0.0000 18.0377
#
#
#
# Elastic Compliance Matrix: (Units=1/GPa)
#
#
# Indices 1 2 3 4 5 6 
#
# 1 0.080145 -0.010904 -0.008582 0.000000 0.000000 0.000000
# 2 -0.010904 0.014329 -0.006667 0.000000 0.000000 0.000000
# 3 -0.008582 -0.006667 0.019231 0.000000 0.000000 0.000000
# 4 0.000000 0.000000 0.000000 -0.012577 0.000000 0.000000
# 5 0.000000 0.000000 0.000000 0.000000 0.033644 0.000000
# 6 0.000000 0.000000 0.000000 0.000000 0.000000 0.055440
#
#
# Mechanical properties :
#
#
# Convention : Reuss Voigt Hill
#
# Bulk Modulus (GPa) = 16.28687 39.14965 27.71826
# Shear Modulus (GPa) = 19.01255 1.48598 10.24926
#
# Velocity S-wave (km/s) = 3.05627 0.85443 2.24398
# Velocity P-wave (km/s) = 4.52284 4.49527 4.50908
#
# Compressibility (1/GPa) = 0.06139913
#
# Stress axis : x y z
#
# Youngs Moduli (GPa) = 12.47736 69.78794 51.99991
#
# Poissons Ratio (x) = 0.76095 0.44627
# Poissons Ratio (y) = 0.13605 0.34669
# Poissons Ratio (z) = 0.10708 0.46528
#
# Static dielectric constant tensor:
#      x y z
#    x 1.732090 0.000000 0.000000 
#    y 0.000000 1.885680 0.000000 
#    z 0.000000 0.000000 1.685300 
# 
# From -- ./inp_files/8566.got.cif
#   From: 2010.05.17/outbox.cif.g08.bks.cpg/sg38_5_cif.got.tgz:8566.got - 2010.06.03 18:07:57.
