data_PCOD9356112
_publ_section_title
;
Structure prediction by ZEFSAII (Michael W. Deem and Ramdas Pophale) SiO2 
 PCOD9356112
Probable space group: A M M 2
;
_chemical_formula_sum "Si O2"
_cell_formula_units_Z 64
_cell_length_a 7.602981
_cell_length_b 29.008403
_cell_length_c 15.033988
_cell_angle_alpha 90.000000
_cell_angle_beta 90.000000
_cell_angle_gamma 90.000000
_cell_volume 3315.751118
_symmetry_space_group_name_H-M "A M M 2"
_symmetry_group_IT_number 38
_symmetry_cell_setting 'orthorhombic'
loop_
_space_group_symop_operation_xyz
x,y,z
-x,-y,z
-x,y,z
x,-y,z
x,1/2+y,1/2+z
-x,1/2-y,1/2+z
-x,1/2+y,1/2+z
x,1/2-y,1/2+z
loop_
_atom_site_type_symbol
_atom_site_label
_atom_site_fract_x
_atom_site_fract_y
_atom_site_fract_z
Si Si1 0.702263 0.370270 0.154560
Si Si2 0.793959 0.784604 0.537352
Si Si3 0.285081 0.946916 0.520948
Si Si4 0.713698 0.216707 0.333209
Si Si5 0.793145 0.681330 0.520773
Si Si6 0.706966 0.820583 0.821191
Si Si7 0.714790 0.052537 0.319032
Si Si8 0.712004 0.136651 0.201276
O O1 0.500000 0.384565 0.170227
O O2 0.704852 0.323350 0.096856
O O3 0.780962 0.410646 0.093652
O O4 0.782592 0.356163 0.249578
O O5 0.771859 0.795610 0.432900
O O6 0.722219 0.732304 0.547331
O O7 0.000000 0.785131 0.560627
O O8 0.500000 0.945337 0.520495
O O9 0.231225 0.934876 0.419873
O O10 0.235112 0.000000 0.538404
O O11 0.500000 0.217127 0.334091
O O12 0.777957 0.268435 0.312234
O O13 0.773420 0.179637 0.261355
O O14 0.722590 0.666854 0.424654
O O15 0.762063 0.646023 0.600014
O O16 0.000000 0.687914 0.508040
O O17 0.500000 0.817135 0.800318
O O18 0.500000 0.052762 0.318614
O O19 0.774826 0.089739 0.247299
O O20 0.770029 0.000000 0.301347
O O21 0.500000 0.136425 0.205116
#
# Coordination Sequence:
#
# PCOD9356112 Si02
#       8
#     8   8   8   8   8   8   8   8
#     4  10  18  29  49  73  94 120 156 193 229 272
#     4  10  20  31  44  66  96 127 156 188 228 274
#     4   8  14  26  46  73 101 122 142 177 227 278
#     4   9  17  29  45  66  92 122 156 192 229 271
#     4  10  21  34  46  63  91 126 160 194 232 273
#     4   9  18  31  46  65  90 121 158 197 231 267
#     4   8  14  25  43  70 100 123 144 177 225 277
#     4  10  18  29  49  72  92 119 156 194 231 272
#
# _framework density 19.301812000000002
#
# number of rings (size 3 to 8) (size 9 to 14) (size 15 to 20)
#    0.000    2.750    0.000    3.000    0.000    5.500 
#    0.000    2.500    0.000    1.500    0.000    5.250 
#    0.000    0.000    0.000    0.000    0.000    0.000 
#
# Total GULP energy -178543.380295 kJ/mol
# GULP energy per Si atom -5579.480634 kJ/mol
# Density = 1.925788 g / cm^3
# Si number density = 19.301812 Si / 1000 Ang^3
#
#
#
# Elastic Constant Matrix: (Units=GPa)
#
#
# Indices 1 2 3 4 5 6 
#
# 1 41.2481 -1.4017 -9.5071 0.0000 0.0000 0.0000
# 2 -1.4017 94.7107 90.8521 0.0000 0.0000 0.0000
# 3 -9.5071 90.8521 124.1153 0.0000 0.0000 0.0000
# 4 0.0000 0.0000 0.0000 35.8757 0.0000 0.0000
# 5 0.0000 0.0000 0.0000 0.0000 1197.7924 0.0000
# 6 0.0000 0.0000 0.0000 0.0000 0.0000 -0.8617
#
#
#
# Elastic Compliance Matrix: (Units=1/GPa)
#
#
# Indices 1 2 3 4 5 6 
#
# 1 0.025365 -0.004997 0.005601 0.000000 0.000000 0.000000
# 2 -0.004997 0.036437 -0.027054 0.000000 0.000000 0.000000
# 3 0.005601 -0.027054 0.028290 0.000000 0.000000 0.000000
# 4 0.000000 0.000000 0.000000 0.027874 0.000000 0.000000
# 5 0.000000 0.000000 0.000000 0.000000 0.000835 0.000000
# 6 0.000000 0.000000 0.000000 0.000000 0.000000 -1.160500
#
#
# Mechanical properties :
#
#
# Convention : Reuss Voigt Hill
#
# Bulk Modulus (GPa) = 26.88924 46.66229 36.77577
# Shear Modulus (GPa) = -5.12084 258.56999 126.72457
#
# Velocity S-wave (km/s) = -1.63058 11.58673 8.11152
# Velocity P-wave (km/s) = 3.22740 14.25590 10.33554
#
# Compressibility (1/GPa) = 0.03718959
#
# Stress axis : x y z
#
# Youngs Moduli (GPa) = 39.42487 27.44495 35.34853
#
# Poissons Ratio (x) = 0.13715 -0.19799
# Poissons Ratio (y) = 0.19702 0.95633
# Poissons Ratio (z) = -0.22082 0.74250
#
# Static dielectric constant tensor:
#      x y z
#    x 1.723110 0.000000 0.000000 
#    y 0.000000 1.672170 0.000000 
#    z 0.000000 0.000000 1.668780 
# 
# From -- ./inp_files/8618.got.cif
#   From: 2010.05.17/outbox.cif.g08.bks.cpg/sg38_5_cif.got.tgz:8618.got - 2010.06.03 18:07:57.
