data_PCOD9356721
_publ_section_title
;
Structure prediction by ZEFSAII (Michael W. Deem and Ramdas Pophale) SiO2 
 PCOD9356721
Probable space group: A M M 2
;
_chemical_formula_sum "Si O2"
_cell_formula_units_Z 58
_cell_length_a 15.824286
_cell_length_b 7.326060
_cell_length_c 25.800665
_cell_angle_alpha 90.000000
_cell_angle_beta 90.000000
_cell_angle_gamma 90.000000
_cell_volume 2991.062546
_symmetry_space_group_name_H-M "A M M 2"
_symmetry_group_IT_number 38
_symmetry_cell_setting 'orthorhombic'
loop_
_space_group_symop_operation_xyz
x,y,z
-x,-y,z
-x,y,z
x,-y,z
x,1/2+y,1/2+z
-x,1/2-y,1/2+z
-x,1/2+y,1/2+z
x,1/2-y,1/2+z
loop_
_atom_site_type_symbol
_atom_site_label
_atom_site_fract_x
_atom_site_fract_y
_atom_site_fract_z
Si Si1 0.000000 0.000000 0.852520
Si Si2 0.597225 0.777530 0.064643
Si Si3 0.094360 0.721000 0.691423
Si Si4 0.320698 0.716135 0.840945
Si Si5 0.592693 0.277464 0.740436
Si Si6 0.274795 0.722647 0.653683
Si Si7 0.405803 0.282529 0.447647
Si Si8 0.132204 0.220582 0.311971
O O1 0.072533 0.160673 0.847867
O O2 0.500000 0.723454 0.077491
O O3 0.669742 0.718396 0.104342
O O4 0.597055 0.000000 0.066302
O O5 0.615620 0.718092 0.005587
O O6 0.093544 0.500000 0.688088
O O7 0.177562 0.783028 0.660109
O O8 0.108600 0.764172 0.752190
O O9 0.000000 0.784070 0.676055
O O10 0.320202 0.500000 0.834061
O O11 0.388473 0.784070 0.799011
O O12 0.343922 0.747951 0.900276
O O13 0.228089 0.775211 0.823930
O O14 0.500000 0.217446 0.722753
O O15 0.591445 0.500000 0.738751
O O16 0.669519 0.222687 0.703496
O O17 0.272493 0.500000 0.653069
O O18 0.500000 0.213910 0.434293
O O19 0.411058 0.500000 0.452268
O O20 0.122879 0.000000 0.318117
#
# Coordination Sequence:
#
# PCOD9356721 Si02
#       8
#     2   8   8   8   8   8   8   8
#     4  12  22  32  56  78  98 148 178 208 272 322
#     4   8  14  25  41  64  93 126 167 214 260 305
#     4   9  15  26  43  65  97 132 161 205 258 307
#     4  10  19  31  47  70 100 133 167 209 258 310
#     4   9  15  22  37  65  99 130 162 202 249 306
#     4   9  14  22  39  65  94 127 163 205 263 312
#     4   9  18  31  46  67  97 132 172 218 256 296
#     4  10  20  34  50  76 109 134 172 221 262 320
#
# _framework density 19.391102
#
# number of rings (size 3 to 8) (size 9 to 14) (size 15 to 20)
#    0.000    2.759    2.069    1.862    0.966    2.483 
#    0.000    0.000    0.000    0.000    3.586    0.000 
#    0.000    2.207    0.000    0.000    0.000    0.000 
#
# Total GULP energy -161447.734696 kJ/mol
# GULP energy per Si atom -5567.163265 kJ/mol
# Density = 1.934697 g / cm^3
# Si number density = 19.391102 Si / 1000 Ang^3
#
#
#
# Elastic Constant Matrix: (Units=GPa)
#
#
# Indices 1 2 3 4 5 6 
#
# 1 177.3144 10.3443 75.1137 0.0000 0.0000 0.0000
# 2 10.3443 75.0706 -3.5395 0.0000 0.0000 0.0000
# 3 75.1137 -3.5395 87.6880 0.0000 0.0000 0.0000
# 4 0.0000 0.0000 0.0000 2.4808 0.0000 0.0000
# 5 0.0000 0.0000 0.0000 0.0000 29.1292 0.0000
# 6 0.0000 0.0000 0.0000 0.0000 0.0000 -21.9405
#
#
#
# Elastic Compliance Matrix: (Units=1/GPa)
#
#
# Indices 1 2 3 4 5 6 
#
# 1 0.009043 -0.001614 -0.007811 0.000000 0.000000 0.000000
# 2 -0.001614 0.013634 0.001933 0.000000 0.000000 0.000000
# 3 -0.007811 0.001933 0.018173 0.000000 0.000000 0.000000
# 4 0.000000 0.000000 0.000000 0.403090 0.000000 0.000000
# 5 0.000000 0.000000 0.000000 0.000000 0.034330 0.000000
# 6 0.000000 0.000000 0.000000 0.000000 0.000000 -0.045578
#
#
# Mechanical properties :
#
#
# Convention : Reuss Voigt Hill
#
# Bulk Modulus (GPa) = 38.66135 55.99000 47.32568
# Shear Modulus (GPa) = 10.95771 19.14421 15.05096
#
# Velocity S-wave (km/s) = 2.37974 3.14549 2.78902
# Velocity P-wave (km/s) = 5.24708 6.49068 5.90173
#
# Compressibility (1/GPa) = 0.02586562
#
# Stress axis : x y z
#
# Youngs Moduli (GPa) = 110.58389 73.34400 55.02575
#
# Poissons Ratio (x) = 0.11840 0.42982
# Poissons Ratio (y) = 0.17852 -0.10638
# Poissons Ratio (z) = 0.86381 -0.14179
#
# Static dielectric constant tensor:
#      x y z
#    x 1.645050 0.000000 0.000000 
#    y 0.000000 1.773370 0.000000 
#    z 0.000000 0.000000 1.677060 
# 
# From -- ./inp_files/23995.got.cif
#   From: 2010.05.17/outbox.cif.g08.bks.cpg/sg38_12_cif.got.tgz:23995.got - 2010.06.03 18:07:57.
