data_PCOD9356857
_publ_section_title
;
Structure prediction by ZEFSAII (Michael W. Deem and Ramdas Pophale) SiO2 
 PCOD9356857
Probable space group: A M M 2
;
_chemical_formula_sum "Si O2"
_cell_formula_units_Z 64
_cell_length_a 20.502938
_cell_length_b 7.515380
_cell_length_c 21.107550
_cell_angle_alpha 90.000000
_cell_angle_beta 90.000000
_cell_angle_gamma 90.000000
_cell_volume 3252.406871
_symmetry_space_group_name_H-M "A M M 2"
_symmetry_group_IT_number 38
_symmetry_cell_setting 'orthorhombic'
loop_
_space_group_symop_operation_xyz
x,y,z
-x,-y,z
-x,y,z
x,-y,z
x,1/2+y,1/2+z
-x,1/2-y,1/2+z
-x,1/2+y,1/2+z
x,1/2-y,1/2+z
loop_
_atom_site_type_symbol
_atom_site_label
_atom_site_fract_x
_atom_site_fract_y
_atom_site_fract_z
Si Si1 0.288669 0.281628 0.147710
Si Si2 0.846596 0.785270 0.447219
Si Si3 0.429844 0.288271 0.509437
Si Si4 0.429562 0.705314 0.157000
Si Si5 0.150914 0.282430 0.197338
Si Si6 0.925308 0.782822 0.571129
Si Si7 0.074146 0.711171 0.320385
Si Si8 0.712782 0.287931 0.000806
O O1 0.290602 0.500000 0.146727
O O2 0.358741 0.218701 0.173942
O O3 0.225825 0.227197 0.187675
O O4 0.281204 0.223621 0.073990
O O5 0.887304 0.724882 0.508527
O O6 0.883778 0.734737 0.383615
O O7 0.772229 0.721812 0.457693
O O8 0.845837 0.000000 0.448045
O O9 0.500000 0.234360 0.480516
O O10 0.431081 0.500000 0.517725
O O11 0.427723 0.207004 0.580052
O O12 0.360839 0.246237 0.477645
O O13 0.500000 0.785813 0.175012
O O14 0.430513 0.500000 0.177989
O O15 0.151369 0.500000 0.198399
O O16 0.111406 0.228062 0.134771
O O17 0.114080 0.218513 0.259973
O O18 0.000000 0.724735 0.570547
O O19 0.925000 0.000000 0.570830
O O20 0.068066 0.500000 0.310098
O O21 0.000000 0.782051 0.326062
O O22 0.720007 0.500000 0.004828
#
# Coordination Sequence:
#
# PCOD9356857 Si02
#       8
#     8   8   8   8   8   8   8   8
#     4   8  12  21  39  62  87 111 142 188 229 260
#     4  10  19  32  50  71  92 118 154 196 238 279
#     4   9  16  24  36  59  92 126 154 180 218 271
#     4   8  13  21  35  57  86 119 150 182 225 272
#     4   9  15  26  44  66  90 116 149 191 234 273
#     4   9  15  24  43  69  90 110 145 193 237 273
#     4  10  21  34  47  66  93 123 154 190 235 290
#     4   9  16  27  44  66  90 116 151 194 234 270
#
# _framework density 19.677734999999998
#
# number of rings (size 3 to 8) (size 9 to 14) (size 15 to 20)
#    0.000    3.000    1.250    1.875    0.000    3.500 
#    0.000    0.000    0.000    3.750    0.000    0.875 
#    0.000    3.000    0.000    0.000    0.000    1.500 
#
# Total GULP energy -178295.163409 kJ/mol
# GULP energy per Si atom -5571.723857 kJ/mol
# Density = 1.963295 g / cm^3
# Si number density = 19.677735 Si / 1000 Ang^3
#
#
#
# Elastic Constant Matrix: (Units=GPa)
#
#
# Indices 1 2 3 4 5 6 
#
# 1 251.5598 4.7918 85.1762 0.0000 0.0000 0.0000
# 2 4.7918 50.7304 0.1813 0.0000 0.0000 0.0000
# 3 85.1762 0.1813 105.3530 0.0000 0.0000 0.0000
# 4 0.0000 0.0000 0.0000 -1.5490 0.0000 0.0000
# 5 0.0000 0.0000 0.0000 0.0000 11.4144 0.0000
# 6 0.0000 0.0000 0.0000 0.0000 0.0000 3.1759
#
#
#
# Elastic Compliance Matrix: (Units=1/GPa)
#
#
# Indices 1 2 3 4 5 6 
#
# 1 0.005486 -0.000502 -0.004435 0.000000 0.000000 0.000000
# 2 -0.000502 0.019758 0.000372 0.000000 0.000000 0.000000
# 3 -0.004435 0.000372 0.013077 0.000000 0.000000 0.000000
# 4 0.000000 0.000000 0.000000 -0.645597 0.000000 0.000000
# 5 0.000000 0.000000 0.000000 0.000000 0.087608 0.000000
# 6 0.000000 0.000000 0.000000 0.000000 0.000000 0.314873
#
#
# Mechanical properties :
#
#
# Convention : Reuss Voigt Hill
#
# Bulk Modulus (GPa) = 34.25681 65.32687 49.79184
# Shear Modulus (GPa) = -26.89125 23.77452 -1.55836
#
# Velocity S-wave (km/s) = -3.70074 3.47968 -0.89088
# Velocity P-wave (km/s) = 0.90219 7.02956 4.92954
#
# Compressibility (1/GPa) = 0.02919127
#
# Stress axis : x y z
#
# Youngs Moduli (GPa) = 182.27078 50.61194 76.47192
#
# Poissons Ratio (x) = 0.02543 0.33913
# Poissons Ratio (y) = 0.09157 -0.02846
# Poissons Ratio (z) = 0.80833 -0.01884
#
# Static dielectric constant tensor:
#      x y z
#    x 1.793180 0.000000 0.000000 
#    y 0.000000 1.769240 0.000000 
#    z 0.000000 0.000000 1.635360 
# 
# From -- ./inp_files/18977.got.cif
#   From: 2010.05.17/outbox.cif.g08.bks.cpg/sg38_10_cif.got.tgz:18977.got - 2010.06.03 18:07:57.
