data_PCOD9356602
_publ_section_title
;
Structure prediction by ZEFSAII (Michael W. Deem and Ramdas Pophale) SiO2 
 PCOD9356602
Probable space group: A M M 2
;
_chemical_formula_sum "Si O2"
_cell_formula_units_Z 64
_cell_length_a 20.563718
_cell_length_b 7.370699
_cell_length_c 20.930019
_cell_angle_alpha 90.000000
_cell_angle_beta 90.000000
_cell_angle_gamma 90.000000
_cell_volume 3172.341541
_symmetry_space_group_name_H-M "A M M 2"
_symmetry_group_IT_number 38
_symmetry_cell_setting 'orthorhombic'
loop_
_space_group_symop_operation_xyz
x,y,z
-x,-y,z
-x,y,z
x,-y,z
x,1/2+y,1/2+z
-x,1/2-y,1/2+z
-x,1/2+y,1/2+z
x,1/2-y,1/2+z
loop_
_atom_site_type_symbol
_atom_site_label
_atom_site_fract_x
_atom_site_fract_y
_atom_site_fract_z
Si Si1 0.429875 0.219224 0.790330
Si Si2 0.925279 0.219601 0.875616
Si Si3 0.158407 0.790215 0.499854
Si Si4 0.288387 0.713629 0.284164
Si Si5 0.711529 0.779755 0.436133
Si Si6 0.148652 0.721733 0.247343
Si Si7 0.924958 0.777978 0.618863
Si Si8 0.430146 0.713466 0.942624
O O1 0.500000 0.281229 0.763739
O O2 0.359910 0.286756 0.765878
O O3 0.430232 0.267333 0.865556
O O4 0.429231 0.000000 0.786105
O O5 0.887758 0.283205 0.938152
O O6 0.888249 0.278190 0.811711
O O7 0.000000 0.278313 0.875462
O O8 0.924418 0.000000 0.876519
O O9 0.227551 0.712673 0.477208
O O10 0.118778 0.713823 0.559576
O O11 0.171494 0.000000 0.516298
O O12 0.290204 0.500000 0.269839
O O13 0.280685 0.731000 0.361201
O O14 0.223280 0.785715 0.251321
O O15 0.640988 0.714947 0.460875
O O16 0.711208 0.000000 0.437339
O O17 0.149626 0.500000 0.247603
O O18 0.109028 0.776690 0.184898
O O19 0.000000 0.719679 0.614485
O O20 0.926199 0.000000 0.617520
O O21 0.500000 0.789391 0.964990
O O22 0.430530 0.500000 0.958162
#
# Coordination Sequence:
#
# PCOD9356602 Si02
#       8
#     8   8   8   8   8   8   8   8
#     4   8  13  20  31  51  79 106 129 157 197 241
#     4  10  19  30  46  66  85 106 135 173 215 256
#     4  10  19  30  45  65  87 111 138 171 214 256
#     4   9  15  24  40  60  81 106 136 169 204 242
#     4   9  16  25  38  59  85 109 134 167 206 246
#     4   9  16  27  43  63  83 106 139 175 208 242
#     4   9  17  29  44  61  82 108 140 177 210 244
#     4   8  13  21  33  50  75 107 137 162 192 233
#
# _framework density 20.174372999999999
#
# number of rings (size 3 to 8) (size 9 to 14) (size 15 to 20)
#    0.000    3.000    1.250    0.750    0.000    2.250 
#    0.000    0.000    0.000    1.500    0.000    0.875 
#    0.000    7.000    0.000    0.000    0.000  117.125 
#
# Total GULP energy -178342.933318 kJ/mol
# GULP energy per Si atom -5573.216666 kJ/mol
# Density = 2.012846 g / cm^3
# Si number density = 20.174373 Si / 1000 Ang^3
#
#
#
# Elastic Constant Matrix: (Units=GPa)
#
#
# Indices 1 2 3 4 5 6 
#
# 1 215.6042 -1.1952 43.0156 0.0000 0.0000 0.0000
# 2 -1.1952 72.0130 -9.2111 0.0000 0.0000 0.0000
# 3 43.0156 -9.2111 72.5686 0.0000 0.0000 0.0000
# 4 0.0000 0.0000 0.0000 6.1727 0.0000 0.0000
# 5 0.0000 0.0000 0.0000 0.0000 16.7692 0.0000
# 6 0.0000 0.0000 0.0000 0.0000 0.0000 2.7538
#
#
#
# Elastic Compliance Matrix: (Units=1/GPa)
#
#
# Indices 1 2 3 4 5 6 
#
# 1 0.005267 -0.000317 -0.003162 0.000000 0.000000 0.000000
# 2 -0.000317 0.014135 0.001982 0.000000 0.000000 0.000000
# 3 -0.003162 0.001982 0.015906 0.000000 0.000000 0.000000
# 4 0.000000 0.000000 0.000000 0.162003 0.000000 0.000000
# 5 0.000000 0.000000 0.000000 0.000000 0.059633 0.000000
# 6 0.000000 0.000000 0.000000 0.000000 0.000000 0.363133
#
#
# Mechanical properties :
#
#
# Convention : Reuss Voigt Hill
#
# Bulk Modulus (GPa) = 30.94715 47.26715 39.10715
# Shear Modulus (GPa) = 7.88838 26.97758 17.43298
#
# Velocity S-wave (km/s) = 1.97954 3.66077 2.94277
# Velocity P-wave (km/s) = 4.53849 6.43028 5.56536
#
# Compressibility (1/GPa) = 0.03231315
#
# Stress axis : x y z
#
# Youngs Moduli (GPa) = 189.84964 70.74814 62.86844
#
# Poissons Ratio (x) = 0.02243 0.19882
# Poissons Ratio (y) = 0.06020 -0.12461
# Poissons Ratio (z) = 0.60040 -0.14023
#
# Static dielectric constant tensor:
#      x y z
#    x 1.777570 0.000000 0.000000 
#    y 0.000000 1.830880 0.000000 
#    z 0.000000 0.000000 1.644630 
# 
# From -- ./inp_files/19004.got.cif
#   From: 2010.05.17/outbox.cif.g08.bks.cpg/sg38_10_cif.got.tgz:19004.got - 2010.06.03 18:07:57.
