data_PCOD9356939
_publ_section_title
;
Structure prediction by ZEFSAII (Michael W. Deem and Ramdas Pophale) SiO2 
 PCOD9356939
Probable space group: A M M 2
;
_chemical_formula_sum "Si O2"
_cell_formula_units_Z 48
_cell_length_a 10.414568
_cell_length_b 28.314097
_cell_length_c 9.135856
_cell_angle_alpha 90.000000
_cell_angle_beta 90.000000
_cell_angle_gamma 90.000000
_cell_volume 2693.972891
_symmetry_space_group_name_H-M "A M M 2"
_symmetry_group_IT_number 38
_symmetry_cell_setting 'orthorhombic'
loop_
_space_group_symop_operation_xyz
x,y,z
-x,-y,z
-x,y,z
x,-y,z
x,1/2+y,1/2+z
-x,1/2-y,1/2+z
-x,1/2+y,1/2+z
x,1/2-y,1/2+z
loop_
_atom_site_type_symbol
_atom_site_label
_atom_site_fract_x
_atom_site_fract_y
_atom_site_fract_z
Si Si1 0.344656 0.000000 0.170620
Si Si2 0.859212 0.819258 0.053781
Si Si3 0.344622 0.093196 0.673473
Si Si4 0.657127 0.000000 0.507200
Si Si5 0.775509 0.248823 0.800473
Si Si6 0.344923 0.900394 0.018821
Si Si7 0.350345 0.691291 0.054751
O O1 0.309550 0.049508 0.093348
O O2 0.500000 0.000000 0.168647
O O3 0.301907 0.000000 0.338906
O O4 0.852124 0.780198 0.182939
O O5 0.742861 0.856629 0.071208
O O6 0.000000 0.842190 0.057065
O O7 0.843522 0.790978 0.900097
O O8 0.500000 0.093931 0.662151
O O9 0.296177 0.139794 0.592198
O O10 0.299455 0.046210 0.593774
O O11 0.318596 0.094731 0.845614
O O12 0.500000 0.000000 0.507606
O O13 0.670793 0.222345 0.700397
O O14 0.716521 0.284060 0.919042
O O15 0.500000 0.892156 0.039474
O O16 0.500000 0.687523 0.022337
#
# Coordination Sequence:
#
# PCOD9356939 Si02
#       7
#     4   8   8   4   8   8   8
#     4   9  19  33  54  85 116 146 183 230 284 339
#     4  11  23  40  59  82 113 154 196 236 284 339
#     4   9  17  30  49  77 112 143 175 220 276 332
#     4   9  17  29  49  77 110 146 181 220 276 339
#     4  10  22  36  54  77 111 152 194 231 279 342
#     4  10  20  36  58  86 116 147 186 233 284 339
#     4  10  19  32  52  83 115 144 182 233 287 335
#
# _framework density 17.817551000000002
#
# number of rings (size 3 to 8) (size 9 to 14) (size 15 to 20)
#    0.000    2.167    1.667    1.500    2.333    5.333 
#    0.000    0.417    0.000    0.000    0.000    0.000 
#    0.000    0.000    0.000    0.000    0.000    0.000 
#
# Total GULP energy -133735.730171 kJ/mol
# GULP energy per Si atom -5572.322090 kJ/mol
# Density = 1.777700 g / cm^3
# Si number density = 17.817551 Si / 1000 Ang^3
#
#
#
# Elastic Constant Matrix: (Units=GPa)
#
#
# Indices 1 2 3 4 5 6 
#
# 1 52.2858 27.4382 12.5540 0.0000 0.0000 0.0000
# 2 27.4382 123.6260 35.1919 0.0000 0.0000 0.0000
# 3 12.5540 35.1919 70.2638 0.0000 0.0000 0.0000
# 4 0.0000 0.0000 0.0000 31.4760 0.0000 0.0000
# 5 0.0000 0.0000 0.0000 0.0000 -0.4312 0.0000
# 6 0.0000 0.0000 0.0000 0.0000 0.0000 5.2712
#
#
#
# Elastic Compliance Matrix: (Units=1/GPa)
#
#
# Indices 1 2 3 4 5 6 
#
# 1 0.021823 -0.004354 -0.001718 0.000000 0.000000 0.000000
# 2 -0.004354 0.010303 -0.004382 0.000000 0.000000 0.000000
# 3 -0.001718 -0.004382 0.016734 0.000000 0.000000 0.000000
# 4 0.000000 0.000000 0.000000 0.031770 0.000000 0.000000
# 5 0.000000 0.000000 0.000000 0.000000 -2.318983 0.000000
# 6 0.000000 0.000000 0.000000 0.000000 0.000000 0.189711
#
#
# Mechanical properties :
#
#
# Convention : Reuss Voigt Hill
#
# Bulk Modulus (GPa) = 35.77779 44.06043 39.91911
# Shear Modulus (GPa) = -2.47719 18.66263 8.09272
#
# Velocity S-wave (km/s) = -1.18039 3.23991 2.13351
# Velocity P-wave (km/s) = 4.27386 6.22723 5.34061
#
# Compressibility (1/GPa) = 0.02795030
#
# Stress axis : x y z
#
# Youngs Moduli (GPa) = 45.82258 97.06073 59.75894
#
# Poissons Ratio (x) = 0.42265 0.10268
# Poissons Ratio (y) = 0.19953 0.26188
# Poissons Ratio (z) = 0.07873 0.42534
#
# Static dielectric constant tensor:
#      x y z
#    x 1.599050 0.000000 0.000000 
#    y 0.000000 1.620180 0.000000 
#    z 0.000000 0.000000 1.598080 
# 
# From -- ./inp_files/3825.got.cif
#   From: 2010.05.17/outbox.cif.g08.bks.cpg/sg38_2_cif.got.tgz:3825.got - 2010.06.03 18:07:57.
