data_PCOD9356408
_publ_section_title
;
Structure prediction by ZEFSAII (Michael W. Deem and Ramdas Pophale) SiO2 
 PCOD9356408
Probable space group: A M M 2
;
_chemical_formula_sum "Si O2"
_cell_formula_units_Z 56
_cell_length_a 8.580242
_cell_length_b 19.520601
_cell_length_c 18.783913
_cell_angle_alpha 90.000000
_cell_angle_beta 90.000000
_cell_angle_gamma 90.000000
_cell_volume 3146.145399
_symmetry_space_group_name_H-M "A M M 2"
_symmetry_group_IT_number 38
_symmetry_cell_setting 'orthorhombic'
loop_
_space_group_symop_operation_xyz
x,y,z
-x,-y,z
-x,y,z
x,-y,z
x,1/2+y,1/2+z
-x,1/2-y,1/2+z
-x,1/2+y,1/2+z
x,1/2-y,1/2+z
loop_
_atom_site_type_symbol
_atom_site_label
_atom_site_fract_x
_atom_site_fract_y
_atom_site_fract_z
Si Si1 0.311526 0.921272 0.836860
Si Si2 0.320297 0.164558 0.704113
Si Si3 0.183908 0.201435 0.932013
Si Si4 0.178905 0.717966 0.789610
Si Si5 0.183019 0.575970 0.948967
Si Si6 0.682856 0.424048 0.793935
Si Si7 0.187190 0.199865 0.550635
O O1 0.500000 0.919958 0.835597
O O2 0.256955 0.893358 0.758983
O O3 0.258562 0.865990 0.896301
O O4 0.261776 0.000000 0.849211
O O5 0.500000 0.148583 0.690218
O O6 0.298874 0.233237 0.750005
O O7 0.241220 0.182547 0.629678
O O8 0.196929 0.262617 0.873089
O O9 0.000000 0.187129 0.939571
O O10 0.244254 0.232873 0.006749
O O11 0.216324 0.640267 0.769625
O O12 0.000000 0.735253 0.770809
O O13 0.192183 0.500000 0.981459
O O14 0.229735 0.634347 0.003030
O O15 0.000000 0.586716 0.927884
O O16 0.286924 0.576103 0.878687
O O17 0.500000 0.413952 0.779336
O O18 0.729061 0.500000 0.767919
O O19 0.000000 0.205075 0.551297
#
# Coordination Sequence:
#
# PCOD9356408 Si02
#       7
#     8   8   8   8   8   8   8
#     4   9  19  36  55  76 104 137 174 217 265 316
#     4  10  21  34  50  75 103 136 172 211 260 314
#     4   9  18  32  52  77 101 130 172 218 259 301
#     4  10  18  33  53  72  96 131 170 212 255 301
#     4   9  17  30  47  68  98 135 170 202 239 286
#     4  10  19  29  45  72 102 129 160 201 246 293
#     4  10  19  33  49  73 106 138 172 213 256 306
#
# _framework density 17.799558000000001
#
# number of rings (size 3 to 8) (size 9 to 14) (size 15 to 20)
#    0.000    2.429    1.429    1.286    0.000    4.000 
#    0.000    0.000    0.000    0.857    0.000    4.000 
#    0.000    0.000    0.000    0.000    0.000    0.000 
#
# Total GULP energy -155873.618674 kJ/mol
# GULP energy per Si atom -5566.914953 kJ/mol
# Density = 1.775905 g / cm^3
# Si number density = 17.799558 Si / 1000 Ang^3
#
#
#
# Elastic Constant Matrix: (Units=GPa)
#
#
# Indices 1 2 3 4 5 6 
#
# 1 13.8796 14.2234 7.0649 0.0000 0.0000 0.0000
# 2 14.2234 114.0768 25.1960 0.0000 0.0000 0.0000
# 3 7.0649 25.1960 54.9163 0.0000 0.0000 0.0000
# 4 0.0000 0.0000 0.0000 11.6995 0.0000 0.0000
# 5 0.0000 0.0000 0.0000 0.0000 29.4007 0.0000
# 6 0.0000 0.0000 0.0000 0.0000 0.0000 23.7530
#
#
#
# Elastic Compliance Matrix: (Units=1/GPa)
#
#
# Indices 1 2 3 4 5 6 
#
# 1 0.084787 -0.009083 -0.006741 0.000000 0.000000 0.000000
# 2 -0.009083 0.010727 -0.003753 0.000000 0.000000 0.000000
# 3 -0.006741 -0.003753 0.020799 0.000000 0.000000 0.000000
# 4 0.000000 0.000000 0.000000 0.085474 0.000000 0.000000
# 5 0.000000 0.000000 0.000000 0.000000 0.034013 0.000000
# 6 0.000000 0.000000 0.000000 0.000000 0.000000 0.042100
#
#
# Mechanical properties :
#
#
# Convention : Reuss Voigt Hill
#
# Bulk Modulus (GPa) = 12.96010 30.64902 21.80456
# Shear Modulus (GPa) = 14.58694 22.06320 18.32507
#
# Velocity S-wave (km/s) = 2.86582 3.52452 3.21210
# Velocity P-wave (km/s) = 4.27171 5.81544 5.10230
#
# Compressibility (1/GPa) = 0.07715989
#
# Stress axis : x y z
#
# Youngs Moduli (GPa) = 11.79431 93.21861 48.07978
#
# Poissons Ratio (x) = 0.84667 0.32408
# Poissons Ratio (y) = 0.10712 0.18046
# Poissons Ratio (z) = 0.07950 0.34988
#
# Static dielectric constant tensor:
#      x y z
#    x 1.592470 0.000000 0.000000 
#    y 0.000000 1.642210 0.000000 
#    z 0.000000 0.000000 1.613230 
# 
# From -- ./inp_files/17095.got.cif
#   From: 2010.05.17/outbox.cif.g08.bks.cpg/sg38_9_cif.got.tgz:17095.got - 2010.06.03 18:07:57.
