data_PCOD9356456
_publ_section_title
;
Structure prediction by ZEFSAII (Michael W. Deem and Ramdas Pophale) SiO2 
 PCOD9356456
Probable space group: A M M 2
;
_chemical_formula_sum "Si O2"
_cell_formula_units_Z 64
_cell_length_a 20.355962
_cell_length_b 8.520360
_cell_length_c 20.788984
_cell_angle_alpha 90.000000
_cell_angle_beta 90.000000
_cell_angle_gamma 90.000000
_cell_volume 3605.643971
_symmetry_space_group_name_H-M "A M M 2"
_symmetry_group_IT_number 38
_symmetry_cell_setting 'orthorhombic'
loop_
_space_group_symop_operation_xyz
x,y,z
-x,-y,z
-x,y,z
x,-y,z
x,1/2+y,1/2+z
-x,1/2-y,1/2+z
-x,1/2+y,1/2+z
x,1/2-y,1/2+z
loop_
_atom_site_type_symbol
_atom_site_label
_atom_site_fract_x
_atom_site_fract_y
_atom_site_fract_z
Si Si1 0.180608 0.809594 0.943120
Si Si2 0.195724 0.190221 0.799952
Si Si3 0.322344 0.313286 0.988794
Si Si4 0.837440 0.311529 0.160826
Si Si5 0.307421 0.686430 0.626839
Si Si6 0.074869 0.689558 0.548183
Si Si7 0.343897 0.189156 0.760754
Si Si8 0.424655 0.689921 0.383955
O O1 0.171629 0.755475 0.869428
O O2 0.251305 0.753260 0.967857
O O3 0.181537 0.000000 0.943558
O O4 0.123085 0.756688 0.990894
O O5 0.158474 0.241464 0.735350
O O6 0.272301 0.232258 0.789844
O O7 0.193159 0.000000 0.800633
O O8 0.319202 0.500000 0.989446
O O9 0.376544 0.256749 0.938036
O O10 0.336226 0.251322 0.060520
O O11 0.839092 0.500000 0.158939
O O12 0.765871 0.257204 0.135802
O O13 0.892887 0.244294 0.114713
O O14 0.301879 0.500000 0.623227
O O15 0.347409 0.736031 0.690383
O O16 0.074744 0.500000 0.547118
O O17 0.000000 0.744042 0.540932
O O18 0.397690 0.235264 0.813358
O O19 0.344814 0.000000 0.753418
O O20 0.500000 0.738052 0.392951
O O21 0.421135 0.500000 0.387093
#
# Coordination Sequence:
#
# PCOD9356456 Si02
#       8
#     8   8   8   8   8   8   8   8
#     4  10  18  34  57  79 108 148 188 233 282 336
#     4   8  15  29  52  79 106 135 175 224 274 322
#     4  12  23  35  55  85 117 149 190 241 284 331
#     4  10  19  33  53  80 109 141 179 230 286 336
#     4  11  21  34  55  82 111 146 187 235 285 333
#     4  10  21  35  53  79 111 150 192 234 284 344
#     4   9  17  33  55  82 113 143 180 230 279 333
#     4  10  21  39  62  85 114 154 192 227 280 347
#
# _framework density 17.749949999999998
#
# number of rings (size 3 to 8) (size 9 to 14) (size 15 to 20)
#    0.000    2.000    2.500    3.375    0.000    1.000 
#    0.000    1.875    0.000    4.500    0.000    0.000 
#    0.000    0.000    0.000    0.000    0.000    0.000 
#
# Total GULP energy -178576.240956 kJ/mol
# GULP energy per Si atom -5580.507530 kJ/mol
# Density = 1.770955 g / cm^3
# Si number density = 17.749950 Si / 1000 Ang^3
#
#
#
# Elastic Constant Matrix: (Units=GPa)
#
#
# Indices 1 2 3 4 5 6 
#
# 1 115.5724 24.9059 81.4001 0.0000 0.0000 0.0000
# 2 24.9059 25.8552 27.8362 0.0000 0.0000 0.0000
# 3 81.4001 27.8362 172.3419 0.0000 0.0000 0.0000
# 4 0.0000 0.0000 0.0000 28.2670 0.0000 0.0000
# 5 0.0000 0.0000 0.0000 0.0000 25.6625 0.0000
# 6 0.0000 0.0000 0.0000 0.0000 0.0000 14.9388
#
#
#
# Elastic Compliance Matrix: (Units=1/GPa)
#
#
# Indices 1 2 3 4 5 6 
#
# 1 0.014154 -0.007792 -0.005427 0.000000 0.000000 0.000000
# 2 -0.007792 0.051108 -0.004575 0.000000 0.000000 0.000000
# 3 -0.005427 -0.004575 0.009104 0.000000 0.000000 0.000000
# 4 0.000000 0.000000 0.000000 0.035377 0.000000 0.000000
# 5 0.000000 0.000000 0.000000 0.000000 0.038967 0.000000
# 6 0.000000 0.000000 0.000000 0.000000 0.000000 0.066940
#
#
# Mechanical properties :
#
#
# Convention : Reuss Voigt Hill
#
# Bulk Modulus (GPa) = 25.78654 64.67266 45.22960
# Shear Modulus (GPa) = 18.92777 25.74883 22.33830
#
# Velocity S-wave (km/s) = 3.26905 3.81286 3.55138
# Velocity P-wave (km/s) = 5.36732 7.47652 6.50794
#
# Compressibility (1/GPa) = 0.03877993
#
# Stress axis : x y z
#
# Youngs Moduli (GPa) = 70.65268 19.56658 109.83757
#
# Poissons Ratio (x) = 0.15246 0.59604
# Poissons Ratio (y) = 0.55051 0.50246
# Poissons Ratio (z) = 0.38340 0.08951
#
# Static dielectric constant tensor:
#      x y z
#    x 1.578600 0.000000 0.000000 
#    y 0.000000 1.604900 0.000000 
#    z 0.000000 0.000000 1.622240 
# 
# From -- ./inp_files/21348.got.cif
#   From: 2010.05.17/outbox.cif.g08.bks.cpg/sg38_11_cif.got.tgz:21348.got - 2010.06.03 18:07:57.
