data_PCOD9356725
_publ_section_title
;
Structure prediction by ZEFSAII (Michael W. Deem and Ramdas Pophale) SiO2 
 PCOD9356725
Probable space group: A M M 2
;
_chemical_formula_sum "Si O2"
_cell_formula_units_Z 64
_cell_length_a 7.565660
_cell_length_b 24.144059
_cell_length_c 19.921029
_cell_angle_alpha 90.000000
_cell_angle_beta 90.000000
_cell_angle_gamma 90.000000
_cell_volume 3638.889532
_symmetry_space_group_name_H-M "A M M 2"
_symmetry_group_IT_number 38
_symmetry_cell_setting 'orthorhombic'
loop_
_space_group_symop_operation_xyz
x,y,z
-x,-y,z
-x,y,z
x,-y,z
x,1/2+y,1/2+z
-x,1/2-y,1/2+z
-x,1/2+y,1/2+z
x,1/2-y,1/2+z
loop_
_atom_site_type_symbol
_atom_site_label
_atom_site_fract_x
_atom_site_fract_y
_atom_site_fract_z
Si Si1 0.215745 0.116882 0.600890
Si Si2 0.212467 0.937465 0.740364
Si Si3 0.783590 0.835202 0.374065
Si Si4 0.216096 0.062652 0.460715
Si Si5 0.797454 0.277128 0.744248
Si Si6 0.783050 0.254352 0.100519
Si Si7 0.297430 0.168995 0.821992
Si Si8 0.787190 0.226113 0.955220
O O1 0.275719 0.087118 0.669023
O O2 0.270901 0.085010 0.533803
O O3 0.269588 0.181054 0.598511
O O4 0.000000 0.116566 0.601495
O O5 0.254179 0.892307 0.797082
O O6 0.000000 0.940143 0.736023
O O7 0.277581 0.000000 0.751854
O O8 0.727084 0.893354 0.404663
O O9 0.719164 0.817808 0.300340
O O10 0.731684 0.785301 0.423919
O O11 0.000000 0.834711 0.372716
O O12 0.000000 0.062737 0.460780
O O13 0.274599 0.000000 0.449650
O O14 0.718909 0.271533 0.670349
O O15 0.801934 0.216221 0.779062
O O16 0.000000 0.295026 0.734719
O O17 0.000000 0.254349 0.101787
O O18 0.726783 0.224163 0.032097
O O19 0.500000 0.180094 0.806617
O O20 0.267556 0.180535 0.900679
O O21 0.000000 0.225865 0.956089
#
# Coordination Sequence:
#
# PCOD9356725 Si02
#       8
#     8   8   8   8   8   8   8   8
#     4   9  14  22  37  63  91 113 146 182 211 249
#     4  10  19  31  48  67  89 121 158 192 223 262
#     4   8  13  21  34  55  80 109 140 172 210 256
#     4   9  14  19  30  54  89 120 142 170 209 250
#     4   9  16  28  46  64  86 114 149 187 223 269
#     4   9  14  23  44  67  84 109 146 187 227 262
#     4  11  21  31  43  63  91 121 150 186 230 271
#     4   9  16  28  46  63  82 110 147 189 231 272
#
# _framework density 17.587783000000002
#
# number of rings (size 3 to 8) (size 9 to 14) (size 15 to 20)
#    0.000    2.750    2.500    2.250    0.000    1.750 
#    0.000    0.625    0.000    0.000    0.000    0.875 
#    0.000   13.000    0.000    0.000    0.000    0.000 
#
# Total GULP energy -178428.683080 kJ/mol
# GULP energy per Si atom -5575.896346 kJ/mol
# Density = 1.754775 g / cm^3
# Si number density = 17.587783 Si / 1000 Ang^3
#
#
#
# Elastic Constant Matrix: (Units=GPa)
#
#
# Indices 1 2 3 4 5 6 
#
# 1 42.9273 2.3085 4.4962 0.0000 0.0000 0.0000
# 2 2.3085 121.9094 95.0065 0.0000 0.0000 0.0000
# 3 4.4962 95.0065 173.7864 0.0000 0.0000 0.0000
# 4 0.0000 0.0000 0.0000 20.1192 0.0000 0.0000
# 5 0.0000 0.0000 0.0000 0.0000 -21.4389 0.0000
# 6 0.0000 0.0000 0.0000 0.0000 0.0000 -17.8352
#
#
#
# Elastic Compliance Matrix: (Units=1/GPa)
#
#
# Indices 1 2 3 4 5 6 
#
# 1 0.023359 0.000050 -0.000632 0.000000 0.000000 0.000000
# 2 0.000050 0.014292 -0.007814 0.000000 0.000000 0.000000
# 3 -0.000632 -0.007814 0.010043 0.000000 0.000000 0.000000
# 4 0.000000 0.000000 0.000000 0.049704 0.000000 0.000000
# 5 0.000000 0.000000 0.000000 0.000000 -0.046644 0.000000
# 6 0.000000 0.000000 0.000000 0.000000 0.000000 -0.056069
#
#
# Mechanical properties :
#
#
# Convention : Reuss Voigt Hill
#
# Bulk Modulus (GPa) = 32.36163 60.24949 46.30556
# Shear Modulus (GPa) = 229.60892 11.95649 120.78271
#
# Velocity S-wave (km/s) = 11.43825 2.61016 8.29598
# Velocity P-wave (km/s) = 13.88830 6.58899 10.86967
#
# Compressibility (1/GPa) = 0.03090079
#
# Stress axis : x y z
#
# Youngs Moduli (GPa) = 42.81067 69.97018 99.57621
#
# Poissons Ratio (x) = -0.00349 0.06290
# Poissons Ratio (y) = -0.00214 0.77813
# Poissons Ratio (z) = 0.02704 0.54678
#
# Static dielectric constant tensor:
#      x y z
#    x 1.645130 0.000000 0.000000 
#    y 0.000000 1.576210 0.000000 
#    z 0.000000 0.000000 1.613880 
# 
# From -- ./inp_files/20291.got.cif
#   From: 2010.05.17/outbox.cif.g08.bks.cpg/sg38_11_cif.got.tgz:20291.got - 2010.06.03 18:07:57.
