data_PCOD9356457
_publ_section_title
;
Structure prediction by ZEFSAII (Michael W. Deem and Ramdas Pophale) SiO2 
 PCOD9356457
Probable space group: A M M 2
;
_chemical_formula_sum "Si O2"
_cell_formula_units_Z 48
_cell_length_a 10.546158
_cell_length_b 7.631371
_cell_length_c 27.579809
_cell_angle_alpha 90.000000
_cell_angle_beta 90.000000
_cell_angle_gamma 90.000000
_cell_volume 2219.668378
_symmetry_space_group_name_H-M "A M M 2"
_symmetry_group_IT_number 38
_symmetry_cell_setting 'orthorhombic'
loop_
_space_group_symop_operation_xyz
x,y,z
-x,-y,z
-x,y,z
x,-y,z
x,1/2+y,1/2+z
-x,1/2-y,1/2+z
-x,1/2+y,1/2+z
x,1/2-y,1/2+z
loop_
_atom_site_type_symbol
_atom_site_label
_atom_site_fract_x
_atom_site_fract_y
_atom_site_fract_z
Si Si1 0.500000 0.793134 0.025620
Si Si2 0.224307 0.714591 0.495236
Si Si3 0.271583 0.794284 0.704498
Si Si4 0.358819 0.291905 0.811578
Si Si5 0.500000 0.286681 0.138665
Si Si6 0.000000 0.204197 0.679458
Si Si7 0.000000 0.212698 0.067117
Si Si8 0.859090 0.710708 0.388396
O O1 0.500000 0.770005 0.083328
O O2 0.500000 0.000000 0.014320
O O3 0.632873 0.722661 0.005184
O O4 0.224932 0.500000 0.495544
O O5 0.175667 0.771562 0.442542
O O6 0.124577 0.766698 0.536783
O O7 0.321034 0.780663 0.759100
O O8 0.376062 0.722059 0.667489
O O9 0.131482 0.716595 0.698509
O O10 0.260958 0.000000 0.692186
O O11 0.500000 0.227791 0.825561
O O12 0.365049 0.500000 0.806184
O O13 0.251249 0.253636 0.850817
O O14 0.500000 0.500000 0.140022
O O15 0.000000 0.215576 0.621308
O O16 0.000000 0.000000 0.695099
O O17 0.000000 0.000000 0.070018
O O18 0.865055 0.500000 0.390527
O O19 0.000000 0.774201 0.374403
#
# Coordination Sequence:
#
# PCOD9356457 Si02
#       8
#     4   8   8   8   4   4   4   8
#     4  10  20  32  53  84 115 147 188 235 279 332
#     4   9  18  34  56  84 113 146 191 236 276 330
#     4  10  21  39  60  82 113 151 194 239 282 339
#     4  11  25  42  60  86 119 150 188 241 297 350
#     4  10  20  36  57  80 111 151 192 237 285 334
#     4  10  22  36  55  86 117 147 190 237 279 336
#     4  10  18  34  57  80 113 151 188 233 283 334
#     4  10  21  39  64  89 115 151 196 241 286 341
#
# _framework density 21.624851
#
# number of rings (size 3 to 8) (size 9 to 14) (size 15 to 20)
#    0.000    2.000    1.667    1.500    2.333    2.667 
#    0.000    1.667    0.000    0.000    0.000    0.000 
#    0.000    0.000    0.000    0.000    0.000    0.000 
#
# Total GULP energy -134110.643887 kJ/mol
# GULP energy per Si atom -5587.943495 kJ/mol
# Density = 2.157563 g / cm^3
# Si number density = 21.624851 Si / 1000 Ang^3
#
#
#
# Elastic Constant Matrix: (Units=GPa)
#
#
# Indices 1 2 3 4 5 6 
#
# 1 223.1477 5.8910 50.0713 0.0000 0.0000 0.0000
# 2 5.8910 39.4068 -21.0063 0.0000 0.0000 0.0000
# 3 50.0713 -21.0063 55.0947 0.0000 0.0000 0.0000
# 4 0.0000 0.0000 0.0000 24.2937 0.0000 0.0000
# 5 0.0000 0.0000 0.0000 0.0000 46.2870 0.0000
# 6 0.0000 0.0000 0.0000 0.0000 0.0000 1.7576
#
#
#
# Elastic Compliance Matrix: (Units=1/GPa)
#
#
# Indices 1 2 3 4 5 6 
#
# 1 0.006339 -0.005043 -0.007684 0.000000 0.000000 0.000000
# 2 -0.005043 0.035862 0.018257 0.000000 0.000000 0.000000
# 3 -0.007684 0.018257 0.032095 0.000000 0.000000 0.000000
# 4 0.000000 0.000000 0.000000 0.041163 0.000000 0.000000
# 5 0.000000 0.000000 0.000000 0.000000 0.021604 0.000000
# 6 0.000000 0.000000 0.000000 0.000000 0.000000 0.568973
#
#
# Mechanical properties :
#
#
# Convention : Reuss Voigt Hill
#
# Bulk Modulus (GPa) = 11.71565 43.06233 27.38899
# Shear Modulus (GPa) = 6.91154 33.31386 20.11270
#
# Velocity S-wave (km/s) = 1.78971 3.92922 3.05302
# Velocity P-wave (km/s) = 3.11451 6.36723 5.01208
#
# Compressibility (1/GPa) = 0.08535591
#
# Stress axis : x y z
#
# Youngs Moduli (GPa) = 157.76435 27.88430 31.15789
#
# Poissons Ratio (x) = 0.14063 0.23940
# Poissons Ratio (y) = 0.79567 -0.56885
# Poissons Ratio (z) = 1.21219 -0.50909
#
# Static dielectric constant tensor:
#      x y z
#    x 1.808850 0.000000 0.000000 
#    y 0.000000 1.803300 0.000000 
#    z 0.000000 0.000000 1.708730 
# 
# From -- ./inp_files/24488.got.cif
#   From: 2010.05.17/outbox.cif.g08.bks.cpg/sg38_13_cif.got.tgz:24488.got - 2010.06.03 18:07:57.
