data_PCOD9356877
_publ_section_title
;
Structure prediction by ZEFSAII (Michael W. Deem and Ramdas Pophale) SiO2 
 PCOD9356877
Probable space group: A M M 2
;
_chemical_formula_sum "Si O2"
_cell_formula_units_Z 48
_cell_length_a 16.953576
_cell_length_b 9.021998
_cell_length_c 18.548314
_cell_angle_alpha 90.000000
_cell_angle_beta 90.000000
_cell_angle_gamma 90.000000
_cell_volume 2837.059756
_symmetry_space_group_name_H-M "A M M 2"
_symmetry_group_IT_number 38
_symmetry_cell_setting 'orthorhombic'
loop_
_space_group_symop_operation_xyz
x,y,z
-x,-y,z
-x,y,z
x,-y,z
x,1/2+y,1/2+z
-x,1/2-y,1/2+z
-x,1/2+y,1/2+z
x,1/2-y,1/2+z
loop_
_atom_site_type_symbol
_atom_site_label
_atom_site_fract_x
_atom_site_fract_y
_atom_site_fract_z
Si Si1 0.740989 0.323314 0.674560
Si Si2 0.329599 0.669593 0.396701
Si Si3 0.828560 0.330859 0.298073
Si Si4 0.588423 0.322701 0.768760
Si Si5 0.237106 0.676905 0.019770
Si Si6 0.089874 0.321584 0.439717
O O1 0.743311 0.500000 0.664148
O O2 0.808319 0.272524 0.731018
O O3 0.657242 0.283054 0.712205
O O4 0.751164 0.240361 0.599475
O O5 0.349532 0.500000 0.414582
O O6 0.250149 0.667811 0.347786
O O7 0.393275 0.744435 0.344696
O O8 0.305630 0.760652 0.467278
O O9 0.843112 0.500000 0.273794
O O10 0.894971 0.284391 0.355329
O O11 0.500000 0.286301 0.743988
O O12 0.593841 0.500000 0.779183
O O13 0.236964 0.500000 0.019007
O O14 0.154839 0.738807 0.987263
O O15 0.102768 0.500000 0.445764
O O16 0.000000 0.288775 0.460089
#
# Coordination Sequence:
#
# PCOD9356877 Si02
#       6
#     8   8   8   8   8   8
#     4  10  19  32  51  73 100 136 172 206 248 300
#     4   9  17  31  51  73  97 128 166 203 242 294
#     4   8  15  29  49  72  96 124 160 200 242 292
#     4   9  18  33  53  77 103 130 164 209 257 302
#     4  11  21  33  51  74 102 136 172 211 253 299
#     4   9  18  34  55  77 102 131 164 207 256 303
#
# _framework density 16.918925000000002
#
# number of rings (size 3 to 8) (size 9 to 14) (size 15 to 20)
#    0.000    2.667    0.000    3.500    0.000    5.333 
#    0.000    1.667    0.000    6.000    0.000    0.000 
#    0.000    0.000    0.000    0.000    0.000    0.000 
#
# Total GULP energy -133741.698415 kJ/mol
# GULP energy per Si atom -5572.570767 kJ/mol
# Density = 1.688042 g / cm^3
# Si number density = 16.918925 Si / 1000 Ang^3
#
#
#
# Elastic Constant Matrix: (Units=GPa)
#
#
# Indices 1 2 3 4 5 6 
#
# 1 76.5503 42.3890 45.2969 0.0000 0.0000 0.0000
# 2 42.3890 88.9504 73.5104 0.0000 0.0000 0.0000
# 3 45.2969 73.5104 127.3085 0.0000 0.0000 0.0000
# 4 0.0000 0.0000 0.0000 28.4458 0.0000 0.0000
# 5 0.0000 0.0000 0.0000 0.0000 15.9364 0.0000
# 6 0.0000 0.0000 0.0000 0.0000 0.0000 19.4658
#
#
#
# Elastic Compliance Matrix: (Units=1/GPa)
#
#
# Indices 1 2 3 4 5 6 
#
# 1 0.018259 -0.006374 -0.002816 0.000000 0.000000 0.000000
# 2 -0.006374 0.023729 -0.011433 0.000000 0.000000 0.000000
# 3 -0.002816 -0.011433 0.015459 0.000000 0.000000 0.000000
# 4 0.000000 0.000000 0.000000 0.035155 0.000000 0.000000
# 5 0.000000 0.000000 0.000000 0.000000 0.062749 0.000000
# 6 0.000000 0.000000 0.000000 0.000000 0.000000 0.051372
#
#
# Mechanical properties :
#
#
# Convention : Reuss Voigt Hill
#
# Bulk Modulus (GPa) = 61.73093 68.35575 65.04334
# Shear Modulus (GPa) = 19.73399 21.54379 20.63889
#
# Velocity S-wave (km/s) = 3.41894 3.57228 3.49645
# Velocity P-wave (km/s) = 7.22157 7.58318 7.40458
#
# Compressibility (1/GPa) = 0.01619933
#
# Stress axis : x y z
#
# Youngs Moduli (GPa) = 54.76665 42.14337 64.68772
#
# Poissons Ratio (x) = 0.26862 0.18218
# Poissons Ratio (y) = 0.34908 0.73960
# Poissons Ratio (z) = 0.15424 0.48184
#
# Static dielectric constant tensor:
#      x y z
#    x 1.587870 0.000000 0.000000 
#    y 0.000000 1.568770 0.000000 
#    z 0.000000 0.000000 1.556720 
# 
# From -- ./inp_files/18164.got.cif
#   From: 2010.05.17/outbox.cif.g08.bks.cpg/sg38_10_cif.got.tgz:18164.got - 2010.06.03 18:07:57.
