data_PCOD9356854
_publ_section_title
;
Structure prediction by ZEFSAII (Michael W. Deem and Ramdas Pophale) SiO2 
 PCOD9356854
Probable space group: A M M 2
;
_chemical_formula_sum "Si O2"
_cell_formula_units_Z 64
_cell_length_a 8.810006
_cell_length_b 28.507221
_cell_length_c 14.840690
_cell_angle_alpha 90.000000
_cell_angle_beta 90.000000
_cell_angle_gamma 90.000000
_cell_volume 3727.221307
_symmetry_space_group_name_H-M "A M M 2"
_symmetry_group_IT_number 38
_symmetry_cell_setting 'orthorhombic'
loop_
_space_group_symop_operation_xyz
x,y,z
-x,-y,z
-x,y,z
x,-y,z
x,1/2+y,1/2+z
-x,1/2-y,1/2+z
-x,1/2+y,1/2+z
x,1/2-y,1/2+z
loop_
_atom_site_type_symbol
_atom_site_label
_atom_site_fract_x
_atom_site_fract_y
_atom_site_fract_z
Si Si1 0.182326 0.132457 0.361380
Si Si2 0.317402 0.178769 0.193396
Si Si3 0.680991 0.055290 0.488125
Si Si4 0.317837 0.632870 0.307176
Si Si5 0.181242 0.781018 0.696139
Si Si6 0.682178 0.321379 0.486914
Si Si7 0.180568 0.779412 0.483968
Si Si8 0.180916 0.555135 0.182153
O O1 0.252301 0.141505 0.263526
O O2 0.243678 0.086685 0.411446
O O3 0.229387 0.177266 0.422616
O O4 0.000000 0.131422 0.357027
O O5 0.500000 0.180573 0.198165
O O6 0.249037 0.229857 0.217299
O O7 0.270429 0.168843 0.089787
O O8 0.500000 0.061738 0.488139
O O9 0.746888 0.068893 0.586018
O O10 0.713766 0.000000 0.475476
O O11 0.500000 0.630368 0.302256
O O12 0.259695 0.678254 0.252625
O O13 0.270920 0.641624 0.410893
O O14 0.247077 0.587532 0.260252
O O15 0.209125 0.789441 0.589564
O O16 0.000000 0.780941 0.711627
O O17 0.500000 0.319515 0.486595
O O18 0.741881 0.269809 0.461241
O O19 0.000000 0.773547 0.472852
O O20 0.214019 0.500000 0.196789
O O21 0.000000 0.561213 0.176483
#
# Coordination Sequence:
#
# PCOD9356854 Si02
#       8
#     8   8   8   8   8   8   8   8
#     4  11  21  33  52  78 105 136 174 213 257 307
#     4  10  20  35  51  70 101 139 178 219 260 302
#     4  10  21  37  57  81 107 135 167 205 252 306
#     4  11  21  33  52  77 102 133 174 215 258 309
#     4  10  19  32  49  73 105 138 172 210 257 311
#     4   9  20  35  50  70  99 135 174 215 256 298
#     4   9  19  32  47  70 102 136 168 204 248 302
#     4  10  21  37  56  79 107 136 165 203 254 309
#
# _framework density 17.170967999999998
#
# number of rings (size 3 to 8) (size 9 to 14) (size 15 to 20)
#    0.000    2.000    0.000    3.750    0.000    7.500 
#    0.000    0.000    0.000    0.750    0.000    1.750 
#    0.000    0.000    0.000    0.000    0.000    0.000 
#
# Total GULP energy -178723.597246 kJ/mol
# GULP energy per Si atom -5585.112414 kJ/mol
# Density = 1.713189 g / cm^3
# Si number density = 17.170968 Si / 1000 Ang^3
#
#
#
# Elastic Constant Matrix: (Units=GPa)
#
#
# Indices 1 2 3 4 5 6 
#
# 1 42.5005 35.7716 39.3261 0.0000 0.0000 0.0000
# 2 35.7716 73.0855 66.2327 0.0000 0.0000 0.0000
# 3 39.3261 66.2327 94.6398 0.0000 0.0000 0.0000
# 4 0.0000 0.0000 0.0000 34.6310 0.0000 0.0000
# 5 0.0000 0.0000 0.0000 0.0000 22.9617 0.0000
# 6 0.0000 0.0000 0.0000 0.0000 0.0000 30.6283
#
#
#
# Elastic Compliance Matrix: (Units=1/GPa)
#
#
# Indices 1 2 3 4 5 6 
#
# 1 0.042349 -0.013068 -0.008452 0.000000 0.000000 0.000000
# 2 -0.013068 0.041439 -0.023570 0.000000 0.000000 0.000000
# 3 -0.008452 -0.023570 0.030574 0.000000 0.000000 0.000000
# 4 0.000000 0.000000 0.000000 0.028876 0.000000 0.000000
# 5 0.000000 0.000000 0.000000 0.000000 0.043551 0.000000
# 6 0.000000 0.000000 0.000000 0.000000 0.000000 0.032650
#
#
# Mechanical properties :
#
#
# Convention : Reuss Voigt Hill
#
# Bulk Modulus (GPa) = 41.35478 54.76516 48.05997
# Shear Modulus (GPa) = 15.73912 22.23724 18.98818
#
# Velocity S-wave (km/s) = 3.03085 3.60258 3.32901
# Velocity P-wave (km/s) = 6.03195 7.01912 6.54418
#
# Compressibility (1/GPa) = 0.02418100
#
# Stress axis : x y z
#
# Youngs Moduli (GPa) = 23.61337 24.13166 32.70766
#
# Poissons Ratio (x) = 0.31536 0.27643
# Poissons Ratio (y) = 0.30859 0.77094
# Poissons Ratio (z) = 0.19957 0.56880
#
# Static dielectric constant tensor:
#      x y z
#    x 1.571500 0.000000 0.000000 
#    y 0.000000 1.556750 0.000000 
#    z 0.000000 0.000000 1.597790 
# 
# From -- ./inp_files/12704.got.cif
#   From: 2010.05.17/outbox.cif.g08.bks.cpg/sg38_7_cif.got.tgz:12704.got - 2010.06.03 18:07:57.
