data_PCOD9356153
_publ_section_title
;
Structure prediction by ZEFSAII (Michael W. Deem and Ramdas Pophale) SiO2 
 PCOD9356153
Probable space group: A M M 2
;
_chemical_formula_sum "Si O2"
_cell_formula_units_Z 64
_cell_length_a 7.795336
_cell_length_b 31.651426
_cell_length_c 14.955858
_cell_angle_alpha 90.000000
_cell_angle_beta 90.000000
_cell_angle_gamma 90.000000
_cell_volume 3690.111198
_symmetry_space_group_name_H-M "A M M 2"
_symmetry_group_IT_number 38
_symmetry_cell_setting 'orthorhombic'
loop_
_space_group_symop_operation_xyz
x,y,z
-x,-y,z
-x,y,z
x,-y,z
x,1/2+y,1/2+z
-x,1/2-y,1/2+z
-x,1/2+y,1/2+z
x,1/2-y,1/2+z
loop_
_atom_site_type_symbol
_atom_site_label
_atom_site_fract_x
_atom_site_fract_y
_atom_site_fract_z
Si Si1 0.704167 0.047402 0.849470
Si Si2 0.301570 0.130560 0.140498
Si Si3 0.708098 0.267846 0.955141
Si Si4 0.699762 0.368689 0.269501
Si Si5 0.709868 0.706863 0.758528
Si Si6 0.709794 0.708069 0.152435
Si Si7 0.199462 0.329272 0.454440
Si Si8 0.797717 0.547133 0.552562
O O1 0.500000 0.045651 0.833701
O O2 0.775797 0.084754 0.787217
O O3 0.774747 0.000000 0.836727
O O4 0.725157 0.058546 0.954515
O O5 0.500000 0.125801 0.163022
O O6 0.226089 0.164225 0.210652
O O7 0.281703 0.152920 0.044347
O O8 0.233337 0.083479 0.124824
O O9 0.500000 0.264035 0.955033
O O10 0.757947 0.289344 0.048499
O O11 0.783222 0.220950 0.954873
O O12 0.758252 0.289890 0.862381
O O13 0.500000 0.374306 0.244943
O O14 0.773823 0.334438 0.200734
O O15 0.710364 0.346573 0.366202
O O16 0.500000 0.706656 0.753888
O O17 0.764374 0.749305 0.705101
O O18 0.500000 0.707863 0.157306
O O19 0.000000 0.342046 0.452553
O O20 0.732701 0.500000 0.575965
O O21 0.000000 0.544610 0.539553
#
# Coordination Sequence:
#
# PCOD9356153 Si02
#       8
#     8   8   8   8   8   8   8   8
#     4   9  17  28  44  66  91 121 155 188 224 270
#     4  11  20  32  48  67  91 125 162 193 226 274
#     4  10  18  33  50  64  90 123 159 197 229 272
#     4  10  18  30  47  66  90 124 159 188 221 272
#     4   9  17  28  47  71  89 115 158 198 229 266
#     4   9  16  27  47  70  88 117 159 193 225 267
#     4  12  22  29  42  67  96 124 155 191 234 273
#     4  10  20  32  46  68  97 122 148 187 233 279
#
# _framework density 17.343651999999999
#
# number of rings (size 3 to 8) (size 9 to 14) (size 15 to 20)
#    0.000    2.000    3.750    1.875    0.000    0.750 
#    0.000    3.125    0.000    0.000    0.000    0.875 
#    0.000    5.000    0.000    3.375    0.000    3.125 
#
# Total GULP energy -178438.366497 kJ/mol
# GULP energy per Si atom -5576.198953 kJ/mol
# Density = 1.730418 g / cm^3
# Si number density = 17.343652 Si / 1000 Ang^3
#
#
#
# Elastic Constant Matrix: (Units=GPa)
#
#
# Indices 1 2 3 4 5 6 
#
# 1 24.3533 3.5291 -3.0016 0.0000 0.0000 0.0000
# 2 3.5291 148.9762 64.5995 0.0000 0.0000 0.0000
# 3 -3.0016 64.5995 106.9559 0.0000 0.0000 0.0000
# 4 0.0000 0.0000 0.0000 19.8808 0.0000 0.0000
# 5 0.0000 0.0000 0.0000 0.0000 -37.5277 0.0000
# 6 0.0000 0.0000 0.0000 0.0000 0.0000 -19.2379
#
#
#
# Elastic Compliance Matrix: (Units=1/GPa)
#
#
# Indices 1 2 3 4 5 6 
#
# 1 0.041650 -0.002023 0.002391 0.000000 0.000000 0.000000
# 2 -0.002023 0.009193 -0.005609 0.000000 0.000000 0.000000
# 3 0.002391 -0.005609 0.012804 0.000000 0.000000 0.000000
# 4 0.000000 0.000000 0.000000 0.050300 0.000000 0.000000
# 5 0.000000 0.000000 0.000000 0.000000 -0.026647 0.000000
# 6 0.000000 0.000000 0.000000 0.000000 0.000000 -0.051981
#
#
# Mechanical properties :
#
#
# Convention : Reuss Voigt Hill
#
# Bulk Modulus (GPa) = 18.80960 45.61550 32.21255
# Shear Modulus (GPa) = 78.71092 6.96692 42.83892
#
# Velocity S-wave (km/s) = 6.74401 2.00642 4.97531
# Velocity P-wave (km/s) = 8.45642 5.63256 7.18459
#
# Compressibility (1/GPa) = 0.05316433
#
# Stress axis : x y z
#
# Youngs Moduli (GPa) = 24.00954 108.78337 78.09784
#
# Poissons Ratio (x) = 0.22012 -0.18673
# Poissons Ratio (y) = 0.04858 0.43805
# Poissons Ratio (z) = -0.05741 0.61016
#
# Static dielectric constant tensor:
#      x y z
#    x 1.621140 0.000000 0.000000 
#    y 0.000000 1.635300 0.000000 
#    z 0.000000 0.000000 1.568550 
# 
# From -- ./inp_files/13053.got.cif
#   From: 2010.05.17/outbox.cif.g08.bks.cpg/sg38_7_cif.got.tgz:13053.got - 2010.06.03 18:07:57.
