data_PCOD9356861
_publ_section_title
;
Structure prediction by ZEFSAII (Michael W. Deem and Ramdas Pophale) SiO2 
 PCOD9356861
Probable space group: A M M 2
;
_chemical_formula_sum "Si O2"
_cell_formula_units_Z 48
_cell_length_a 7.365496
_cell_length_b 12.918158
_cell_length_c 22.667199
_cell_angle_alpha 90.000000
_cell_angle_beta 90.000000
_cell_angle_gamma 90.000000
_cell_volume 2156.753182
_symmetry_space_group_name_H-M "A M M 2"
_symmetry_group_IT_number 38
_symmetry_cell_setting 'orthorhombic'
loop_
_space_group_symop_operation_xyz
x,y,z
-x,-y,z
-x,y,z
x,-y,z
x,1/2+y,1/2+z
-x,1/2-y,1/2+z
-x,1/2+y,1/2+z
x,1/2-y,1/2+z
loop_
_atom_site_type_symbol
_atom_site_label
_atom_site_fract_x
_atom_site_fract_y
_atom_site_fract_z
Si Si1 0.778972 0.500000 0.681700
Si Si2 0.216731 0.886558 0.632735
Si Si3 0.715452 0.884238 0.771773
Si Si4 0.207289 0.717131 0.867129
Si Si5 0.221909 0.386296 0.457024
Si Si6 0.778492 0.170529 0.088561
Si Si7 0.776742 0.500000 0.817915
O O1 0.721800 0.599197 0.643293
O O2 0.719472 0.500000 0.749328
O O3 0.000000 0.500000 0.682802
O O4 0.248870 0.870521 0.702386
O O5 0.284996 0.787541 0.597811
O O6 0.000000 0.889415 0.624170
O O7 0.289169 0.000000 0.616788
O O8 0.500000 0.882845 0.781113
O O9 0.794457 0.791372 0.809844
O O10 0.783190 0.000000 0.787841
O O11 0.288083 0.790702 0.917693
O O12 0.284358 0.605615 0.849680
O O13 0.000000 0.696089 0.885524
O O14 0.279566 0.500000 0.435398
O O15 0.274873 0.373147 0.525126
O O16 0.000000 0.385303 0.454520
O O17 0.000000 0.169705 0.089055
O O18 0.000000 0.500000 0.817245
#
# Coordination Sequence:
#
# PCOD9356861 Si02
#       7
#     4   8   8   8   8   8   4
#     4   9  14  22  40  61  91 125 156 195 238 292
#     4   9  17  29  46  70  98 127 160 199 248 305
#     4  10  20  33  50  73 100 130 166 210 257 300
#     4  10  19  32  50  73 102 134 170 207 247 301
#     4   9  16  27  44  69  99 129 164 205 252 299
#     4   9  15  25  42  67  95 125 159 200 247 295
#     4   9  18  30  45  73 103 133 166 203 254 298
#
# _framework density 22.255676999999999
#
# number of rings (size 3 to 8) (size 9 to 14) (size 15 to 20)
#    0.000    2.667    0.833    2.000    0.000    4.333 
#    1.500    0.417    0.000    1.000    0.000    0.000 
#    0.000    0.000    0.000    0.000    0.000    0.000 
#
# Total GULP energy -134038.016044 kJ/mol
# GULP energy per Si atom -5584.917335 kJ/mol
# Density = 2.220502 g / cm^3
# Si number density = 22.255677 Si / 1000 Ang^3
#
#
#
# Elastic Constant Matrix: (Units=GPa)
#
#
# Indices 1 2 3 4 5 6 
#
# 1 85.0244 6.8203 -1.2898 0.0000 0.0000 0.0000
# 2 6.8203 215.1232 93.1731 0.0000 0.0000 0.0000
# 3 -1.2898 93.1731 102.8670 0.0000 0.0000 0.0000
# 4 0.0000 0.0000 0.0000 38.7074 0.0000 0.0000
# 5 0.0000 0.0000 0.0000 0.0000 -41.4627 0.0000
# 6 0.0000 0.0000 0.0000 0.0000 0.0000 -16.4774
#
#
#
# Elastic Compliance Matrix: (Units=1/GPa)
#
#
# Indices 1 2 3 4 5 6 
#
# 1 0.011832 -0.000723 0.000803 0.000000 0.000000 0.000000
# 2 -0.000723 0.007694 -0.006978 0.000000 0.000000 0.000000
# 3 0.000803 -0.006978 0.016051 0.000000 0.000000 0.000000
# 4 0.000000 0.000000 0.000000 0.025835 0.000000 0.000000
# 5 0.000000 0.000000 0.000000 0.000000 -0.024118 0.000000
# 6 0.000000 0.000000 0.000000 0.000000 0.000000 -0.060689
#
#
# Mechanical properties :
#
#
# Convention : Reuss Voigt Hill
#
# Bulk Modulus (GPa) = 45.91006 66.71352 56.31179
# Shear Modulus (GPa) = -2135.98005 16.44087 -1059.76959
#
# Velocity S-wave (km/s) = -31.01338 2.72090 -21.84521
# Velocity P-wave (km/s) = 35.52135 6.31760 24.71694
#
# Compressibility (1/GPa) = 0.02178172
#
# Stress axis : x y z
#
# Youngs Moduli (GPa) = 84.52009 129.97968 62.29991
#
# Poissons Ratio (x) = 0.09397 -0.05004
# Poissons Ratio (y) = 0.06111 0.43470
# Poissons Ratio (z) = -0.06789 0.90694
#
# Static dielectric constant tensor:
#      x y z
#    x 1.833450 0.000000 0.000000 
#    y 0.000000 1.816340 0.000000 
#    z 0.000000 0.000000 1.761840 
# 
# From -- ./inp_files/20639.got.cif
#   From: 2010.05.17/outbox.cif.g08.bks.cpg/sg38_11_cif.got.tgz:20639.got - 2010.06.03 18:07:57.
