data_PCOD9356371
_publ_section_title
;
Structure prediction by ZEFSAII (Michael W. Deem and Ramdas Pophale) SiO2 
 PCOD9356371
Probable space group: A M M 2
;
_chemical_formula_sum "Si O2"
_cell_formula_units_Z 64
_cell_length_a 7.605692
_cell_length_b 25.820739
_cell_length_c 15.728242
_cell_angle_alpha 90.000000
_cell_angle_beta 90.000000
_cell_angle_gamma 90.000000
_cell_volume 3088.784326
_symmetry_space_group_name_H-M "A M M 2"
_symmetry_group_IT_number 38
_symmetry_cell_setting 'orthorhombic'
loop_
_space_group_symop_operation_xyz
x,y,z
-x,-y,z
-x,y,z
x,-y,z
x,1/2+y,1/2+z
-x,1/2-y,1/2+z
-x,1/2+y,1/2+z
x,1/2-y,1/2+z
loop_
_atom_site_type_symbol
_atom_site_label
_atom_site_fract_x
_atom_site_fract_y
_atom_site_fract_z
Si Si1 0.288678 0.779644 0.454590
Si Si2 0.211241 0.557655 0.160159
Si Si3 0.207133 0.605974 0.986541
Si Si4 0.710955 0.850282 0.787510
Si Si5 0.285679 0.263692 0.758999
Si Si6 0.211224 0.440946 0.809478
Si Si7 0.714842 0.336288 0.479027
Si Si8 0.711245 0.636971 0.658395
O O1 0.500000 0.780524 0.457967
O O2 0.226251 0.832409 0.496457
O O3 0.236767 0.779493 0.355215
O O4 0.233406 0.724069 0.490864
O O5 0.276136 0.500000 0.180513
O O6 0.248418 0.600411 0.231008
O O7 0.000000 0.555098 0.153460
O O8 0.281013 0.576803 0.068652
O O9 0.279297 0.587345 0.895175
O O10 0.000000 0.594292 0.984227
O O11 0.500000 0.845994 0.792047
O O12 0.773486 0.795601 0.747372
O O13 0.774885 0.853305 0.885268
O O14 0.500000 0.263642 0.754870
O O15 0.222831 0.308294 0.696286
O O16 0.276327 0.500000 0.804988
O O17 0.249255 0.407857 0.725464
O O18 0.000000 0.442965 0.815865
O O19 0.500000 0.337349 0.476703
O O20 0.773523 0.368284 0.561255
O O21 0.500000 0.640516 0.654790
#
# Coordination Sequence:
#
# PCOD9356371 Si02
#       8
#     8   8   8   8   8   8   8   8
#     4   9  16  30  51  77 107 138 169 203 249 307
#     4  10  22  39  55  73 101 138 178 219 266 314
#     4  10  20  34  52  75 103 137 173 211 259 315
#     4   9  18  35  56  79 104 134 175 217 258 306
#     4   8  15  28  49  78 108 134 161 203 256 305
#     4  10  21  37  54  73 103 142 178 215 261 309
#     4   8  17  32  53  78 109 142 168 202 258 317
#     4  10  18  32  54  80 107 138 175 211 253 308
#
# _framework density 20.720124999999999
#
# number of rings (size 3 to 8) (size 9 to 14) (size 15 to 20)
#    0.000    2.750    1.250    1.875    1.750    2.500 
#    0.000    5.000    0.000    6.000    0.000    0.000 
#    0.000    0.000    0.000    0.000    0.000    0.000 
#
# Total GULP energy -178533.993323 kJ/mol
# GULP energy per Si atom -5579.187291 kJ/mol
# Density = 2.067296 g / cm^3
# Si number density = 20.720125 Si / 1000 Ang^3
#
#
#
# Elastic Constant Matrix: (Units=GPa)
#
#
# Indices 1 2 3 4 5 6 
#
# 1 40.1024 -0.4481 6.3286 0.0000 0.0000 0.0000
# 2 -0.4481 144.2126 84.9618 0.0000 0.0000 0.0000
# 3 6.3286 84.9618 122.6518 0.0000 0.0000 0.0000
# 4 0.0000 0.0000 0.0000 28.9282 0.0000 0.0000
# 5 0.0000 0.0000 0.0000 0.0000 15.4672 0.0000
# 6 0.0000 0.0000 0.0000 0.0000 0.0000 22.5240
#
#
#
# Elastic Compliance Matrix: (Units=1/GPa)
#
#
# Indices 1 2 3 4 5 6 
#
# 1 0.025315 0.001433 -0.002299 0.000000 0.000000 0.000000
# 2 0.001433 0.011796 -0.008245 0.000000 0.000000 0.000000
# 3 -0.002299 -0.008245 0.013983 0.000000 0.000000 0.000000
# 4 0.000000 0.000000 0.000000 0.034568 0.000000 0.000000
# 5 0.000000 0.000000 0.000000 0.000000 0.064653 0.000000
# 6 0.000000 0.000000 0.000000 0.000000 0.000000 0.044397
#
#
# Mechanical properties :
#
#
# Convention : Reuss Voigt Hill
#
# Bulk Modulus (GPa) = 30.42076 54.29461 42.35769
# Shear Modulus (GPa) = 22.33212 27.79219 25.06215
#
# Velocity S-wave (km/s) = 3.28655 3.66637 3.48164
# Velocity P-wave (km/s) = 5.39587 6.64708 6.05389
#
# Compressibility (1/GPa) = 0.03287229
#
# Stress axis : x y z
#
# Youngs Moduli (GPa) = 39.50234 84.77198 71.51341
#
# Poissons Ratio (x) = -0.12148 0.16440
# Poissons Ratio (y) = -0.05661 0.58965
# Poissons Ratio (z) = 0.09081 0.69898
#
# Static dielectric constant tensor:
#      x y z
#    x 1.798180 0.000000 0.000000 
#    y 0.000000 1.721110 0.000000 
#    z 0.000000 0.000000 1.750620 
# 
# From -- ./inp_files/13107.got.cif
#   From: 2010.05.17/outbox.cif.g08.bks.cpg/sg38_7_cif.got.tgz:13107.got - 2010.06.03 18:07:57.
