data_PCOD9356534
_publ_section_title
;
Structure prediction by ZEFSAII (Michael W. Deem and Ramdas Pophale) SiO2 
 PCOD9356534
Probable space group: A M M 2
;
_chemical_formula_sum "Si O2"
_cell_formula_units_Z 64
_cell_length_a 14.901348
_cell_length_b 7.668834
_cell_length_c 32.299018
_cell_angle_alpha 90.000000
_cell_angle_beta 90.000000
_cell_angle_gamma 90.000000
_cell_volume 3691.001424
_symmetry_space_group_name_H-M "A M M 2"
_symmetry_group_IT_number 38
_symmetry_cell_setting 'orthorhombic'
loop_
_space_group_symop_operation_xyz
x,y,z
-x,-y,z
-x,y,z
x,-y,z
x,1/2+y,1/2+z
-x,1/2-y,1/2+z
-x,1/2+y,1/2+z
x,1/2-y,1/2+z
loop_
_atom_site_type_symbol
_atom_site_label
_atom_site_fract_x
_atom_site_fract_y
_atom_site_fract_z
Si Si1 0.900753 0.208760 0.176110
Si Si2 0.716811 0.207404 0.542714
Si Si3 0.900099 0.710715 0.079144
Si Si4 0.397335 0.291934 0.785709
Si Si5 0.602676 0.707758 0.966155
Si Si6 0.288542 0.214000 0.206164
Si Si7 0.396885 0.710934 0.624240
Si Si8 0.397753 0.207452 0.875889
O O1 0.885850 0.242506 0.127306
O O2 0.813964 0.273971 0.200612
O O3 0.000000 0.278336 0.186823
O O4 0.903463 0.000000 0.181583
O O5 0.816049 0.277721 0.552771
O O6 0.664842 0.279188 0.502740
O O7 0.656078 0.232707 0.583390
O O8 0.727133 0.000000 0.536232
O O9 0.900421 0.500000 0.076833
O O10 0.000000 0.772500 0.067277
O O11 0.500000 0.222127 0.784020
O O12 0.403511 0.500000 0.780646
O O13 0.337086 0.226270 0.747989
O O14 0.358500 0.259281 0.831555
O O15 0.500000 0.778043 0.967904
O O16 0.595932 0.500000 0.972166
O O17 0.640845 0.736571 0.920029
O O18 0.345302 0.267527 0.165745
O O19 0.287794 0.000000 0.206310
O O20 0.500000 0.771079 0.623729
O O21 0.397652 0.500000 0.624593
O O22 0.500000 0.280308 0.875561
O O23 0.402022 0.000000 0.876459
#
# Coordination Sequence:
#
# PCOD9356534 Si02
#       8
#     8   8   8   8   8   8   8   8
#     4   9  16  27  44  63  83 110 145 185 222 252
#     4  10  19  30  44  63  87 116 148 181 216 255
#     4   9  17  29  44  62  85 113 145 182 222 259
#     4   9  16  27  44  62  82 112 145 173 206 252
#     4   9  17  29  44  61  83 112 144 174 207 254
#     4   9  16  27  42  62  86 113 146 179 210 250
#     4  10  19  29  41  59  87 121 152 179 208 248
#     4   9  17  29  44  63  86 108 134 174 218 253
#
# _framework density 17.339468
#
# number of rings (size 3 to 8) (size 9 to 14) (size 15 to 20)
#    0.000    2.750    1.250    1.125    0.000    4.250 
#    0.000    2.500    0.000    1.500    0.000    0.875 
#    0.000    7.000    0.000    0.000    0.000    0.000 
#
# Total GULP energy -178343.235457 kJ/mol
# GULP energy per Si atom -5573.226108 kJ/mol
# Density = 1.730000 g / cm^3
# Si number density = 17.339468 Si / 1000 Ang^3
#
#
#
# Elastic Constant Matrix: (Units=GPa)
#
#
# Indices 1 2 3 4 5 6 
#
# 1 134.7215 4.9198 82.4706 0.0000 0.0000 0.0000
# 2 4.9198 30.1933 -3.1362 0.0000 0.0000 0.0000
# 3 82.4706 -3.1362 152.5462 0.0000 0.0000 0.0000
# 4 0.0000 0.0000 0.0000 16.1516 0.0000 0.0000
# 5 0.0000 0.0000 0.0000 0.0000 7.4166 0.0000
# 6 0.0000 0.0000 0.0000 0.0000 0.0000 7.5568
#
#
#
# Elastic Compliance Matrix: (Units=1/GPa)
#
#
# Indices 1 2 3 4 5 6 
#
# 1 0.011276 -0.002476 -0.006147 0.000000 0.000000 0.000000
# 2 -0.002476 0.033734 0.002032 0.000000 0.000000 0.000000
# 3 -0.006147 0.002032 0.009920 0.000000 0.000000 0.000000
# 4 0.000000 0.000000 0.000000 0.061913 0.000000 0.000000
# 5 0.000000 0.000000 0.000000 0.000000 0.134833 0.000000
# 6 0.000000 0.000000 0.000000 0.000000 0.000000 0.132332
#
#
# Mechanical properties :
#
#
# Convention : Reuss Voigt Hill
#
# Bulk Modulus (GPa) = 23.95254 53.99659 38.97456
# Shear Modulus (GPa) = 12.16228 21.77211 16.96719
#
# Velocity S-wave (km/s) = 2.65131 3.54734 3.13154
# Velocity P-wave (km/s) = 4.81835 6.92724 5.96670
#
# Compressibility (1/GPa) = 0.04174923
#
# Stress axis : x y z
#
# Youngs Moduli (GPa) = 88.68313 29.64331 100.80196
#
# Poissons Ratio (x) = 0.07339 0.61964
# Poissons Ratio (y) = 0.21957 -0.20484
# Poissons Ratio (z) = 0.54514 -0.06024
#
# Static dielectric constant tensor:
#      x y z
#    x 1.609490 0.000000 0.000000 
#    y 0.000000 1.649690 0.000000 
#    z 0.000000 0.000000 1.583610 
# 
# From -- ./inp_files/25028.got.cif
#   From: 2010.05.17/outbox.cif.g08.bks.cpg/sg38_13_cif.got.tgz:25028.got - 2010.06.03 18:07:57.
