data_PCOD9356481
_publ_section_title
;
Structure prediction by ZEFSAII (Michael W. Deem and Ramdas Pophale) SiO2 
 PCOD9356481
Probable space group: A M M 2
;
_chemical_formula_sum "Si O2"
_cell_formula_units_Z 48
_cell_length_a 7.778067
_cell_length_b 14.846204
_cell_length_c 21.290379
_cell_angle_alpha 90.000000
_cell_angle_beta 90.000000
_cell_angle_gamma 90.000000
_cell_volume 2458.501606
_symmetry_space_group_name_H-M "A M M 2"
_symmetry_group_IT_number 38
_symmetry_cell_setting 'orthorhombic'
loop_
_space_group_symop_operation_xyz
x,y,z
-x,-y,z
-x,y,z
x,-y,z
x,1/2+y,1/2+z
-x,1/2-y,1/2+z
-x,1/2+y,1/2+z
x,1/2-y,1/2+z
loop_
_atom_site_type_symbol
_atom_site_label
_atom_site_fract_x
_atom_site_fract_y
_atom_site_fract_z
Si Si1 0.291782 0.000000 0.698271
Si Si2 0.289270 0.805316 0.743112
Si Si3 0.794173 0.500000 0.804447
Si Si4 0.205223 0.500000 0.660354
Si Si5 0.705858 0.692412 0.861536
Si Si6 0.705488 0.196792 0.120236
Si Si7 0.703385 0.194583 0.501362
Si Si8 0.201900 0.500000 0.051283
O O1 0.236132 0.091758 0.732091
O O2 0.500000 0.000000 0.696835
O O3 0.233433 0.000000 0.625999
O O4 0.500000 0.803530 0.743609
O O5 0.228614 0.759016 0.807225
O O6 0.230480 0.746733 0.683142
O O7 0.728085 0.500000 0.732439
O O8 0.737358 0.590281 0.839476
O O9 0.000000 0.500000 0.802460
O O10 0.261146 0.408795 0.626384
O O11 0.000000 0.500000 0.663421
O O12 0.500000 0.704477 0.864105
O O13 0.776198 0.707663 0.931531
O O14 0.500000 0.210860 0.120001
O O15 0.775768 0.243426 0.057284
O O16 0.500000 0.214225 0.497550
O O17 0.722515 0.090881 0.521980
O O18 0.000000 0.500000 0.038733
#
# Coordination Sequence:
#
# PCOD9356481 Si02
#       8
#     4   8   4   4   8   8   8   4
#     4  10  18  35  58  81 109 139 176 220 269 317
#     4   9  17  31  56  82 105 136 176 218 261 313
#     4  11  22  34  51  79 112 143 175 218 269 315
#     4  11  23  36  53  82 113 142 179 224 266 313
#     4  10  20  35  55  81 108 139 177 218 266 320
#     4  10  19  35  58  80 105 141 182 222 264 315
#     4  10  21  37  56  79 110 143 178 221 271 320
#     4  12  23  33  52  82 114 142 178 222 268 323
#
# _framework density 19.524087000000002
#
# number of rings (size 3 to 8) (size 9 to 14) (size 15 to 20)
#    0.000    1.833    3.333    1.750    0.000    4.000 
#    0.000    1.667    0.000    4.000    0.000    1.167 
#    0.000    0.000    0.000    0.000    0.000    0.000 
#
# Total GULP energy -134044.772643 kJ/mol
# GULP energy per Si atom -5585.198860 kJ/mol
# Density = 1.947965 g / cm^3
# Si number density = 19.524087 Si / 1000 Ang^3
#
#
#
# Elastic Constant Matrix: (Units=GPa)
#
#
# Indices 1 2 3 4 5 6 
#
# 1 25.3143 -11.5660 6.0504 0.0000 0.0000 0.0000
# 2 -11.5660 153.8422 105.1474 0.0000 0.0000 0.0000
# 3 6.0504 105.1474 209.1745 0.0000 0.0000 0.0000
# 4 0.0000 0.0000 0.0000 69.8809 0.0000 0.0000
# 5 0.0000 0.0000 0.0000 0.0000 1.4825 0.0000
# 6 0.0000 0.0000 0.0000 0.0000 0.0000 226.6888
#
#
#
# Elastic Compliance Matrix: (Units=1/GPa)
#
#
# Indices 1 2 3 4 5 6 
#
# 1 0.043428 0.006282 -0.004414 0.000000 0.000000 0.000000
# 2 0.006282 0.010811 -0.005616 0.000000 0.000000 0.000000
# 3 -0.004414 -0.005616 0.007731 0.000000 0.000000 0.000000
# 4 0.000000 0.000000 0.000000 0.014310 0.000000 0.000000
# 5 0.000000 0.000000 0.000000 0.000000 0.674532 0.000000
# 6 0.000000 0.000000 0.000000 0.000000 0.000000 0.004411
#
#
# Mechanical properties :
#
#
# Convention : Reuss Voigt Hill
#
# Bulk Modulus (GPa) = 18.35725 65.28829 41.82277
# Shear Modulus (GPa) = 6.40304 78.85704 42.63004
#
# Velocity S-wave (km/s) = 1.81292 6.36218 4.67782
# Velocity P-wave (km/s) = 3.71551 9.35319 7.11643
#
# Compressibility (1/GPa) = 0.05447440
#
# Stress axis : x y z
#
# Youngs Moduli (GPa) = 23.02637 92.49915 129.34157
#
# Poissons Ratio (x) = -0.58106 0.57090
# Poissons Ratio (y) = -0.14465 0.72640
# Poissons Ratio (z) = 0.10164 0.51949
#
# Static dielectric constant tensor:
#      x y z
#    x 1.694400 0.000000 0.000000 
#    y 0.000000 1.640480 0.000000 
#    z 0.000000 0.000000 1.697950 
# 
# From -- ./inp_files/16714.got.cif
#   From: 2010.05.17/outbox.cif.g08.bks.cpg/sg38_9_cif.got.tgz:16714.got - 2010.06.03 18:07:57.
