data_PCOD9356858
_publ_section_title
;
Structure prediction by ZEFSAII (Michael W. Deem and Ramdas Pophale) SiO2 
 PCOD9356858
Probable space group: A M M 2
;
_chemical_formula_sum "Si O2"
_cell_formula_units_Z 64
_cell_length_a 8.887193
_cell_length_b 23.655976
_cell_length_c 19.574097
_cell_angle_alpha 90.000000
_cell_angle_beta 90.000000
_cell_angle_gamma 90.000000
_cell_volume 4115.164674
_symmetry_space_group_name_H-M "A M M 2"
_symmetry_group_IT_number 38
_symmetry_cell_setting 'orthorhombic'
loop_
_space_group_symop_operation_xyz
x,y,z
-x,-y,z
-x,y,z
x,-y,z
x,1/2+y,1/2+z
-x,1/2-y,1/2+z
-x,1/2+y,1/2+z
x,1/2-y,1/2+z
loop_
_atom_site_type_symbol
_atom_site_label
_atom_site_fract_x
_atom_site_fract_y
_atom_site_fract_z
Si Si1 0.179824 0.773377 0.420250
Si Si2 0.819585 0.624807 0.564229
Si Si3 0.679741 0.749988 0.058789
Si Si4 0.819190 0.434858 0.420508
Si Si5 0.320492 0.264584 0.212116
Si Si6 0.820658 0.341943 0.787494
Si Si7 0.320596 0.066416 0.197339
Si Si8 0.679258 0.333596 0.343272
O O1 0.248176 0.782000 0.494820
O O2 0.216430 0.821230 0.364146
O O3 0.246742 0.714903 0.390444
O O4 0.000000 0.767937 0.424218
O O5 0.745056 0.686397 0.559222
O O6 0.783613 0.589591 0.495783
O O7 0.757654 0.592600 0.630392
O O8 0.000000 0.630816 0.568938
O O9 0.500000 0.752309 0.050764
O O10 0.715101 0.724321 0.133239
O O11 0.772039 0.500000 0.414783
O O12 0.744072 0.393468 0.365867
O O13 0.000000 0.432179 0.413075
O O14 0.500000 0.252562 0.216551
O O15 0.233706 0.209267 0.238646
O O16 0.287634 0.314592 0.265518
O O17 0.739629 0.398009 0.761529
O O18 0.000000 0.348099 0.781790
O O19 0.500000 0.073737 0.191260
O O20 0.286982 0.000000 0.202748
O O21 0.500000 0.332402 0.353124
#
# Coordination Sequence:
#
# PCOD9356858 Si02
#       8
#     8   8   8   8   8   8   8   8
#     4  10  20  33  49  72 100 128 162 203 247 297
#     4  11  21  33  49  70  99 135 172 206 237 282
#     4  11  20  31  50  75 101 133 164 199 245 293
#     4  10  21  35  49  67  96 133 168 203 242 284
#     4   9  19  33  49  70  99 127 159 201 247 295
#     4  10  20  33  51  72  95 128 167 206 247 290
#     4  11  23  36  50  70  99 134 171 209 247 292
#     4  10  19  32  50  71  94 127 164 203 246 288
#
# _framework density 15.552234
#
# number of rings (size 3 to 8) (size 9 to 14) (size 15 to 20)
#    0.000    1.750    2.500    2.625    0.000    4.750 
#    0.000    0.000    0.000    0.000    0.000    0.875 
#    0.000    1.000    0.000    0.000    0.000    0.000 
#
# Total GULP energy -178634.589308 kJ/mol
# GULP energy per Si atom -5582.330916 kJ/mol
# Density = 1.551684 g / cm^3
# Si number density = 15.552234 Si / 1000 Ang^3
#
#
#
# Elastic Constant Matrix: (Units=GPa)
#
#
# Indices 1 2 3 4 5 6 
#
# 1 45.2915 34.1629 50.2819 0.0000 0.0000 0.0000
# 2 34.1629 72.8679 52.6055 0.0000 0.0000 0.0000
# 3 50.2819 52.6055 132.7779 0.0000 0.0000 0.0000
# 4 0.0000 0.0000 0.0000 19.5522 0.0000 0.0000
# 5 0.0000 0.0000 0.0000 0.0000 25.5988 0.0000
# 6 0.0000 0.0000 0.0000 0.0000 0.0000 23.4443
#
#
#
# Elastic Compliance Matrix: (Units=1/GPa)
#
#
# Indices 1 2 3 4 5 6 
#
# 1 0.044740 -0.012247 -0.012090 0.000000 0.000000 0.000000
# 2 -0.012247 0.022574 -0.004306 0.000000 0.000000 0.000000
# 3 -0.012090 -0.004306 0.013816 0.000000 0.000000 0.000000
# 4 0.000000 0.000000 0.000000 0.051145 0.000000 0.000000
# 5 0.000000 0.000000 0.000000 0.000000 0.039064 0.000000
# 6 0.000000 0.000000 0.000000 0.000000 0.000000 0.042654
#
#
# Mechanical properties :
#
#
# Convention : Reuss Voigt Hill
#
# Bulk Modulus (GPa) = 41.94116 58.33755 50.13935
# Shear Modulus (GPa) = 17.90663 21.31155 19.60909
#
# Velocity S-wave (km/s) = 3.39689 3.70580 3.55470
# Velocity P-wave (km/s) = 6.51242 7.47681 7.01122
#
# Compressibility (1/GPa) = 0.02384293
#
# Stress axis : x y z
#
# Youngs Moduli (GPa) = 22.35159 44.29944 72.38128
#
# Poissons Ratio (x) = 0.54254 0.87511
# Poissons Ratio (y) = 0.27374 0.31165
# Poissons Ratio (z) = 0.27024 0.19074
#
# Static dielectric constant tensor:
#      x y z
#    x 1.520030 0.000000 0.000000 
#    y 0.000000 1.489250 0.000000 
#    z 0.000000 0.000000 1.531830 
# 
# From -- ./inp_files/17301.got.cif
#   From: 2010.05.17/outbox.cif.g08.bks.cpg/sg38_9_cif.got.tgz:17301.got - 2010.06.03 18:07:57.
