data_PCOD9356591
_publ_section_title
;
Structure prediction by ZEFSAII (Michael W. Deem and Ramdas Pophale) SiO2 
 PCOD9356591
Probable space group: A M M 2
;
_chemical_formula_sum "Si O2"
_cell_formula_units_Z 58
_cell_length_a 18.286387
_cell_length_b 7.552626
_cell_length_c 20.138912
_cell_angle_alpha 90.000000
_cell_angle_beta 90.000000
_cell_angle_gamma 90.000000
_cell_volume 2781.390008
_symmetry_space_group_name_H-M "A M M 2"
_symmetry_group_IT_number 38
_symmetry_cell_setting 'orthorhombic'
loop_
_space_group_symop_operation_xyz
x,y,z
-x,-y,z
-x,y,z
x,-y,z
x,1/2+y,1/2+z
-x,1/2-y,1/2+z
-x,1/2+y,1/2+z
x,1/2-y,1/2+z
loop_
_atom_site_type_symbol
_atom_site_label
_atom_site_fract_x
_atom_site_fract_y
_atom_site_fract_z
Si Si1 0.422545 0.791638 0.606150
Si Si2 0.737455 0.288152 0.138309
Si Si3 0.380557 0.213473 0.958645
Si Si4 0.000000 0.000000 0.861491
Si Si5 0.872382 0.204929 0.374492
Si Si6 0.261165 0.293409 0.783660
Si Si7 0.420848 0.294120 0.811280
Si Si8 0.216947 0.208512 0.993162
O O1 0.500000 0.714862 0.629417
O O2 0.345885 0.715796 0.631639
O O3 0.418335 0.772877 0.526492
O O4 0.422538 0.000000 0.622307
O O5 0.734228 0.500000 0.138792
O O6 0.766900 0.225966 0.208700
O O7 0.780778 0.236299 0.072188
O O8 0.414572 0.284646 0.891239
O O9 0.296001 0.272100 0.966181
O O10 0.382963 0.000000 0.956263
O O11 0.936414 0.843218 0.862996
O O12 0.800179 0.270887 0.334307
O O13 0.847478 0.205305 0.451510
O O14 0.888413 0.000000 0.354946
O O15 0.270294 0.500000 0.800153
O O16 0.343265 0.213628 0.787652
O O17 0.500000 0.215500 0.791840
O O18 0.422175 0.500000 0.790653
O O19 0.212933 0.000000 0.980857
#
# Coordination Sequence:
#
# PCOD9356591 Si02
#       8
#     8   8   8   2   8   8   8   8
#     4   9  18  32  47  68 107 157 208 264 319 370
#     4  10  21  34  56  86 117 161 217 261 313 381
#     4  10  19  29  48  77 112 150 204 259 317 368
#     4  12  26  44  72 110 134 164 198 262 332 382
#     4  11  23  42  71 103 134 168 209 258 317 389
#     4  10  22  39  59  87 123 168 216 263 314 378
#     4  10  20  33  50  75 114 163 213 263 316 368
#     4  10  19  36  61  91 123 162 205 259 312 375
#
# _framework density 20.852882000000001
#
# number of rings (size 3 to 8) (size 9 to 14) (size 15 to 20)
#    0.000    1.931    2.069    1.862    0.966    4.966 
#    0.000    0.000    0.000    0.828    0.000    0.000 
#    0.000    0.000    0.000    0.000    0.000    0.000 
#
# Total GULP energy -161665.331804 kJ/mol
# GULP energy per Si atom -5574.666614 kJ/mol
# Density = 2.080542 g / cm^3
# Si number density = 20.852882 Si / 1000 Ang^3
#
#
#
# Elastic Constant Matrix: (Units=GPa)
#
#
# Indices 1 2 3 4 5 6 
#
# 1 117.9949 37.9038 35.4134 0.0000 0.0000 0.0000
# 2 37.9038 92.8912 -4.2536 0.0000 0.0000 0.0000
# 3 35.4134 -4.2536 98.9650 0.0000 0.0000 0.0000
# 4 0.0000 0.0000 0.0000 15.5580 0.0000 0.0000
# 5 0.0000 0.0000 0.0000 0.0000 -2.1703 0.0000
# 6 0.0000 0.0000 0.0000 0.0000 0.0000 6.9258
#
#
#
# Elastic Compliance Matrix: (Units=1/GPa)
#
#
# Indices 1 2 3 4 5 6 
#
# 1 0.011292 -0.004802 -0.004247 0.000000 0.000000 0.000000
# 2 -0.004802 0.012829 0.002270 0.000000 0.000000 0.000000
# 3 -0.004247 0.002270 0.011722 0.000000 0.000000 0.000000
# 4 0.000000 0.000000 0.000000 0.064276 0.000000 0.000000
# 5 0.000000 0.000000 0.000000 0.000000 -0.460755 0.000000
# 6 0.000000 0.000000 0.000000 0.000000 0.000000 0.144388
#
#
# Mechanical properties :
#
#
# Convention : Reuss Voigt Hill
#
# Bulk Modulus (GPa) = 44.87586 49.77539 47.32563
# Shear Modulus (GPa) = -25.60663 20.11519 -2.74572
#
# Velocity S-wave (km/s) = -3.50804 3.10921 -1.14873
# Velocity P-wave (km/s) = 2.27124 6.06722 4.58092
#
# Compressibility (1/GPa) = 0.02228370
#
# Stress axis : x y z
#
# Youngs Moduli (GPa) = 88.55610 77.94988 85.31007
#
# Poissons Ratio (x) = 0.37433 0.36233
# Poissons Ratio (y) = 0.42527 -0.19364
# Poissons Ratio (z) = 0.37612 -0.17693
#
# Static dielectric constant tensor:
#      x y z
#    x 1.761120 0.000000 0.000000 
#    y 0.000000 1.760460 0.000000 
#    z 0.000000 0.000000 1.748200 
# 
# From -- ./inp_files/18695.got.cif
#   From: 2010.05.17/outbox.cif.g08.bks.cpg/sg38_10_cif.got.tgz:18695.got - 2010.06.03 18:07:57.
