data_PCOD9356679
_publ_section_title
;
Structure prediction by ZEFSAII (Michael W. Deem and Ramdas Pophale) SiO2 
 PCOD9356679
Probable space group: A M M 2
;
_chemical_formula_sum "Si O2"
_cell_formula_units_Z 56
_cell_length_a 18.179955
_cell_length_b 8.858798
_cell_length_c 19.109045
_cell_angle_alpha 90.000000
_cell_angle_beta 90.000000
_cell_angle_gamma 90.000000
_cell_volume 3077.560406
_symmetry_space_group_name_H-M "A M M 2"
_symmetry_group_IT_number 38
_symmetry_cell_setting 'orthorhombic'
loop_
_space_group_symop_operation_xyz
x,y,z
-x,-y,z
-x,y,z
x,-y,z
x,1/2+y,1/2+z
-x,1/2-y,1/2+z
-x,1/2+y,1/2+z
x,1/2-y,1/2+z
loop_
_atom_site_type_symbol
_atom_site_label
_atom_site_fract_x
_atom_site_fract_y
_atom_site_fract_z
Si Si1 0.085126 0.181204 0.672720
Si Si2 0.585534 0.181819 0.391197
Si Si3 0.694620 0.321594 0.015151
Si Si4 0.303669 0.326931 0.286020
Si Si5 0.238168 0.179297 0.146882
Si Si6 0.086330 0.669324 0.824309
Si Si7 0.192698 0.828278 0.917342
O O1 0.156430 0.250175 0.634111
O O2 0.096372 0.240464 0.752051
O O3 0.000000 0.223368 0.652346
O O4 0.089632 0.000000 0.670640
O O5 0.500000 0.222806 0.394381
O O6 0.628655 0.225787 0.462639
O O7 0.626126 0.253746 0.324379
O O8 0.591838 0.000000 0.385992
O O9 0.688869 0.500000 0.027924
O O10 0.767646 0.280226 0.971640
O O11 0.705294 0.233839 0.087198
O O12 0.318321 0.500000 0.265220
O O13 0.270767 0.237601 0.220544
O O14 0.243018 0.328831 0.347586
O O15 0.231387 0.000000 0.147316
O O16 0.119348 0.500000 0.818968
O O17 0.117730 0.759738 0.889573
O O18 0.000000 0.654518 0.832931
O O19 0.187793 0.000000 0.943661
#
# Coordination Sequence:
#
# PCOD9356679 Si02
#       7
#     8   8   8   8   8   8   8
#     4  10  20  34  53  78 109 146 188 236 289 339
#     4   9  19  38  63  89 115 145 182 226 279 339
#     4  10  21  37  58  81 112 149 186 227 280 342
#     4  10  20  34  56  84 112 144 183 226 274 327
#     4  12  23  36  56  82 115 151 192 238 283 334
#     4  10  19  30  48  76 107 141 184 232 283 334
#     4  10  19  33  53  77 106 140 183 230 275 328
#
# _framework density 18.19623
#
# number of rings (size 3 to 8) (size 9 to 14) (size 15 to 20)
#    0.000    1.857    1.429    3.429    0.000    3.714 
#    0.000    1.429    0.000    6.857    0.000    0.000 
#    0.000    0.000    0.000    0.000    0.000    0.000 
#
# Total GULP energy -156160.386323 kJ/mol
# GULP energy per Si atom -5577.156654 kJ/mol
# Density = 1.815481 g / cm^3
# Si number density = 18.196230 Si / 1000 Ang^3
#
#
#
# Elastic Constant Matrix: (Units=GPa)
#
#
# Indices 1 2 3 4 5 6 
#
# 1 98.1929 42.9684 35.6010 0.0000 0.0000 0.0000
# 2 42.9684 87.8870 26.8889 0.0000 0.0000 0.0000
# 3 35.6010 26.8889 60.5768 0.0000 0.0000 0.0000
# 4 0.0000 0.0000 0.0000 28.7716 0.0000 0.0000
# 5 0.0000 0.0000 0.0000 0.0000 19.9378 0.0000
# 6 0.0000 0.0000 0.0000 0.0000 0.0000 23.5893
#
#
#
# Elastic Compliance Matrix: (Units=1/GPa)
#
#
# Indices 1 2 3 4 5 6 
#
# 1 0.014803 -0.005295 -0.006350 0.000000 0.000000 0.000000
# 2 -0.005295 0.015060 -0.003573 0.000000 0.000000 0.000000
# 3 -0.006350 -0.003573 0.021826 0.000000 0.000000 0.000000
# 4 0.000000 0.000000 0.000000 0.034756 0.000000 0.000000
# 5 0.000000 0.000000 0.000000 0.000000 0.050156 0.000000
# 6 0.000000 0.000000 0.000000 0.000000 0.000000 0.042392
#
#
# Mechanical properties :
#
#
# Convention : Reuss Voigt Hill
#
# Bulk Modulus (GPa) = 47.05007 50.84148 48.94577
# Shear Modulus (GPa) = 23.09333 23.87297 23.48315
#
# Velocity S-wave (km/s) = 3.56635 3.62605 3.59632
# Velocity P-wave (km/s) = 6.54764 6.74776 6.64845
#
# Compressibility (1/GPa) = 0.02125396
#
# Stress axis : x y z
#
# Youngs Moduli (GPa) = 67.55375 66.40084 45.81766
#
# Poissons Ratio (x) = 0.35157 0.29092
# Poissons Ratio (y) = 0.35767 0.16372
# Poissons Ratio (z) = 0.42893 0.23726
#
# Static dielectric constant tensor:
#      x y z
#    x 1.635870 0.000000 0.000000 
#    y 0.000000 1.628330 0.000000 
#    z 0.000000 0.000000 1.620450 
# 
# From -- ./inp_files/18820.got.cif
#   From: 2010.05.17/outbox.cif.g08.bks.cpg/sg38_10_cif.got.tgz:18820.got - 2010.06.03 18:07:57.
