data_PCOD9356917
_publ_section_title
;
Structure prediction by ZEFSAII (Michael W. Deem and Ramdas Pophale) SiO2 
 PCOD9356917
Probable space group: A M M 2
;
_chemical_formula_sum "Si O2"
_cell_formula_units_Z 48
_cell_length_a 18.816030
_cell_length_b 29.855250
_cell_length_c 5.094429
_cell_angle_alpha 90.000000
_cell_angle_beta 90.000000
_cell_angle_gamma 90.000000
_cell_volume 2861.832576
_symmetry_space_group_name_H-M "A M M 2"
_symmetry_group_IT_number 38
_symmetry_cell_setting 'orthorhombic'
loop_
_space_group_symop_operation_xyz
x,y,z
-x,-y,z
-x,y,z
x,-y,z
x,1/2+y,1/2+z
-x,1/2-y,1/2+z
-x,1/2+y,1/2+z
x,1/2-y,1/2+z
loop_
_atom_site_type_symbol
_atom_site_label
_atom_site_fract_x
_atom_site_fract_y
_atom_site_fract_z
Si Si1 0.343420 0.782299 0.795130
Si Si2 0.125919 0.835728 0.389600
Si Si3 0.217847 0.149397 0.890244
Si Si4 0.500000 0.278901 0.389086
Si Si5 0.823676 0.548656 0.340219
Si Si6 0.000000 0.226741 0.220325
Si Si7 0.080896 0.435355 0.839085
O O1 0.334423 0.754975 0.524513
O O2 0.288146 0.822510 0.828312
O O3 0.424342 0.800463 0.822096
O O4 0.158774 0.834732 0.679097
O O5 0.083031 0.881718 0.356002
O O6 0.071468 0.797175 0.317517
O O7 0.189715 0.838539 0.179425
O O8 0.220912 0.094998 0.863727
O O9 0.500000 0.264375 0.693499
O O10 0.786802 0.500000 0.366102
O O11 0.883755 0.551602 0.564804
O O12 0.865984 0.549503 0.067115
O O13 0.000000 0.270774 0.405583
O O14 0.000000 0.450458 0.868085
#
# Coordination Sequence:
#
# PCOD9356917 Si02
#       7
#     8   8   8   4   8   4   8
#     4  10  19  32  52  76 102 128 157 189 231 282
#     4  10  21  36  46  64  91 122 160 200 239 278
#     4  10  21  34  52  69  95 128 156 196 238 280
#     4   8  16  30  48  74 103 126 149 188 230 274
#     4  10  21  33  47  70  93 118 156 197 242 292
#     4  12  24  34  48  64  85 122 163 202 244 278
#     4  10  19  33  51  63  87 118 149 198 252 292
#
# _framework density 16.772470999999999
#
# number of rings (size 3 to 8) (size 9 to 14) (size 15 to 20)
#    0.000    2.000    0.833    3.000    0.000    6.000 
#    0.000    0.000    0.000    0.000    0.000    0.583 
#    0.000    0.000    0.000   26.167    0.000    0.000 
#
# Total GULP energy -133805.573219 kJ/mol
# GULP energy per Si atom -5575.232217 kJ/mol
# Density = 1.673430 g / cm^3
# Si number density = 16.772471 Si / 1000 Ang^3
#
#
#
# Elastic Constant Matrix: (Units=GPa)
#
#
# Indices 1 2 3 4 5 6 
#
# 1 72.3338 42.5909 -17.1593 0.0000 0.0000 0.0000
# 2 42.5909 65.7918 -7.2045 0.0000 0.0000 0.0000
# 3 -17.1593 -7.2045 56.1331 0.0000 0.0000 0.0000
# 4 0.0000 0.0000 0.0000 52.3210 0.0000 0.0000
# 5 0.0000 0.0000 0.0000 0.0000 9.3019 0.0000
# 6 0.0000 0.0000 0.0000 0.0000 0.0000 -0.8354
#
#
#
# Elastic Compliance Matrix: (Units=1/GPa)
#
#
# Indices 1 2 3 4 5 6 
#
# 1 0.023843 -0.014846 0.005383 0.000000 0.000000 0.000000
# 2 -0.014846 0.024659 -0.001373 0.000000 0.000000 0.000000
# 3 0.005383 -0.001373 0.019284 0.000000 0.000000 0.000000
# 4 0.000000 0.000000 0.000000 0.019113 0.000000 0.000000
# 5 0.000000 0.000000 0.000000 0.000000 0.107505 0.000000
# 6 0.000000 0.000000 0.000000 0.000000 0.000000 -1.196972
#
#
# Mechanical properties :
#
#
# Convention : Reuss Voigt Hill
#
# Bulk Modulus (GPa) = 21.68458 25.63476 23.65967
# Shear Modulus (GPa) = -5.17853 23.89294 9.35720
#
# Velocity S-wave (km/s) = -1.75904 3.77839 2.36453
# Velocity P-wave (km/s) = 2.97172 5.86106 4.64667
#
# Compressibility (1/GPa) = 0.04611572
#
# Stress axis : x y z
#
# Youngs Moduli (GPa) = 41.94099 40.55239 51.85604
#
# Poissons Ratio (x) = 0.60202 -0.27915
# Poissons Ratio (y) = 0.62264 0.07121
# Poissons Ratio (z) = -0.22578 0.05569
#
# Static dielectric constant tensor:
#      x y z
#    x 1.544910 0.000000 0.000000 
#    y 0.000000 1.615410 0.000000 
#    z 0.000000 0.000000 1.574960 
# 
# From -- ./inp_files/1386.got.cif
#   From: 2010.05.17/outbox.cif.g08.bks.cpg/sg38_1_cif.got.tgz:1386.got - 2010.06.03 18:07:57.
