data_PCOD9356927
_publ_section_title
;
Structure prediction by ZEFSAII (Michael W. Deem and Ramdas Pophale) SiO2 
 PCOD9356927
Probable space group: A M M 2
;
_chemical_formula_sum "Si O2"
_cell_formula_units_Z 64
_cell_length_a 16.545803
_cell_length_b 8.393832
_cell_length_c 24.097934
_cell_angle_alpha 90.000000
_cell_angle_beta 90.000000
_cell_angle_gamma 90.000000
_cell_volume 3346.785914
_symmetry_space_group_name_H-M "A M M 2"
_symmetry_group_IT_number 38
_symmetry_cell_setting 'orthorhombic'
loop_
_space_group_symop_operation_xyz
x,y,z
-x,-y,z
-x,y,z
x,-y,z
x,1/2+y,1/2+z
-x,1/2-y,1/2+z
-x,1/2+y,1/2+z
x,1/2-y,1/2+z
loop_
_atom_site_type_symbol
_atom_site_label
_atom_site_fract_x
_atom_site_fract_y
_atom_site_fract_z
Si Si1 0.406054 0.305314 0.407140
Si Si2 0.086923 0.189542 0.148814
Si Si3 0.243874 0.189019 0.845449
Si Si4 0.404629 0.679685 0.529547
Si Si5 0.905498 0.307104 0.920053
Si Si6 0.696379 0.314967 0.115825
Si Si7 0.154423 0.310683 0.040732
Si Si8 0.236990 0.311265 0.721796
O O1 0.500000 0.254125 0.395614
O O2 0.408715 0.500000 0.406778
O O3 0.331362 0.253044 0.368732
O O4 0.379177 0.256918 0.469347
O O5 0.091428 0.272308 0.089277
O O6 0.156502 0.245665 0.189682
O O7 0.000000 0.215398 0.174884
O O8 0.098212 0.000000 0.139816
O O9 0.163873 0.258418 0.875868
O O10 0.244249 0.227098 0.780312
O O11 0.241197 0.000000 0.854620
O O12 0.500000 0.666484 0.524125
O O13 0.372335 0.500000 0.538292
O O14 0.383645 0.788646 0.581052
O O15 0.907769 0.500000 0.921032
O O16 0.000000 0.255585 0.910630
O O17 0.873713 0.249076 0.980847
O O18 0.713210 0.500000 0.126439
O O19 0.763522 0.251646 0.071193
O O20 0.697222 0.225900 0.174348
O O21 0.163821 0.500000 0.034224
O O22 0.232045 0.500000 0.731308
#
# Coordination Sequence:
#
# PCOD9356927 Si02
#       8
#     8   8   8   8   8   8   8   8
#     4   8  16  33  57  83 109 138 172 212 265 328
#     4   9  18  32  51  74  97 126 168 215 261 309
#     4  11  22  36  56  80 105 136 180 232 275 311
#     4   9  17  31  53  80 108 137 168 202 249 317
#     4  10  21  36  53  75 108 149 183 211 257 323
#     4  10  19  32  52  78 106 134 169 216 266 311
#     4   9  18  32  51  76 104 134 169 210 259 315
#     4  10  21  37  54  71  99 140 180 216 258 314
#
# _framework density 19.122823
#
# number of rings (size 3 to 8) (size 9 to 14) (size 15 to 20)
#    0.000    2.500    0.000    3.000    0.000    3.250 
#    0.000    2.500    0.000    5.250    0.000    0.000 
#    0.000    0.000    0.000    0.000    0.000    0.000 
#
# Total GULP energy -178163.372684 kJ/mol
# GULP energy per Si atom -5567.605396 kJ/mol
# Density = 1.907930 g / cm^3
# Si number density = 19.122823 Si / 1000 Ang^3
#
#
#
# Elastic Constant Matrix: (Units=GPa)
#
#
# Indices 1 2 3 4 5 6 
#
# 1 51.1703 8.6233 55.9081 0.0000 0.0000 0.0000
# 2 8.6233 10.5908 6.3087 0.0000 0.0000 0.0000
# 3 55.9081 6.3087 130.8196 0.0000 0.0000 0.0000
# 4 0.0000 0.0000 0.0000 21.9389 0.0000 0.0000
# 5 0.0000 0.0000 0.0000 0.0000 13.4182 0.0000
# 6 0.0000 0.0000 0.0000 0.0000 0.0000 19.4420
#
#
#
# Elastic Compliance Matrix: (Units=1/GPa)
#
#
# Indices 1 2 3 4 5 6 
#
# 1 0.041908 -0.024148 -0.016746 0.000000 0.000000 0.000000
# 2 -0.024148 0.111129 0.004961 0.000000 0.000000 0.000000
# 3 -0.016746 0.004961 0.014561 0.000000 0.000000 0.000000
# 4 0.000000 0.000000 0.000000 0.045581 0.000000 0.000000
# 5 0.000000 0.000000 0.000000 0.000000 0.074526 0.000000
# 6 0.000000 0.000000 0.000000 0.000000 0.000000 0.051435
#
#
# Mechanical properties :
#
#
# Convention : Reuss Voigt Hill
#
# Bulk Modulus (GPa) = 10.44571 37.14010 23.79291
# Shear Modulus (GPa) = 11.28882 19.07586 15.18234
#
# Velocity S-wave (km/s) = 2.43231 3.16182 2.82075
# Velocity P-wave (km/s) = 3.65547 5.72656 4.80396
#
# Compressibility (1/GPa) = 0.09573309
#
# Stress axis : x y z
#
# Youngs Moduli (GPa) = 23.86175 8.99858 68.67459
#
# Poissons Ratio (x) = 0.21730 1.15000
# Poissons Ratio (y) = 0.57621 -0.34068
# Poissons Ratio (z) = 0.39958 -0.04464
#
# Static dielectric constant tensor:
#      x y z
#    x 1.756990 0.000000 0.000000 
#    y 0.000000 1.675010 0.000000 
#    z 0.000000 0.000000 1.649430 
# 
# From -- ./inp_files/21420.got.cif
#   From: 2010.05.17/outbox.cif.g08.bks.cpg/sg38_11_cif.got.tgz:21420.got - 2010.06.03 18:07:57.
