data_PCOD9356942
_publ_section_title
;
Structure prediction by ZEFSAII (Michael W. Deem and Ramdas Pophale) SiO2 
 PCOD9356942
Probable space group: A M M 2
;
_chemical_formula_sum "Si O2"
_cell_formula_units_Z 64
_cell_length_a 11.721087
_cell_length_b 31.324068
_cell_length_c 10.363964
_cell_angle_alpha 90.000000
_cell_angle_beta 90.000000
_cell_angle_gamma 90.000000
_cell_volume 3805.151419
_symmetry_space_group_name_H-M "A M M 2"
_symmetry_group_IT_number 38
_symmetry_cell_setting 'orthorhombic'
loop_
_space_group_symop_operation_xyz
x,y,z
-x,-y,z
-x,y,z
x,-y,z
x,1/2+y,1/2+z
-x,1/2-y,1/2+z
-x,1/2+y,1/2+z
x,1/2-y,1/2+z
loop_
_atom_site_type_symbol
_atom_site_label
_atom_site_fract_x
_atom_site_fract_y
_atom_site_fract_z
Si Si1 0.226341 0.133395 0.009500
Si Si2 0.866597 0.550803 0.094137
Si Si3 0.634881 0.399543 0.022754
Si Si4 0.369678 0.653805 0.760109
Si Si5 0.739925 0.755072 0.284626
Si Si6 0.134560 0.952595 0.902009
Si Si7 0.127212 0.776490 0.031273
Si Si8 0.367868 0.164395 0.763565
O O1 0.293332 0.137154 0.143119
O O2 0.135999 0.172254 0.014625
O O3 0.182489 0.086017 0.984842
O O4 0.303013 0.145069 0.885922
O O5 0.865435 0.500000 0.068431
O O6 0.750039 0.571135 0.034320
O O7 0.853124 0.556571 0.248987
O O8 0.000000 0.565388 0.062092
O O9 0.500000 0.416491 0.031406
O O10 0.646370 0.365617 0.139317
O O11 0.642564 0.374642 0.887656
O O12 0.500000 0.652474 0.717313
O O13 0.336491 0.702681 0.790054
O O14 0.833541 0.764709 0.174971
O O15 0.791697 0.744653 0.424396
O O16 0.675501 0.712330 0.240551
O O17 0.000000 0.954570 0.926201
O O18 0.183561 0.000000 0.927570
O O19 0.000000 0.761554 0.007566
O O20 0.500000 0.166421 0.795946
#
# Coordination Sequence:
#
# PCOD9356942 Si02
#       8
#     8   8   8   8   8   8   8   8
#     4  10  19  33  53  77 104 136 175 212 265 318
#     4   9  18  35  59  85 110 137 175 221 269 324
#     4  10  20  35  54  81 113 142 178 224 272 319
#     4  10  21  36  53  73 106 145 178 219 269 319
#     4  10  20  34  52  72  99 137 180 217 259 311
#     4   9  17  32  56  82 107 134 170 218 265 315
#     4  10  20  33  49  72 104 137 171 216 263 314
#     4  10  19  32  53  77 101 130 177 229 262 304
#
# _framework density 16.819303000000001
#
# number of rings (size 3 to 8) (size 9 to 14) (size 15 to 20)
#    0.000    2.250    1.250    3.000    0.000    0.250 
#    0.000   10.000    0.000    3.750    0.000    0.000 
#    0.000    0.000    0.000    0.000    0.000    0.000 
#
# Total GULP energy -178156.620858 kJ/mol
# GULP energy per Si atom -5567.394402 kJ/mol
# Density = 1.678102 g / cm^3
# Si number density = 16.819303 Si / 1000 Ang^3
#
#
#
# Elastic Constant Matrix: (Units=GPa)
#
#
# Indices 1 2 3 4 5 6 
#
# 1 88.6108 42.3500 22.5172 0.0000 0.0000 0.0000
# 2 42.3500 86.5257 22.8331 0.0000 0.0000 0.0000
# 3 22.5172 22.8331 63.6394 0.0000 0.0000 0.0000
# 4 0.0000 0.0000 0.0000 33.3837 0.0000 0.0000
# 5 0.0000 0.0000 0.0000 0.0000 9.0625 0.0000
# 6 0.0000 0.0000 0.0000 0.0000 0.0000 9.2135
#
#
#
# Elastic Compliance Matrix: (Units=1/GPa)
#
#
# Indices 1 2 3 4 5 6 
#
# 1 0.015232 -0.006664 -0.002999 0.000000 0.000000 0.000000
# 2 -0.006664 0.015682 -0.003268 0.000000 0.000000 0.000000
# 3 -0.002999 -0.003268 0.017947 0.000000 0.000000 0.000000
# 4 0.000000 0.000000 0.000000 0.029955 0.000000 0.000000
# 5 0.000000 0.000000 0.000000 0.000000 0.110345 0.000000
# 6 0.000000 0.000000 0.000000 0.000000 0.000000 0.108536
#
#
# Mechanical properties :
#
#
# Convention : Reuss Voigt Hill
#
# Bulk Modulus (GPa) = 43.48061 46.01962 44.75011
# Shear Modulus (GPa) = 15.09547 20.40365 17.74956
#
# Velocity S-wave (km/s) = 2.99909 3.48675 3.25208
# Velocity P-wave (km/s) = 6.15634 6.60534 6.38479
#
# Compressibility (1/GPa) = 0.02299876
#
# Stress axis : x y z
#
# Youngs Moduli (GPa) = 65.65000 63.76933 55.71914
#
# Poissons Ratio (x) = 0.42497 0.16708
# Poissons Ratio (y) = 0.43750 0.18211
# Poissons Ratio (z) = 0.19685 0.20842
#
# Static dielectric constant tensor:
#      x y z
#    x 1.573690 0.000000 0.000000 
#    y 0.000000 1.556440 0.000000 
#    z 0.000000 0.000000 1.550490 
# 
# From -- ./inp_files/4921.got.cif
#   From: 2010.05.17/outbox.cif.g08.bks.cpg/sg38_3_cif.got.tgz:4921.got - 2010.06.03 18:07:57.
