data_PCOD9356772
_publ_section_title
;
Structure prediction by ZEFSAII (Michael W. Deem and Ramdas Pophale) SiO2 
 PCOD9356772
Probable space group: A M M 2
;
_chemical_formula_sum "Si O2"
_cell_formula_units_Z 64
_cell_length_a 8.646962
_cell_length_b 21.161746
_cell_length_c 20.291821
_cell_angle_alpha 90.000000
_cell_angle_beta 90.000000
_cell_angle_gamma 90.000000
_cell_volume 3713.095082
_symmetry_space_group_name_H-M "A M M 2"
_symmetry_group_IT_number 38
_symmetry_cell_setting 'orthorhombic'
loop_
_space_group_symop_operation_xyz
x,y,z
-x,-y,z
-x,y,z
x,-y,z
x,1/2+y,1/2+z
-x,1/2-y,1/2+z
-x,1/2+y,1/2+z
x,1/2-y,1/2+z
loop_
_atom_site_type_symbol
_atom_site_label
_atom_site_fract_x
_atom_site_fract_y
_atom_site_fract_z
Si Si1 0.685755 0.810410 0.830050
Si Si2 0.314360 0.232614 0.543767
Si Si3 0.183839 0.689468 0.908502
Si Si4 0.687310 0.733917 0.189714
Si Si5 0.813667 0.570412 0.407532
Si Si6 0.686099 0.881837 0.186297
Si Si7 0.184608 0.625462 0.547761
Si Si8 0.686839 0.429004 0.829211
O O1 0.500000 0.808516 0.831397
O O2 0.746500 0.749846 0.870174
O O3 0.739971 0.803104 0.754272
O O4 0.743302 0.874168 0.863804
O O5 0.500000 0.229073 0.539282
O O6 0.240500 0.194946 0.483717
O O7 0.263526 0.211523 0.617194
O O8 0.264512 0.306128 0.538938
O O9 0.241256 0.625874 0.873331
O O10 0.000000 0.693420 0.906005
O O11 0.500000 0.732217 0.189692
O O12 0.729486 0.807945 0.196268
O O13 0.762545 0.500000 0.388876
O O14 0.775686 0.584049 0.484086
O O15 0.000000 0.573455 0.402115
O O16 0.500000 0.885084 0.179397
O O17 0.760795 0.902380 0.117536
O O18 0.730456 0.918162 0.252561
O O19 0.000000 0.634592 0.549041
O O20 0.500000 0.423111 0.832349
O O21 0.729698 0.500000 0.849519
#
# Coordination Sequence:
#
# PCOD9356772 Si02
#       8
#     8   8   8   8   8   8   8   8
#     4  11  20  35  59  83 106 138 183 230 269 318
#     4  10  19  34  56  80 107 141 179 227 274 319
#     4  12  23  35  54  83 114 144 179 224 279 333
#     4   8  16  31  53  80 107 133 171 223 275 314
#     4  10  22  38  52  73 111 151 182 220 272 325
#     4   9  17  32  51  75 108 144 181 221 267 319
#     4  10  19  31  49  76 109 146 185 222 265 321
#     4  10  21  38  58  79 107 147 191 232 274 322
#
# _framework density 17.236294999999998
#
# number of rings (size 3 to 8) (size 9 to 14) (size 15 to 20)
#    0.000    2.000    2.500    3.000    0.000    2.000 
#    0.000    1.875    0.000    0.750    0.000    1.750 
#    0.000    0.000    0.000    0.000    0.000    0.000 
#
# Total GULP energy -178577.969230 kJ/mol
# GULP energy per Si atom -5580.561538 kJ/mol
# Density = 1.719706 g / cm^3
# Si number density = 17.236295 Si / 1000 Ang^3
#
#
#
# Elastic Constant Matrix: (Units=GPa)
#
#
# Indices 1 2 3 4 5 6 
#
# 1 42.9624 38.7548 37.1641 0.0000 0.0000 0.0000
# 2 38.7548 116.2776 77.2794 0.0000 0.0000 0.0000
# 3 37.1641 77.2794 140.1680 0.0000 0.0000 0.0000
# 4 0.0000 0.0000 0.0000 20.9722 0.0000 0.0000
# 5 0.0000 0.0000 0.0000 0.0000 -8.0618 0.0000
# 6 0.0000 0.0000 0.0000 0.0000 0.0000 19.4702
#
#
#
# Elastic Compliance Matrix: (Units=1/GPa)
#
#
# Indices 1 2 3 4 5 6 
#
# 1 0.034989 -0.008675 -0.004494 0.000000 0.000000 0.000000
# 2 -0.008675 0.015725 -0.006369 0.000000 0.000000 0.000000
# 3 -0.004494 -0.006369 0.011838 0.000000 0.000000 0.000000
# 4 0.000000 0.000000 0.000000 0.047682 0.000000 0.000000
# 5 0.000000 0.000000 0.000000 0.000000 -0.124041 0.000000
# 6 0.000000 0.000000 0.000000 0.000000 0.000000 0.051360
#
#
# Mechanical properties :
#
#
# Convention : Reuss Voigt Hill
#
# Bulk Modulus (GPa) = 42.59992 67.31161 54.95576
# Shear Modulus (GPa) = 59.20346 16.22344 37.71345
#
# Velocity S-wave (km/s) = 5.86709 3.07129 4.68271
# Velocity P-wave (km/s) = 8.40630 7.19125 7.82240
#
# Compressibility (1/GPa) = 0.02347422
#
# Stress axis : x y z
#
# Youngs Moduli (GPa) = 28.58038 63.59468 84.47646
#
# Poissons Ratio (x) = 0.55167 0.37966
# Poissons Ratio (y) = 0.24793 0.53807
# Poissons Ratio (z) = 0.12845 0.40507
#
# Static dielectric constant tensor:
#      x y z
#    x 1.583340 0.000000 0.000000 
#    y 0.000000 1.561740 0.000000 
#    z 0.000000 0.000000 1.602820 
# 
# From -- ./inp_files/20014.got.cif
#   From: 2010.05.17/outbox.cif.g08.bks.cpg/sg38_11_cif.got.tgz:20014.got - 2010.06.03 18:07:57.
