data_PCOD9356579
_publ_section_title
;
Structure prediction by ZEFSAII (Michael W. Deem and Ramdas Pophale) SiO2 
 PCOD9356579
Probable space group: A M M 2
;
_chemical_formula_sum "Si O2"
_cell_formula_units_Z 64
_cell_length_a 20.173244
_cell_length_b 8.864207
_cell_length_c 20.811555
_cell_angle_alpha 90.000000
_cell_angle_beta 90.000000
_cell_angle_gamma 90.000000
_cell_volume 3721.518325
_symmetry_space_group_name_H-M "A M M 2"
_symmetry_group_IT_number 38
_symmetry_cell_setting 'orthorhombic'
loop_
_space_group_symop_operation_xyz
x,y,z
-x,-y,z
-x,y,z
x,-y,z
x,1/2+y,1/2+z
-x,1/2-y,1/2+z
-x,1/2+y,1/2+z
x,1/2-y,1/2+z
loop_
_atom_site_type_symbol
_atom_site_label
_atom_site_fract_x
_atom_site_fract_y
_atom_site_fract_z
Si Si1 0.285076 0.316780 0.852330
Si Si2 0.428810 0.821804 0.361787
Si Si3 0.923156 0.319462 0.530370
Si Si4 0.078779 0.678033 0.768821
Si Si5 0.427174 0.822521 0.205976
Si Si6 0.290211 0.819798 0.709704
Si Si7 0.846753 0.320706 0.150068
Si Si8 0.144307 0.818969 0.405556
O O1 0.286969 0.500000 0.847332
O O2 0.356081 0.263430 0.880596
O O3 0.278222 0.253574 0.779982
O O4 0.221052 0.275979 0.893992
O O5 0.500000 0.756349 0.383670
O O6 0.428168 0.811541 0.283954
O O7 0.429942 0.000000 0.377792
O O8 0.922739 0.500000 0.531134
O O9 0.881159 0.258940 0.590227
O O10 0.890279 0.260277 0.465075
O O11 0.000000 0.268745 0.534910
O O12 0.093201 0.500000 0.757376
O O13 0.113970 0.774354 0.714238
O O14 0.106436 0.715860 0.839155
O O15 0.000000 0.698318 0.766738
O O16 0.500000 0.769894 0.183398
O O17 0.361836 0.734742 0.185051
O O18 0.420749 0.000000 0.190893
O O19 0.229670 0.777051 0.663228
O O20 0.290279 0.000000 0.717263
O O21 0.849564 0.500000 0.140686
O O22 0.141319 0.000000 0.414966
#
# Coordination Sequence:
#
# PCOD9356579 Si02
#       8
#     8   8   8   8   8   8   8   8
#     4   9  16  28  48  72 100 137 174 207 248 302
#     4   7  10  18  35  62  95 128 163 200 234 275
#     4  11  25  42  58  76 100 132 172 220 272 324
#     4  10  20  34  54  79 104 132 169 211 259 316
#     4   8  14  25  42  65  96 136 176 209 247 300
#     4  10  19  29  45  73 106 136 168 212 261 304
#     4  11  23  37  54  77 105 138 174 214 263 315
#     4  10  20  35  56  79 104 136 172 213 262 315
#
# _framework density 17.197282000000001
#
# number of rings (size 3 to 8) (size 9 to 14) (size 15 to 20)
#    0.000    2.500    1.250    3.375    0.000    6.000 
#    0.000    0.000    0.000    0.000    0.000    0.875 
#    0.000    5.000    0.000    0.000    0.000    0.000 
#
# Total GULP energy -178325.147195 kJ/mol
# GULP energy per Si atom -5572.660850 kJ/mol
# Density = 1.715814 g / cm^3
# Si number density = 17.197282 Si / 1000 Ang^3
#
#
#
# Elastic Constant Matrix: (Units=GPa)
#
#
# Indices 1 2 3 4 5 6 
#
# 1 161.2151 43.5178 52.0391 0.0000 0.0000 0.0000
# 2 43.5178 25.6067 26.2624 0.0000 0.0000 0.0000
# 3 52.0391 26.2624 65.5292 0.0000 0.0000 0.0000
# 4 0.0000 0.0000 0.0000 23.9048 0.0000 0.0000
# 5 0.0000 0.0000 0.0000 0.0000 12.8423 0.0000
# 6 0.0000 0.0000 0.0000 0.0000 0.0000 24.2869
#
#
#
# Elastic Compliance Matrix: (Units=1/GPa)
#
#
# Indices 1 2 3 4 5 6 
#
# 1 0.011650 -0.017506 -0.002236 0.000000 0.000000 0.000000
# 2 -0.017506 0.092611 -0.023214 0.000000 0.000000 0.000000
# 3 -0.002236 -0.023214 0.026340 0.000000 0.000000 0.000000
# 4 0.000000 0.000000 0.000000 0.041833 0.000000 0.000000
# 5 0.000000 0.000000 0.000000 0.000000 0.077868 0.000000
# 6 0.000000 0.000000 0.000000 0.000000 0.000000 0.041174
#
#
# Mechanical properties :
#
#
# Convention : Reuss Voigt Hill
#
# Bulk Modulus (GPa) = 22.37673 55.10995 38.74334
# Shear Modulus (GPa) = 12.74586 20.90891 16.82738
#
# Velocity S-wave (km/s) = 2.72537 3.49065 3.13148
# Velocity P-wave (km/s) = 4.78994 6.95424 5.97097
#
# Compressibility (1/GPa) = 0.04468927
#
# Stress axis : x y z
#
# Youngs Moduli (GPa) = 85.83641 10.79780 37.96560
#
# Poissons Ratio (x) = 0.18902 0.08489
# Poissons Ratio (y) = 1.50263 0.88134
# Poissons Ratio (z) = 0.19192 0.25066
#
# Static dielectric constant tensor:
#      x y z
#    x 1.640470 0.000000 0.000000 
#    y 0.000000 1.578920 0.000000 
#    z 0.000000 0.000000 1.543670 
# 
# From -- ./inp_files/18934.got.cif
#   From: 2010.05.17/outbox.cif.g08.bks.cpg/sg38_10_cif.got.tgz:18934.got - 2010.06.03 18:07:57.
