data_PCOD9356466
_publ_section_title
;
Structure prediction by ZEFSAII (Michael W. Deem and Ramdas Pophale) SiO2 
 PCOD9356466
Probable space group: A M M 2
;
_chemical_formula_sum "Si O2"
_cell_formula_units_Z 48
_cell_length_a 10.427345
_cell_length_b 8.203853
_cell_length_c 28.221345
_cell_angle_alpha 90.000000
_cell_angle_beta 90.000000
_cell_angle_gamma 90.000000
_cell_volume 2414.178182
_symmetry_space_group_name_H-M "A M M 2"
_symmetry_group_IT_number 38
_symmetry_cell_setting 'orthorhombic'
loop_
_space_group_symop_operation_xyz
x,y,z
-x,-y,z
-x,y,z
x,-y,z
x,1/2+y,1/2+z
-x,1/2-y,1/2+z
-x,1/2+y,1/2+z
x,1/2-y,1/2+z
loop_
_atom_site_type_symbol
_atom_site_label
_atom_site_fract_x
_atom_site_fract_y
_atom_site_fract_z
Si Si1 0.272507 0.699185 0.535440
Si Si2 0.000000 0.195633 0.184200
Si Si3 0.227458 0.804617 0.752037
Si Si4 0.500000 0.197248 0.104997
Si Si5 0.856055 0.194248 0.356154
Si Si6 0.644134 0.196467 0.930800
Si Si7 0.000000 0.800775 0.074863
Si Si8 0.500000 0.696097 0.213560
O O1 0.273323 0.500000 0.535033
O O2 0.374996 0.749236 0.575241
O O3 0.316194 0.753436 0.483393
O O4 0.129863 0.752640 0.549093
O O5 0.874847 0.254697 0.212227
O O6 0.000000 0.250903 0.129714
O O7 0.000000 0.000000 0.184553
O O8 0.181946 0.739755 0.802684
O O9 0.369210 0.743978 0.737963
O O10 0.230438 0.000000 0.754737
O O11 0.500000 0.259996 0.158277
O O12 0.500000 0.000000 0.106641
O O13 0.749817 0.256573 0.392510
O O14 0.000000 0.258319 0.366244
O O15 0.859753 0.000000 0.359756
O O16 0.500000 0.254475 0.919186
O O17 0.639763 0.000000 0.932456
O O18 0.000000 0.000000 0.074646
O O19 0.500000 0.500000 0.217511
#
# Coordination Sequence:
#
# PCOD9356466 Si02
#       8
#     8   4   8   4   8   8   4   4
#     4   9  17  32  54  85 118 151 195 242 284 338
#     4  11  21  37  60  91 124 155 196 247 296 347
#     4  11  23  41  63  86 117 158 200 243 294 354
#     4  10  18  34  59  84 115 155 198 243 293 344
#     4  11  25  43  62  87 118 150 194 250 301 353
#     4  10  21  38  62  91 121 154 196 243 291 350
#     4   9  18  29  50  85 120 151 190 239 286 335
#     4  10  24  40  57  88 123 155 198 247 289 346
#
# _framework density 19.882541
#
# number of rings (size 3 to 8) (size 9 to 14) (size 15 to 20)
#    0.000    1.833    1.667    2.250    2.333    4.000 
#    0.000    0.833    0.000    2.000    0.000    0.000 
#    0.000    0.000    0.000    0.000    0.000    0.000 
#
# Total GULP energy -134109.224502 kJ/mol
# GULP energy per Si atom -5587.884354 kJ/mol
# Density = 1.983729 g / cm^3
# Si number density = 19.882541 Si / 1000 Ang^3
#
#
#
# Elastic Constant Matrix: (Units=GPa)
#
#
# Indices 1 2 3 4 5 6 
#
# 1 223.6334 16.9910 87.6765 0.0000 0.0000 0.0000
# 2 16.9910 14.1884 8.6870 0.0000 0.0000 0.0000
# 3 87.6765 8.6870 115.0902 0.0000 0.0000 0.0000
# 4 0.0000 0.0000 0.0000 26.5356 0.0000 0.0000
# 5 0.0000 0.0000 0.0000 0.0000 43.7257 0.0000
# 6 0.0000 0.0000 0.0000 0.0000 0.0000 7.0139
#
#
#
# Elastic Compliance Matrix: (Units=1/GPa)
#
#
# Indices 1 2 3 4 5 6 
#
# 1 0.006716 -0.005148 -0.004728 0.000000 0.000000 0.000000
# 2 -0.005148 0.077841 -0.001953 0.000000 0.000000 0.000000
# 3 -0.004728 -0.001953 0.012438 0.000000 0.000000 0.000000
# 4 0.000000 0.000000 0.000000 0.037685 0.000000 0.000000
# 5 0.000000 0.000000 0.000000 0.000000 0.022870 0.000000
# 6 0.000000 0.000000 0.000000 0.000000 0.000000 0.142574
#
#
# Mechanical properties :
#
#
# Convention : Reuss Voigt Hill
#
# Bulk Modulus (GPa) = 13.63585 64.40235 39.01910
# Shear Modulus (GPa) = 14.35835 31.42554 22.89195
#
# Velocity S-wave (km/s) = 2.69022 3.97994 3.39685
# Velocity P-wave (km/s) = 4.06482 7.31995 5.92049
#
# Compressibility (1/GPa) = 0.07333608
#
# Stress axis : x y z
#
# Youngs Moduli (GPa) = 148.88958 12.84669 80.39802
#
# Poissons Ratio (x) = 0.06614 0.38012
# Poissons Ratio (y) = 0.76652 0.15706
# Poissons Ratio (z) = 0.70395 0.02510
#
# Static dielectric constant tensor:
#      x y z
#    x 1.699520 0.000000 0.000000 
#    y 0.000000 1.703020 0.000000 
#    z 0.000000 0.000000 1.651720 
# 
# From -- ./inp_files/24476.got.cif
#   From: 2010.05.17/outbox.cif.g08.bks.cpg/sg38_13_cif.got.tgz:24476.got - 2010.06.03 18:07:57.
