data_PCOD9356363
_publ_section_title
;
Structure prediction by ZEFSAII (Michael W. Deem and Ramdas Pophale) SiO2 
 PCOD9356363
Probable space group: A M M 2
;
_chemical_formula_sum "Si O2"
_cell_formula_units_Z 64
_cell_length_a 16.812085
_cell_length_b 20.881960
_cell_length_c 10.890332
_cell_angle_alpha 90.000000
_cell_angle_beta 90.000000
_cell_angle_gamma 90.000000
_cell_volume 3823.261085
_symmetry_space_group_name_H-M "A M M 2"
_symmetry_group_IT_number 38
_symmetry_cell_setting 'orthorhombic'
loop_
_space_group_symop_operation_xyz
x,y,z
-x,-y,z
-x,y,z
x,-y,z
x,1/2+y,1/2+z
-x,1/2-y,1/2+z
-x,1/2+y,1/2+z
x,1/2-y,1/2+z
loop_
_atom_site_type_symbol
_atom_site_label
_atom_site_fract_x
_atom_site_fract_y
_atom_site_fract_z
Si Si1 0.905674 0.193385 0.533410
Si Si2 0.321243 0.234658 0.768751
Si Si3 0.215663 0.383164 0.205535
Si Si4 0.201407 0.149842 0.308916
Si Si5 0.088527 0.841263 0.101934
Si Si6 0.913438 0.068820 0.874688
Si Si7 0.316534 0.926427 0.479969
Si Si8 0.405409 0.792581 0.506265
O O1 0.852574 0.153315 0.627979
O O2 0.862107 0.180861 0.403821
O O3 0.897504 0.266516 0.577161
O O4 0.000000 0.178155 0.529636
O O5 0.269296 0.169621 0.775274
O O6 0.261070 0.294386 0.766220
O O7 0.367757 0.228599 0.638109
O O8 0.372779 0.249956 0.891453
O O9 0.163908 0.427061 0.292562
O O10 0.271382 0.420252 0.110194
O O11 0.152444 0.128340 0.191536
O O12 0.251864 0.095465 0.377964
O O13 0.000000 0.848539 0.155072
O O14 0.090201 0.874967 0.971436
O O15 0.000000 0.074141 0.808783
O O16 0.914115 0.000000 0.938973
O O17 0.378909 0.866896 0.482162
O O18 0.343884 0.000000 0.461893
O O19 0.500000 0.787957 0.512337
#
# Coordination Sequence:
#
# PCOD9356363 Si02
#       8
#     8   8   8   8   8   8   8   8
#     4  10  19  30  48  75 103 136 177 222 269 303
#     4  10  20  33  56  83 108 134 168 209 269 324
#     4  10  18  32  54  73 102 132 171 224 259 299
#     4  10  19  32  50  71 106 135 171 216 258 305
#     4  10  20  30  46  69 100 137 174 216 260 301
#     4  10  21  33  45  66  99 141 182 214 249 294
#     4   9  20  35  53  78 100 133 173 209 252 305
#     4  10  21  37  58  84 110 136 162 209 266 330
#
# _framework density 16.739636999999998
#
# number of rings (size 3 to 8) (size 9 to 14) (size 15 to 20)
#    0.000    2.125    1.250    3.000    1.750    0.750 
#    0.000    0.000    0.000    7.125    0.000    0.000 
#    0.000    9.500    0.000    0.000    0.000    0.000 
#
# Total GULP energy -178218.988970 kJ/mol
# GULP energy per Si atom -5569.343405 kJ/mol
# Density = 1.670154 g / cm^3
# Si number density = 16.739637 Si / 1000 Ang^3
#
#
#
# Elastic Constant Matrix: (Units=GPa)
#
#
# Indices 1 2 3 4 5 6 
#
# 1 95.2380 25.7753 39.6640 0.0000 0.0000 0.0000
# 2 25.7753 71.9965 27.2237 0.0000 0.0000 0.0000
# 3 39.6640 27.2237 63.1887 0.0000 0.0000 0.0000
# 4 0.0000 0.0000 0.0000 171.7137 0.0000 0.0000
# 5 0.0000 0.0000 0.0000 0.0000 24.9930 0.0000
# 6 0.0000 0.0000 0.0000 0.0000 0.0000 14.8209
#
#
#
# Elastic Compliance Matrix: (Units=1/GPa)
#
#
# Indices 1 2 3 4 5 6 
#
# 1 0.014474 -0.002086 -0.008187 0.000000 0.000000 0.000000
# 2 -0.002086 0.016893 -0.005969 0.000000 0.000000 0.000000
# 3 -0.008187 -0.005969 0.023536 0.000000 0.000000 0.000000
# 4 0.000000 0.000000 0.000000 0.005824 0.000000 0.000000
# 5 0.000000 0.000000 0.000000 0.000000 0.040011 0.000000
# 6 0.000000 0.000000 0.000000 0.000000 0.000000 0.067472
#
#
# Mechanical properties :
#
#
# Convention : Reuss Voigt Hill
#
# Bulk Modulus (GPa) = 44.60249 46.19434 45.39841
# Shear Modulus (GPa) = 24.01916 51.48954 37.75435
#
# Velocity S-wave (km/s) = 3.79207 5.55210 4.75424
# Velocity P-wave (km/s) = 6.77317 8.29197 7.57075
#
# Compressibility (1/GPa) = 0.02242027
#
# Stress axis : x y z
#
# Youngs Moduli (GPa) = 69.08857 59.19488 42.48820
#
# Poissons Ratio (x) = 0.12350 0.34784
# Poissons Ratio (y) = 0.14414 0.25360
# Poissons Ratio (z) = 0.56561 0.35331
#
# Static dielectric constant tensor:
#      x y z
#    x 1.567160 0.000000 0.000000 
#    y 0.000000 1.541130 0.000000 
#    z 0.000000 0.000000 1.583590 
# 
# From -- ./inp_files/10237.got.cif
#   From: 2010.05.17/outbox.cif.g08.bks.cpg/sg38_6_cif.got.tgz:10237.got - 2010.06.03 18:07:57.
