data_PCOD9356906
_publ_section_title
;
Structure prediction by ZEFSAII (Michael W. Deem and Ramdas Pophale) SiO2 
 PCOD9356906
Probable space group: A M M 2
;
_chemical_formula_sum "Si O2"
_cell_formula_units_Z 56
_cell_length_a 7.524910
_cell_length_b 15.014560
_cell_length_c 23.021717
_cell_angle_alpha 90.000000
_cell_angle_beta 90.000000
_cell_angle_gamma 90.000000
_cell_volume 2601.067548
_symmetry_space_group_name_H-M "A M M 2"
_symmetry_group_IT_number 38
_symmetry_cell_setting 'orthorhombic'
loop_
_space_group_symop_operation_xyz
x,y,z
-x,-y,z
-x,y,z
x,-y,z
x,1/2+y,1/2+z
-x,1/2-y,1/2+z
-x,1/2+y,1/2+z
x,1/2-y,1/2+z
loop_
_atom_site_type_symbol
_atom_site_label
_atom_site_fract_x
_atom_site_fract_y
_atom_site_fract_z
Si Si1 0.292576 0.099896 0.992520
Si Si2 0.706493 0.277646 0.593434
Si Si3 0.785364 0.398159 0.701450
Si Si4 0.782697 0.100810 0.335012
Si Si5 0.282624 0.899966 0.644582
Si Si6 0.203586 0.720446 0.385869
Si Si7 0.285317 0.601859 0.278149
O O1 0.500000 0.089184 0.007331
O O2 0.286104 0.155189 0.933106
O O3 0.217252 0.000000 0.987044
O O4 0.212117 0.159692 0.043994
O O5 0.500000 0.263447 0.577721
O O6 0.714136 0.329872 0.654397
O O7 0.783030 0.179656 0.604266
O O8 0.734299 0.500000 0.686578
O O9 0.729348 0.381496 0.767995
O O10 0.000000 0.393602 0.700036
O O11 0.719721 0.180866 0.375850
O O12 0.000000 0.102409 0.335335
O O13 0.728687 0.000000 0.350250
O O14 0.500000 0.899161 0.644508
O O15 0.230387 0.882437 0.711597
O O16 0.227233 0.000000 0.628848
O O17 0.211255 0.671366 0.323817
O O18 0.000000 0.730962 0.404049
O O19 0.500000 0.606989 0.280552
O O20 0.235576 0.500000 0.293490
#
# Coordination Sequence:
#
# PCOD9356906 Si02
#       7
#     8   8   8   8   8   8   8
#     4  10  22  38  51  66  96 134 163 193 242 295
#     4  10  19  32  52  74  96 127 166 203 236 277
#     4   9  17  30  50  75 102 130 156 188 239 297
#     4   8  16  32  51  72 100 130 156 188 241 301
#     4   8  15  29  50  76 102 127 157 193 237 290
#     4  11  21  32  51  75  95 123 167 210 238 271
#     4   9  17  30  49  73 103 135 158 184 237 300
#
# _framework density 21.529623000000001
#
# number of rings (size 3 to 8) (size 9 to 14) (size 15 to 20)
#    0.000    2.714    0.000    3.857    0.000    3.714 
#    0.000    1.429    0.000    5.571    0.000    0.000 
#    0.000    0.000    0.000    0.000    0.000    0.000 
#
# Total GULP energy -156301.404574 kJ/mol
# GULP energy per Si atom -5582.193020 kJ/mol
# Density = 2.148062 g / cm^3
# Si number density = 21.529623 Si / 1000 Ang^3
#
#
#
# Elastic Constant Matrix: (Units=GPa)
#
#
# Indices 1 2 3 4 5 6 
#
# 1 50.5342 0.7723 2.1139 0.0000 0.0000 0.0000
# 2 0.7723 194.4882 99.5246 0.0000 0.0000 0.0000
# 3 2.1139 99.5246 67.9033 0.0000 0.0000 0.0000
# 4 0.0000 0.0000 0.0000 26.3780 0.0000 0.0000
# 5 0.0000 0.0000 0.0000 0.0000 21.3993 0.0000
# 6 0.0000 0.0000 0.0000 0.0000 0.0000 6.8936
#
#
#
# Elastic Compliance Matrix: (Units=1/GPa)
#
#
# Indices 1 2 3 4 5 6 
#
# 1 0.019858 0.000950 -0.002011 0.000000 0.000000 0.000000
# 2 0.000950 0.020614 -0.030244 0.000000 0.000000 0.000000
# 3 -0.002011 -0.030244 0.059117 0.000000 0.000000 0.000000
# 4 0.000000 0.000000 0.000000 0.037910 0.000000 0.000000
# 5 0.000000 0.000000 0.000000 0.000000 0.046730 0.000000
# 6 0.000000 0.000000 0.000000 0.000000 0.000000 0.145061
#
#
# Mechanical properties :
#
#
# Convention : Reuss Voigt Hill
#
# Bulk Modulus (GPa) = 27.04094 57.52747 42.28421
# Shear Modulus (GPa) = 12.36927 24.96853 18.66890
#
# Velocity S-wave (km/s) = 2.39952 3.40917 2.94790
# Velocity P-wave (km/s) = 4.50156 6.50191 5.59191
#
# Compressibility (1/GPa) = 0.03698096
#
# Stress axis : x y z
#
# Youngs Moduli (GPa) = 50.35708 48.50966 16.91555
#
# Poissons Ratio (x) = -0.04609 0.03401
# Poissons Ratio (y) = -0.04784 0.51159
# Poissons Ratio (z) = 0.10125 1.46712
#
# Static dielectric constant tensor:
#      x y z
#    x 1.827500 0.000000 0.000000 
#    y 0.000000 1.803060 0.000000 
#    z 0.000000 0.000000 1.738360 
# 
# From -- ./inp_files/19774.got.cif
#   From: 2010.05.17/outbox.cif.g08.bks.cpg/sg38_10_cif.got.tgz:19774.got - 2010.06.03 18:07:57.
