data_PCOD9356432
_publ_section_title
;
Structure prediction by ZEFSAII (Michael W. Deem and Ramdas Pophale) SiO2 
 PCOD9356432
Probable space group: A M M 2
;
_chemical_formula_sum "Si O2"
_cell_formula_units_Z 48
_cell_length_a 7.848380
_cell_length_b 19.039256
_cell_length_c 15.237428
_cell_angle_alpha 90.000000
_cell_angle_beta 90.000000
_cell_angle_gamma 90.000000
_cell_volume 2276.887969
_symmetry_space_group_name_H-M "A M M 2"
_symmetry_group_IT_number 38
_symmetry_cell_setting 'orthorhombic'
loop_
_space_group_symop_operation_xyz
x,y,z
-x,-y,z
-x,y,z
x,-y,z
x,1/2+y,1/2+z
-x,1/2-y,1/2+z
-x,1/2+y,1/2+z
x,1/2-y,1/2+z
loop_
_atom_site_type_symbol
_atom_site_label
_atom_site_fract_x
_atom_site_fract_y
_atom_site_fract_z
Si Si1 0.704422 0.348187 0.396010
Si Si2 0.204518 0.883346 0.502371
Si Si3 0.793747 0.924035 0.305607
Si Si4 0.299650 0.000000 0.839844
Si Si5 0.197791 0.729341 0.756098
Si Si6 0.303615 0.764759 0.059567
Si Si7 0.793728 0.500000 0.139499
O O1 0.500000 0.352623 0.404578
O O2 0.772584 0.425662 0.373338
O O3 0.733262 0.291126 0.318559
O O4 0.770327 0.320104 0.489777
O O5 0.238338 0.919714 0.409740
O O6 0.293094 0.808882 0.508960
O O7 0.000000 0.872619 0.507264
O O8 0.256589 0.932371 0.582871
O O9 0.728320 0.849433 0.269380
O O10 0.000000 0.924524 0.292836
O O11 0.730094 0.000000 0.272150
O O12 0.500000 0.000000 0.862529
O O13 0.281931 0.000000 0.735270
O O14 0.214429 0.744899 0.653006
O O15 0.000000 0.724934 0.780994
O O16 0.500000 0.782184 0.078564
O O17 0.000000 0.500000 0.145802
#
# Coordination Sequence:
#
# PCOD9356432 Si02
#       7
#     8   8   8   4   8   8   4
#     4  10  22  41  62  82 113 154 194 239 287 338
#     4  10  18  33  57  84 113 145 185 230 281 340
#     4   9  17  33  57  84 115 148 181 228 285 336
#     4  10  22  40  58  77 108 152 195 234 283 338
#     4  11  22  37  62  89 115 149 192 238 285 341
#     4  11  23  38  57  83 116 153 192 235 284 340
#     4  10  20  32  54  87 116 142 179 234 291 340
#
# _framework density 21.081406999999999
#
# number of rings (size 3 to 8) (size 9 to 14) (size 15 to 20)
#    0.000    1.833    2.500    2.000    0.000    4.667 
#    1.500    0.000    0.000    3.500    0.000    0.000 
#    0.000    0.000    0.000    0.000    0.000    0.000 
#
# Total GULP energy -133942.207299 kJ/mol
# GULP energy per Si atom -5580.925304 kJ/mol
# Density = 2.103342 g / cm^3
# Si number density = 21.081407 Si / 1000 Ang^3
#
#
#
# Elastic Constant Matrix: (Units=GPa)
#
#
# Indices 1 2 3 4 5 6 
#
# 1 22.7441 6.6730 -2.3617 0.0000 0.0000 0.0000
# 2 6.6730 137.9035 18.6850 0.0000 0.0000 0.0000
# 3 -2.3617 18.6850 52.7667 0.0000 0.0000 0.0000
# 4 0.0000 0.0000 0.0000 28.0963 0.0000 0.0000
# 5 0.0000 0.0000 0.0000 0.0000 7.2424 0.0000
# 6 0.0000 0.0000 0.0000 0.0000 0.0000 16.2718
#
#
#
# Elastic Compliance Matrix: (Units=1/GPa)
#
#
# Indices 1 2 3 4 5 6 
#
# 1 0.045027 -0.002575 0.002927 0.000000 0.000000 0.000000
# 2 -0.002575 0.007764 -0.002865 0.000000 0.000000 0.000000
# 3 0.002927 -0.002865 0.020097 0.000000 0.000000 0.000000
# 4 0.000000 0.000000 0.000000 0.035592 0.000000 0.000000
# 5 0.000000 0.000000 0.000000 0.000000 0.138076 0.000000
# 6 0.000000 0.000000 0.000000 0.000000 0.000000 0.061456
#
#
# Mechanical properties :
#
#
# Convention : Reuss Voigt Hill
#
# Bulk Modulus (GPa) = 14.73569 28.82298 21.77933
# Shear Modulus (GPa) = 14.89609 23.01663 18.95636
#
# Velocity S-wave (km/s) = 2.66108 3.30782 3.00192
# Velocity P-wave (km/s) = 4.05547 5.31891 4.72957
#
# Compressibility (1/GPa) = 0.06786247
#
# Stress axis : x y z
#
# Youngs Moduli (GPa) = 22.20885 128.79623 49.75934
#
# Poissons Ratio (x) = 0.33171 -0.14566
# Poissons Ratio (y) = 0.05720 0.14254
# Poissons Ratio (z) = -0.06501 0.36895
#
# Static dielectric constant tensor:
#      x y z
#    x 1.858680 0.000000 0.000000 
#    y 0.000000 1.800430 0.000000 
#    z 0.000000 0.000000 1.717570 
# 
# From -- ./inp_files/12063.got.cif
#   From: 2010.05.17/outbox.cif.g08.bks.cpg/sg38_7_cif.got.tgz:12063.got - 2010.06.03 18:07:57.
