data_PCOD9356019
_publ_section_title
;
Structure prediction by ZEFSAII (Michael W. Deem and Ramdas Pophale) SiO2 
 PCOD9356019
Probable space group: A M M 2
;
_chemical_formula_sum "Si O2"
_cell_formula_units_Z 64
_cell_length_a 14.724098
_cell_length_b 7.963829
_cell_length_c 32.603533
_cell_angle_alpha 90.000000
_cell_angle_beta 90.000000
_cell_angle_gamma 90.000000
_cell_volume 3823.096756
_symmetry_space_group_name_H-M "A M M 2"
_symmetry_group_IT_number 38
_symmetry_cell_setting 'orthorhombic'
loop_
_space_group_symop_operation_xyz
x,y,z
-x,-y,z
-x,y,z
x,-y,z
x,1/2+y,1/2+z
-x,1/2-y,1/2+z
-x,1/2+y,1/2+z
x,1/2-y,1/2+z
loop_
_atom_site_type_symbol
_atom_site_label
_atom_site_fract_x
_atom_site_fract_y
_atom_site_fract_z
Si Si1 0.212916 0.202241 0.511040
Si Si2 0.889632 0.305095 0.841717
Si Si3 0.897056 0.799346 0.590387
Si Si4 0.105528 0.205995 0.431269
Si Si5 0.601828 0.301191 0.141315
Si Si6 0.791631 0.302433 0.671884
Si Si7 0.601772 0.700709 0.547336
Si Si8 0.894348 0.294080 0.752256
O O1 0.157464 0.266579 0.550817
O O2 0.167402 0.262276 0.468950
O O3 0.317776 0.246480 0.517492
O O4 0.205903 0.000000 0.510984
O O5 0.860004 0.500000 0.841795
O O6 0.863999 0.232903 0.886096
O O7 0.863679 0.232655 0.797391
O O8 0.000000 0.305668 0.841646
O O9 0.842440 0.769078 0.632105
O O10 0.000000 0.732793 0.592700
O O11 0.902950 0.000000 0.585174
O O12 0.000000 0.252878 0.437993
O O13 0.106859 0.000000 0.430066
O O14 0.500000 0.234836 0.149826
O O15 0.601504 0.500000 0.148084
O O16 0.684522 0.226478 0.166805
O O17 0.619998 0.270285 0.093012
O O18 0.809448 0.500000 0.671278
O O19 0.833708 0.235904 0.714275
O O20 0.500000 0.756226 0.535339
O O21 0.601857 0.500000 0.550542
O O22 0.892169 0.500000 0.753771
O O23 0.000000 0.247853 0.745704
#
# Coordination Sequence:
#
# PCOD9356019 Si02
#       8
#     8   8   8   8   8   8   8   8
#     4  10  18  28  44  66  91 118 147 181 219 258
#     4   7  10  19  36  58  86 117 146 178 216 254
#     4  10  20  31  41  57  88 127 157 178 207 252
#     4   8  13  22  39  64  91 118 148 180 214 255
#     4  10  20  34  50  65  83 110 145 186 229 269
#     4  11  20  29  44  66  91 118 149 184 221 263
#     4  10  20  33  48  65  85 111 145 185 225 264
#     4   8  14  24  38  60  91 122 148 177 215 257
#
# _framework density 16.740355999999998
#
# number of rings (size 3 to 8) (size 9 to 14) (size 15 to 20)
#    0.000    2.750    1.250    3.375    0.000    3.750 
#    0.000    0.000    0.000    1.125    0.000    2.625 
#    0.000   13.000    0.000    0.000    0.000    0.000 
#
# Total GULP energy -178294.664782 kJ/mol
# GULP energy per Si atom -5571.708274 kJ/mol
# Density = 1.670225 g / cm^3
# Si number density = 16.740356 Si / 1000 Ang^3
#
#
#
# Elastic Constant Matrix: (Units=GPa)
#
#
# Indices 1 2 3 4 5 6 
#
# 1 101.0068 -1.1354 72.7385 0.0000 0.0000 0.0000
# 2 -1.1354 12.8839 2.5646 0.0000 0.0000 0.0000
# 3 72.7385 2.5646 152.3174 0.0000 0.0000 0.0000
# 4 0.0000 0.0000 0.0000 10.1266 0.0000 0.0000
# 5 0.0000 0.0000 0.0000 0.0000 5.2958 0.0000
# 6 0.0000 0.0000 0.0000 0.0000 0.0000 12.1807
#
#
#
# Elastic Compliance Matrix: (Units=1/GPa)
#
#
# Indices 1 2 3 4 5 6 
#
# 1 0.015189 0.002792 -0.007300 0.000000 0.000000 0.000000
# 2 0.002792 0.078390 -0.002653 0.000000 0.000000 0.000000
# 3 -0.007300 -0.002653 0.010096 0.000000 0.000000 0.000000
# 4 0.000000 0.000000 0.000000 0.098750 0.000000 0.000000
# 5 0.000000 0.000000 0.000000 0.000000 0.188830 0.000000
# 6 0.000000 0.000000 0.000000 0.000000 0.000000 0.082097
#
#
# Mechanical properties :
#
#
# Convention : Reuss Voigt Hill
#
# Bulk Modulus (GPa) = 11.19171 46.06042 28.62606
# Shear Modulus (GPa) = 9.66259 18.32332 13.99295
#
# Velocity S-wave (km/s) = 2.40511 3.31200 2.89430
# Velocity P-wave (km/s) = 3.79641 6.49616 5.32038
#
# Compressibility (1/GPa) = 0.08935186
#
# Stress axis : x y z
#
# Youngs Moduli (GPa) = 65.83709 12.75669 99.04710
#
# Poissons Ratio (x) = -0.03561 0.72309
# Poissons Ratio (y) = -0.18380 0.26278
# Poissons Ratio (z) = 0.48064 0.03384
#
# Static dielectric constant tensor:
#      x y z
#    x 1.561400 0.000000 0.000000 
#    y 0.000000 1.622300 0.000000 
#    z 0.000000 0.000000 1.584770 
# 
# From -- ./inp_files/25100.got.cif
#   From: 2010.05.17/outbox.cif.g08.bks.cpg/sg38_13_cif.got.tgz:25100.got - 2010.06.03 18:07:57.
