data_PCOD9356164
_publ_section_title
;
Structure prediction by ZEFSAII (Michael W. Deem and Ramdas Pophale) SiO2 
 PCOD9356164
Probable space group: A M M 2
;
_chemical_formula_sum "Si O2"
_cell_formula_units_Z 64
_cell_length_a 20.490548
_cell_length_b 7.486775
_cell_length_c 21.065379
_cell_angle_alpha 90.000000
_cell_angle_beta 90.000000
_cell_angle_gamma 90.000000
_cell_volume 3231.600242
_symmetry_space_group_name_H-M "A M M 2"
_symmetry_group_IT_number 38
_symmetry_cell_setting 'orthorhombic'
loop_
_space_group_symop_operation_xyz
x,y,z
-x,-y,z
-x,y,z
x,-y,z
x,1/2+y,1/2+z
-x,1/2-y,1/2+z
-x,1/2+y,1/2+z
x,1/2-y,1/2+z
loop_
_atom_site_type_symbol
_atom_site_label
_atom_site_fract_x
_atom_site_fract_y
_atom_site_fract_z
Si Si1 0.287236 0.211926 0.168960
Si Si2 0.155929 0.781600 0.109238
Si Si3 0.429880 0.287039 0.178396
Si Si4 0.711662 0.719341 0.816006
Si Si5 0.074692 0.717906 0.733382
Si Si6 0.570629 0.293895 0.826665
Si Si7 0.850843 0.285011 0.859479
Si Si8 0.925705 0.287738 0.489292
O O1 0.229721 0.279577 0.123762
O O2 0.361328 0.241432 0.146386
O O3 0.281515 0.278016 0.242080
O O4 0.277654 0.000000 0.173941
O O5 0.113474 0.730184 0.170527
O O6 0.157010 0.000000 0.106338
O O7 0.119897 0.717232 0.045991
O O8 0.500000 0.232497 0.149655
O O9 0.430633 0.500000 0.185671
O O10 0.427824 0.208118 0.249552
O O11 0.709326 0.500000 0.815312
O O12 0.641788 0.782136 0.843138
O O13 0.775724 0.775134 0.854298
O O14 0.074661 0.500000 0.734311
O O15 0.111046 0.778271 0.796892
O O16 0.000000 0.776703 0.731960
O O17 0.500000 0.213570 0.844819
O O18 0.569706 0.500000 0.847687
O O19 0.849285 0.500000 0.856294
O O20 0.889767 0.237438 0.922509
O O21 0.931218 0.500000 0.499758
O O22 0.000000 0.216307 0.489059
#
# Coordination Sequence:
#
# PCOD9356164 Si02
#       8
#     8   8   8   8   8   8   8   8
#     4   9  15  26  45  66  87 112 149 195 232 261
#     4   9  16  29  48  68  89 116 152 195 235 269
#     4   9  16  24  35  57  92 127 151 174 214 270
#     4   8  13  23  41  65  91 114 142 186 229 260
#     4   9  15  24  44  71  90 109 147 194 233 269
#     4   8  13  22  38  60  86 117 151 186 224 263
#     4  10  18  30  48  70  93 119 152 189 230 274
#     4  10  21  35  49  67  94 124 152 187 233 282
#
# _framework density 19.804428999999999
#
# number of rings (size 3 to 8) (size 9 to 14) (size 15 to 20)
#    0.000    3.000    1.250    1.875    0.000    3.000 
#    0.000    3.125    0.000    0.750    0.000    0.875 
#    0.000    3.000    0.000    0.000    0.000    0.000 
#
# Total GULP energy -178303.620398 kJ/mol
# GULP energy per Si atom -5571.988137 kJ/mol
# Density = 1.975935 g / cm^3
# Si number density = 19.804429 Si / 1000 Ang^3
#
#
#
# Elastic Constant Matrix: (Units=GPa)
#
#
# Indices 1 2 3 4 5 6 
#
# 1 223.3033 -2.8089 61.7960 0.0000 0.0000 0.0000
# 2 -2.8089 51.8446 -4.9257 0.0000 0.0000 0.0000
# 3 61.7960 -4.9257 87.0980 0.0000 0.0000 0.0000
# 4 0.0000 0.0000 0.0000 -6.5645 0.0000 0.0000
# 5 0.0000 0.0000 0.0000 0.0000 10.8252 0.0000
# 6 0.0000 0.0000 0.0000 0.0000 0.0000 1.8375
#
#
#
# Elastic Compliance Matrix: (Units=1/GPa)
#
#
# Indices 1 2 3 4 5 6 
#
# 1 0.005573 -0.000074 -0.003958 0.000000 0.000000 0.000000
# 2 -0.000074 0.019394 0.001149 0.000000 0.000000 0.000000
# 3 -0.003958 0.001149 0.014354 0.000000 0.000000 0.000000
# 4 0.000000 0.000000 0.000000 -0.152336 0.000000 0.000000
# 5 0.000000 0.000000 0.000000 0.000000 0.092377 0.000000
# 6 0.000000 0.000000 0.000000 0.000000 0.000000 0.544218
#
#
# Mechanical properties :
#
#
# Convention : Reuss Voigt Hill
#
# Bulk Modulus (GPa) = 29.80156 52.26318 41.03237
# Shear Modulus (GPa) = 9.25018 21.76529 15.50773
#
# Velocity S-wave (km/s) = 2.16354 3.31873 2.80133
# Velocity P-wave (km/s) = 4.61755 6.41344 5.58811
#
# Compressibility (1/GPa) = 0.03355529
#
# Stress axis : x y z
#
# Youngs Moduli (GPa) = 179.44990 51.56340 69.66466
#
# Poissons Ratio (x) = 0.00382 0.27573
# Poissons Ratio (y) = 0.01330 -0.08007
# Poissons Ratio (z) = 0.71025 -0.05927
#
# Static dielectric constant tensor:
#      x y z
#    x 1.791350 0.000000 0.000000 
#    y 0.000000 1.832660 0.000000 
#    z 0.000000 0.000000 1.640440 
# 
# From -- ./inp_files/18909.got.cif
#   From: 2010.05.17/outbox.cif.g08.bks.cpg/sg38_10_cif.got.tgz:18909.got - 2010.06.03 18:07:57.
