data_PCOD9356843
_publ_section_title
;
Structure prediction by ZEFSAII (Michael W. Deem and Ramdas Pophale) SiO2 
 PCOD9356843
Probable space group: A M M 2
;
_chemical_formula_sum "Si O2"
_cell_formula_units_Z 64
_cell_length_a 13.989680
_cell_length_b 14.805024
_cell_length_c 13.834777
_cell_angle_alpha 90.000000
_cell_angle_beta 90.000000
_cell_angle_gamma 90.000000
_cell_volume 2865.425091
_symmetry_space_group_name_H-M "A M M 2"
_symmetry_group_IT_number 38
_symmetry_cell_setting 'orthorhombic'
loop_
_space_group_symop_operation_xyz
x,y,z
-x,-y,z
-x,y,z
x,-y,z
x,1/2+y,1/2+z
-x,1/2-y,1/2+z
-x,1/2+y,1/2+z
x,1/2-y,1/2+z
loop_
_atom_site_type_symbol
_atom_site_label
_atom_site_fract_x
_atom_site_fract_y
_atom_site_fract_z
Si Si1 0.613997 0.109091 0.476830
Si Si2 0.107874 0.850216 0.152692
Si Si3 0.300520 0.896137 0.070459
Si Si4 0.700378 0.604060 0.173288
Si Si5 0.613527 0.109368 0.267123
Si Si6 0.611577 0.610808 0.371680
Si Si7 0.108210 0.145118 0.585208
Si Si8 0.884229 0.396478 0.867349
O O1 0.500000 0.122155 0.480478
O O2 0.658437 0.146595 0.575215
O O3 0.648973 0.142739 0.371924
O O4 0.630628 0.000000 0.476287
O O5 0.187002 0.896567 0.086328
O O6 0.103465 0.748859 0.114878
O O7 0.140598 0.851642 0.265046
O O8 0.000000 0.888812 0.148408
O O9 0.341659 0.853653 0.168782
O O10 0.335110 0.000000 0.069741
O O11 0.337117 0.856816 0.969671
O O12 0.666182 0.500000 0.174055
O O13 0.663737 0.643108 0.274147
O O14 0.813868 0.603482 0.156671
O O15 0.500000 0.124039 0.263382
O O16 0.628398 0.000000 0.267760
O O17 0.500000 0.636152 0.371270
O O18 0.616097 0.500000 0.371770
O O19 0.143173 0.136566 0.474079
O O20 0.000000 0.107646 0.591481
O O21 0.852369 0.500000 0.859341
O O22 0.000000 0.393592 0.869626
#
# Coordination Sequence:
#
# PCOD9356843 Si02
#       8
#     8   8   8   8   8   8   8   8
#     4   8  14  25  44  74 108 137 171 226 294 352
#     4  10  22  38  55  80 115 155 197 243 301 362
#     4  10  19  31  53  81 107 143 193 242 292 348
#     4  10  19  31  53  81 107 143 193 242 292 348
#     4   8  14  25  44  74 108 137 171 226 294 352
#     4   9  18  33  53  79 109 142 183 229 284 359
#     4  10  22  38  55  80 115 155 197 243 301 362
#     4   9  18  35  60  86 112 147 194 250 302 349
#
# _framework density 22.335256999999999
#
# number of rings (size 3 to 8) (size 9 to 14) (size 15 to 20)
#    0.000    2.750    0.000    2.250    1.750    5.500 
#    0.000    1.875    0.000    5.250    0.000    0.000 
#    0.000    0.000    0.000    0.000    0.000    0.000 
#
# Total GULP energy -178603.096475 kJ/mol
# GULP energy per Si atom -5581.346765 kJ/mol
# Density = 2.228442 g / cm^3
# Si number density = 22.335257 Si / 1000 Ang^3
#
#
#
# Elastic Constant Matrix: (Units=GPa)
#
#
# Indices 1 2 3 4 5 6 
#
# 1 107.7225 -7.3683 107.8021 0.0000 0.0000 0.0000
# 2 -7.3683 37.5722 10.5283 0.0000 0.0000 0.0000
# 3 107.8021 10.5283 208.8113 0.0000 0.0000 0.0000
# 4 0.0000 0.0000 0.0000 20.3963 0.0000 0.0000
# 5 0.0000 0.0000 0.0000 0.0000 70.5084 0.0000
# 6 0.0000 0.0000 0.0000 0.0000 0.0000 -5.8120
#
#
#
# Elastic Compliance Matrix: (Units=1/GPa)
#
#
# Indices 1 2 3 4 5 6 
#
# 1 0.020990 0.007255 -0.011202 0.000000 0.000000 0.000000
# 2 0.007255 0.029505 -0.005233 0.000000 0.000000 0.000000
# 3 -0.011202 -0.005233 0.010836 0.000000 0.000000 0.000000
# 4 0.000000 0.000000 0.000000 0.049029 0.000000 0.000000
# 5 0.000000 0.000000 0.000000 0.000000 0.014183 0.000000
# 6 0.000000 0.000000 0.000000 0.000000 0.000000 -0.172057
#
#
# Mechanical properties :
#
#
# Convention : Reuss Voigt Hill
#
# Bulk Modulus (GPa) = 23.27182 64.00334 43.63758
# Shear Modulus (GPa) = -337.11930 33.22812 -151.94559
#
# Velocity S-wave (km/s) = -12.29893 3.86125 -8.25695
# Velocity P-wave (km/s) = 13.82906 6.97115 8.44529
#
# Compressibility (1/GPa) = 0.04297043
#
# Stress axis : x y z
#
# Youngs Moduli (GPa) = 47.64227 33.89288 92.28379
#
# Poissons Ratio (x) = -0.24590 1.03377
# Poissons Ratio (y) = -0.34566 0.48295
# Poissons Ratio (z) = 0.53369 0.17737
#
# Static dielectric constant tensor:
#      x y z
#    x 1.854110 0.000000 0.000000 
#    y 0.000000 1.829720 0.000000 
#    z 0.000000 0.000000 1.846260 
# 
# From -- ./inp_files/10257.got.cif
#   From: 2010.05.17/outbox.cif.g08.bks.cpg/sg38_6_cif.got.tgz:10257.got - 2010.06.03 18:07:57.
