data_PCOD9356822
_publ_section_title
;
Structure prediction by ZEFSAII (Michael W. Deem and Ramdas Pophale) SiO2 
 PCOD9356822
Probable space group: A M M 2
;
_chemical_formula_sum "Si O2"
_cell_formula_units_Z 48
_cell_length_a 17.383599
_cell_length_b 7.515363
_cell_length_c 16.456194
_cell_angle_alpha 90.000000
_cell_angle_beta 90.000000
_cell_angle_gamma 90.000000
_cell_volume 2149.903943
_symmetry_space_group_name_H-M "A M M 2"
_symmetry_group_IT_number 38
_symmetry_cell_setting 'orthorhombic'
loop_
_space_group_symop_operation_xyz
x,y,z
-x,-y,z
-x,y,z
x,-y,z
x,1/2+y,1/2+z
-x,1/2-y,1/2+z
-x,1/2+y,1/2+z
x,1/2-y,1/2+z
loop_
_atom_site_type_symbol
_atom_site_label
_atom_site_fract_x
_atom_site_fract_y
_atom_site_fract_z
Si Si1 0.662492 0.716283 0.104590
Si Si2 0.500000 0.706519 0.863184
Si Si3 0.179826 0.718767 0.178132
Si Si4 0.333760 0.783973 0.418903
Si Si5 0.170846 0.204215 0.855302
Si Si6 0.500000 0.283693 0.174398
Si Si7 0.913814 0.290491 0.021163
O O1 0.661068 0.500000 0.105643
O O2 0.731843 0.773201 0.162362
O O3 0.578191 0.776373 0.131240
O O4 0.680055 0.767829 0.012242
O O5 0.500000 0.500000 0.890100
O O6 0.581383 0.780492 0.893860
O O7 0.500000 0.719970 0.766553
O O8 0.179331 0.500000 0.179500
O O9 0.151539 0.780763 0.266481
O O10 0.131316 0.780236 0.100008
O O11 0.263075 0.716226 0.365740
O O12 0.332399 0.000000 0.413420
O O13 0.146780 0.000000 0.853985
O O14 0.132622 0.277967 0.936887
O O15 0.500000 0.500000 0.174466
O O16 0.920459 0.500000 0.037249
O O17 0.000000 0.216665 0.012905
#
# Coordination Sequence:
#
# PCOD9356822 Si02
#       7
#     8   4   8   8   8   4   8
#     4   9  16  30  54  78 101 139 194 237 265 319
#     4  10  21  33  49  79 113 148 190 240 288 330
#     4   9  18  34  57  83 111 147 191 231 273 336
#     4  10  19  35  57  79 110 153 199 237 277 337
#     4  11  22  36  59  91 120 147 185 240 298 337
#     4  10  19  31  51  77 105 144 192 240 282 330
#     4  10  21  40  64  85 110 151 195 231 278 349
#
# _framework density 22.326578000000001
#
# number of rings (size 3 to 8) (size 9 to 14) (size 15 to 20)
#    0.000    2.167    1.667    2.000    0.000    5.000 
#    0.000    4.167    0.000    1.000    0.000    0.000 
#    0.000    0.000    0.000    0.000    0.000    0.000 
#
# Total GULP energy -134050.738097 kJ/mol
# GULP energy per Si atom -5585.447421 kJ/mol
# Density = 2.227576 g / cm^3
# Si number density = 22.326578 Si / 1000 Ang^3
#
#
#
# Elastic Constant Matrix: (Units=GPa)
#
#
# Indices 1 2 3 4 5 6 
#
# 1 133.2021 -1.6115 63.2113 0.0000 0.0000 0.0000
# 2 -1.6115 54.8645 -3.3506 0.0000 0.0000 0.0000
# 3 63.2113 -3.3506 168.2162 0.0000 0.0000 0.0000
# 4 0.0000 0.0000 0.0000 12.4195 0.0000 0.0000
# 5 0.0000 0.0000 0.0000 0.0000 6.0407 0.0000
# 6 0.0000 0.0000 0.0000 0.0000 0.0000 -14.2771
#
#
#
# Elastic Compliance Matrix: (Units=1/GPa)
#
#
# Indices 1 2 3 4 5 6 
#
# 1 0.009137 0.000059 -0.003432 0.000000 0.000000 0.000000
# 2 0.000059 0.018249 0.000341 0.000000 0.000000 0.000000
# 3 -0.003432 0.000341 0.007241 0.000000 0.000000 0.000000
# 4 0.000000 0.000000 0.000000 0.080518 0.000000 0.000000
# 5 0.000000 0.000000 0.000000 0.000000 0.165545 0.000000
# 6 0.000000 0.000000 0.000000 0.000000 0.000000 -0.070042
#
#
# Mechanical properties :
#
#
# Convention : Reuss Voigt Hill
#
# Bulk Modulus (GPa) = 35.00993 52.53126 43.77059
# Shear Modulus (GPa) = 22.10109 20.70553 21.40331
#
# Velocity S-wave (km/s) = 3.14968 3.04862 3.09956
# Velocity P-wave (km/s) = 5.37980 5.99765 5.69710
#
# Compressibility (1/GPa) = 0.02856333
#
# Stress axis : x y z
#
# Youngs Moduli (GPa) = 109.44668 54.79665 138.09722
#
# Poissons Ratio (x) = -0.00322 0.47398
# Poissons Ratio (y) = -0.00643 -0.04715
# Poissons Ratio (z) = 0.37565 -0.01871
#
# Static dielectric constant tensor:
#      x y z
#    x 1.809970 0.000000 0.000000 
#    y 0.000000 1.864460 0.000000 
#    z 0.000000 0.000000 1.796650 
# 
# From -- ./inp_files/14995.got.cif
#   From: 2010.05.17/outbox.cif.g08.bks.cpg/sg38_8_cif.got.tgz:14995.got - 2010.06.03 18:07:57.
