data_PCOD9356236
_publ_section_title
;
Structure prediction by ZEFSAII (Michael W. Deem and Ramdas Pophale) SiO2 
 PCOD9356236
Probable space group: A M M 2
;
_chemical_formula_sum "Si O2"
_cell_formula_units_Z 46
_cell_length_a 7.520842
_cell_length_b 16.493072
_cell_length_c 21.689671
_cell_angle_alpha 90.000000
_cell_angle_beta 90.000000
_cell_angle_gamma 90.000000
_cell_volume 2690.425585
_symmetry_space_group_name_H-M "A M M 2"
_symmetry_group_IT_number 38
_symmetry_cell_setting 'orthorhombic'
loop_
_space_group_symop_operation_xyz
x,y,z
-x,-y,z
-x,y,z
x,-y,z
x,1/2+y,1/2+z
-x,1/2-y,1/2+z
-x,1/2+y,1/2+z
x,1/2-y,1/2+z
loop_
_atom_site_type_symbol
_atom_site_label
_atom_site_fract_x
_atom_site_fract_y
_atom_site_fract_z
Si Si1 0.000000 0.904120 0.093320
Si Si2 0.000000 0.500000 0.379394
Si Si3 0.214272 0.408137 0.817633
Si Si4 0.714614 0.000000 0.772173
Si Si5 0.294538 0.255015 0.380113
Si Si6 0.000000 0.835224 0.957939
Si Si7 0.714864 0.177166 0.746999
Si Si8 0.293784 0.837454 0.183787
O O1 0.829795 0.880389 0.134429
O O2 0.000000 0.855117 0.029739
O O3 0.000000 0.000000 0.080992
O O4 0.172958 0.500000 0.335100
O O5 0.000000 0.579723 0.421227
O O6 0.267833 0.500000 0.831943
O O7 0.279968 0.340357 0.865219
O O8 0.280783 0.383165 0.749635
O O9 0.000000 0.404296 0.816022
O O10 0.761301 0.083549 0.737478
O O11 0.500000 0.000000 0.783455
O O12 0.500000 0.277141 0.389711
O O13 0.229290 0.297067 0.316126
O O14 0.170783 0.285089 0.434754
O O15 0.500000 0.183136 0.747256
O O16 0.773305 0.246075 0.699415
O O17 0.500000 0.835363 0.164869
#
# Coordination Sequence:
#
# PCOD9356236 Si02
#       8
#     4   2   8   4   8   4   8   8
#     4  12  26  40  55  76 103 145 194 229 263 308
#     4  12  22  32  54  72 106 148 172 214 268 308
#     4  10  18  31  56  90 118 142 170 217 276 334
#     4  10  18  30  52  86 114 132 164 209 264 334
#     4  10  20  35  55  79 111 146 177 216 272 326
#     4  12  24  39  52  76 106 143 190 228 259 316
#     4   8  16  30  52  81 109 136 165 207 267 327
#     4  10  21  37  55  78 111 146 180 221 270 321
#
# _framework density 17.097667000000001
#
# number of rings (size 3 to 8) (size 9 to 14) (size 15 to 20)
#    0.000    1.913    3.913    2.087    0.000    3.826 
#    0.000    0.000    0.000    0.000    4.522    0.000 
#    0.000    0.000    0.000    0.000    0.000    0.000 
#
# Total GULP energy -128341.085150 kJ/mol
# GULP energy per Si atom -5580.047180 kJ/mol
# Density = 1.705875 g / cm^3
# Si number density = 17.097667 Si / 1000 Ang^3
#
#
#
# Elastic Constant Matrix: (Units=GPa)
#
#
# Indices 1 2 3 4 5 6 
#
# 1 95.4680 23.4114 37.3403 0.0000 0.0000 0.0000
# 2 23.4114 132.1767 37.7817 0.0000 0.0000 0.0000
# 3 37.3403 37.7817 80.1580 0.0000 0.0000 0.0000
# 4 0.0000 0.0000 0.0000 23.5566 0.0000 0.0000
# 5 0.0000 0.0000 0.0000 0.0000 -6.0947 0.0000
# 6 0.0000 0.0000 0.0000 0.0000 0.0000 17.8870
#
#
#
# Elastic Compliance Matrix: (Units=1/GPa)
#
#
# Indices 1 2 3 4 5 6 
#
# 1 0.012857 -0.000653 -0.005681 0.000000 0.000000 0.000000
# 2 -0.000653 0.008777 -0.003833 0.000000 0.000000 0.000000
# 3 -0.005681 -0.003833 0.016928 0.000000 0.000000 0.000000
# 4 0.000000 0.000000 0.000000 0.042451 0.000000 0.000000
# 5 0.000000 0.000000 0.000000 0.000000 -0.164076 0.000000
# 6 0.000000 0.000000 0.000000 0.000000 0.000000 0.055907
#
#
# Mechanical properties :
#
#
# Convention : Reuss Voigt Hill
#
# Bulk Modulus (GPa) = 54.86097 56.09662 55.47880
# Shear Modulus (GPa) = -6704.15905 21.02104 -3341.56901
#
# Velocity S-wave (km/s) = -62.68659 3.51018 -44.25656
# Velocity P-wave (km/s) = 72.16177 7.02205 50.78391
#
# Compressibility (1/GPa) = 0.01822789
#
# Stress axis : x y z
#
# Youngs Moduli (GPa) = 77.77834 113.93601 59.07248
#
# Poissons Ratio (x) = 0.07444 0.33561
# Poissons Ratio (y) = 0.05081 0.22640
# Poissons Ratio (z) = 0.44188 0.43667
#
# Static dielectric constant tensor:
#      x y z
#    x 1.613860 0.000000 0.000000 
#    y 0.000000 1.615900 0.000000 
#    z 0.000000 0.000000 1.524550 
# 
# From -- ./inp_files/19676.got.cif
#   From: 2010.05.17/outbox.cif.g08.bks.cpg/sg38_10_cif.got.tgz:19676.got - 2010.06.03 18:07:57.
