data_PCOD9356169
_publ_section_title
;
Structure prediction by ZEFSAII (Michael W. Deem and Ramdas Pophale) SiO2 
 PCOD9356169
Probable space group: A M M 2
;
_chemical_formula_sum "Si O2"
_cell_formula_units_Z 64
_cell_length_a 15.503327
_cell_length_b 13.590859
_cell_length_c 18.715162
_cell_angle_alpha 90.000000
_cell_angle_beta 90.000000
_cell_angle_gamma 90.000000
_cell_volume 3943.350722
_symmetry_space_group_name_H-M "A M M 2"
_symmetry_group_IT_number 38
_symmetry_cell_setting 'orthorhombic'
loop_
_space_group_symop_operation_xyz
x,y,z
-x,-y,z
-x,y,z
x,-y,z
x,1/2+y,1/2+z
-x,1/2-y,1/2+z
-x,1/2+y,1/2+z
x,1/2-y,1/2+z
loop_
_atom_site_type_symbol
_atom_site_label
_atom_site_fract_x
_atom_site_fract_y
_atom_site_fract_z
Si Si1 0.399031 0.110676 0.137580
Si Si2 0.273080 0.114553 0.593044
Si Si3 0.598814 0.188461 0.712762
Si Si4 0.128885 0.385970 0.320991
Si Si5 0.095758 0.880381 0.979805
Si Si6 0.906734 0.119598 0.663775
Si Si7 0.670606 0.885965 0.856859
Si Si8 0.285164 0.193873 0.010803
O O1 0.500000 0.117128 0.115603
O O2 0.385199 0.196540 0.195443
O O3 0.337496 0.134110 0.070933
O O4 0.383566 0.000000 0.163890
O O5 0.336963 0.129691 0.660414
O O6 0.177709 0.145499 0.619703
O O7 0.296831 0.191906 0.531607
O O8 0.273064 0.000000 0.572302
O O9 0.500000 0.165809 0.693477
O O10 0.614051 0.162568 0.795132
O O11 0.100896 0.500000 0.320036
O O12 0.096549 0.346248 0.396597
O O13 0.100883 0.342714 0.245349
O O14 0.232121 0.384721 0.325648
O O15 0.000000 0.857845 0.009733
O O16 0.105397 0.000000 0.980403
O O17 0.183698 0.836271 0.012023
O O18 0.000000 0.148749 0.633965
O O19 0.904650 0.000000 0.667173
O O20 0.645811 0.000000 0.867558
O O21 0.677178 0.833142 0.933192
#
# Coordination Sequence:
#
# PCOD9356169 Si02
#       8
#     8   8   8   8   8   8   8   8
#     4   9  18  34  53  72  98 132 166 197 233 286
#     4  10  20  34  48  68 100 134 166 203 243 291
#     4  10  20  33  53  78  99 124 160 200 248 295
#     4   8  13  23  40  63  93 122 148 188 241 286
#     4   9  16  26  43  69  99 128 158 197 247 296
#     4   9  15  24  42  66  92 125 161 196 236 279
#     4  10  18  30  48  72 100 123 152 200 249 286
#     4  10  20  32  49  71  99 133 165 201 243 296
#
# _framework density 16.229852000000001
#
# number of rings (size 3 to 8) (size 9 to 14) (size 15 to 20)
#    0.000    2.625    1.250    2.625    0.000    3.500 
#    0.000    0.625    0.000    0.000    0.000    0.000 
#    0.000    0.000    0.000    0.000    0.000    0.000 
#
# Total GULP energy -178139.223281 kJ/mol
# GULP energy per Si atom -5566.850728 kJ/mol
# Density = 1.619291 g / cm^3
# Si number density = 16.229852 Si / 1000 Ang^3
#
#
#
# Elastic Constant Matrix: (Units=GPa)
#
#
# Indices 1 2 3 4 5 6 
#
# 1 64.0854 27.4825 28.9079 0.0000 0.0000 0.0000
# 2 27.4825 81.4677 45.6492 0.0000 0.0000 0.0000
# 3 28.9079 45.6492 79.1867 0.0000 0.0000 0.0000
# 4 0.0000 0.0000 0.0000 15.1682 0.0000 0.0000
# 5 0.0000 0.0000 0.0000 0.0000 12.2635 0.0000
# 6 0.0000 0.0000 0.0000 0.0000 0.0000 16.7302
#
#
#
# Elastic Compliance Matrix: (Units=1/GPa)
#
#
# Indices 1 2 3 4 5 6 
#
# 1 0.019451 -0.003815 -0.004901 0.000000 0.000000 0.000000
# 2 -0.003815 0.018880 -0.009491 0.000000 0.000000 0.000000
# 3 -0.004901 -0.009491 0.019889 0.000000 0.000000 0.000000
# 4 0.000000 0.000000 0.000000 0.065928 0.000000 0.000000
# 5 0.000000 0.000000 0.000000 0.000000 0.081543 0.000000
# 6 0.000000 0.000000 0.000000 0.000000 0.000000 0.059772
#
#
# Mechanical properties :
#
#
# Convention : Reuss Voigt Hill
#
# Bulk Modulus (GPa) = 45.86152 47.64655 46.75403
# Shear Modulus (GPa) = 16.17356 17.01240 16.59298
#
# Velocity S-wave (km/s) = 3.16021 3.24113 3.20093
# Velocity P-wave (km/s) = 6.45250 6.58997 6.52160
#
# Compressibility (1/GPa) = 0.02180477
#
# Stress axis : x y z
#
# Youngs Moduli (GPa) = 51.41036 52.96598 50.27886
#
# Poissons Ratio (x) = 0.20208 0.24644
# Poissons Ratio (y) = 0.19615 0.47720
# Poissons Ratio (z) = 0.25199 0.50270
#
# Static dielectric constant tensor:
#      x y z
#    x 1.579990 0.000000 0.000000 
#    y 0.000000 1.540630 0.000000 
#    z 0.000000 0.000000 1.535930 
# 
# From -- ./inp_files/18513.got.cif
#   From: 2010.05.17/outbox.cif.g08.bks.cpg/sg38_10_cif.got.tgz:18513.got - 2010.06.03 18:07:57.
