data_PCOD9356275
_publ_section_title
;
Structure prediction by ZEFSAII (Michael W. Deem and Ramdas Pophale) SiO2 
 PCOD9356275
Probable space group: A M M 2
;
_chemical_formula_sum "Si O2"
_cell_formula_units_Z 64
_cell_length_a 7.543111
_cell_length_b 19.814608
_cell_length_c 21.911899
_cell_angle_alpha 90.000000
_cell_angle_beta 90.000000
_cell_angle_gamma 90.000000
_cell_volume 3275.035417
_symmetry_space_group_name_H-M "A M M 2"
_symmetry_group_IT_number 38
_symmetry_cell_setting 'orthorhombic'
loop_
_space_group_symop_operation_xyz
x,y,z
-x,-y,z
-x,y,z
x,-y,z
x,1/2+y,1/2+z
-x,1/2-y,1/2+z
-x,1/2+y,1/2+z
x,1/2-y,1/2+z
loop_
_atom_site_type_symbol
_atom_site_label
_atom_site_fract_x
_atom_site_fract_y
_atom_site_fract_z
Si Si1 0.288153 0.075501 0.579960
Si Si2 0.285611 0.575971 0.457602
Si Si3 0.206475 0.780920 0.908947
Si Si4 0.792839 0.785470 0.154060
Si Si5 0.286020 0.075473 0.099088
Si Si6 0.207360 0.717233 0.032075
Si Si7 0.781713 0.714515 0.275724
Si Si8 0.788800 0.074487 0.723101
O O1 0.500000 0.075734 0.575398
O O2 0.218903 0.136996 0.539770
O O3 0.240959 0.087398 0.651045
O O4 0.223700 0.000000 0.564257
O O5 0.500000 0.577361 0.455909
O O6 0.229626 0.500000 0.439626
O O7 0.217360 0.638387 0.418693
O O8 0.231239 0.586984 0.528477
O O9 0.281416 0.763998 0.842535
O O10 0.000000 0.761036 0.907197
O O11 0.285602 0.746051 0.969314
O O12 0.778248 0.864774 0.141836
O O13 0.713556 0.749616 0.093854
O O14 0.722063 0.759993 0.218713
O O15 0.000000 0.765996 0.155316
O O16 0.500000 0.076582 0.099404
O O17 0.228584 0.000000 0.116396
O O18 0.000000 0.737273 0.031636
O O19 0.722823 0.638084 0.260936
O O20 0.000000 0.714675 0.277329
O O21 0.000000 0.071909 0.732196
O O22 0.715639 0.000000 0.737514
#
# Coordination Sequence:
#
# PCOD9356275 Si02
#       8
#     8   8   8   8   8   8   8   8
#     4  10  20  32  49  75 101 125 160 205 247 285
#     4   9  18  32  48  69 101 137 166 194 236 288
#     4  10  20  33  50  73  99 128 165 205 241 284
#     4  10  18  31  51  75  99 125 162 204 243 285
#     4   9  18  32  50  73 100 129 162 200 243 289
#     4  10  19  32  51  75  98 125 163 203 242 286
#     4   9  18  32  48  70 101 131 159 198 245 289
#     4   9  16  29  49  70  97 134 167 192 230 286
#
# _framework density 19.541772999999999
#
# number of rings (size 3 to 8) (size 9 to 14) (size 15 to 20)
#    0.000    2.500    2.500    1.125    0.000    2.750 
#    0.000    3.750    0.000    2.250    0.000    5.250 
#    0.000    0.000    0.000    0.000    0.000    0.000 
#
# Total GULP energy -178532.757515 kJ/mol
# GULP energy per Si atom -5579.148672 kJ/mol
# Density = 1.949730 g / cm^3
# Si number density = 19.541773 Si / 1000 Ang^3
#
#
#
# Elastic Constant Matrix: (Units=GPa)
#
#
# Indices 1 2 3 4 5 6 
#
# 1 47.3152 -10.3739 6.3379 0.0000 0.0000 0.0000
# 2 -10.3739 91.9315 73.2860 0.0000 0.0000 0.0000
# 3 6.3379 73.2860 153.1415 0.0000 0.0000 0.0000
# 4 0.0000 0.0000 0.0000 24.5110 0.0000 0.0000
# 5 0.0000 0.0000 0.0000 0.0000 -35.0736 0.0000
# 6 0.0000 0.0000 0.0000 0.0000 0.0000 30.0997
#
#
#
# Elastic Compliance Matrix: (Units=1/GPa)
#
#
# Indices 1 2 3 4 5 6 
#
# 1 0.022783 0.005372 -0.003514 0.000000 0.000000 0.000000
# 2 0.005372 0.018854 -0.009245 0.000000 0.000000 0.000000
# 3 -0.003514 -0.009245 0.011099 0.000000 0.000000 0.000000
# 4 0.000000 0.000000 0.000000 0.040798 0.000000 0.000000
# 5 0.000000 0.000000 0.000000 0.000000 -0.028511 0.000000
# 6 0.000000 0.000000 0.000000 0.000000 0.000000 0.033223
#
#
# Mechanical properties :
#
#
# Convention : Reuss Voigt Hill
#
# Bulk Modulus (GPa) = 26.34112 47.87647 37.10880
# Shear Modulus (GPa) = 39.78577 18.78329 29.28453
#
# Velocity S-wave (km/s) = 4.51703 3.10366 3.87532
# Velocity P-wave (km/s) = 6.38070 6.11526 6.24939
#
# Compressibility (1/GPa) = 0.03796345
#
# Stress axis : x y z
#
# Youngs Moduli (GPa) = 43.89179 53.04038 90.09511
#
# Poissons Ratio (x) = -0.28493 0.31656
# Poissons Ratio (y) = -0.23579 0.83290
# Poissons Ratio (z) = 0.15422 0.49034
#
# Static dielectric constant tensor:
#      x y z
#    x 1.739340 0.000000 0.000000 
#    y 0.000000 1.687710 0.000000 
#    z 0.000000 0.000000 1.689590 
# 
# From -- ./inp_files/20258.got.cif
#   From: 2010.05.17/outbox.cif.g08.bks.cpg/sg38_11_cif.got.tgz:20258.got - 2010.06.03 18:07:57.
