data_PCOD9356761
_publ_section_title
;
Structure prediction by ZEFSAII (Michael W. Deem and Ramdas Pophale) SiO2 
 PCOD9356761
Probable space group: A M M 2
;
_chemical_formula_sum "Si O2"
_cell_formula_units_Z 64
_cell_length_a 21.429701
_cell_length_b 9.285202
_cell_length_c 18.930732
_cell_angle_alpha 90.000000
_cell_angle_beta 90.000000
_cell_angle_gamma 90.000000
_cell_volume 3766.820065
_symmetry_space_group_name_H-M "A M M 2"
_symmetry_group_IT_number 38
_symmetry_cell_setting 'orthorhombic'
loop_
_space_group_symop_operation_xyz
x,y,z
-x,-y,z
-x,y,z
x,-y,z
x,1/2+y,1/2+z
-x,1/2-y,1/2+z
-x,1/2+y,1/2+z
x,1/2-y,1/2+z
loop_
_atom_site_type_symbol
_atom_site_label
_atom_site_fract_x
_atom_site_fract_y
_atom_site_fract_z
Si Si1 0.572733 0.330409 0.320020
Si Si2 0.932000 0.167945 0.905614
Si Si3 0.192675 0.166567 0.576783
Si Si4 0.570804 0.332347 0.673992
Si Si5 0.316772 0.328881 0.565549
Si Si6 0.930335 0.331591 0.577419
Si Si7 0.810588 0.665060 0.904429
Si Si8 0.327134 0.173908 0.415563
O O1 0.500000 0.311601 0.340339
O O2 0.587508 0.500000 0.324509
O O3 0.578854 0.271931 0.240392
O O4 0.617913 0.237384 0.368723
O O5 0.869977 0.245603 0.879491
O O6 0.000000 0.226702 0.883230
O O7 0.929543 0.000000 0.887211
O O8 0.930845 0.175954 0.991484
O O9 0.253250 0.259905 0.596400
O O10 0.127821 0.236532 0.602019
O O11 0.190465 0.169602 0.490547
O O12 0.198811 0.000000 0.597798
O O13 0.500000 0.312922 0.645876
O O14 0.575470 0.500000 0.697639
O O15 0.624367 0.308787 0.616751
O O16 0.307882 0.500000 0.553444
O O17 0.329816 0.246912 0.492371
O O18 0.921412 0.500000 0.595389
O O19 0.000000 0.286663 0.600875
O O20 0.818960 0.500000 0.883261
O O21 0.741098 0.712868 0.883473
O O22 0.329329 0.000000 0.421456
#
# Coordination Sequence:
#
# PCOD9356761 Si02
#       8
#     8   8   8   8   8   8   8   8
#     4  10  21  36  54  75  97 123 157 195 235 283
#     4   8  13  20  31  49  74 107 146 184 223 268
#     4   9  16  25  37  56  85 119 154 192 234 280
#     4   9  19  36  55  73  95 124 156 193 239 286
#     4  10  19  31  49  72  98 128 161 198 240 286
#     4   8  13  21  33  50  75 110 151 191 231 277
#     4   8  15  25  36  54  81 114 150 186 225 269
#     4  10  20  33  49  71  99 129 161 197 239 285
#
# _framework density 16.990459000000001
#
# number of rings (size 3 to 8) (size 9 to 14) (size 15 to 20)
#    0.000    3.000    0.000    3.000    0.000    6.250 
#    0.000    3.750    0.000    0.000    0.000    0.000 
#    0.000    1.000    0.000    5.500    0.000    7.625 
#
# Total GULP energy -178174.919513 kJ/mol
# GULP energy per Si atom -5567.966235 kJ/mol
# Density = 1.695179 g / cm^3
# Si number density = 16.990459 Si / 1000 Ang^3
#
#
#
# Elastic Constant Matrix: (Units=GPa)
#
#
# Indices 1 2 3 4 5 6 
#
# 1 159.7740 93.8793 41.4065 0.0000 0.0000 0.0000
# 2 93.8793 96.2218 28.3014 0.0000 0.0000 0.0000
# 3 41.4065 28.3014 16.7156 0.0000 0.0000 0.0000
# 4 0.0000 0.0000 0.0000 14.2949 0.0000 0.0000
# 5 0.0000 0.0000 0.0000 0.0000 -8.0259 0.0000
# 6 0.0000 0.0000 0.0000 0.0000 0.0000 30.4265
#
#
#
# Elastic Compliance Matrix: (Units=1/GPa)
#
#
# Indices 1 2 3 4 5 6 
#
# 1 0.021976 -0.010816 -0.036124 0.000000 0.000000 0.000000
# 2 -0.010816 0.026025 -0.017272 0.000000 0.000000 0.000000
# 3 -0.036124 -0.017272 0.178551 0.000000 0.000000 0.000000
# 4 0.000000 0.000000 0.000000 0.069955 0.000000 0.000000
# 5 0.000000 0.000000 0.000000 0.000000 -0.124597 0.000000
# 6 0.000000 0.000000 0.000000 0.000000 0.000000 0.032866
#
#
# Mechanical properties :
#
#
# Convention : Reuss Voigt Hill
#
# Bulk Modulus (GPa) = 10.19071 66.65398 38.42235
# Shear Modulus (GPa) = 13.66460 14.61405 14.13932
#
# Velocity S-wave (km/s) = 2.83901 2.93598 2.88790
# Velocity P-wave (km/s) = 4.09360 7.12802 5.81233
#
# Compressibility (1/GPa) = 0.09812860
#
# Stress axis : x y z
#
# Youngs Moduli (GPa) = 45.50493 38.42447 5.60063
#
# Poissons Ratio (x) = 0.41558 0.20232
# Poissons Ratio (y) = 0.49216 0.09673
# Poissons Ratio (z) = 1.64383 0.66367
#
# Static dielectric constant tensor:
#      x y z
#    x 1.602160 0.000000 0.000000 
#    y 0.000000 1.569380 0.000000 
#    z 0.000000 0.000000 1.546700 
# 
# From -- ./inp_files/21371.got.cif
#   From: 2010.05.17/outbox.cif.g08.bks.cpg/sg38_11_cif.got.tgz:21371.got - 2010.06.03 18:07:57.
