data_PCOD9356055
_publ_section_title
;
Structure prediction by ZEFSAII (Michael W. Deem and Ramdas Pophale) SiO2 
 PCOD9356055
Probable space group: A M M 2
;
_chemical_formula_sum "Si O2"
_cell_formula_units_Z 48
_cell_length_a 16.128167
_cell_length_b 7.724503
_cell_length_c 18.802175
_cell_angle_alpha 90.000000
_cell_angle_beta 90.000000
_cell_angle_gamma 90.000000
_cell_volume 2342.413964
_symmetry_space_group_name_H-M "A M M 2"
_symmetry_group_IT_number 38
_symmetry_cell_setting 'orthorhombic'
loop_
_space_group_symop_operation_xyz
x,y,z
-x,-y,z
-x,y,z
x,-y,z
x,1/2+y,1/2+z
-x,1/2-y,1/2+z
-x,1/2+y,1/2+z
x,1/2-y,1/2+z
loop_
_atom_site_type_symbol
_atom_site_label
_atom_site_fract_x
_atom_site_fract_y
_atom_site_fract_z
Si Si1 0.500000 0.707004 0.260600
Si Si2 0.000000 0.803067 0.441287
Si Si3 0.665624 0.293020 0.674832
Si Si4 0.000000 0.799269 0.780432
Si Si5 0.821377 0.290315 0.929672
Si Si6 0.343403 0.293334 0.514655
Si Si7 0.820706 0.291274 0.765719
Si Si8 0.500000 0.712619 0.423421
O O1 0.500000 0.500000 0.262689
O O2 0.582503 0.763216 0.219496
O O3 0.500000 0.771457 0.341843
O O4 0.910404 0.724441 0.458520
O O5 0.000000 0.805943 0.354601
O O6 0.000000 0.000000 0.468550
O O7 0.677065 0.500000 0.668926
O O8 0.656315 0.223180 0.594904
O O9 0.746344 0.225270 0.716585
O O10 0.913517 0.759105 0.742136
O O11 0.000000 0.000000 0.800334
O O12 0.826207 0.500000 0.928016
O O13 0.810432 0.231357 0.847744
O O14 0.743881 0.239215 0.976892
O O15 0.355750 0.500000 0.519547
O O16 0.418494 0.228198 0.465739
O O17 0.816929 0.500000 0.766823
O O18 0.500000 0.500000 0.422072
#
# Coordination Sequence:
#
# PCOD9356055 Si02
#       8
#     4   4   8   4   8   8   8   4
#     4  11  22  35  55  81 106 133 166 212 264 307
#     4   8  16  32  51  72 103 141 175 209 255 308
#     4  10  21  37  56  76 102 140 178 210 251 308
#     4  10  18  28  49  80 107 133 171 221 269 306
#     4   9  17  31  52  76 102 134 171 211 254 299
#     4  10  20  35  54  75 102 135 169 208 254 303
#     4   9  18  34  54  75 103 140 179 216 255 305
#     4   9  19  35  53  75 104 133 160 200 258 309
#
# _framework density 20.491679999999999
#
# number of rings (size 3 to 8) (size 9 to 14) (size 15 to 20)
#    0.000    2.500    0.000    3.500    0.000    5.333 
#    0.000    2.083    0.000    3.000    0.000    0.000 
#    0.000    0.000    0.000    0.000    0.000    0.000 
#
# Total GULP energy -133927.100095 kJ/mol
# GULP energy per Si atom -5580.295837 kJ/mol
# Density = 2.044504 g / cm^3
# Si number density = 20.491680 Si / 1000 Ang^3
#
#
#
# Elastic Constant Matrix: (Units=GPa)
#
#
# Indices 1 2 3 4 5 6 
#
# 1 219.0682 -12.8015 111.0486 0.0000 0.0000 0.0000
# 2 -12.8015 30.8154 3.1179 0.0000 0.0000 0.0000
# 3 111.0486 3.1179 148.0829 0.0000 0.0000 0.0000
# 4 0.0000 0.0000 0.0000 -13.7890 0.0000 0.0000
# 5 0.0000 0.0000 0.0000 0.0000 -54.4881 0.0000
# 6 0.0000 0.0000 0.0000 0.0000 0.0000 54.1823
#
#
#
# Elastic Compliance Matrix: (Units=1/GPa)
#
#
# Indices 1 2 3 4 5 6 
#
# 1 0.007792 0.003836 -0.005924 0.000000 0.000000 0.000000
# 2 0.003836 0.034409 -0.003601 0.000000 0.000000 0.000000
# 3 -0.005924 -0.003601 0.011271 0.000000 0.000000 0.000000
# 4 0.000000 0.000000 0.000000 -0.072522 0.000000 0.000000
# 5 0.000000 0.000000 0.000000 0.000000 -0.018353 0.000000
# 6 0.000000 0.000000 0.000000 0.000000 0.000000 0.018456
#
#
# Mechanical properties :
#
#
# Convention : Reuss Voigt Hill
#
# Bulk Modulus (GPa) = 23.75611 66.74405 45.25008
# Shear Modulus (GPa) = 773.49608 16.95448 395.22528
#
# Velocity S-wave (km/s) = 19.44962 2.87955 13.90287
# Velocity P-wave (km/s) = 22.71568 6.61043 16.72871
#
# Compressibility (1/GPa) = 0.04209443
#
# Stress axis : x y z
#
# Youngs Moduli (GPa) = 128.33792 29.06185 88.72116
#
# Poissons Ratio (x) = -0.11149 0.52558
# Poissons Ratio (y) = -0.49235 0.31952
# Poissons Ratio (z) = 0.76027 0.10466
#
# Static dielectric constant tensor:
#      x y z
#    x 1.741530 0.000000 0.000000 
#    y 0.000000 1.754730 0.000000 
#    z 0.000000 0.000000 1.704020 
# 
# From -- ./inp_files/18221.got.cif
#   From: 2010.05.17/outbox.cif.g08.bks.cpg/sg38_10_cif.got.tgz:18221.got - 2010.06.03 18:07:57.
