data_PCOD9356748
_publ_section_title
;
Structure prediction by ZEFSAII (Michael W. Deem and Ramdas Pophale) SiO2 
 PCOD9356748
Probable space group: A M M 2
;
_chemical_formula_sum "Si O2"
_cell_formula_units_Z 64
_cell_length_a 21.262990
_cell_length_b 7.411933
_cell_length_c 19.080410
_cell_angle_alpha 90.000000
_cell_angle_beta 90.000000
_cell_angle_gamma 90.000000
_cell_volume 3007.069892
_symmetry_space_group_name_H-M "A M M 2"
_symmetry_group_IT_number 38
_symmetry_cell_setting 'orthorhombic'
loop_
_space_group_symop_operation_xyz
x,y,z
-x,-y,z
-x,y,z
x,-y,z
x,1/2+y,1/2+z
-x,1/2-y,1/2+z
-x,1/2+y,1/2+z
x,1/2-y,1/2+z
loop_
_atom_site_type_symbol
_atom_site_label
_atom_site_fract_x
_atom_site_fract_y
_atom_site_fract_z
Si Si1 0.810375 0.785824 0.193540
Si Si2 0.570933 0.780255 0.201500
Si Si3 0.809613 0.217127 0.858214
Si Si4 0.688080 0.721524 0.609487
Si Si5 0.070738 0.780033 0.107580
Si Si6 0.929052 0.280335 0.445861
Si Si7 0.429241 0.782597 0.362031
Si Si8 0.693587 0.711752 0.450558
O O1 0.806763 0.759168 0.276354
O O2 0.748581 0.718138 0.153649
O O3 0.874624 0.715491 0.158923
O O4 0.810958 0.000000 0.181116
O O5 0.500000 0.724001 0.183001
O O6 0.624599 0.720205 0.148574
O O7 0.583766 0.724251 0.281865
O O8 0.571280 0.000000 0.201589
O O9 0.873807 0.281903 0.894903
O O10 0.748716 0.285532 0.900704
O O11 0.809909 0.000000 0.863171
O O12 0.687129 0.500000 0.609546
O O13 0.692145 0.784259 0.529393
O O14 0.000000 0.721536 0.126238
O O15 0.070154 0.000000 0.108864
O O16 0.083396 0.728622 0.026723
O O17 0.929166 0.500000 0.444572
O O18 0.000000 0.222525 0.427102
O O19 0.500000 0.721893 0.381180
O O20 0.373738 0.727578 0.413340
O O21 0.430187 0.000000 0.361528
O O22 0.707572 0.500000 0.458328
#
# Coordination Sequence:
#
# PCOD9356748 Si02
#       8
#     8   8   8   8   8   8   8   8
#     4  10  19  31  49  70  92 122 159 197 238 283
#     4   8  14  26  45  67  89 114 146 184 222 261
#     4  10  20  32  46  69 100 127 156 197 241 286
#     4   9  17  29  46  68  91 117 154 195 229 266
#     4   8  14  26  46  71  94 117 153 200 241 277
#     4   8  14  27  48  70  93 126 164 198 236 284
#     4   9  18  33  52  73  98 127 156 187 228 283
#     4  10  20  32  48  71  97 124 156 199 243 277
#
# _framework density 21.283176999999998
#
# number of rings (size 3 to 8) (size 9 to 14) (size 15 to 20)
#    0.000    3.000    0.000    3.000    0.000    5.750 
#    0.000    1.875    0.000    3.000    0.000    1.750 
#    0.000    0.000    0.000    0.000    0.000    0.000 
#
# Total GULP energy -178664.371014 kJ/mol
# GULP energy per Si atom -5583.261594 kJ/mol
# Density = 2.123474 g / cm^3
# Si number density = 21.283177 Si / 1000 Ang^3
#
#
#
# Elastic Constant Matrix: (Units=GPa)
#
#
# Indices 1 2 3 4 5 6 
#
# 1 207.4623 -0.6623 157.8544 0.0000 0.0000 0.0000
# 2 -0.6623 65.9184 -3.1229 0.0000 0.0000 0.0000
# 3 157.8544 -3.1229 190.6413 0.0000 0.0000 0.0000
# 4 0.0000 0.0000 0.0000 -8.6125 0.0000 0.0000
# 5 0.0000 0.0000 0.0000 0.0000 58.7337 0.0000
# 6 0.0000 0.0000 0.0000 0.0000 0.0000 -19.4983
#
#
#
# Elastic Compliance Matrix: (Units=1/GPa)
#
#
# Indices 1 2 3 4 5 6 
#
# 1 0.013038 -0.000381 -0.010802 0.000000 0.000000 0.000000
# 2 -0.000381 0.015193 0.000564 0.000000 0.000000 0.000000
# 3 -0.010802 0.000564 0.014199 0.000000 0.000000 0.000000
# 4 0.000000 0.000000 0.000000 -0.116111 0.000000 0.000000
# 5 0.000000 0.000000 0.000000 0.000000 0.017026 0.000000
# 6 0.000000 0.000000 0.000000 0.000000 0.000000 -0.051286
#
#
# Mechanical properties :
#
#
# Convention : Reuss Voigt Hill
#
# Bulk Modulus (GPa) = 47.18542 85.79560 66.49051
# Shear Modulus (GPa) = -62.78234 26.78810 -17.99712
#
# Velocity S-wave (km/s) = -5.43715 3.55160 -2.91108
# Velocity P-wave (km/s) = 4.14709 7.56422 4.47320
#
# Compressibility (1/GPa) = 0.02119299
#
# Stress axis : x y z
#
# Youngs Moduli (GPa) = 76.69988 65.81904 70.42861
#
# Poissons Ratio (x) = 0.02506 0.76076
# Poissons Ratio (y) = 0.02920 -0.03973
# Poissons Ratio (z) = 0.82850 -0.03713
#
# Static dielectric constant tensor:
#      x y z
#    x 1.736540 0.000000 0.000000 
#    y 0.000000 1.840320 0.000000 
#    z 0.000000 0.000000 1.715460 
# 
# From -- ./inp_files/15810.got.cif
#   From: 2010.05.17/outbox.cif.g08.bks.cpg/sg38_8_cif.got.tgz:15810.got - 2010.06.03 18:07:57.
