data_PCOD9356732
_publ_section_title
;
Structure prediction by ZEFSAII (Michael W. Deem and Ramdas Pophale) SiO2 
 PCOD9356732
Probable space group: A M M 2
;
_chemical_formula_sum "Si O2"
_cell_formula_units_Z 64
_cell_length_a 14.465589
_cell_length_b 8.969333
_cell_length_c 31.783019
_cell_angle_alpha 90.000000
_cell_angle_beta 90.000000
_cell_angle_gamma 90.000000
_cell_volume 4123.741348
_symmetry_space_group_name_H-M "A M M 2"
_symmetry_group_IT_number 38
_symmetry_cell_setting 'orthorhombic'
loop_
_space_group_symop_operation_xyz
x,y,z
-x,-y,z
-x,y,z
x,-y,z
x,1/2+y,1/2+z
-x,1/2-y,1/2+z
-x,1/2+y,1/2+z
x,1/2-y,1/2+z
loop_
_atom_site_type_symbol
_atom_site_label
_atom_site_fract_x
_atom_site_fract_y
_atom_site_fract_z
Si Si1 0.389929 0.676961 0.680330
Si Si2 0.296185 0.679259 0.099122
Si Si3 0.610618 0.176537 0.338056
Si Si4 0.609067 0.178763 0.512262
Si Si5 0.713470 0.322242 0.259773
Si Si6 0.104186 0.822516 0.637753
Si Si7 0.106500 0.822635 0.229121
Si Si8 0.387721 0.828501 0.925207
O O1 0.500000 0.700253 0.682921
O O2 0.371683 0.500000 0.682628
O O3 0.351323 0.742255 0.636761
O O4 0.339703 0.757326 0.719072
O O5 0.309140 0.500000 0.102910
O O6 0.334789 0.724273 0.053692
O O7 0.187759 0.711596 0.106330
O O8 0.500000 0.201410 0.333677
O O9 0.663073 0.261950 0.301209
O O10 0.639606 0.236391 0.383920
O O11 0.626934 0.000000 0.334739
O O12 0.500000 0.212540 0.518734
O O13 0.641350 0.256717 0.469399
O O14 0.616741 0.000000 0.507208
O O15 0.712339 0.500000 0.258399
O O16 0.817674 0.260886 0.256692
O O17 0.118397 0.734100 0.681143
O O18 0.000000 0.791141 0.622310
O O19 0.109213 0.000000 0.647270
O O20 0.000000 0.790961 0.240901
O O21 0.121202 0.000000 0.230799
O O22 0.500000 0.825704 0.925833
O O23 0.358342 0.000000 0.921766
#
# Coordination Sequence:
#
# PCOD9356732 Si02
#       8
#     8   8   8   8   8   8   8   8
#     4  11  23  35  46  64  95 133 169 203 240 285
#     4  10  19  31  48  70  95 129 166 202 245 292
#     4  10  20  34  52  73  99 130 163 201 245 292
#     4   9  17  29  45  66  94 127 163 200 240 291
#     4  12  23  34  50  72  98 130 165 201 242 290
#     4   9  17  30  48  70  95 124 161 205 250 292
#     4  10  20  34  52  72  95 125 162 205 249 291
#     4   9  17  30  48  70  95 123 158 200 246 292
#
# _framework density 15.519886
#
# number of rings (size 3 to 8) (size 9 to 14) (size 15 to 20)
#    0.000    2.000    1.250    3.375    0.000    6.500 
#    0.000    1.250    0.000    0.000    0.000    0.875 
#    0.000    5.000    0.000    0.000    0.000    0.000 
#
# Total GULP energy -178564.815249 kJ/mol
# GULP energy per Si atom -5580.150477 kJ/mol
# Density = 1.548456 g / cm^3
# Si number density = 15.519886 Si / 1000 Ang^3
#
#
#
# Elastic Constant Matrix: (Units=GPa)
#
#
# Indices 1 2 3 4 5 6 
#
# 1 84.7377 60.9061 60.7801 0.0000 0.0000 0.0000
# 2 60.9061 81.6385 64.4082 0.0000 0.0000 0.0000
# 3 60.7801 64.4082 127.5604 0.0000 0.0000 0.0000
# 4 0.0000 0.0000 0.0000 28.2863 0.0000 0.0000
# 5 0.0000 0.0000 0.0000 0.0000 6.9459 0.0000
# 6 0.0000 0.0000 0.0000 0.0000 0.0000 20.3708
#
#
#
# Elastic Compliance Matrix: (Units=1/GPa)
#
#
# Indices 1 2 3 4 5 6 
#
# 1 0.026890 -0.016543 -0.004460 0.000000 0.000000 0.000000
# 2 -0.016543 0.030537 -0.007536 0.000000 0.000000 0.000000
# 3 -0.004460 -0.007536 0.013770 0.000000 0.000000 0.000000
# 4 0.000000 0.000000 0.000000 0.035353 0.000000 0.000000
# 5 0.000000 0.000000 0.000000 0.000000 0.143970 0.000000
# 6 0.000000 0.000000 0.000000 0.000000 0.000000 0.049090
#
#
# Mechanical properties :
#
#
# Convention : Reuss Voigt Hill
#
# Bulk Modulus (GPa) = 70.82838 74.01396 72.42117
# Shear Modulus (GPa) = 13.83531 18.31007 16.07269
#
# Velocity S-wave (km/s) = 2.98897 3.43852 3.22159
# Velocity P-wave (km/s) = 7.59264 7.97232 7.78479
#
# Compressibility (1/GPa) = 0.01411863
#
# Stress axis : x y z
#
# Youngs Moduli (GPa) = 37.18789 32.74764 72.62321
#
# Poissons Ratio (x) = 0.54174 0.32389
# Poissons Ratio (y) = 0.61520 0.54731
# Poissons Ratio (z) = 0.16585 0.24679
#
# Static dielectric constant tensor:
#      x y z
#    x 1.519920 0.000000 0.000000 
#    y 0.000000 1.519620 0.000000 
#    z 0.000000 0.000000 1.489110 
# 
# From -- ./inp_files/25035.got.cif
#   From: 2010.05.17/outbox.cif.g08.bks.cpg/sg38_13_cif.got.tgz:25035.got - 2010.06.03 18:07:57.
