data_PCOD9356851
_publ_section_title
;
Structure prediction by ZEFSAII (Michael W. Deem and Ramdas Pophale) SiO2 
 PCOD9356851
Probable space group: A M M 2
;
_chemical_formula_sum "Si O2"
_cell_formula_units_Z 64
_cell_length_a 20.489302
_cell_length_b 7.638829
_cell_length_c 21.105991
_cell_angle_alpha 90.000000
_cell_angle_beta 90.000000
_cell_angle_gamma 90.000000
_cell_volume 3303.388865
_symmetry_space_group_name_H-M "A M M 2"
_symmetry_group_IT_number 38
_symmetry_cell_setting 'orthorhombic'
loop_
_space_group_symop_operation_xyz
x,y,z
-x,-y,z
-x,y,z
x,-y,z
x,1/2+y,1/2+z
-x,1/2-y,1/2+z
-x,1/2+y,1/2+z
x,1/2-y,1/2+z
loop_
_atom_site_type_symbol
_atom_site_label
_atom_site_fract_x
_atom_site_fract_y
_atom_site_fract_z
Si Si1 0.574371 0.708434 0.243210
Si Si2 0.346654 0.785654 0.864960
Si Si3 0.070150 0.710512 0.919691
Si Si4 0.651246 0.288424 0.615497
Si Si5 0.212631 0.708288 0.419862
Si Si6 0.787160 0.291229 0.565618
Si Si7 0.070190 0.210335 0.567094
Si Si8 0.425383 0.713569 0.490207
O O1 0.500000 0.778169 0.240359
O O2 0.568766 0.500000 0.252855
O O3 0.616820 0.777565 0.302123
O O4 0.613650 0.735141 0.178475
O O5 0.272414 0.726244 0.877375
O O6 0.387571 0.734338 0.926996
O O7 0.345979 0.000000 0.862431
O O8 0.069072 0.500000 0.920031
O O9 0.140174 0.762328 0.892758
O O10 0.000000 0.770376 0.892655
O O11 0.071474 0.769845 0.993401
O O12 0.651612 0.500000 0.615260
O O13 0.725918 0.226584 0.606451
O O14 0.611920 0.229390 0.553250
O O15 0.221286 0.500000 0.425243
O O16 0.215875 0.778314 0.492686
O O17 0.779818 0.500000 0.560684
O O18 0.859232 0.259863 0.593521
O O19 0.000000 0.270824 0.594137
O O20 0.068656 0.000000 0.566716
O O21 0.500000 0.772070 0.489834
O O22 0.425432 0.500000 0.490766
#
# Coordination Sequence:
#
# PCOD9356851 Si02
#       8
#     8   8   8   8   8   8   8   8
#     4  10  21  35  50  69  94 124 158 196 238 285
#     4   9  16  29  47  68  93 120 153 195 237 275
#     4   8  14  24  37  57  90 127 155 179 216 272
#     4  10  19  32  49  71  96 123 156 194 237 283
#     4   9  15  25  43  66  91 116 149 195 234 266
#     4   9  16  26  42  66  94 120 151 193 234 273
#     4   8  14  24  38  59  90 126 158 185 220 272
#     4   9  15  25  46  71  90 114 152 193 232 276
#
# _framework density 19.374041999999999
#
# number of rings (size 3 to 8) (size 9 to 14) (size 15 to 20)
#    0.000    3.000    1.250    1.500    0.000    3.250 
#    0.000    3.125    0.000    0.750    0.000    0.875 
#    0.000    1.000    0.000    0.000    0.000    0.000 
#
# Total GULP energy -178253.765433 kJ/mol
# GULP energy per Si atom -5570.430170 kJ/mol
# Density = 1.932995 g / cm^3
# Si number density = 19.374042 Si / 1000 Ang^3
#
#
#
# Elastic Constant Matrix: (Units=GPa)
#
#
# Indices 1 2 3 4 5 6 
#
# 1 246.5947 6.2665 80.8979 0.0000 0.0000 0.0000
# 2 6.2665 33.3044 -0.0185 0.0000 0.0000 0.0000
# 3 80.8979 -0.0185 100.7764 0.0000 0.0000 0.0000
# 4 0.0000 0.0000 0.0000 9.7583 0.0000 0.0000
# 5 0.0000 0.0000 0.0000 0.0000 13.5957 0.0000
# 6 0.0000 0.0000 0.0000 0.0000 0.0000 0.6498
#
#
#
# Elastic Compliance Matrix: (Units=1/GPa)
#
#
# Indices 1 2 3 4 5 6 
#
# 1 0.005541 -0.001045 -0.004448 0.000000 0.000000 0.000000
# 2 -0.001045 0.030223 0.000844 0.000000 0.000000 0.000000
# 3 -0.004448 0.000844 0.013494 0.000000 0.000000 0.000000
# 4 0.000000 0.000000 0.000000 0.102477 0.000000 0.000000
# 5 0.000000 0.000000 0.000000 0.000000 0.073552 0.000000
# 6 0.000000 0.000000 0.000000 0.000000 0.000000 1.539051
#
#
# Mechanical properties :
#
#
# Convention : Reuss Voigt Hill
#
# Bulk Modulus (GPa) = 25.02472 61.66304 43.34388
# Shear Modulus (GPa) = 2.79805 24.36940 13.58373
#
# Velocity S-wave (km/s) = 1.20306 3.55045 2.65076
# Velocity P-wave (km/s) = 3.85674 6.97885 5.63821
#
# Compressibility (1/GPa) = 0.03996049
#
# Stress axis : x y z
#
# Youngs Moduli (GPa) = 180.46948 33.08716 74.10718
#
# Poissons Ratio (x) = 0.03458 0.32965
# Poissons Ratio (y) = 0.18860 -0.06258
# Poissons Ratio (z) = 0.80278 -0.02794
#
# Static dielectric constant tensor:
#      x y z
#    x 1.735910 0.000000 0.000000 
#    y 0.000000 1.737800 0.000000 
#    z 0.000000 0.000000 1.638740 
# 
# From -- ./inp_files/21501.got.cif
#   From: 2010.05.17/outbox.cif.g08.bks.cpg/sg38_11_cif.got.tgz:21501.got - 2010.06.03 18:07:57.
