data_PCOD9356832
_publ_section_title
;
Structure prediction by ZEFSAII (Michael W. Deem and Ramdas Pophale) SiO2 
 PCOD9356832
Probable space group: A M M 2
;
_chemical_formula_sum "Si O2"
_cell_formula_units_Z 48
_cell_length_a 8.976638
_cell_length_b 7.530714
_cell_length_c 36.203399
_cell_angle_alpha 90.000000
_cell_angle_beta 90.000000
_cell_angle_gamma 90.000000
_cell_volume 2447.367637
_symmetry_space_group_name_H-M "A M M 2"
_symmetry_group_IT_number 38
_symmetry_cell_setting 'orthorhombic'
loop_
_space_group_symop_operation_xyz
x,y,z
-x,-y,z
-x,y,z
x,-y,z
x,1/2+y,1/2+z
-x,1/2-y,1/2+z
-x,1/2+y,1/2+z
x,1/2-y,1/2+z
loop_
_atom_site_type_symbol
_atom_site_label
_atom_site_fract_x
_atom_site_fract_y
_atom_site_fract_z
Si Si1 0.828828 0.284443 0.185250
Si Si2 0.680208 0.000000 0.479284
Si Si3 0.675020 0.284305 0.340636
Si Si4 0.326036 0.716611 0.260396
Si Si5 0.823335 0.000000 0.559744
Si Si6 0.318115 0.204712 0.921003
Si Si7 0.326889 0.704151 0.609096
O O1 0.824382 0.500000 0.184741
O O2 0.764036 0.224717 0.224614
O O3 0.731846 0.220670 0.150883
O O4 0.000000 0.229676 0.180772
O O5 0.751804 0.000000 0.519303
O O6 0.724411 0.829966 0.454650
O O7 0.500000 0.000000 0.482929
O O8 0.500000 0.235915 0.339598
O O9 0.681314 0.500000 0.341663
O O10 0.735053 0.226761 0.300684
O O11 0.735050 0.227979 0.380592
O O12 0.500000 0.767956 0.257108
O O13 0.323608 0.500000 0.260540
O O14 0.767303 0.830956 0.582921
O O15 0.000000 0.000000 0.557357
O O16 0.500000 0.206672 0.919174
O O17 0.272880 0.000000 0.926157
O O18 0.500000 0.757596 0.607792
O O19 0.314847 0.500000 0.597342
#
# Coordination Sequence:
#
# PCOD9356832 Si02
#       7
#     8   4   8   8   4   8   8
#     4  10  19  31  51  81 116 154 192 232 284 344
#     4  10  20  34  56  84 110 140 184 236 288 342
#     4   7  10  19  38  66  99 137 182 229 281 330
#     4   8  13  22  41  69 101 143 191 236 279 328
#     4  12  26  44  64  88 120 156 190 232 292 360
#     4   8  14  26  47  76 108 140 178 230 286 335
#     4  11  24  42  66  91 114 146 191 243 294 345
#
# _framework density 19.612908999999998
#
# number of rings (size 3 to 8) (size 9 to 14) (size 15 to 20)
#    0.000    2.833    0.833    3.750    0.000    2.667 
#    0.000    1.667    1.833    1.000    0.000    2.333 
#    0.000    0.000    0.000    0.000    0.000    0.000 
#
# Total GULP energy -133864.284116 kJ/mol
# GULP energy per Si atom -5577.678505 kJ/mol
# Density = 1.956827 g / cm^3
# Si number density = 19.612909 Si / 1000 Ang^3
#
#
#
# Elastic Constant Matrix: (Units=GPa)
#
#
# Indices 1 2 3 4 5 6 
#
# 1 62.2230 24.5737 47.2903 0.0000 0.0000 0.0000
# 2 24.5737 72.7583 49.7047 0.0000 0.0000 0.0000
# 3 47.2903 49.7047 186.6397 0.0000 0.0000 0.0000
# 4 0.0000 0.0000 0.0000 -118.7281 0.0000 0.0000
# 5 0.0000 0.0000 0.0000 0.0000 -14.9966 0.0000
# 6 0.0000 0.0000 0.0000 0.0000 0.0000 -7.5555
#
#
#
# Elastic Compliance Matrix: (Units=1/GPa)
#
#
# Indices 1 2 3 4 5 6 
#
# 1 0.020908 -0.004208 -0.004177 0.000000 0.000000 0.000000
# 2 -0.004208 0.017648 -0.003634 0.000000 0.000000 0.000000
# 3 -0.004177 -0.003634 0.007384 0.000000 0.000000 0.000000
# 4 0.000000 0.000000 0.000000 -0.008423 0.000000 0.000000
# 5 0.000000 0.000000 0.000000 0.000000 -0.066682 0.000000
# 6 0.000000 0.000000 0.000000 0.000000 0.000000 -0.132354
#
#
# Mechanical properties :
#
#
# Convention : Reuss Voigt Hill
#
# Bulk Modulus (GPa) = 45.65748 62.75092 54.20420
# Shear Modulus (GPa) = -38.40800 -14.91920 -26.66360
#
# Velocity S-wave (km/s) = -4.43007 -2.76104 -3.69113
# Velocity P-wave (km/s) = 1.68450 4.67971 3.08724
#
# Compressibility (1/GPa) = 0.02190222
#
# Stress axis : x y z
#
# Youngs Moduli (GPa) = 47.82967 56.66485 135.42961
#
# Poissons Ratio (x) = 0.23844 0.56567
# Poissons Ratio (y) = 0.20127 0.49210
# Poissons Ratio (z) = 0.19978 0.20590
#
# Static dielectric constant tensor:
#      x y z
#    x 1.648620 0.000000 0.000000 
#    y 0.000000 1.737460 0.000000 
#    z 0.000000 0.000000 1.686600 
# 
# From -- ./inp_files/24415.got.cif
#   From: 2010.05.17/outbox.cif.g08.bks.cpg/sg38_13_cif.got.tgz:24415.got - 2010.06.03 18:07:57.
