data_PCOD9356038
_publ_section_title
;
Structure prediction by ZEFSAII (Michael W. Deem and Ramdas Pophale) SiO2 
 PCOD9356038
Probable space group: A M M 2
;
_chemical_formula_sum "Si O2"
_cell_formula_units_Z 58
_cell_length_a 14.838320
_cell_length_b 11.642595
_cell_length_c 13.990813
_cell_angle_alpha 90.000000
_cell_angle_beta 90.000000
_cell_angle_gamma 90.000000
_cell_volume 2417.004589
_symmetry_space_group_name_H-M "A M M 2"
_symmetry_group_IT_number 38
_symmetry_cell_setting 'orthorhombic'
loop_
_space_group_symop_operation_xyz
x,y,z
-x,-y,z
-x,y,z
x,-y,z
x,1/2+y,1/2+z
-x,1/2-y,1/2+z
-x,1/2+y,1/2+z
x,1/2-y,1/2+z
loop_
_atom_site_type_symbol
_atom_site_label
_atom_site_fract_x
_atom_site_fract_y
_atom_site_fract_z
Si Si1 0.600180 0.626352 0.993120
Si Si2 0.101429 0.373922 0.236852
Si Si3 0.785940 0.373837 0.431067
Si Si4 0.206597 0.624974 0.920773
Si Si5 0.500000 0.000000 0.175674
Si Si6 0.157080 0.128734 0.197726
Si Si7 0.355119 0.299254 0.661861
Si Si8 0.604657 0.372262 0.332322
O O1 0.500000 0.636869 0.949770
O O2 0.602790 0.500000 0.039396
O O3 0.683929 0.625948 0.920807
O O4 0.617201 0.719675 0.073374
O O5 0.112736 0.500000 0.187583
O O6 0.172675 0.374338 0.323420
O O7 0.109779 0.252738 0.181448
O O8 0.000000 0.373772 0.277623
O O9 0.810777 0.500000 0.471496
O O10 0.817497 0.248217 0.467865
O O11 0.677523 0.371410 0.417609
O O12 0.180785 0.500000 0.963656
O O13 0.170258 0.625463 0.813090
O O14 0.577014 0.098752 0.173596
O O15 0.255645 0.148379 0.153157
O O16 0.121104 0.000000 0.173281
O O17 0.364670 0.218072 0.754072
O O18 0.500000 0.357387 0.361197
O O19 0.610845 0.500000 0.289919
#
# Coordination Sequence:
#
# PCOD9356038 Si02
#       8
#     8   8   8   8   2   8   8   8
#     4  10  21  36  50  69  95 136 182 223 260 305
#     4   9  17  30  51  78 109 139 169 209 262 321
#     4   9  17  31  47  72 104 131 166 208 258 306
#     4   9  18  34  49  69  97 129 167 211 258 304
#     4  12  24  32  46  72 102 140 188 224 252 304
#     4  10  20  34  53  79 107 133 169 218 269 318
#     4  12  20  34  49  70 101 138 181 214 258 302
#     4  10  18  28  46  69  94 128 170 212 247 292
#
# _framework density 23.996645000000001
#
# number of rings (size 3 to 8) (size 9 to 14) (size 15 to 20)
#    0.000    2.069    4.828    0.414    0.000    2.483 
#    2.483    0.000    0.000    0.000    0.000    3.862 
#    0.000    8.828    0.000    0.000    0.000    0.000 
#
# Total GULP energy -161477.333272 kJ/mol
# GULP energy per Si atom -5568.183906 kJ/mol
# Density = 2.394203 g / cm^3
# Si number density = 23.996645 Si / 1000 Ang^3
#
#
#
# Elastic Constant Matrix: (Units=GPa)
#
#
# Indices 1 2 3 4 5 6 
#
# 1 66.5293 15.1040 0.6547 0.0000 0.0000 0.0000
# 2 15.1040 313.1355 31.9457 0.0000 0.0000 0.0000
# 3 0.6547 31.9457 53.4820 0.0000 0.0000 0.0000
# 4 0.0000 0.0000 0.0000 -793.0292 0.0000 0.0000
# 5 0.0000 0.0000 0.0000 0.0000 4.7605 0.0000
# 6 0.0000 0.0000 0.0000 0.0000 0.0000 34.7103
#
#
#
# Elastic Compliance Matrix: (Units=1/GPa)
#
#
# Indices 1 2 3 4 5 6 
#
# 1 0.015201 -0.000761 0.000268 0.000000 0.000000 0.000000
# 2 -0.000761 0.003439 -0.002045 0.000000 0.000000 0.000000
# 3 0.000268 -0.002045 0.019916 0.000000 0.000000 0.000000
# 4 0.000000 0.000000 0.000000 -0.001261 0.000000 0.000000
# 5 0.000000 0.000000 0.000000 0.000000 0.210061 0.000000
# 6 0.000000 0.000000 0.000000 0.000000 0.000000 0.028810
#
#
# Mechanical properties :
#
#
# Convention : Reuss Voigt Hill
#
# Bulk Modulus (GPa) = 29.86718 58.72839 44.29779
# Shear Modulus (GPa) = 17.09983 -125.01551 -53.95784
#
# Velocity S-wave (km/s) = 2.67234 -7.22566 -4.74704
# Velocity P-wave (km/s) = 4.68991 6.71467 3.39791
#
# Compressibility (1/GPa) = 0.03348157
#
# Stress axis : x y z
#
# Youngs Moduli (GPa) = 65.78513 290.79971 50.21096
#
# Poissons Ratio (x) = 0.22118 -0.01347
# Poissons Ratio (y) = 0.05003 0.10267
# Poissons Ratio (z) = -0.01764 0.59461
#
# Static dielectric constant tensor:
#      x y z
#    x 1.859720 0.000000 0.000000 
#    y 0.000000 2.126470 0.000000 
#    z 0.000000 0.000000 1.913940 
# 
# From -- ./inp_files/18443.got.cif
#   From: 2010.05.17/outbox.cif.g08.bks.cpg/sg38_10_cif.got.tgz:18443.got - 2010.06.03 18:07:57.
