data_PCOD9356346
_publ_section_title
;
Structure prediction by ZEFSAII (Michael W. Deem and Ramdas Pophale) SiO2 
 PCOD9356346
Probable space group: A M M 2
;
_chemical_formula_sum "Si O2"
_cell_formula_units_Z 46
_cell_length_a 7.391383
_cell_length_b 11.820347
_cell_length_c 30.414509
_cell_angle_alpha 90.000000
_cell_angle_beta 90.000000
_cell_angle_gamma 90.000000
_cell_volume 2657.276473
_symmetry_space_group_name_H-M "A M M 2"
_symmetry_group_IT_number 38
_symmetry_cell_setting 'orthorhombic'
loop_
_space_group_symop_operation_xyz
x,y,z
-x,-y,z
-x,y,z
x,-y,z
x,1/2+y,1/2+z
-x,1/2-y,1/2+z
-x,1/2+y,1/2+z
x,1/2-y,1/2+z
loop_
_atom_site_type_symbol
_atom_site_label
_atom_site_fract_x
_atom_site_fract_y
_atom_site_fract_z
Si Si1 0.500000 0.254365 0.950060
Si Si2 0.781853 0.272818 0.303291
Si Si3 0.784426 0.500000 0.356453
Si Si4 0.782919 0.867076 0.385463
Si Si5 0.500000 0.136655 0.545470
Si Si6 0.500000 0.000000 0.932868
Si Si7 0.793663 0.862463 0.615750
Si Si8 0.221129 0.868379 0.713257
O O1 0.671606 0.295019 0.920932
O O2 0.500000 0.119759 0.957010
O O3 0.500000 0.314496 0.996971
O O4 0.737782 0.388883 0.328658
O O5 0.726735 0.173533 0.336450
O O6 0.717499 0.289800 0.253439
O O7 0.000000 0.265764 0.300423
O O8 0.673643 0.500000 0.400946
O O9 0.000000 0.500000 0.363774
O O10 0.000000 0.848518 0.389850
O O11 0.746881 0.000000 0.391530
O O12 0.328691 0.172008 0.575031
O O13 0.500000 0.000000 0.542558
O O14 0.723840 0.830967 0.664392
O O15 0.000000 0.824196 0.610745
O O16 0.794512 0.000000 0.616584
O O17 0.000000 0.869597 0.712813
O O18 0.274912 0.000000 0.720636
#
# Coordination Sequence:
#
# PCOD9356346 Si02
#       8
#     4   8   4   8   4   2   8   8
#     4  12  24  38  55  75  99 129 170 219 260 303
#     4   9  15  26  48  74 103 138 168 198 241 294
#     4  10  18  32  50  72 108 140 166 202 242 295
#     4  10  21  36  53  75 105 141 175 206 245 294
#     4  10  20  34  50  70  95 123 159 206 257 303
#     4  12  24  36  54  78  96 128 174 210 262 306
#     4   8  15  28  46  69  98 128 159 198 246 299
#     4   8  12  21  42  71 100 131 161 194 245 295
#
# _framework density 17.310956999999998
#
# number of rings (size 3 to 8) (size 9 to 14) (size 15 to 20)
#    0.000    2.609    2.609    1.826    0.000    0.696 
#    0.000    3.478    0.000    0.000    2.261    0.000 
#    0.000    0.000    0.000    0.000    0.000    0.000 
#
# Total GULP energy -128195.598811 kJ/mol
# GULP energy per Si atom -5573.721687 kJ/mol
# Density = 1.727156 g / cm^3
# Si number density = 17.310957 Si / 1000 Ang^3
#
#
#
# Elastic Constant Matrix: (Units=GPa)
#
#
# Indices 1 2 3 4 5 6 
#
# 1 69.4853 21.2643 37.6258 0.0000 0.0000 0.0000
# 2 21.2643 65.7458 34.5499 0.0000 0.0000 0.0000
# 3 37.6258 34.5499 145.8124 0.0000 0.0000 0.0000
# 4 0.0000 0.0000 0.0000 21.5723 0.0000 0.0000
# 5 0.0000 0.0000 0.0000 0.0000 20.6262 0.0000
# 6 0.0000 0.0000 0.0000 0.0000 0.0000 8.4365
#
#
#
# Elastic Compliance Matrix: (Units=1/GPa)
#
#
# Indices 1 2 3 4 5 6 
#
# 1 0.017505 -0.003756 -0.003627 0.000000 0.000000 0.000000
# 2 -0.003756 0.018179 -0.003338 0.000000 0.000000 0.000000
# 3 -0.003627 -0.003338 0.008585 0.000000 0.000000 0.000000
# 4 0.000000 0.000000 0.000000 0.046356 0.000000 0.000000
# 5 0.000000 0.000000 0.000000 0.000000 0.048482 0.000000
# 6 0.000000 0.000000 0.000000 0.000000 0.000000 0.118533
#
#
# Mechanical properties :
#
#
# Convention : Reuss Voigt Hill
#
# Bulk Modulus (GPa) = 43.80791 51.99150 47.89971
# Shear Modulus (GPa) = 17.44040 22.63389 20.03714
#
# Velocity S-wave (km/s) = 3.17752 3.61984 3.40587
# Velocity P-wave (km/s) = 6.23086 6.89711 6.57243
#
# Compressibility (1/GPa) = 0.02282693
#
# Stress axis : x y z
#
# Youngs Moduli (GPa) = 57.12682 55.00815 116.48064
#
# Poissons Ratio (x) = 0.20659 0.42249
# Poissons Ratio (y) = 0.21454 0.38886
# Poissons Ratio (z) = 0.20721 0.18364
#
# Static dielectric constant tensor:
#      x y z
#    x 1.644040 0.000000 0.000000 
#    y 0.000000 1.567510 0.000000 
#    z 0.000000 0.000000 1.584770 
# 
# From -- ./inp_files/23371.got.cif
#   From: 2010.05.17/outbox.cif.g08.bks.cpg/sg38_12_cif.got.tgz:23371.got - 2010.06.03 18:07:57.
