data_PCOD9356088
_publ_section_title
;
Structure prediction by ZEFSAII (Michael W. Deem and Ramdas Pophale) SiO2 
 PCOD9356088
Probable space group: A M M 2
;
_chemical_formula_sum "Si O2"
_cell_formula_units_Z 56
_cell_length_a 16.292104
_cell_length_b 7.507390
_cell_length_c 20.779229
_cell_angle_alpha 90.000000
_cell_angle_beta 90.000000
_cell_angle_gamma 90.000000
_cell_volume 2541.531990
_symmetry_space_group_name_H-M "A M M 2"
_symmetry_group_IT_number 38
_symmetry_cell_setting 'orthorhombic'
loop_
_space_group_symop_operation_xyz
x,y,z
-x,-y,z
-x,y,z
x,-y,z
x,1/2+y,1/2+z
-x,1/2-y,1/2+z
-x,1/2+y,1/2+z
x,1/2-y,1/2+z
loop_
_atom_site_type_symbol
_atom_site_label
_atom_site_fract_x
_atom_site_fract_y
_atom_site_fract_z
Si Si1 0.090161 0.703826 0.391570
Si Si2 0.124480 0.703319 0.748813
Si Si3 0.305762 0.291109 0.210882
Si Si4 0.266247 0.214271 0.068928
Si Si5 0.408577 0.782768 0.827089
Si Si6 0.912928 0.282614 0.606497
Si Si7 0.729447 0.718249 0.427835
O O1 0.088342 0.500000 0.415962
O O2 0.099832 0.701229 0.314046
O O3 0.176986 0.781327 0.415508
O O4 0.000000 0.782133 0.406632
O O5 0.096911 0.500000 0.756298
O O6 0.222293 0.703989 0.736993
O O7 0.090390 0.773825 0.681261
O O8 0.293516 0.500000 0.222725
O O9 0.311815 0.265648 0.134479
O O10 0.381204 0.232531 0.254887
O O11 0.171612 0.277265 0.075037
O O12 0.264470 0.000000 0.068930
O O13 0.298071 0.270725 0.999508
O O14 0.500000 0.720416 0.842906
O O15 0.336419 0.723544 0.875030
O O16 0.410298 0.000000 0.830263
O O17 0.910799 0.500000 0.606456
O O18 0.000000 0.227671 0.577460
O O19 0.732333 0.500000 0.424309
#
# Coordination Sequence:
#
# PCOD9356088 Si02
#       7
#     8   8   8   8   8   8   8
#     4  10  19  30  47  74 106 139 175 216 261 302
#     4  10  18  29  47  71 101 136 175 216 261 306
#     4  10  18  32  54  77 102 129 170 221 266 311
#     4   9  18  31  50  73 102 139 173 208 258 312
#     4   9  17  31  55  81 101 130 174 217 258 311
#     4   8  14  24  39  62  91 124 166 207 239 282
#     4   9  17  32  50  73 106 138 174 215 252 306
#
# _framework density 22.033954999999999
#
# number of rings (size 3 to 8) (size 9 to 14) (size 15 to 20)
#    0.000    2.714    1.429    2.143    0.000    1.429 
#    0.000    4.286    0.000    6.429    0.000    0.000 
#    0.000    0.000    0.000    0.000    0.000    0.000 
#
# Total GULP energy -156229.773044 kJ/mol
# GULP energy per Si atom -5579.634752 kJ/mol
# Density = 2.198380 g / cm^3
# Si number density = 22.033955 Si / 1000 Ang^3
#
#
#
# Elastic Constant Matrix: (Units=GPa)
#
#
# Indices 1 2 3 4 5 6 
#
# 1 134.2924 5.7471 65.0378 0.0000 0.0000 0.0000
# 2 5.7471 60.9005 0.5322 0.0000 0.0000 0.0000
# 3 65.0378 0.5322 129.7981 0.0000 0.0000 0.0000
# 4 0.0000 0.0000 0.0000 13.6825 0.0000 0.0000
# 5 0.0000 0.0000 0.0000 0.0000 -6.8223 0.0000
# 6 0.0000 0.0000 0.0000 0.0000 0.0000 1.3010
#
#
#
# Elastic Compliance Matrix: (Units=1/GPa)
#
#
# Indices 1 2 3 4 5 6 
#
# 1 0.009880 -0.000889 -0.004947 0.000000 0.000000 0.000000
# 2 -0.000889 0.016501 0.000378 0.000000 0.000000 0.000000
# 3 -0.004947 0.000378 0.010182 0.000000 0.000000 0.000000
# 4 0.000000 0.000000 0.000000 0.073086 0.000000 0.000000
# 5 0.000000 0.000000 0.000000 0.000000 -0.146579 0.000000
# 6 0.000000 0.000000 0.000000 0.000000 0.000000 0.768650
#
#
# Mechanical properties :
#
#
# Convention : Reuss Voigt Hill
#
# Bulk Modulus (GPa) = 38.99247 51.95836 45.47541
# Shear Modulus (GPa) = 6.65615 18.54385 12.60000
#
# Velocity S-wave (km/s) = 1.73995 2.90419 2.39392
# Velocity P-wave (km/s) = 4.66600 5.90576 5.32210
#
# Compressibility (1/GPa) = 0.02564598
#
# Stress axis : x y z
#
# Youngs Moduli (GPa) = 101.21080 60.60304 98.21677
#
# Poissons Ratio (x) = 0.05389 0.48589
# Poissons Ratio (y) = 0.08999 -0.03711
# Poissons Ratio (z) = 0.50070 -0.02290
#
# Static dielectric constant tensor:
#      x y z
#    x 1.799980 0.000000 0.000000 
#    y 0.000000 1.856190 0.000000 
#    z 0.000000 0.000000 1.800780 
# 
# From -- ./inp_files/21313.got.cif
#   From: 2010.05.17/outbox.cif.g08.bks.cpg/sg38_11_cif.got.tgz:21313.got - 2010.06.03 18:07:57.
