data_PCOD9356697
_publ_section_title
;
Structure prediction by ZEFSAII (Michael W. Deem and Ramdas Pophale) SiO2 
 PCOD9356697
Probable space group: A M M 2
;
_chemical_formula_sum "Si O2"
_cell_formula_units_Z 56
_cell_length_a 14.550157
_cell_length_b 16.324565
_cell_length_c 12.846099
_cell_angle_alpha 90.000000
_cell_angle_beta 90.000000
_cell_angle_gamma 90.000000
_cell_volume 3051.269456
_symmetry_space_group_name_H-M "A M M 2"
_symmetry_group_IT_number 38
_symmetry_cell_setting 'orthorhombic'
loop_
_space_group_symop_operation_xyz
x,y,z
-x,-y,z
-x,y,z
x,-y,z
x,1/2+y,1/2+z
-x,1/2-y,1/2+z
-x,1/2+y,1/2+z
x,1/2-y,1/2+z
loop_
_atom_site_type_symbol
_atom_site_label
_atom_site_fract_x
_atom_site_fract_y
_atom_site_fract_z
Si Si1 0.398302 0.904175 0.337170
Si Si2 0.293463 0.096736 0.138959
Si Si3 0.608838 0.827154 0.953582
Si Si4 0.291218 0.838042 0.523713
Si Si5 0.893615 0.597827 0.948795
Si Si6 0.391809 0.598101 0.224724
Si Si7 0.898938 0.401068 0.701266
O O1 0.500000 0.867879 0.351280
O O2 0.346612 0.866183 0.238330
O O3 0.338810 0.898348 0.440382
O O4 0.408987 0.000000 0.314263
O O5 0.353954 0.108216 0.037340
O O6 0.189276 0.130114 0.138005
O O7 0.282893 0.000000 0.157565
O O8 0.500000 0.812519 0.968713
O O9 0.669105 0.748162 0.983405
O O10 0.622600 0.860212 0.837044
O O11 0.182715 0.851535 0.510698
O O12 0.329174 0.860387 0.637008
O O13 0.879035 0.500000 0.964717
O O14 0.000000 0.615752 0.975060
O O15 0.882423 0.613182 0.824532
O O16 0.500000 0.608723 0.196892
O O17 0.374700 0.500000 0.230262
O O18 0.904068 0.500000 0.689629
O O19 0.000000 0.368344 0.673009
#
# Coordination Sequence:
#
# PCOD9356697 Si02
#       7
#     8   8   8   8   8   8   8
#     4  10  19  30  50  81 110 135 172 228 283 330
#     4  10  19  34  56  80 108 145 189 236 282 337
#     4  11  25  39  54  78 114 157 197 234 284 348
#     4  12  22  35  57  83 114 145 188 240 290 341
#     4   9  17  32  56  85 115 146 185 236 293 351
#     4  10  22  40  59  80 113 160 203 234 277 349
#     4   8  14  27  51  83 111 134 169 222 283 338
#
# _framework density 18.353017000000001
#
# number of rings (size 3 to 8) (size 9 to 14) (size 15 to 20)
#    0.000    2.000    1.429    4.286    2.000    2.571 
#    0.000    0.714    0.000    1.714    0.000    2.000 
#    0.000    0.000    0.000    0.000    0.000    0.000 
#
# Total GULP energy -156115.295933 kJ/mol
# GULP energy per Si atom -5575.546283 kJ/mol
# Density = 1.831124 g / cm^3
# Si number density = 18.353017 Si / 1000 Ang^3
#
#
#
# Elastic Constant Matrix: (Units=GPa)
#
#
# Indices 1 2 3 4 5 6 
#
# 1 141.7174 31.0275 58.3162 0.0000 0.0000 0.0000
# 2 31.0275 36.1848 5.6646 0.0000 0.0000 0.0000
# 3 58.3162 5.6646 87.1079 0.0000 0.0000 0.0000
# 4 0.0000 0.0000 0.0000 20.2763 0.0000 0.0000
# 5 0.0000 0.0000 0.0000 0.0000 -10.3193 0.0000
# 6 0.0000 0.0000 0.0000 0.0000 0.0000 18.0324
#
#
#
# Elastic Compliance Matrix: (Units=1/GPa)
#
#
# Indices 1 2 3 4 5 6 
#
# 1 0.012200 -0.009277 -0.007564 0.000000 0.000000 0.000000
# 2 -0.009277 0.034975 0.003936 0.000000 0.000000 0.000000
# 3 -0.007564 0.003936 0.016288 0.000000 0.000000 0.000000
# 4 0.000000 0.000000 0.000000 0.049319 0.000000 0.000000
# 5 0.000000 0.000000 0.000000 0.000000 -0.096906 0.000000
# 6 0.000000 0.000000 0.000000 0.000000 0.000000 0.055456
#
#
# Mechanical properties :
#
#
# Convention : Reuss Voigt Hill
#
# Bulk Modulus (GPa) = 26.55854 50.55853 38.55854
# Shear Modulus (GPa) = 45.58214 16.93134 31.25674
#
# Velocity S-wave (km/s) = 4.98901 3.04062 4.13132
# Velocity P-wave (km/s) = 6.90575 6.31940 6.61907
#
# Compressibility (1/GPa) = 0.03765267
#
# Stress axis : x y z
#
# Youngs Moduli (GPa) = 81.96638 28.59218 61.39440
#
# Poissons Ratio (x) = 0.26525 0.46441
# Poissons Ratio (y) = 0.76041 -0.24167
# Poissons Ratio (z) = 0.62002 -0.11255
#
# Static dielectric constant tensor:
#      x y z
#    x 2.028660 0.000000 0.000000 
#    y 0.000000 1.626910 0.000000 
#    z 0.000000 0.000000 1.613230 
# 
# From -- ./inp_files/10117.got.cif
#   From: 2010.05.17/outbox.cif.g08.bks.cpg/sg38_6_cif.got.tgz:10117.got - 2010.06.03 18:07:57.
