data_PCOD9356873
_publ_section_title
;
Structure prediction by ZEFSAII (Michael W. Deem and Ramdas Pophale) SiO2 
 PCOD9356873
Probable space group: A M M 2
;
_chemical_formula_sum "Si O2"
_cell_formula_units_Z 64
_cell_length_a 18.638896
_cell_length_b 12.766811
_cell_length_c 15.167711
_cell_angle_alpha 90.000000
_cell_angle_beta 90.000000
_cell_angle_gamma 90.000000
_cell_volume 3609.297323
_symmetry_space_group_name_H-M "A M M 2"
_symmetry_group_IT_number 38
_symmetry_cell_setting 'orthorhombic'
loop_
_space_group_symop_operation_xyz
x,y,z
-x,-y,z
-x,y,z
x,-y,z
x,1/2+y,1/2+z
-x,1/2-y,1/2+z
-x,1/2+y,1/2+z
x,1/2-y,1/2+z
loop_
_atom_site_type_symbol
_atom_site_label
_atom_site_fract_x
_atom_site_fract_y
_atom_site_fract_z
Si Si1 0.914532 0.878195 0.883350
Si Si2 0.415684 0.291579 0.747039
Si Si3 0.690653 0.376392 0.183829
Si Si4 0.152322 0.375653 0.575198
Si Si5 0.827010 0.246409 0.242001
Si Si6 0.710211 0.245295 0.011617
Si Si7 0.579195 0.376206 0.546989
Si Si8 0.282104 0.619899 0.845689
O O1 0.876507 0.797211 0.816969
O O2 0.000000 0.870234 0.874715
O O3 0.893634 0.000000 0.863533
O O4 0.892340 0.859246 0.985215
O O5 0.500000 0.285843 0.771321
O O6 0.374885 0.180765 0.734181
O O7 0.411865 0.345656 0.650068
O O8 0.362256 0.355549 0.810534
O O9 0.685463 0.500000 0.188308
O O10 0.767011 0.334233 0.219436
O O11 0.690147 0.331993 0.084340
O O12 0.150307 0.500000 0.595965
O O13 0.131722 0.299858 0.656772
O O14 0.232437 0.335552 0.551193
O O15 0.776807 0.149595 0.272753
O O16 0.736600 0.303493 0.925650
O O17 0.638991 0.181042 0.991222
O O18 0.500000 0.342286 0.519885
O O19 0.585272 0.500000 0.539276
O O20 0.277081 0.500000 0.871677
#
# Coordination Sequence:
#
# PCOD9356873 Si02
#       8
#     8   8   8   8   8   8   8   8
#     4  10  21  38  61  89 120 153 187 225 277 338
#     4   9  19  33  49  71 101 138 185 233 282 335
#     4   9  18  32  52  75 102 139 186 228 278 337
#     4  10  20  36  60  87 114 150 193 233 278 330
#     4  10  20  36  58  85 113 150 188 237 276 326
#     4  10  19  32  50  77 107 141 179 230 281 331
#     4   9  17  31  50  70  97 135 178 227 279 330
#     4  11  21  33  52  78 107 141 184 230 283 337
#
# _framework density 17.731984000000001
#
# number of rings (size 3 to 8) (size 9 to 14) (size 15 to 20)
#    0.000    2.250    1.250    2.625    0.000    2.000 
#    0.000    0.625    0.000    3.375    0.000    0.000 
#    0.000    0.000    0.000    0.000    0.000    0.000 
#
# Total GULP energy -178367.552549 kJ/mol
# GULP energy per Si atom -5573.986017 kJ/mol
# Density = 1.769162 g / cm^3
# Si number density = 17.731984 Si / 1000 Ang^3
#
#
#
# Elastic Constant Matrix: (Units=GPa)
#
#
# Indices 1 2 3 4 5 6 
#
# 1 63.2102 34.3567 27.3532 0.0000 0.0000 0.0000
# 2 34.3567 73.1943 24.9750 0.0000 0.0000 0.0000
# 3 27.3532 24.9750 64.3423 0.0000 0.0000 0.0000
# 4 0.0000 0.0000 0.0000 22.0646 0.0000 0.0000
# 5 0.0000 0.0000 0.0000 0.0000 23.4264 0.0000
# 6 0.0000 0.0000 0.0000 0.0000 0.0000 14.7822
#
#
#
# Elastic Compliance Matrix: (Units=1/GPa)
#
#
# Indices 1 2 3 4 5 6 
#
# 1 0.023415 -0.008754 -0.006556 0.000000 0.000000 0.000000
# 2 -0.008754 0.019021 -0.003662 0.000000 0.000000 0.000000
# 3 -0.006556 -0.003662 0.019750 0.000000 0.000000 0.000000
# 4 0.000000 0.000000 0.000000 0.045321 0.000000 0.000000
# 5 0.000000 0.000000 0.000000 0.000000 0.042687 0.000000
# 6 0.000000 0.000000 0.000000 0.000000 0.000000 0.067649
#
#
# Mechanical properties :
#
#
# Convention : Reuss Voigt Hill
#
# Bulk Modulus (GPa) = 41.24955 41.56852 41.40904
# Shear Modulus (GPa) = 18.94882 19.65875 19.30379
#
# Velocity S-wave (km/s) = 3.27253 3.33327 3.30304
# Velocity P-wave (km/s) = 6.13128 6.18933 6.16037
#
# Compressibility (1/GPa) = 0.02424269
#
# Stress axis : x y z
#
# Youngs Moduli (GPa) = 42.70693 52.57450 50.63174
#
# Poissons Ratio (x) = 0.46023 0.33197
# Poissons Ratio (y) = 0.37385 0.18539
# Poissons Ratio (z) = 0.28001 0.19251
#
# Static dielectric constant tensor:
#      x y z
#    x 1.595400 0.000000 0.000000 
#    y 0.000000 1.579350 0.000000 
#    z 0.000000 0.000000 1.636460 
# 
# From -- ./inp_files/15268.got.cif
#   From: 2010.05.17/outbox.cif.g08.bks.cpg/sg38_8_cif.got.tgz:15268.got - 2010.06.03 18:07:57.
