data_PCOD9356644
_publ_section_title
;
Structure prediction by ZEFSAII (Michael W. Deem and Ramdas Pophale) SiO2 
 PCOD9356644
Probable space group: A M M 2
;
_chemical_formula_sum "Si O2"
_cell_formula_units_Z 48
_cell_length_a 7.477979
_cell_length_b 19.801143
_cell_length_c 15.585483
_cell_angle_alpha 90.000000
_cell_angle_beta 90.000000
_cell_angle_gamma 90.000000
_cell_volume 2307.781923
_symmetry_space_group_name_H-M "A M M 2"
_symmetry_group_IT_number 38
_symmetry_cell_setting 'orthorhombic'
loop_
_space_group_symop_operation_xyz
x,y,z
-x,-y,z
-x,y,z
x,-y,z
x,1/2+y,1/2+z
-x,1/2-y,1/2+z
-x,1/2+y,1/2+z
x,1/2-y,1/2+z
loop_
_atom_site_type_symbol
_atom_site_label
_atom_site_fract_x
_atom_site_fract_y
_atom_site_fract_z
Si Si1 0.214707 0.923571 0.110420
Si Si2 0.780474 0.171724 0.264331
Si Si3 0.218554 0.923245 0.613809
Si Si4 0.288658 0.923718 0.911763
Si Si5 0.782219 0.576862 0.918568
Si Si6 0.208746 0.175561 0.759933
O O1 0.277103 0.868961 0.179420
O O2 0.000000 0.828283 0.265374
O O3 0.281165 0.000000 0.127806
O O4 0.256357 0.907286 0.011591
O O5 0.722467 0.129758 0.347703
O O6 0.717671 0.248950 0.266691
O O7 0.000000 0.074158 0.117851
O O8 0.272523 0.907716 0.516141
O O9 0.285000 0.870267 0.683513
O O10 0.000000 0.923278 0.615326
O O11 0.273598 0.000000 0.634570
O O12 0.500000 0.926366 0.898120
O O13 0.218180 0.867679 0.846967
O O14 0.216330 0.000000 0.896023
O O15 0.727483 0.500000 0.897872
O O16 0.000000 0.577056 0.918013
O O17 0.000000 0.184513 0.738972
#
# Coordination Sequence:
#
# PCOD9356644 Si02
#       6
#     8   8   8   8   8   8
#     4   9  17  31  52  76 101 130 165 204 244 287
#     4   9  17  27  43  71 102 128 154 190 239 292
#     4   8  14  24  39  60  86 117 151 185 224 273
#     4  10  21  36  52  70  94 128 171 213 249 288
#     4   8  13  23  40  63  93 125 153 185 228 278
#     4  10  19  30  47  72 100 127 156 196 246 296
#
# _framework density 20.799191
#
# number of rings (size 3 to 8) (size 9 to 14) (size 15 to 20)
#    0.000    3.000    0.000    2.500    0.000    5.000 
#    0.000    5.833    0.000    0.000    0.000    1.167 
#    0.000    4.000    0.000    0.000    0.000    0.000 
#
# Total GULP energy -133949.584797 kJ/mol
# GULP energy per Si atom -5581.232700 kJ/mol
# Density = 2.075185 g / cm^3
# Si number density = 20.799191 Si / 1000 Ang^3
#
#
#
# Elastic Constant Matrix: (Units=GPa)
#
#
# Indices 1 2 3 4 5 6 
#
# 1 57.5331 3.4083 -5.4215 0.0000 0.0000 0.0000
# 2 3.4083 204.2490 151.6438 0.0000 0.0000 0.0000
# 3 -5.4215 151.6438 154.6300 0.0000 0.0000 0.0000
# 4 0.0000 0.0000 0.0000 -309.1133 0.0000 0.0000
# 5 0.0000 0.0000 0.0000 0.0000 -45.8256 0.0000
# 6 0.0000 0.0000 0.0000 0.0000 0.0000 -6.8989
#
#
#
# Elastic Compliance Matrix: (Units=1/GPa)
#
#
# Indices 1 2 3 4 5 6 
#
# 1 0.017866 -0.002807 0.003379 0.000000 0.000000 0.000000
# 2 -0.002807 0.018448 -0.018190 0.000000 0.000000 0.000000
# 3 0.003379 -0.018190 0.024425 0.000000 0.000000 0.000000
# 4 0.000000 0.000000 0.000000 -0.003235 0.000000 0.000000
# 5 0.000000 0.000000 0.000000 0.000000 -0.021822 0.000000
# 6 0.000000 0.000000 0.000000 0.000000 0.000000 -0.144952
#
#
# Mechanical properties :
#
#
# Convention : Reuss Voigt Hill
#
# Bulk Modulus (GPa) = 39.21185 79.51926 59.36556
# Shear Modulus (GPa) = -76.29752 -54.58213 -65.43983
#
# Velocity S-wave (km/s) = -6.06321 -5.12829 -5.61525
# Velocity P-wave (km/s) = 5.48846 1.80251 3.66567
#
# Compressibility (1/GPa) = 0.02550249
#
# Stress axis : x y z
#
# Youngs Moduli (GPa) = 55.97218 54.20609 40.94249
#
# Poissons Ratio (x) = 0.15216 -0.13835
# Poissons Ratio (y) = 0.15711 0.74475
# Poissons Ratio (z) = -0.18914 0.98602
#
# Static dielectric constant tensor:
#      x y z
#    x 1.772330 0.000000 0.000000 
#    y 0.000000 1.734780 0.000000 
#    z 0.000000 0.000000 1.708500 
# 
# From -- ./inp_files/12010.got.cif
#   From: 2010.05.17/outbox.cif.g08.bks.cpg/sg38_7_cif.got.tgz:12010.got - 2010.06.03 18:07:57.
