data_PCOD9356911
_publ_section_title
;
Structure prediction by ZEFSAII (Michael W. Deem and Ramdas Pophale) SiO2 
 PCOD9356911
Probable space group: A M M 2
;
_chemical_formula_sum "Si O2"
_cell_formula_units_Z 48
_cell_length_a 16.359083
_cell_length_b 20.425844
_cell_length_c 8.501414
_cell_angle_alpha 90.000000
_cell_angle_beta 90.000000
_cell_angle_gamma 90.000000
_cell_volume 2840.731143
_symmetry_space_group_name_H-M "A M M 2"
_symmetry_group_IT_number 38
_symmetry_cell_setting 'orthorhombic'
loop_
_space_group_symop_operation_xyz
x,y,z
-x,-y,z
-x,y,z
x,-y,z
x,1/2+y,1/2+z
-x,1/2-y,1/2+z
-x,1/2+y,1/2+z
x,1/2-y,1/2+z
loop_
_atom_site_type_symbol
_atom_site_label
_atom_site_fract_x
_atom_site_fract_y
_atom_site_fract_z
Si Si1 0.350525 0.724680 0.510000
Si Si2 0.255191 0.673951 0.797772
Si Si3 0.410118 0.845462 0.710550
Si Si4 0.743851 0.577679 0.080096
Si Si5 0.091280 0.725218 0.852329
Si Si6 0.907066 0.350844 0.180517
O O1 0.309883 0.680009 0.643699
O O2 0.282964 0.765057 0.409536
O O3 0.400431 0.781998 0.597329
O O4 0.400523 0.682396 0.386171
O O5 0.161233 0.687264 0.759081
O O6 0.261979 0.610170 0.906187
O O7 0.500000 0.874856 0.686755
O O8 0.333631 0.892077 0.672513
O O9 0.740699 0.500000 0.075162
O O10 0.830008 0.601776 0.155772
O O11 0.103804 0.802615 0.828619
O O12 0.000000 0.711213 0.793714
O O13 0.096216 0.698024 0.029423
O O14 0.000000 0.378905 0.183393
#
# Coordination Sequence:
#
# PCOD9356911 Si02
#       6
#     8   8   8   8   8   8
#     4   9  17  30  51  76  96 116 148 197 256 299
#     4   9  16  29  48  70  99 127 155 196 242 288
#     4  10  19  32  52  75  98 122 153 198 248 296
#     4  10  21  34  47  66  96 137 174 197 226 273
#     4   9  15  24  42  70  97 119 149 191 242 285
#     4   9  17  29  48  73  98 123 154 197 243 287
#
# _framework density 16.897058999999999
#
# number of rings (size 3 to 8) (size 9 to 14) (size 15 to 20)
#    0.000    2.667    0.000    4.500    0.000    0.667 
#    0.000    1.667    0.000    0.000    0.000    0.000 
#    0.000   14.667    0.000    0.000    0.000    0.000 
#
# Total GULP energy -133658.609534 kJ/mol
# GULP energy per Si atom -5569.108731 kJ/mol
# Density = 1.685860 g / cm^3
# Si number density = 16.897059 Si / 1000 Ang^3
#
#
#
# Elastic Constant Matrix: (Units=GPa)
#
#
# Indices 1 2 3 4 5 6 
#
# 1 135.8757 58.3464 39.7251 0.0000 0.0000 0.0000
# 2 58.3464 91.4924 25.8844 0.0000 0.0000 0.0000
# 3 39.7251 25.8844 54.0843 0.0000 0.0000 0.0000
# 4 0.0000 0.0000 0.0000 12.3205 0.0000 0.0000
# 5 0.0000 0.0000 0.0000 0.0000 10.8713 0.0000
# 6 0.0000 0.0000 0.0000 0.0000 0.0000 7.8314
#
#
#
# Elastic Compliance Matrix: (Units=1/GPa)
#
#
# Indices 1 2 3 4 5 6 
#
# 1 0.011476 -0.005706 -0.005698 0.000000 0.000000 0.000000
# 2 -0.005706 0.015479 -0.003217 0.000000 0.000000 0.000000
# 3 -0.005698 -0.003217 0.024214 0.000000 0.000000 0.000000
# 4 0.000000 0.000000 0.000000 0.081165 0.000000 0.000000
# 5 0.000000 0.000000 0.000000 0.000000 0.091986 0.000000
# 6 0.000000 0.000000 0.000000 0.000000 0.000000 0.127691
#
#
# Mechanical properties :
#
#
# Convention : Reuss Voigt Hill
#
# Bulk Modulus (GPa) = 45.60611 58.81823 52.21217
# Shear Modulus (GPa) = 12.86792 16.70441 14.78616
#
# Velocity S-wave (km/s) = 2.76261 3.14761 2.96137
# Velocity P-wave (km/s) = 6.10124 6.93507 6.53148
#
# Compressibility (1/GPa) = 0.02192689
#
# Stress axis : x y z
#
# Youngs Moduli (GPa) = 87.13872 64.60371 41.29765
#
# Poissons Ratio (x) = 0.36865 0.23532
# Poissons Ratio (y) = 0.49724 0.13285
# Poissons Ratio (z) = 0.49653 0.20782
#
# Static dielectric constant tensor:
#      x y z
#    x 1.627780 0.000000 0.000000 
#    y 0.000000 1.528970 0.000000 
#    z 0.000000 0.000000 1.595780 
# 
# From -- ./inp_files/5579.got.cif
#   From: 2010.05.17/outbox.cif.g08.bks.cpg/sg38_3_cif.got.tgz:5579.got - 2010.06.03 18:07:57.
