data_PCOD9356641
_publ_section_title
;
Structure prediction by ZEFSAII (Michael W. Deem and Ramdas Pophale) SiO2 
 PCOD9356641
Probable space group: A M M 2
;
_chemical_formula_sum "Si O2"
_cell_formula_units_Z 64
_cell_length_a 14.212480
_cell_length_b 8.751153
_cell_length_c 29.105679
_cell_angle_alpha 90.000000
_cell_angle_beta 90.000000
_cell_angle_gamma 90.000000
_cell_volume 3620.035910
_symmetry_space_group_name_H-M "A M M 2"
_symmetry_group_IT_number 38
_symmetry_cell_setting 'orthorhombic'
loop_
_space_group_symop_operation_xyz
x,y,z
-x,-y,z
-x,y,z
x,-y,z
x,1/2+y,1/2+z
-x,1/2-y,1/2+z
-x,1/2+y,1/2+z
x,1/2-y,1/2+z
loop_
_atom_site_type_symbol
_atom_site_label
_atom_site_fract_x
_atom_site_fract_y
_atom_site_fract_z
Si Si1 0.256198 0.323284 0.073090
Si Si2 0.109877 0.184339 0.403834
Si Si3 0.738466 0.321513 0.831440
Si Si4 0.388163 0.170156 0.419233
Si Si5 0.394187 0.816181 0.757126
Si Si6 0.394161 0.186054 0.649967
Si Si7 0.109996 0.182438 0.003295
Si Si8 0.612111 0.331170 0.508291
O O1 0.230958 0.500000 0.079440
O O2 0.305109 0.261204 0.119728
O O3 0.171831 0.240537 0.046137
O O4 0.342870 0.300867 0.038170
O O5 0.170522 0.237469 0.359790
O O6 0.140039 0.248055 0.453779
O O7 0.000000 0.222810 0.398095
O O8 0.119564 0.000000 0.405841
O O9 0.754949 0.500000 0.820576
O O10 0.658882 0.309967 0.870529
O O11 0.692204 0.242832 0.787481
O O12 0.500000 0.173603 0.414660
O O13 0.361489 0.297793 0.455829
O O14 0.361111 0.000000 0.436348
O O15 0.500000 0.764275 0.772280
O O16 0.384357 0.772962 0.703499
O O17 0.394602 0.000000 0.759368
O O18 0.500000 0.236368 0.634588
O O19 0.394390 0.000000 0.646915
O O20 0.000000 0.224713 0.009593
O O21 0.116740 0.000000 0.000285
O O22 0.500000 0.326620 0.511632
O O23 0.644885 0.500000 0.522753
#
# Coordination Sequence:
#
# PCOD9356641 Si02
#       8
#     8   8   8   8   8   8   8   8
#     4  11  20  31  52  75  95 126 167 206 244 292
#     4   9  18  33  52  74 101 133 169 205 241 288
#     4  10  19  30  47  71  96 124 160 202 245 287
#     4   9  17  28  41  60  90 126 161 195 233 285
#     4   9  18  33  52  73  98 128 162 202 248 296
#     4   8  16  32  52  74  99 127 162 203 245 291
#     4  10  21  36  53  75 104 133 162 203 253 299
#     4  10  20  31  43  65  99 132 161 197 241 290
#
# _framework density 17.679380999999999
#
# number of rings (size 3 to 8) (size 9 to 14) (size 15 to 20)
#    0.000    2.500    0.000    3.375    0.000    4.750 
#    0.000    2.500    0.000    2.250    0.000    3.500 
#    0.000    0.000    0.000    0.000    0.000    0.000 
#
# Total GULP energy -178235.264680 kJ/mol
# GULP energy per Si atom -5569.852021 kJ/mol
# Density = 1.763914 g / cm^3
# Si number density = 17.679381 Si / 1000 Ang^3
#
#
#
# Elastic Constant Matrix: (Units=GPa)
#
#
# Indices 1 2 3 4 5 6 
#
# 1 99.6978 18.0299 62.6150 0.0000 0.0000 0.0000
# 2 18.0299 18.0316 20.2359 0.0000 0.0000 0.0000
# 3 62.6150 20.2359 78.0036 0.0000 0.0000 0.0000
# 4 0.0000 0.0000 0.0000 19.8398 0.0000 0.0000
# 5 0.0000 0.0000 0.0000 0.0000 35.5295 0.0000
# 6 0.0000 0.0000 0.0000 0.0000 0.0000 15.7130
#
#
#
# Elastic Compliance Matrix: (Units=1/GPa)
#
#
# Indices 1 2 3 4 5 6 
#
# 1 0.020331 -0.002841 -0.015583 0.000000 0.000000 0.000000
# 2 -0.002841 0.078632 -0.018118 0.000000 0.000000 0.000000
# 3 -0.015583 -0.018118 0.030029 0.000000 0.000000 0.000000
# 4 0.000000 0.000000 0.000000 0.050404 0.000000 0.000000
# 5 0.000000 0.000000 0.000000 0.000000 0.028146 0.000000
# 6 0.000000 0.000000 0.000000 0.000000 0.000000 0.063641
#
#
# Mechanical properties :
#
#
# Convention : Reuss Voigt Hill
#
# Bulk Modulus (GPa) = 17.88680 44.16607 31.02643
# Shear Modulus (GPa) = 13.77778 20.53996 17.15887
#
# Velocity S-wave (km/s) = 2.79465 3.41222 3.11876
# Velocity P-wave (km/s) = 4.53351 6.36869 5.52779
#
# Compressibility (1/GPa) = 0.05590715
#
# Stress axis : x y z
#
# Youngs Moduli (GPa) = 49.18603 12.71748 33.30117
#
# Poissons Ratio (x) = 0.03613 0.51893
# Poissons Ratio (y) = 0.13974 0.60336
# Poissons Ratio (z) = 0.76647 0.23042
#
# Static dielectric constant tensor:
#      x y z
#    x 1.636230 0.000000 0.000000 
#    y 0.000000 1.630790 0.000000 
#    z 0.000000 0.000000 1.608950 
# 
# From -- ./inp_files/25113.got.cif
#   From: 2010.05.17/outbox.cif.g08.bks.cpg/sg38_13_cif.got.tgz:25113.got - 2010.06.03 18:07:57.
