data_PCOD9356520
_publ_section_title
;
Structure prediction by ZEFSAII (Michael W. Deem and Ramdas Pophale) SiO2 
 PCOD9356520
Probable space group: A M M 2
;
_chemical_formula_sum "Si O2"
_cell_formula_units_Z 56
_cell_length_a 9.169645
_cell_length_b 13.961661
_cell_length_c 29.774442
_cell_angle_alpha 90.000000
_cell_angle_beta 90.000000
_cell_angle_gamma 90.000000
_cell_volume 3811.827530
_symmetry_space_group_name_H-M "A M M 2"
_symmetry_group_IT_number 38
_symmetry_cell_setting 'orthorhombic'
loop_
_space_group_symop_operation_xyz
x,y,z
-x,-y,z
-x,y,z
x,-y,z
x,1/2+y,1/2+z
-x,1/2-y,1/2+z
-x,1/2+y,1/2+z
x,1/2-y,1/2+z
loop_
_atom_site_type_symbol
_atom_site_label
_atom_site_fract_x
_atom_site_fract_y
_atom_site_fract_z
Si Si1 0.675817 0.387120 0.663670
Si Si2 0.326103 0.798320 0.886540
Si Si3 0.326302 0.608964 0.833782
Si Si4 0.173823 0.202027 0.248926
Si Si5 0.826821 0.114132 0.972338
Si Si6 0.332265 0.883803 0.063073
Si Si7 0.826548 0.891116 0.801784
O O1 0.500000 0.380253 0.667104
O O2 0.713180 0.500000 0.668854
O O3 0.752208 0.327688 0.702556
O O4 0.716292 0.354918 0.613100
O O5 0.500000 0.810074 0.889424
O O6 0.293785 0.689139 0.871201
O O7 0.251968 0.829181 0.932689
O O8 0.261690 0.863058 0.846348
O O9 0.500000 0.615642 0.824094
O O10 0.293993 0.500000 0.847203
O O11 0.239537 0.637227 0.788940
O O12 0.205508 0.311167 0.264300
O O13 0.000000 0.189657 0.246455
O O14 0.000000 0.126848 0.969917
O O15 0.796026 0.000000 0.966904
O O16 0.766285 0.144265 0.021085
O O17 0.500000 0.853112 0.055982
O O18 0.333447 0.000000 0.064310
O O19 0.000000 0.884151 0.811913
O O20 0.795025 0.000000 0.788213
#
# Coordination Sequence:
#
# PCOD9356520 Si02
#       7
#     8   8   8   8   8   8   8
#     4   9  17  29  44  62  87 117 142 167 206 252
#     4  10  19  29  44  65  85 109 143 177 208 246
#     4   9  18  32  46  60  83 114 144 174 209 248
#     4  10  19  28  42  65  87 110 143 177 209 247
#     4  10  19  29  42  62  89 117 140 167 208 253
#     4   8  15  28  44  61  82 110 143 174 204 244
#     4   9  18  32  45  58  83 116 145 175 211 248
#
# _framework density 14.691115999999999
#
# number of rings (size 3 to 8) (size 9 to 14) (size 15 to 20)
#    0.000    2.714    0.000    3.000    0.000    6.857 
#    0.000    1.429    0.000    0.000    0.000    1.000 
#    0.000    1.143    0.000    0.000    0.000    0.000 
#
# Total GULP energy -156033.546255 kJ/mol
# GULP energy per Si atom -5572.626652 kJ/mol
# Density = 1.465768 g / cm^3
# Si number density = 14.691116 Si / 1000 Ang^3
#
#
#
# Elastic Constant Matrix: (Units=GPa)
#
#
# Indices 1 2 3 4 5 6 
#
# 1 48.1700 42.9045 66.1611 0.0000 0.0000 0.0000
# 2 42.9045 85.3438 60.7525 0.0000 0.0000 0.0000
# 3 66.1611 60.7525 148.0639 0.0000 0.0000 0.0000
# 4 0.0000 0.0000 0.0000 19.8097 0.0000 0.0000
# 5 0.0000 0.0000 0.0000 0.0000 13.1024 0.0000
# 6 0.0000 0.0000 0.0000 0.0000 0.0000 19.0421
#
#
#
# Elastic Compliance Matrix: (Units=1/GPa)
#
#
# Indices 1 2 3 4 5 6 
#
# 1 0.068982 -0.017992 -0.023442 0.000000 0.000000 0.000000
# 2 -0.017992 0.021244 -0.000677 0.000000 0.000000 0.000000
# 3 -0.023442 -0.000677 0.017507 0.000000 0.000000 0.000000
# 4 0.000000 0.000000 0.000000 0.050480 0.000000 0.000000
# 5 0.000000 0.000000 0.000000 0.000000 0.076322 0.000000
# 6 0.000000 0.000000 0.000000 0.000000 0.000000 0.052515
#
#
# Mechanical properties :
#
#
# Convention : Reuss Voigt Hill
#
# Bulk Modulus (GPa) = 42.53311 69.02375 55.77843
# Shear Modulus (GPa) = 13.18879 17.84149 15.51514
#
# Velocity S-wave (km/s) = 2.99948 3.48866 3.25328
# Velocity P-wave (km/s) = 6.40393 7.95695 7.22230
#
# Compressibility (1/GPa) = 0.02351109
#
# Stress axis : x y z
#
# Youngs Moduli (GPa) = 14.49647 47.07108 57.12145
#
# Poissons Ratio (x) = 0.84690 1.33903
# Poissons Ratio (y) = 0.26082 0.03869
# Poissons Ratio (z) = 0.33982 0.03188
#
# Static dielectric constant tensor:
#      x y z
#    x 1.488730 0.000000 0.000000 
#    y 0.000000 1.480680 0.000000 
#    z 0.000000 0.000000 1.471010 
# 
# From -- ./inp_files/24633.got.cif
#   From: 2010.05.17/outbox.cif.g08.bks.cpg/sg38_13_cif.got.tgz:24633.got - 2010.06.03 18:07:57.
