data_PCOD9356401
_publ_section_title
;
Structure prediction by ZEFSAII (Michael W. Deem and Ramdas Pophale) SiO2 
 PCOD9356401
Probable space group: A M M 2
;
_chemical_formula_sum "Si O2"
_cell_formula_units_Z 56
_cell_length_a 9.461237
_cell_length_b 20.910555
_cell_length_c 14.722977
_cell_angle_alpha 90.000000
_cell_angle_beta 90.000000
_cell_angle_gamma 90.000000
_cell_volume 2912.789598
_symmetry_space_group_name_H-M "A M M 2"
_symmetry_group_IT_number 38
_symmetry_cell_setting 'orthorhombic'
loop_
_space_group_symop_operation_xyz
x,y,z
-x,-y,z
-x,y,z
x,-y,z
x,1/2+y,1/2+z
-x,1/2-y,1/2+z
-x,1/2+y,1/2+z
x,1/2-y,1/2+z
loop_
_atom_site_type_symbol
_atom_site_label
_atom_site_fract_x
_atom_site_fract_y
_atom_site_fract_z
Si Si1 0.340194 0.423795 0.746720
Si Si2 0.832265 0.210474 0.756349
Si Si3 0.169700 0.500000 0.104039
Si Si4 0.337762 0.627512 0.399271
Si Si5 0.165681 0.161407 0.364967
Si Si6 0.829546 0.854322 0.566583
Si Si7 0.833780 0.423197 0.566155
Si Si8 0.654039 0.000000 0.780444
O O1 0.500000 0.399653 0.734417
O O2 0.345727 0.500000 0.752898
O O3 0.266196 0.395368 0.834528
O O4 0.241676 0.408658 0.660914
O O5 0.740744 0.174617 0.831448
O O6 0.818073 0.283824 0.788454
O O7 0.785122 0.186001 0.656190
O O8 0.000000 0.194899 0.764896
O O9 0.217630 0.570457 0.067558
O O10 0.221458 0.500000 0.208066
O O11 0.000000 0.500000 0.096963
O O12 0.500000 0.645771 0.419098
O O13 0.246632 0.615511 0.488741
O O14 0.339957 0.560979 0.344631
O O15 0.203442 0.178194 0.469438
O O16 0.000000 0.142730 0.365091
O O17 0.000000 0.856112 0.572369
O O18 0.819102 0.500000 0.549471
O O19 0.000000 0.408464 0.568761
O O20 0.500000 0.000000 0.732575
#
# Coordination Sequence:
#
# PCOD9356401 Si02
#       8
#     8   8   4   8   8   8   8   4
#     4  10  22  40  60  84 116 151 191 245 304 362
#     4  10  21  38  58  83 117 156 201 248 293 354
#     4  10  18  32  58  83 112 151 196 251 298 350
#     4  11  21  34  54  83 120 158 195 245 304 359
#     4  10  22  39  61  86 115 153 197 248 299 358
#     4   9  19  35  57  87 116 150 196 244 297 346
#     4  10  20  34  56  85 115 151 195 239 287 350
#     4  10  20  32  50  81 118 151 188 243 306 358
#
# _framework density 19.225555
#
# number of rings (size 3 to 8) (size 9 to 14) (size 15 to 20)
#    0.000    2.000    2.143    1.286    1.000    3.714 
#    0.000    4.286    0.000    0.000    0.000    0.000 
#    0.000    0.000    0.000    0.000    0.000    0.000 
#
# Total GULP energy -156065.655503 kJ/mol
# GULP energy per Si atom -5573.773411 kJ/mol
# Density = 1.918180 g / cm^3
# Si number density = 19.225555 Si / 1000 Ang^3
#
#
#
# Elastic Constant Matrix: (Units=GPa)
#
#
# Indices 1 2 3 4 5 6 
#
# 1 74.9073 27.9403 49.4844 0.0000 0.0000 0.0000
# 2 27.9403 36.6747 34.1787 0.0000 0.0000 0.0000
# 3 49.4844 34.1787 129.5658 0.0000 0.0000 0.0000
# 4 0.0000 0.0000 0.0000 12.0752 0.0000 0.0000
# 5 0.0000 0.0000 0.0000 0.0000 5.2899 0.0000
# 6 0.0000 0.0000 0.0000 0.0000 0.0000 21.2952
#
#
#
# Elastic Compliance Matrix: (Units=1/GPa)
#
#
# Indices 1 2 3 4 5 6 
#
# 1 0.020835 -0.011214 -0.004999 0.000000 0.000000 0.000000
# 2 -0.011214 0.042191 -0.006847 0.000000 0.000000 0.000000
# 3 -0.004999 -0.006847 0.011434 0.000000 0.000000 0.000000
# 4 0.000000 0.000000 0.000000 0.082814 0.000000 0.000000
# 5 0.000000 0.000000 0.000000 0.000000 0.189038 0.000000
# 6 0.000000 0.000000 0.000000 0.000000 0.000000 0.046959
#
#
# Mechanical properties :
#
#
# Convention : Reuss Voigt Hill
#
# Bulk Modulus (GPa) = 35.28657 51.59496 43.44077
# Shear Modulus (GPa) = 11.13989 16.36838 13.75413
#
# Velocity S-wave (km/s) = 2.40975 2.92102 2.67761
# Velocity P-wave (km/s) = 5.11237 6.18639 5.67485
#
# Compressibility (1/GPa) = 0.02833939
#
# Stress axis : x y z
#
# Youngs Moduli (GPa) = 47.99557 23.70180 87.46172
#
# Poissons Ratio (x) = 0.26579 0.43725
# Poissons Ratio (y) = 0.53823 0.59883
# Poissons Ratio (z) = 0.23994 0.16228
#
# Static dielectric constant tensor:
#      x y z
#    x 1.651080 0.000000 0.000000 
#    y 0.000000 1.910490 0.000000 
#    z 0.000000 0.000000 1.651120 
# 
# From -- ./inp_files/12506.got.cif
#   From: 2010.05.17/outbox.cif.g08.bks.cpg/sg38_7_cif.got.tgz:12506.got - 2010.06.03 18:07:57.
