data_PCOD9356510
_publ_section_title
;
Structure prediction by ZEFSAII (Michael W. Deem and Ramdas Pophale) SiO2 
 PCOD9356510
Probable space group: A M M 2
;
_chemical_formula_sum "Si O2"
_cell_formula_units_Z 64
_cell_length_a 7.892331
_cell_length_b 19.479775
_cell_length_c 22.190551
_cell_angle_alpha 90.000000
_cell_angle_beta 90.000000
_cell_angle_gamma 90.000000
_cell_volume 3411.593776
_symmetry_space_group_name_H-M "A M M 2"
_symmetry_group_IT_number 38
_symmetry_cell_setting 'orthorhombic'
loop_
_space_group_symop_operation_xyz
x,y,z
-x,-y,z
-x,y,z
x,-y,z
x,1/2+y,1/2+z
-x,1/2-y,1/2+z
-x,1/2+y,1/2+z
x,1/2-y,1/2+z
loop_
_atom_site_type_symbol
_atom_site_label
_atom_site_fract_x
_atom_site_fract_y
_atom_site_fract_z
Si Si1 0.792954 0.371442 0.595390
Si Si2 0.200173 0.775400 0.636671
Si Si3 0.304737 0.221674 0.265443
Si Si4 0.810005 0.182877 0.866669
Si Si5 0.204570 0.925000 0.224880
Si Si6 0.792118 0.422437 0.464467
Si Si7 0.697084 0.422702 0.273630
Si Si8 0.797014 0.925168 0.634063
O O1 0.732683 0.292859 0.603919
O O2 0.741177 0.411653 0.655641
O O3 0.742338 0.405930 0.533043
O O4 0.000000 0.370573 0.595564
O O5 0.216141 0.760396 0.708775
O O6 0.270483 0.849560 0.616128
O O7 0.000000 0.777859 0.624245
O O8 0.500000 0.230192 0.251580
O O9 0.269774 0.253485 0.331020
O O10 0.259381 0.141624 0.261777
O O11 0.730745 0.139771 0.921741
O O12 0.808162 0.125971 0.814128
O O13 0.000000 0.202716 0.884229
O O14 0.000000 0.925189 0.225164
O O15 0.263988 0.000000 0.245247
O O16 0.738369 0.500000 0.447925
O O17 0.000000 0.421857 0.460848
O O18 0.500000 0.400046 0.274944
O O19 0.704863 0.500000 0.297293
O O20 0.760114 0.424624 0.205426
O O21 0.000000 0.925410 0.624631
O O22 0.732068 0.000000 0.611400
#
# Coordination Sequence:
#
# PCOD9356510 Si02
#       8
#     8   8   8   8   8   8   8   8
#     4   8  14  26  46  71  96 121 153 193 237 282
#     4   9  16  28  46  67  91 120 155 195 239 288
#     4  11  21  31  45  66  94 125 156 194 238 283
#     4  11  20  30  44  62  88 123 163 200 235 274
#     4   9  17  31  53  77  99 123 150 187 237 289
#     4   9  17  28  44  68  94 122 161 204 238 273
#     4  10  19  28  39  58  85 118 153 188 229 275
#     4   9  16  25  39  60  87 119 152 186 225 275
#
# _framework density 18.759561000000001
#
# number of rings (size 3 to 8) (size 9 to 14) (size 15 to 20)
#    0.000    2.500    1.250    3.375    0.000    3.000 
#    0.000    0.000    0.000    6.000    0.000    0.875 
#    0.000    5.000    0.000    0.000    0.000    1.375 
#
# Total GULP energy -178202.504729 kJ/mol
# GULP energy per Si atom -5568.828273 kJ/mol
# Density = 1.871686 g / cm^3
# Si number density = 18.759561 Si / 1000 Ang^3
#
#
#
# Elastic Constant Matrix: (Units=GPa)
#
#
# Indices 1 2 3 4 5 6 
#
# 1 19.1781 6.2103 -0.5939 0.0000 0.0000 0.0000
# 2 6.2103 153.8520 32.0786 0.0000 0.0000 0.0000
# 3 -0.5939 32.0786 56.8283 0.0000 0.0000 0.0000
# 4 0.0000 0.0000 0.0000 22.1510 0.0000 0.0000
# 5 0.0000 0.0000 0.0000 0.0000 -25.8160 0.0000
# 6 0.0000 0.0000 0.0000 0.0000 0.0000 -17.4644
#
#
#
# Elastic Compliance Matrix: (Units=1/GPa)
#
#
# Indices 1 2 3 4 5 6 
#
# 1 0.053033 -0.002557 0.001998 0.000000 0.000000 0.000000
# 2 -0.002557 0.007490 -0.004255 0.000000 0.000000 0.000000
# 3 0.001998 -0.004255 0.020019 0.000000 0.000000 0.000000
# 4 0.000000 0.000000 0.000000 0.045145 0.000000 0.000000
# 5 0.000000 0.000000 0.000000 0.000000 -0.038736 0.000000
# 6 0.000000 0.000000 0.000000 0.000000 0.000000 -0.057259
#
#
# Mechanical properties :
#
#
# Convention : Reuss Voigt Hill
#
# Bulk Modulus (GPa) = 14.10163 33.91649 24.00906
# Shear Modulus (GPa) = 79.41775 8.58502 44.00139
#
# Velocity S-wave (km/s) = 6.51356 2.14156 4.84834
# Velocity P-wave (km/s) = 8.00637 4.92279 6.64589
#
# Compressibility (1/GPa) = 0.07091378
#
# Stress axis : x y z
#
# Youngs Moduli (GPa) = 18.85631 133.50948 49.95134
#
# Poissons Ratio (x) = 0.34141 -0.09979
# Poissons Ratio (y) = 0.04822 0.21253
# Poissons Ratio (z) = -0.03767 0.56805
#
# Static dielectric constant tensor:
#      x y z
#    x 1.682790 0.000000 0.000000 
#    y 0.000000 1.724340 0.000000 
#    z 0.000000 0.000000 1.625060 
# 
# From -- ./inp_files/22289.got.cif
#   From: 2010.05.17/outbox.cif.g08.bks.cpg/sg38_12_cif.got.tgz:22289.got - 2010.06.03 18:07:57.
