data_PCOD9356795
_publ_section_title
;
Structure prediction by ZEFSAII (Michael W. Deem and Ramdas Pophale) SiO2 
 PCOD9356795
Probable space group: A M M 2
;
_chemical_formula_sum "Si O2"
_cell_formula_units_Z 64
_cell_length_a 29.321397
_cell_length_b 7.677999
_cell_length_c 14.643184
_cell_angle_alpha 90.000000
_cell_angle_beta 90.000000
_cell_angle_gamma 90.000000
_cell_volume 3296.614989
_symmetry_space_group_name_H-M "A M M 2"
_symmetry_group_IT_number 38
_symmetry_cell_setting 'orthorhombic'
loop_
_space_group_symop_operation_xyz
x,y,z
-x,-y,z
-x,y,z
x,-y,z
x,1/2+y,1/2+z
-x,1/2-y,1/2+z
-x,1/2+y,1/2+z
x,1/2-y,1/2+z
loop_
_atom_site_type_symbol
_atom_site_label
_atom_site_fract_x
_atom_site_fract_y
_atom_site_fract_z
Si Si1 0.375733 0.291051 0.194480
Si Si2 0.697815 0.289348 0.341470
Si Si3 0.051657 0.290128 0.324262
Si Si4 0.800034 0.205069 0.819851
Si Si5 0.125501 0.213823 0.678163
Si Si6 0.374874 0.291609 0.988616
Si Si7 0.448286 0.209895 0.342189
Si Si8 0.873050 0.706934 0.970065
O O1 0.370745 0.500000 0.189923
O O2 0.334523 0.225940 0.258763
O O3 0.422253 0.253074 0.248525
O O4 0.375103 0.222465 0.091492
O O5 0.698612 0.500000 0.338185
O O6 0.749381 0.222675 0.333066
O O7 0.671978 0.241564 0.434667
O O8 0.049927 0.500000 0.319724
O O9 0.081417 0.231225 0.237043
O O10 0.080920 0.244963 0.413814
O O11 0.000000 0.223883 0.325732
O O12 0.830380 0.274146 0.735760
O O13 0.794511 0.000000 0.801709
O O14 0.831265 0.222983 0.909650
O O15 0.125411 0.272808 0.573735
O O16 0.125553 0.000000 0.678344
O O17 0.380801 0.500000 0.994030
O O18 0.415798 0.223989 0.924109
O O19 0.500000 0.275037 0.345861
O O20 0.449715 0.000000 0.349034
O O21 0.867279 0.500000 0.973867
#
# Coordination Sequence:
#
# PCOD9356795 Si02
#       8
#     8   8   8   8   8   8   8   8
#     4   9  18  32  50  72  95 123 161 199 233 274
#     4   9  18  32  50  71  95 124 159 197 233 275
#     4   9  18  34  53  70  93 128 162 189 229 288
#     4   9  18  34  51  67  94 130 161 190 231 284
#     4   8  16  31  50  70  93 124 159 192 229 277
#     4   9  18  32  50  71  96 124 154 194 240 283
#     4   9  18  32  48  68  96 127 156 190 237 287
#     4  10  19  31  50  75  98 121 156 202 240 271
#
# _framework density 19.413853
#
# number of rings (size 3 to 8) (size 9 to 14) (size 15 to 20)
#    0.000    3.000    0.000    1.125    0.000    3.500 
#    0.000   10.000    0.000    0.000    0.000    0.000 
#    0.000    0.000    0.000    0.000    0.000    0.000 
#
# Total GULP energy -178435.093089 kJ/mol
# GULP energy per Si atom -5576.096659 kJ/mol
# Density = 1.936967 g / cm^3
# Si number density = 19.413853 Si / 1000 Ang^3
#
#
#
# Elastic Constant Matrix: (Units=GPa)
#
#
# Indices 1 2 3 4 5 6 
#
# 1 155.5087 -8.7146 68.1200 0.0000 0.0000 0.0000
# 2 -8.7146 28.0043 -4.8787 0.0000 0.0000 0.0000
# 3 68.1200 -4.8787 166.1016 0.0000 0.0000 0.0000
# 4 0.0000 0.0000 0.0000 -18.7053 0.0000 0.0000
# 5 0.0000 0.0000 0.0000 0.0000 5.1529 0.0000
# 6 0.0000 0.0000 0.0000 0.0000 0.0000 17.7427
#
#
#
# Elastic Compliance Matrix: (Units=1/GPa)
#
#
# Indices 1 2 3 4 5 6 
#
# 1 0.007939 0.001913 -0.003200 0.000000 0.000000 0.000000
# 2 0.001913 0.036354 0.000283 0.000000 0.000000 0.000000
# 3 -0.003200 0.000283 0.007341 0.000000 0.000000 0.000000
# 4 0.000000 0.000000 0.000000 -0.053461 0.000000 0.000000
# 5 0.000000 0.000000 0.000000 0.000000 0.194067 0.000000
# 6 0.000000 0.000000 0.000000 0.000000 0.000000 0.056361
#
#
# Mechanical properties :
#
#
# Convention : Reuss Voigt Hill
#
# Bulk Modulus (GPa) = 20.15033 50.96310 35.55672
# Shear Modulus (GPa) = 18.71605 20.51058 19.61332
#
# Velocity S-wave (km/s) = 3.10829 3.25390 3.18193
# Velocity P-wave (km/s) = 4.82534 6.35807 5.64397
#
# Compressibility (1/GPa) = 0.04962697
#
# Stress axis : x y z
#
# Youngs Moduli (GPa) = 125.95410 27.50764 136.22103
#
# Poissons Ratio (x) = -0.05263 0.43588
# Poissons Ratio (y) = -0.24098 -0.03857
# Poissons Ratio (z) = 0.40303 -0.00779
#
# Static dielectric constant tensor:
#      x y z
#    x 1.671750 0.000000 0.000000 
#    y 0.000000 1.720370 0.000000 
#    z 0.000000 0.000000 1.662530 
# 
# From -- ./inp_files/15920.got.cif
#   From: 2010.05.17/outbox.cif.g08.bks.cpg/sg38_8_cif.got.tgz:15920.got - 2010.06.03 18:07:57.
