data_PCOD9356491
_publ_section_title
;
Structure prediction by ZEFSAII (Michael W. Deem and Ramdas Pophale) SiO2 
 PCOD9356491
Probable space group: A M M 2
;
_chemical_formula_sum "Si O2"
_cell_formula_units_Z 58
_cell_length_a 17.142496
_cell_length_b 16.100719
_cell_length_c 10.011262
_cell_angle_alpha 90.000000
_cell_angle_beta 90.000000
_cell_angle_gamma 90.000000
_cell_volume 2763.173496
_symmetry_space_group_name_H-M "A M M 2"
_symmetry_group_IT_number 38
_symmetry_cell_setting 'orthorhombic'
loop_
_space_group_symop_operation_xyz
x,y,z
-x,-y,z
-x,y,z
x,-y,z
x,1/2+y,1/2+z
-x,1/2-y,1/2+z
-x,1/2+y,1/2+z
x,1/2-y,1/2+z
loop_
_atom_site_type_symbol
_atom_site_label
_atom_site_fract_x
_atom_site_fract_y
_atom_site_fract_z
Si Si1 0.750284 0.908557 0.305060
Si Si2 0.000000 0.000000 0.917996
Si Si3 0.714190 0.148169 0.602826
Si Si4 0.145275 0.737075 0.693382
Si Si5 0.415752 0.094412 0.281517
Si Si6 0.589188 0.753813 0.978151
Si Si7 0.297848 0.095043 0.896651
Si Si8 0.118647 0.651810 0.435493
O O1 0.725318 0.897147 0.460498
O O2 0.808243 0.836790 0.265848
O O3 0.670284 0.901634 0.218793
O O4 0.783903 0.000000 0.285103
O O5 0.932157 0.071330 0.919301
O O6 0.790806 0.203017 0.625975
O O7 0.640320 0.209933 0.592764
O O8 0.704724 0.093961 0.734485
O O9 0.097982 0.697973 0.572674
O O10 0.104909 0.789275 0.808678
O O11 0.500000 0.094467 0.210408
O O12 0.415689 0.177618 0.371193
O O13 0.413986 0.000000 0.345820
O O14 0.500000 0.772800 0.012898
O O15 0.637539 0.834754 0.932165
O O16 0.211718 0.128239 0.940165
O O17 0.311758 0.000000 0.942097
#
# Coordination Sequence:
#
# PCOD9356491 Si02
#       8
#     8   2   8   8   8   8   8   8
#     4  10  19  31  56  93 127 163 226 277 324 398
#     4  12  28  48  76 114 136 184 220 286 348 432
#     4  10  18  36  58  92 126 178 229 281 341 405
#     4  11  21  42  68 100 133 181 213 279 332 417
#     4   8  14  27  47  75 116 165 215 278 337 381
#     4  10  20  35  55  86 131 179 232 290 340 402
#     4  11  22  39  65  96 135 183 232 288 352 422
#     4  11  24  45  74 102 141 175 231 274 352 416
#
# _framework density 20.990358000000001
#
# number of rings (size 3 to 8) (size 9 to 14) (size 15 to 20)
#    0.000    1.793    3.448    2.897    0.966    1.931 
#    0.000    0.690    0.000    2.483    0.000    0.000 
#    0.000    0.000    0.000    0.000    0.000    0.000 
#
# Total GULP energy -161479.411920 kJ/mol
# GULP energy per Si atom -5568.255583 kJ/mol
# Density = 2.094258 g / cm^3
# Si number density = 20.990358 Si / 1000 Ang^3
#
#
#
# Elastic Constant Matrix: (Units=GPa)
#
#
# Indices 1 2 3 4 5 6 
#
# 1 80.0400 44.0753 26.3543 0.0000 0.0000 0.0000
# 2 44.0753 182.6626 61.5995 0.0000 0.0000 0.0000
# 3 26.3543 61.5995 92.2469 0.0000 0.0000 0.0000
# 4 0.0000 0.0000 0.0000 301.1252 0.0000 0.0000
# 5 0.0000 0.0000 0.0000 0.0000 -15.4315 0.0000
# 6 0.0000 0.0000 0.0000 0.0000 0.0000 48.4617
#
#
#
# Elastic Compliance Matrix: (Units=1/GPa)
#
#
# Indices 1 2 3 4 5 6 
#
# 1 0.014802 -0.002769 -0.002380 0.000000 0.000000 0.000000
# 2 -0.002769 0.007584 -0.004273 0.000000 0.000000 0.000000
# 3 -0.002380 -0.004273 0.014374 0.000000 0.000000 0.000000
# 4 0.000000 0.000000 0.000000 0.003321 0.000000 0.000000
# 5 0.000000 0.000000 0.000000 0.000000 -0.064803 0.000000
# 6 0.000000 0.000000 0.000000 0.000000 0.000000 0.020635
#
#
# Mechanical properties :
#
#
# Convention : Reuss Voigt Hill
#
# Bulk Modulus (GPa) = 55.81662 68.77864 62.29763
# Shear Modulus (GPa) = 241.21186 81.69245 161.45216
#
# Velocity S-wave (km/s) = 10.73150 6.24528 8.77977
# Velocity P-wave (km/s) = 13.42396 9.21100 11.51185
#
# Compressibility (1/GPa) = 0.01791581
#
# Stress axis : x y z
#
# Youngs Moduli (GPa) = 67.55755 131.86070 69.57120
#
# Poissons Ratio (x) = 0.36514 0.16556
# Poissons Ratio (y) = 0.18708 0.29728
# Poissons Ratio (z) = 0.16077 0.56345
#
# Static dielectric constant tensor:
#      x y z
#    x 1.738990 0.000000 0.000000 
#    y 0.000000 1.732200 0.000000 
#    z 0.000000 0.000000 1.818110 
# 
# From -- ./inp_files/10565.got.cif
#   From: 2010.05.17/outbox.cif.g08.bks.cpg/sg38_6_cif.got.tgz:10565.got - 2010.06.03 18:07:57.
