data_PCOD9356890
_publ_section_title
;
Structure prediction by ZEFSAII (Michael W. Deem and Ramdas Pophale) SiO2 
 PCOD9356890
Probable space group: A M M 2
;
_chemical_formula_sum "Si O2"
_cell_formula_units_Z 56
_cell_length_a 17.722776
_cell_length_b 17.006959
_cell_length_c 9.243538
_cell_angle_alpha 90.000000
_cell_angle_beta 90.000000
_cell_angle_gamma 90.000000
_cell_volume 2786.099640
_symmetry_space_group_name_H-M "A M M 2"
_symmetry_group_IT_number 38
_symmetry_cell_setting 'orthorhombic'
loop_
_space_group_symop_operation_xyz
x,y,z
-x,-y,z
-x,y,z
x,-y,z
x,1/2+y,1/2+z
-x,1/2-y,1/2+z
-x,1/2+y,1/2+z
x,1/2-y,1/2+z
loop_
_atom_site_type_symbol
_atom_site_label
_atom_site_fract_x
_atom_site_fract_y
_atom_site_fract_z
Si Si1 0.917875 0.715277 0.705790
Si Si2 0.915160 0.643794 0.011759
Si Si3 0.730763 0.170585 0.837688
Si Si4 0.344383 0.411888 0.763968
Si Si5 0.249424 0.664262 0.997425
Si Si6 0.413830 0.595339 0.478284
Si Si7 0.190718 0.086572 0.073826
O O1 0.907670 0.804368 0.655994
O O2 0.859175 0.656006 0.636838
O O3 0.000000 0.691027 0.649852
O O4 0.919171 0.703659 0.876711
O O5 0.829053 0.612753 0.987442
O O6 0.000000 0.604447 0.012751
O O7 0.735654 0.177584 0.666225
O O8 0.755617 0.251805 0.915164
O O9 0.647134 0.143091 0.885409
O O10 0.785187 0.105523 0.910092
O O11 0.369327 0.500000 0.795258
O O12 0.402412 0.378310 0.646222
O O13 0.267121 0.412808 0.668950
O O14 0.319578 0.373888 0.913637
O O15 0.500000 0.607152 0.433499
O O16 0.398088 0.500000 0.472563
O O17 0.155933 0.000000 0.087307
#
# Coordination Sequence:
#
# PCOD9356890 Si02
#       7
#     8   8   8   8   8   8   8
#     4  10  19  32  51  76 104 140 188 237 284 337
#     4  10  20  33  52  79 108 146 192 237 288 332
#     4  11  22  34  57  85 110 150 190 233 280 335
#     4   9  19  35  58  84 110 143 184 226 280 341
#     4  12  21  36  58  83 117 150 190 243 284 327
#     4   9  19  40  65  87 116 150 182 223 279 343
#     4  10  19  34  51  74 107 142 184 232 280 335
#
# _framework density 20.099782999999999
#
# number of rings (size 3 to 8) (size 9 to 14) (size 15 to 20)
#    0.000    1.857    2.857    3.857    0.000    1.429 
#    0.000    3.571    0.000    2.143    0.000    0.000 
#    0.000    0.000    0.000    0.000    0.000    0.000 
#
# Total GULP energy -155877.943161 kJ/mol
# GULP energy per Si atom -5567.069399 kJ/mol
# Density = 2.005404 g / cm^3
# Si number density = 20.099783 Si / 1000 Ang^3
#
#
#
# Elastic Constant Matrix: (Units=GPa)
#
#
# Indices 1 2 3 4 5 6 
#
# 1 104.1716 8.9466 6.2293 0.0000 0.0000 0.0000
# 2 8.9466 22.7429 5.1810 0.0000 0.0000 0.0000
# 3 6.2293 5.1810 126.2453 0.0000 0.0000 0.0000
# 4 0.0000 0.0000 0.0000 20.2628 0.0000 0.0000
# 5 0.0000 0.0000 0.0000 0.0000 21.5482 0.0000
# 6 0.0000 0.0000 0.0000 0.0000 0.0000 13.8962
#
#
#
# Elastic Compliance Matrix: (Units=1/GPa)
#
#
# Indices 1 2 3 4 5 6 
#
# 1 0.009949 -0.003838 -0.000333 0.000000 0.000000 0.000000
# 2 -0.003838 0.045865 -0.001693 0.000000 0.000000 0.000000
# 3 -0.000333 -0.001693 0.008007 0.000000 0.000000 0.000000
# 4 0.000000 0.000000 0.000000 0.049351 0.000000 0.000000
# 5 0.000000 0.000000 0.000000 0.000000 0.046408 0.000000
# 6 0.000000 0.000000 0.000000 0.000000 0.000000 0.071962
#
#
# Mechanical properties :
#
#
# Convention : Reuss Voigt Hill
#
# Bulk Modulus (GPa) = 19.19647 32.65263 25.92455
# Shear Modulus (GPa) = 19.18391 26.66164 22.92278
#
# Velocity S-wave (km/s) = 3.09274 3.64602 3.38072
# Velocity P-wave (km/s) = 4.72491 5.83139 5.30706
#
# Compressibility (1/GPa) = 0.05209291
#
# Stress axis : x y z
#
# Youngs Moduli (GPa) = 100.51176 21.80308 124.89048
#
# Poissons Ratio (x) = 0.08368 0.04164
# Poissons Ratio (y) = 0.38575 0.21143
# Poissons Ratio (z) = 0.03351 0.03691
#
# Static dielectric constant tensor:
#      x y z
#    x 1.777800 0.000000 0.000000 
#    y 0.000000 1.744020 0.000000 
#    z 0.000000 0.000000 1.727030 
# 
# From -- ./inp_files/6430.got.cif
#   From: 2010.05.17/outbox.cif.g08.bks.cpg/sg38_4_cif.got.tgz:6430.got - 2010.06.03 18:07:57.
