data_PCOD9356458
_publ_section_title
;
Structure prediction by ZEFSAII (Michael W. Deem and Ramdas Pophale) SiO2 
 PCOD9356458
Probable space group: A M M 2
;
_chemical_formula_sum "Si O2"
_cell_formula_units_Z 58
_cell_length_a 13.251430
_cell_length_b 7.450166
_cell_length_c 26.578669
_cell_angle_alpha 90.000000
_cell_angle_beta 90.000000
_cell_angle_gamma 90.000000
_cell_volume 2623.988486
_symmetry_space_group_name_H-M "A M M 2"
_symmetry_group_IT_number 38
_symmetry_cell_setting 'orthorhombic'
loop_
_space_group_symop_operation_xyz
x,y,z
-x,-y,z
-x,y,z
x,-y,z
x,1/2+y,1/2+z
-x,1/2-y,1/2+z
-x,1/2+y,1/2+z
x,1/2-y,1/2+z
loop_
_atom_site_type_symbol
_atom_site_label
_atom_site_fract_x
_atom_site_fract_y
_atom_site_fract_z
Si Si1 0.388286 0.217207 0.683660
Si Si2 0.108789 0.295813 0.325083
Si Si3 0.500000 0.000000 0.330837
Si Si4 0.619607 0.791096 0.464011
Si Si5 0.671597 0.293708 0.072504
Si Si6 0.888390 0.282355 0.605840
Si Si7 0.169371 0.291409 0.717342
Si Si8 0.326342 0.706900 0.354663
O O1 0.500000 0.276134 0.700519
O O2 0.369056 0.280201 0.625771
O O3 0.291309 0.275506 0.715480
O O4 0.386758 0.000000 0.683374
O O5 0.107969 0.500000 0.344436
O O6 0.120602 0.300535 0.264856
O O7 0.215035 0.218491 0.342557
O O8 0.000000 0.213678 0.337809
O O9 0.588423 0.158688 0.334722
O O10 0.500000 0.791456 0.455897
O O11 0.639632 0.713258 0.519350
O O12 0.665414 0.701055 0.415204
O O13 0.653484 0.000000 0.464015
O O14 0.635194 0.500000 0.071697
O O15 0.792566 0.287415 0.075673
O O16 0.883123 0.500000 0.605059
O O17 0.869937 0.224287 0.663550
O O18 0.000000 0.228490 0.589120
O O19 0.142507 0.500000 0.720855
O O20 0.336910 0.500000 0.335240
#
# Coordination Sequence:
#
# PCOD9356458 Si02
#       8
#     8   8   2   8   8   8   8   8
#     4   9  17  32  50  75 112 154 190 230 285 347
#     4  10  23  43  64  88 117 151 197 252 305 367
#     4  12  22  44  66  94 128 160 198 258 308 362
#     4  10  18  34  57  84 115 150 190 239 292 352
#     4   9  18  30  51  79 109 143 186 233 283 341
#     4   9  18  33  50  72 105 144 185 234 286 341
#     4  10  20  34  55  81 108 144 193 240 292 353
#     4  11  23  41  66  94 125 161 203 252 309 367
#
# _framework density 22.103756000000001
#
# number of rings (size 3 to 8) (size 9 to 14) (size 15 to 20)
#    0.000    2.207    1.379    1.448    0.966    4.138 
#    1.241    0.690    0.000    4.966    0.000    0.000 
#    0.000    0.000    0.000    0.000    0.000    0.000 
#
# Total GULP energy -161666.182437 kJ/mol
# GULP energy per Si atom -5574.695946 kJ/mol
# Density = 2.205345 g / cm^3
# Si number density = 22.103756 Si / 1000 Ang^3
#
#
#
# Elastic Constant Matrix: (Units=GPa)
#
#
# Indices 1 2 3 4 5 6 
#
# 1 166.5615 20.7572 15.7479 0.0000 0.0000 0.0000
# 2 20.7572 96.2751 -1.8003 0.0000 0.0000 0.0000
# 3 15.7479 -1.8003 35.3453 0.0000 0.0000 0.0000
# 4 0.0000 0.0000 0.0000 10.1196 0.0000 0.0000
# 5 0.0000 0.0000 0.0000 0.0000 15.0343 0.0000
# 6 0.0000 0.0000 0.0000 0.0000 0.0000 8.5454
#
#
#
# Elastic Compliance Matrix: (Units=1/GPa)
#
#
# Indices 1 2 3 4 5 6 
#
# 1 0.006464 -0.001449 -0.002954 0.000000 0.000000 0.000000
# 2 -0.001449 0.010722 0.001192 0.000000 0.000000 0.000000
# 3 -0.002954 0.001192 0.029669 0.000000 0.000000 0.000000
# 4 0.000000 0.000000 0.000000 0.098818 0.000000 0.000000
# 5 0.000000 0.000000 0.000000 0.000000 0.066514 0.000000
# 6 0.000000 0.000000 0.000000 0.000000 0.000000 0.117023
#
#
# Mechanical properties :
#
#
# Convention : Reuss Voigt Hill
#
# Bulk Modulus (GPa) = 24.73258 40.84351 32.78805
# Shear Modulus (GPa) = 14.32218 24.30498 19.31358
#
# Velocity S-wave (km/s) = 2.54825 3.31960 2.95917
# Velocity P-wave (km/s) = 4.45777 5.76291 5.15184
#
# Compressibility (1/GPa) = 0.04043249
#
# Stress axis : x y z
#
# Youngs Moduli (GPa) = 154.71262 93.27007 33.70523
#
# Poissons Ratio (x) = 0.13513 0.09955
# Poissons Ratio (y) = 0.22415 -0.04016
# Poissons Ratio (z) = 0.45696 -0.11114
#
# Static dielectric constant tensor:
#      x y z
#    x 1.813510 0.000000 0.000000 
#    y 0.000000 1.856500 0.000000 
#    z 0.000000 0.000000 1.814920 
# 
# From -- ./inp_files/23814.got.cif
#   From: 2010.05.17/outbox.cif.g08.bks.cpg/sg38_12_cif.got.tgz:23814.got - 2010.06.03 18:07:57.
