data_PCOD9356607
_publ_section_title
;
Structure prediction by ZEFSAII (Michael W. Deem and Ramdas Pophale) SiO2 
 PCOD9356607
Probable space group: A M M 2
;
_chemical_formula_sum "Si O2"
_cell_formula_units_Z 48
_cell_length_a 8.081866
_cell_length_b 14.331971
_cell_length_c 24.572697
_cell_angle_alpha 90.000000
_cell_angle_beta 90.000000
_cell_angle_gamma 90.000000
_cell_volume 2846.232620
_symmetry_space_group_name_H-M "A M M 2"
_symmetry_group_IT_number 38
_symmetry_cell_setting 'orthorhombic'
loop_
_space_group_symop_operation_xyz
x,y,z
-x,-y,z
-x,y,z
x,-y,z
x,1/2+y,1/2+z
-x,1/2-y,1/2+z
-x,1/2+y,1/2+z
x,1/2-y,1/2+z
loop_
_atom_site_type_symbol
_atom_site_label
_atom_site_fract_x
_atom_site_fract_y
_atom_site_fract_z
Si Si1 0.198987 0.605348 0.060030
Si Si2 0.800175 0.717692 0.166655
Si Si3 0.699570 0.894302 0.104435
Si Si4 0.798099 0.107498 0.771359
Si Si5 0.800595 0.893727 0.894301
Si Si6 0.696966 0.718428 0.498609
O O1 0.261316 0.500000 0.053163
O O2 0.258295 0.652079 0.116624
O O3 0.243379 0.677707 0.012598
O O4 0.000000 0.601269 0.063239
O O5 0.748613 0.822324 0.151605
O O6 0.740712 0.676251 0.223895
O O7 0.000000 0.714338 0.166866
O O8 0.500000 0.897094 0.102163
O O9 0.760383 0.848571 0.047609
O O10 0.760100 0.000000 0.111068
O O11 0.744524 0.130212 0.832929
O O12 0.000000 0.109421 0.771225
O O13 0.751076 0.000000 0.759596
O O14 0.000000 0.895541 0.893393
O O15 0.743850 0.000000 0.906585
O O16 0.747279 0.823243 0.940910
O O17 0.500000 0.718425 0.501844
#
# Coordination Sequence:
#
# PCOD9356607 Si02
#       6
#     8   8   8   8   8   8
#     4   9  17  29  46  68  92 117 145 178 217 261
#     4   9  16  27  46  70  91 112 142 179 216 257
#     4   9  18  31  44  60  87 121 149 175 215 262
#     4   8  14  26  45  68  92 116 141 173 216 262
#     4   9  17  29  46  67  90 117 148 181 218 261
#     4  10  19  30  45  65  90 119 149 182 220 261
#
# _framework density 16.864398999999999
#
# number of rings (size 3 to 8) (size 9 to 14) (size 15 to 20)
#    0.000    3.000    0.000    2.500    0.000    4.333 
#    0.000    0.833    0.000    3.500    0.000    2.333 
#    0.000    0.000    0.000    0.000    0.000    0.000 
#
# Total GULP energy -133737.780799 kJ/mol
# GULP energy per Si atom -5572.407533 kJ/mol
# Density = 1.682601 g / cm^3
# Si number density = 16.864399 Si / 1000 Ang^3
#
#
#
# Elastic Constant Matrix: (Units=GPa)
#
#
# Indices 1 2 3 4 5 6 
#
# 1 8.5897 12.1986 6.2694 0.0000 0.0000 0.0000
# 2 12.1986 166.0602 91.5561 0.0000 0.0000 0.0000
# 3 6.2694 91.5561 114.7147 0.0000 0.0000 0.0000
# 4 0.0000 0.0000 0.0000 27.1290 0.0000 0.0000
# 5 0.0000 0.0000 0.0000 0.0000 8.9497 0.0000
# 6 0.0000 0.0000 0.0000 0.0000 0.0000 7.3359
#
#
#
# Elastic Compliance Matrix: (Units=1/GPa)
#
#
# Indices 1 2 3 4 5 6 
#
# 1 0.130032 -0.010061 0.000924 0.000000 0.000000 0.000000
# 2 -0.010061 0.011533 -0.008655 0.000000 0.000000 0.000000
# 3 0.000924 -0.008655 0.015574 0.000000 0.000000 0.000000
# 4 0.000000 0.000000 0.000000 0.036861 0.000000 0.000000
# 5 0.000000 0.000000 0.000000 0.000000 0.111736 0.000000
# 6 0.000000 0.000000 0.000000 0.000000 0.000000 0.136315
#
#
# Mechanical properties :
#
#
# Convention : Reuss Voigt Hill
#
# Bulk Modulus (GPa) = 8.22674 56.60143 32.41409
# Shear Modulus (GPa) = 9.64964 20.63896 15.14430
#
# Velocity S-wave (km/s) = 2.39464 3.50211 2.99992
# Velocity P-wave (km/s) = 3.54041 7.07026 5.59120
#
# Compressibility (1/GPa) = 0.12155476
#
# Stress axis : x y z
#
# Youngs Moduli (GPa) = 7.69039 86.71054 64.20887
#
# Poissons Ratio (x) = 0.87242 -0.05930
# Poissons Ratio (y) = 0.07737 0.55570
# Poissons Ratio (z) = -0.00710 0.75044
#
# Static dielectric constant tensor:
#      x y z
#    x 1.597610 0.000000 0.000000 
#    y 0.000000 1.562710 0.000000 
#    z 0.000000 0.000000 1.567350 
# 
# From -- ./inp_files/19623.got.cif
#   From: 2010.05.17/outbox.cif.g08.bks.cpg/sg38_10_cif.got.tgz:19623.got - 2010.06.03 18:07:57.
