data_PCOD9356513
_publ_section_title
;
Structure prediction by ZEFSAII (Michael W. Deem and Ramdas Pophale) SiO2 
 PCOD9356513
Probable space group: A M M 2
;
_chemical_formula_sum "Si O2"
_cell_formula_units_Z 64
_cell_length_a 8.794384
_cell_length_b 18.947553
_cell_length_c 27.110630
_cell_angle_alpha 90.000000
_cell_angle_beta 90.000000
_cell_angle_gamma 90.000000
_cell_volume 4517.500042
_symmetry_space_group_name_H-M "A M M 2"
_symmetry_group_IT_number 38
_symmetry_cell_setting 'orthorhombic'
loop_
_space_group_symop_operation_xyz
x,y,z
-x,-y,z
-x,y,z
x,-y,z
x,1/2+y,1/2+z
-x,1/2-y,1/2+z
-x,1/2+y,1/2+z
x,1/2-y,1/2+z
loop_
_atom_site_type_symbol
_atom_site_label
_atom_site_fract_x
_atom_site_fract_y
_atom_site_fract_z
Si Si1 0.682593 0.917454 0.168240
Si Si2 0.683143 0.581201 0.782190
Si Si3 0.318092 0.787854 0.525455
Si Si4 0.682133 0.582651 0.483886
Si Si5 0.182336 0.205201 0.931372
Si Si6 0.316573 0.581025 0.966516
Si Si7 0.180743 0.835301 0.078030
Si Si8 0.818535 0.837062 0.372467
O O1 0.500000 0.909214 0.163291
O O2 0.723548 0.903496 0.225304
O O3 0.765612 0.868147 0.129385
O O4 0.717015 0.000000 0.158071
O O5 0.500000 0.583556 0.785600
O O6 0.729394 0.500000 0.793162
O O7 0.753053 0.633833 0.821657
O O8 0.500000 0.781244 0.528710
O O9 0.256788 0.747391 0.477019
O O10 0.278691 0.868981 0.513270
O O11 0.242605 0.744102 0.569485
O O12 0.500000 0.590836 0.485035
O O13 0.718878 0.500000 0.481272
O O14 0.749990 0.627447 0.438299
O O15 0.749346 0.616452 0.534074
O O16 0.218451 0.255083 0.884813
O O17 0.000000 0.202822 0.937169
O O18 0.500000 0.582983 0.961156
O O19 0.268973 0.500000 0.972011
O O20 0.246875 0.615707 0.917358
O O21 0.000000 0.835841 0.073492
O O22 0.000000 0.843714 0.372752
#
# Coordination Sequence:
#
# PCOD9356513 Si02
#       8
#     8   8   8   8   8   8   8   8
#     4   9  18  32  46  59  78 105 138 173 204 235
#     4   9  18  31  45  60  79 106 139 172 203 235
#     4   9  16  27  42  57  77 106 136 167 201 236
#     4  10  19  29  42  60  81 106 137 170 202 238
#     4   9  17  28  40  56  80 107 135 166 198 236
#     4   9  17  28  42  60  81 107 140 172 200 235
#     4  11  20  28  41  60  82 108 137 167 201 242
#     4  10  19  28  40  60  84 110 138 167 201 239
#
# _framework density 14.167127000000001
#
# number of rings (size 3 to 8) (size 9 to 14) (size 15 to 20)
#    0.000    2.500    0.000    5.625    0.000    7.250 
#    0.000    1.250    0.000    0.000    0.000    0.000 
#    0.000    1.000    0.000    9.000    0.000    5.250 
#
# Total GULP energy -178253.032636 kJ/mol
# GULP energy per Si atom -5570.407270 kJ/mol
# Density = 1.413488 g / cm^3
# Si number density = 14.167127 Si / 1000 Ang^3
#
#
#
# Elastic Constant Matrix: (Units=GPa)
#
#
# Indices 1 2 3 4 5 6 
#
# 1 48.8844 40.0978 32.5078 0.0000 0.0000 0.0000
# 2 40.0978 104.0852 53.3405 0.0000 0.0000 0.0000
# 3 32.5078 53.3405 73.6685 0.0000 0.0000 0.0000
# 4 0.0000 0.0000 0.0000 28.4468 0.0000 0.0000
# 5 0.0000 0.0000 0.0000 0.0000 -206.6419 0.0000
# 6 0.0000 0.0000 0.0000 0.0000 0.0000 10.4145
#
#
#
# Elastic Compliance Matrix: (Units=1/GPa)
#
#
# Indices 1 2 3 4 5 6 
#
# 1 0.032948 -0.008335 -0.008504 0.000000 0.000000 0.000000
# 2 -0.008335 0.017384 -0.008909 0.000000 0.000000 0.000000
# 3 -0.008504 -0.008909 0.023778 0.000000 0.000000 0.000000
# 4 0.000000 0.000000 0.000000 0.035153 0.000000 0.000000
# 5 0.000000 0.000000 0.000000 0.000000 -0.004839 0.000000
# 6 0.000000 0.000000 0.000000 0.000000 0.000000 0.096020
#
#
# Mechanical properties :
#
#
# Convention : Reuss Voigt Hill
#
# Bulk Modulus (GPa) = 44.22099 53.17003 48.69551
# Shear Modulus (GPa) = 19.26935 -26.84333 -3.78699
#
# Velocity S-wave (km/s) = 3.69202 -4.35761 -1.63673
# Velocity P-wave (km/s) = 7.03251 3.50624 5.55652
#
# Compressibility (1/GPa) = 0.02261369
#
# Stress axis : x y z
#
# Youngs Moduli (GPa) = 30.35046 57.52357 42.05604
#
# Poissons Ratio (x) = 0.47945 0.35765
# Poissons Ratio (y) = 0.25297 0.37469
# Poissons Ratio (z) = 0.25811 0.51249
#
# Static dielectric constant tensor:
#      x y z
#    x 1.472170 0.000000 0.000000 
#    y 0.000000 1.493760 0.000000 
#    z 0.000000 0.000000 1.454550 
# 
# From -- ./inp_files/23638.got.cif
#   From: 2010.05.17/outbox.cif.g08.bks.cpg/sg38_12_cif.got.tgz:23638.got - 2010.06.03 18:07:57.
