data_PCOD9356342
_publ_section_title
;
Structure prediction by ZEFSAII (Michael W. Deem and Ramdas Pophale) SiO2 
 PCOD9356342
Probable space group: A M M 2
;
_chemical_formula_sum "Si O2"
_cell_formula_units_Z 58
_cell_length_a 15.615132
_cell_length_b 7.727354
_cell_length_c 25.432952
_cell_angle_alpha 90.000000
_cell_angle_beta 90.000000
_cell_angle_gamma 90.000000
_cell_volume 3068.832888
_symmetry_space_group_name_H-M "A M M 2"
_symmetry_group_IT_number 38
_symmetry_cell_setting 'orthorhombic'
loop_
_space_group_symop_operation_xyz
x,y,z
-x,-y,z
-x,y,z
x,-y,z
x,1/2+y,1/2+z
-x,1/2-y,1/2+z
-x,1/2+y,1/2+z
x,1/2-y,1/2+z
loop_
_atom_site_type_symbol
_atom_site_label
_atom_site_fract_x
_atom_site_fract_y
_atom_site_fract_z
Si Si1 0.271602 0.701667 0.969960
Si Si2 0.000000 0.000000 0.268874
Si Si3 0.122551 0.306848 0.302545
Si Si4 0.095405 0.710764 0.924010
Si Si5 0.687050 0.700143 0.782461
Si Si6 0.402201 0.788245 0.556965
Si Si7 0.401776 0.209040 0.677108
Si Si8 0.594848 0.296442 0.383633
O O1 0.258338 0.500000 0.982962
O O2 0.177204 0.773115 0.957370
O O3 0.329861 0.713337 0.917788
O O4 0.330974 0.776118 0.016269
O O5 0.926171 0.153202 0.273150
O O6 0.095421 0.500000 0.287671
O O7 0.104743 0.277699 0.364554
O O8 0.223635 0.292446 0.293185
O O9 0.099141 0.500000 0.920841
O O10 0.000000 0.756906 0.943539
O O11 0.698595 0.500000 0.795714
O O12 0.657959 0.720095 0.722567
O O13 0.615911 0.772334 0.822356
O O14 0.500000 0.733401 0.544204
O O15 0.382314 0.738932 0.617107
O O16 0.403176 0.000000 0.554925
O O17 0.500000 0.260665 0.687767
O O18 0.397851 0.000000 0.678966
O O19 0.500000 0.227172 0.396144
O O20 0.595901 0.500000 0.395559
#
# Coordination Sequence:
#
# PCOD9356342 Si02
#       8
#     8   2   8   8   8   8   8   8
#     4  10  19  31  53  78 106 144 186 230 282 339
#     4  12  22  40  56  86 114 144 198 240 284 346
#     4  12  22  36  58  81 115 153 186 235 289 342
#     4  10  18  32  49  77 113 146 188 236 279 336
#     4  12  23  36  52  79 112 144 189 237 281 345
#     4   8  15  30  52  78 105 138 188 240 284 338
#     4   9  18  34  55  77 105 144 192 242 286 338
#     4  11  23  35  48  72 110 151 185 223 280 351
#
# _framework density 18.899695000000001
#
# number of rings (size 3 to 8) (size 9 to 14) (size 15 to 20)
#    0.000    1.655    3.448    3.517    0.000    3.586 
#    0.000    0.690    0.000    0.828    1.793    0.000 
#    0.000    0.000    0.000    0.000    0.000    0.276 
#
# Total GULP energy -161640.271675 kJ/mol
# GULP energy per Si atom -5573.802472 kJ/mol
# Density = 1.885668 g / cm^3
# Si number density = 18.899695 Si / 1000 Ang^3
#
#
#
# Elastic Constant Matrix: (Units=GPa)
#
#
# Indices 1 2 3 4 5 6 
#
# 1 152.0759 15.0607 53.7232 0.0000 0.0000 0.0000
# 2 15.0607 77.0009 -1.9009 0.0000 0.0000 0.0000
# 3 53.7232 -1.9009 72.4196 0.0000 0.0000 0.0000
# 4 0.0000 0.0000 0.0000 13.0761 0.0000 0.0000
# 5 0.0000 0.0000 0.0000 0.0000 28.0169 0.0000
# 6 0.0000 0.0000 0.0000 0.0000 0.0000 69.1074
#
#
#
# Elastic Compliance Matrix: (Units=1/GPa)
#
#
# Indices 1 2 3 4 5 6 
#
# 1 0.009200 -0.001969 -0.006876 0.000000 0.000000 0.000000
# 2 -0.001969 0.013417 0.001813 0.000000 0.000000 0.000000
# 3 -0.006876 0.001813 0.018957 0.000000 0.000000 0.000000
# 4 0.000000 0.000000 0.000000 0.076476 0.000000 0.000000
# 5 0.000000 0.000000 0.000000 0.000000 0.035693 0.000000
# 6 0.000000 0.000000 0.000000 0.000000 0.000000 0.014470
#
#
# Mechanical properties :
#
#
# Convention : Reuss Voigt Hill
#
# Bulk Modulus (GPa) = 36.35240 48.36249 42.35745
# Shear Modulus (GPa) = 26.11685 37.68095 31.89890
#
# Velocity S-wave (km/s) = 3.72138 4.46997 4.11274
# Velocity P-wave (km/s) = 6.14337 7.23086 6.70919
#
# Compressibility (1/GPa) = 0.02750850
#
# Stress axis : x y z
#
# Youngs Moduli (GPa) = 108.69681 74.53355 52.75046
#
# Poissons Ratio (x) = 0.14677 0.36274
# Poissons Ratio (y) = 0.21404 -0.09563
# Poissons Ratio (z) = 0.74745 -0.13513
#
# Static dielectric constant tensor:
#      x y z
#    x 1.670820 0.000000 0.000000 
#    y 0.000000 1.703500 0.000000 
#    z 0.000000 0.000000 1.632830 
# 
# From -- ./inp_files/23981.got.cif
#   From: 2010.05.17/outbox.cif.g08.bks.cpg/sg38_12_cif.got.tgz:23981.got - 2010.06.03 18:07:57.
