data_PCOD9356312
_publ_section_title
;
Structure prediction by ZEFSAII (Michael W. Deem and Ramdas Pophale) SiO2 
 PCOD9356312
Probable space group: A M M 2
;
_chemical_formula_sum "Si O2"
_cell_formula_units_Z 64
_cell_length_a 14.221987
_cell_length_b 18.263320
_cell_length_c 14.707840
_cell_angle_alpha 90.000000
_cell_angle_beta 90.000000
_cell_angle_gamma 90.000000
_cell_volume 3820.224651
_symmetry_space_group_name_H-M "A M M 2"
_symmetry_group_IT_number 38
_symmetry_cell_setting 'orthorhombic'
loop_
_space_group_symop_operation_xyz
x,y,z
-x,-y,z
-x,y,z
x,-y,z
x,1/2+y,1/2+z
-x,1/2-y,1/2+z
-x,1/2+y,1/2+z
x,1/2-y,1/2+z
loop_
_atom_site_type_symbol
_atom_site_label
_atom_site_fract_x
_atom_site_fract_y
_atom_site_fract_z
Si Si1 0.734266 0.731765 0.963300
Si Si2 0.389043 0.763613 0.799645
Si Si3 0.762021 0.211448 0.162728
Si Si4 0.109612 0.585677 0.596347
Si Si5 0.611522 0.418429 0.211728
Si Si6 0.241333 0.582007 0.052230
Si Si7 0.889202 0.647233 0.199039
Si Si8 0.890510 0.157432 0.902252
O O1 0.644552 0.745731 0.900849
O O2 0.821520 0.774163 0.917133
O O3 0.723776 0.766240 0.063334
O O4 0.756178 0.646512 0.979109
O O5 0.500000 0.752068 0.786477
O O6 0.323065 0.715782 0.733409
O O7 0.366914 0.848822 0.774949
O O8 0.819242 0.136496 0.152202
O O9 0.836688 0.275069 0.187990
O O10 0.124774 0.500000 0.611206
O O11 0.122690 0.605147 0.489216
O O12 0.000000 0.603121 0.617467
O O13 0.500000 0.416800 0.195279
O O14 0.635290 0.500000 0.248290
O O15 0.667722 0.409813 0.117815
O O16 0.238418 0.500000 0.015318
O O17 0.156271 0.595786 0.122944
O O18 0.872772 0.622533 0.303274
O O19 0.000000 0.654975 0.184608
O O20 0.000000 0.180895 0.902740
#
# Coordination Sequence:
#
# PCOD9356312 Si02
#       8
#     8   8   8   8   8   8   8   8
#     4  10  19  34  52  76 107 139 182 219 263 322
#     4  11  21  35  56  82 106 138 185 231 271 319
#     4  10  19  35  55  78 106 142 183 220 268 319
#     4   9  18  32  52  80 111 144 183 222 261 311
#     4   9  17  32  54  79 106 134 170 222 278 325
#     4  10  20  33  50  75 108 143 176 218 268 322
#     4  10  18  31  53  79 106 139 177 219 269 327
#     4   9  17  30  52  77 105 140 178 222 266 320
#
# _framework density 16.752941
#
# number of rings (size 3 to 8) (size 9 to 14) (size 15 to 20)
#    0.000    2.250    3.750    0.375    0.000    4.750 
#    0.000    5.625    0.000    1.125    0.000    0.000 
#    0.000    0.000    0.000    0.000    0.000    0.000 
#
# Total GULP energy -178337.214803 kJ/mol
# GULP energy per Si atom -5573.037963 kJ/mol
# Density = 1.671481 g / cm^3
# Si number density = 16.752941 Si / 1000 Ang^3
#
#
#
# Elastic Constant Matrix: (Units=GPa)
#
#
# Indices 1 2 3 4 5 6 
#
# 1 82.9025 42.2543 28.1127 0.0000 0.0000 0.0000
# 2 42.2543 93.7728 16.8734 0.0000 0.0000 0.0000
# 3 28.1127 16.8734 44.4846 0.0000 0.0000 0.0000
# 4 0.0000 0.0000 0.0000 9.0437 0.0000 0.0000
# 5 0.0000 0.0000 0.0000 0.0000 21.2297 0.0000
# 6 0.0000 0.0000 0.0000 0.0000 0.0000 20.5523
#
#
#
# Elastic Compliance Matrix: (Units=1/GPa)
#
#
# Indices 1 2 3 4 5 6 
#
# 1 0.018617 -0.006731 -0.009212 0.000000 0.000000 0.000000
# 2 -0.006731 0.013879 -0.001010 0.000000 0.000000 0.000000
# 3 -0.009212 -0.001010 0.028685 0.000000 0.000000 0.000000
# 4 0.000000 0.000000 0.000000 0.110574 0.000000 0.000000
# 5 0.000000 0.000000 0.000000 0.000000 0.047104 0.000000
# 6 0.000000 0.000000 0.000000 0.000000 0.000000 0.048656
#
#
# Mechanical properties :
#
#
# Convention : Reuss Voigt Hill
#
# Bulk Modulus (GPa) = 36.66623 43.96006 40.31314
# Shear Modulus (GPa) = 16.10233 19.09312 17.59773
#
# Velocity S-wave (km/s) = 3.10363 3.37959 3.24454
# Velocity P-wave (km/s) = 5.89723 6.44407 6.17670
#
# Compressibility (1/GPa) = 0.02727305
#
# Stress axis : x y z
#
# Youngs Moduli (GPa) = 53.71411 72.05103 34.86180
#
# Poissons Ratio (x) = 0.48500 0.32115
# Poissons Ratio (y) = 0.36157 0.03523
# Poissons Ratio (z) = 0.49482 0.07281
#
# Static dielectric constant tensor:
#      x y z
#    x 1.564160 0.000000 0.000000 
#    y 0.000000 1.567650 0.000000 
#    z 0.000000 0.000000 1.570030 
# 
# From -- ./inp_files/14798.got.cif
#   From: 2010.05.17/outbox.cif.g08.bks.cpg/sg38_8_cif.got.tgz:14798.got - 2010.06.03 18:07:57.
