data_PCOD9356077
_publ_section_title
;
Structure prediction by ZEFSAII (Michael W. Deem and Ramdas Pophale) SiO2 
 PCOD9356077
Probable space group: A M M 2
;
_chemical_formula_sum "Si O2"
_cell_formula_units_Z 64
_cell_length_a 14.836804
_cell_length_b 8.265272
_cell_length_c 32.371919
_cell_angle_alpha 90.000000
_cell_angle_beta 90.000000
_cell_angle_gamma 90.000000
_cell_volume 3969.775571
_symmetry_space_group_name_H-M "A M M 2"
_symmetry_group_IT_number 38
_symmetry_cell_setting 'orthorhombic'
loop_
_space_group_symop_operation_xyz
x,y,z
-x,-y,z
-x,y,z
x,-y,z
x,1/2+y,1/2+z
-x,1/2-y,1/2+z
-x,1/2+y,1/2+z
x,1/2-y,1/2+z
loop_
_atom_site_type_symbol
_atom_site_label
_atom_site_fract_x
_atom_site_fract_y
_atom_site_fract_z
Si Si1 0.287803 0.309036 0.931340
Si Si2 0.100215 0.302865 0.303812
Si Si3 0.609537 0.186967 0.100384
Si Si4 0.603048 0.804827 0.851135
Si Si5 0.898732 0.695300 0.400064
Si Si6 0.396169 0.695841 0.690441
Si Si7 0.711767 0.304232 0.269946
Si Si8 0.396306 0.195714 0.010428
O O1 0.296475 0.500000 0.930814
O O2 0.341085 0.241221 0.891615
O O3 0.183432 0.261431 0.926456
O O4 0.332949 0.244151 0.973005
O O5 0.099707 0.500000 0.303123
O O6 0.114134 0.257156 0.351887
O O7 0.185454 0.248582 0.277231
O O8 0.000000 0.248777 0.291065
O O9 0.500000 0.183890 0.100376
O O10 0.634297 0.257789 0.145051
O O11 0.640627 0.000000 0.100399
O O12 0.634289 0.258116 0.055743
O O13 0.500000 0.745808 0.853205
O O14 0.652942 0.748914 0.809463
O O15 0.600711 0.000000 0.849522
O O16 0.895383 0.500000 0.401250
O O17 0.000000 0.745477 0.412394
O O18 0.500000 0.748637 0.697786
O O19 0.397517 0.500000 0.688340
O O20 0.333246 0.748053 0.727740
O O21 0.711616 0.500000 0.270372
O O22 0.500000 0.248859 0.002885
O O23 0.398402 0.000000 0.012859
#
# Coordination Sequence:
#
# PCOD9356077 Si02
#       8
#     8   8   8   8   8   8   8   8
#     4  12  23  31  43  67  99 126 148 184 236 284
#     4   8  14  27  48  68  84 108 147 194 232 260
#     4   7  12  26  47  67  85 112 152 194 230 264
#     4  10  20  33  46  60  86 126 167 197 218 255
#     4   9  17  33  55  70  83 113 158 199 230 267
#     4   9  17  29  45  66  94 123 150 183 227 277
#     4  10  18  29  46  67  90 116 152 193 227 263
#     4   9  17  31  51  69  87 118 161 199 227 266
#
# _framework density 16.121818000000001
#
# number of rings (size 3 to 8) (size 9 to 14) (size 15 to 20)
#    0.000    2.750    1.250    4.125    0.000    3.500 
#    0.000    0.625    0.000    2.625    0.000    0.875 
#    0.000    5.000    0.000    0.000    0.000    0.000 
#
# Total GULP energy -178275.116124 kJ/mol
# GULP energy per Si atom -5571.097379 kJ/mol
# Density = 1.608512 g / cm^3
# Si number density = 16.121818 Si / 1000 Ang^3
#
#
#
# Elastic Constant Matrix: (Units=GPa)
#
#
# Indices 1 2 3 4 5 6 
#
# 1 123.5008 13.2685 81.8851 0.0000 0.0000 0.0000
# 2 13.2685 7.8900 10.9696 0.0000 0.0000 0.0000
# 3 81.8851 10.9696 151.7985 0.0000 0.0000 0.0000
# 4 0.0000 0.0000 0.0000 16.8785 0.0000 0.0000
# 5 0.0000 0.0000 0.0000 0.0000 6.7969 0.0000
# 6 0.0000 0.0000 0.0000 0.0000 0.0000 9.0580
#
#
#
# Elastic Compliance Matrix: (Units=1/GPa)
#
#
# Indices 1 2 3 4 5 6 
#
# 1 0.013944 -0.014443 -0.006478 0.000000 0.000000 0.000000
# 2 -0.014443 0.155859 -0.003472 0.000000 0.000000 0.000000
# 3 -0.006478 -0.003472 0.010333 0.000000 0.000000 0.000000
# 4 0.000000 0.000000 0.000000 0.059247 0.000000 0.000000
# 5 0.000000 0.000000 0.000000 0.000000 0.147126 0.000000
# 6 0.000000 0.000000 0.000000 0.000000 0.000000 0.110400
#
#
# Mechanical properties :
#
#
# Convention : Reuss Voigt Hill
#
# Bulk Modulus (GPa) = 7.61324 55.04843 31.33083
# Shear Modulus (GPa) = 8.48206 18.35107 13.41656
#
# Velocity S-wave (km/s) = 2.29623 3.37749 2.88792
# Velocity P-wave (km/s) = 3.42969 7.03060 5.53137
#
# Compressibility (1/GPa) = 0.13135009
#
# Stress axis : x y z
#
# Youngs Moduli (GPa) = 71.71509 6.41605 96.77610
#
# Poissons Ratio (x) = 0.09267 0.62693
# Poissons Ratio (y) = 1.03578 0.33601
# Poissons Ratio (z) = 0.46458 0.02228
#
# Static dielectric constant tensor:
#      x y z
#    x 1.537790 0.000000 0.000000 
#    y 0.000000 1.569660 0.000000 
#    z 0.000000 0.000000 1.550970 
# 
# From -- ./inp_files/25101.got.cif
#   From: 2010.05.17/outbox.cif.g08.bks.cpg/sg38_13_cif.got.tgz:25101.got - 2010.06.03 18:07:57.
