data_PCOD9356417
_publ_section_title
;
Structure prediction by ZEFSAII (Michael W. Deem and Ramdas Pophale) SiO2 
 PCOD9356417
Probable space group: A M M 2
;
_chemical_formula_sum "Si O2"
_cell_formula_units_Z 56
_cell_length_a 17.328181
_cell_length_b 7.599173
_cell_length_c 21.119648
_cell_angle_alpha 90.000000
_cell_angle_beta 90.000000
_cell_angle_gamma 90.000000
_cell_volume 2781.031979
_symmetry_space_group_name_H-M "A M M 2"
_symmetry_group_IT_number 38
_symmetry_cell_setting 'orthorhombic'
loop_
_space_group_symop_operation_xyz
x,y,z
-x,-y,z
-x,y,z
x,-y,z
x,1/2+y,1/2+z
-x,1/2-y,1/2+z
-x,1/2+y,1/2+z
x,1/2-y,1/2+z
loop_
_atom_site_type_symbol
_atom_site_label
_atom_site_fract_x
_atom_site_fract_y
_atom_site_fract_z
Si Si1 0.413860 0.209456 0.332260
Si Si2 0.835458 0.215523 0.891292
Si Si3 0.260094 0.789913 0.769495
Si Si4 0.586555 0.705786 0.477292
Si Si5 0.749468 0.210812 0.017014
Si Si6 0.000000 0.714585 0.341359
Si Si7 0.833013 0.288014 0.148220
Si Si8 0.000000 0.784862 0.693462
O O1 0.500000 0.270241 0.315285
O O2 0.349708 0.254473 0.280978
O O3 0.395362 0.284080 0.402025
O O4 0.415004 0.000000 0.339596
O O5 0.784222 0.275235 0.831873
O O6 0.798430 0.276446 0.956869
O O7 0.922750 0.270831 0.877139
O O8 0.834935 0.000000 0.891884
O O9 0.220753 0.721912 0.705771
O O10 0.249852 0.000000 0.768771
O O11 0.500000 0.782350 0.486401
O O12 0.580993 0.500000 0.494090
O O13 0.661354 0.780514 0.513137
O O14 0.743332 0.000000 0.009457
O O15 0.794469 0.244077 0.081628
O O16 0.000000 0.500000 0.340235
O O17 0.000000 0.768595 0.267513
O O18 0.835663 0.500000 0.152062
O O19 0.920885 0.226499 0.159852
O O20 0.000000 0.000000 0.693320
#
# Coordination Sequence:
#
# PCOD9356417 Si02
#       8
#     8   8   8   8   8   4   8   4
#     4  10  20  32  50  80 112 138 168 213 269 318
#     4   9  16  28  49  77 102 129 171 219 257 297
#     4  10  18  33  55  77 101 135 181 221 253 301
#     4   9  17  32  55  78 101 136 180 220 259 309
#     4  10  20  34  51  77 111 141 172 214 266 318
#     4   9  14  25  50  79 103 128 173 224 256 293
#     4  10  21  35  55  79 105 141 180 217 260 311
#     4   9  16  31  53  77 103 134 173 218 264 311
#
# _framework density 20.136409
#
# number of rings (size 3 to 8) (size 9 to 14) (size 15 to 20)
#    0.000    2.429    2.857    0.429    0.000    2.571 
#    0.000    1.786    0.000    2.571    0.000    0.500 
#    0.000    0.000    0.000    0.000    0.000    0.000 
#
# Total GULP energy -156233.993019 kJ/mol
# GULP energy per Si atom -5579.785465 kJ/mol
# Density = 2.009058 g / cm^3
# Si number density = 20.136409 Si / 1000 Ang^3
#
#
#
# Elastic Constant Matrix: (Units=GPa)
#
#
# Indices 1 2 3 4 5 6 
#
# 1 207.9628 4.2444 107.9811 0.0000 0.0000 0.0000
# 2 4.2444 40.7921 3.5005 0.0000 0.0000 0.0000
# 3 107.9811 3.5005 149.4061 0.0000 0.0000 0.0000
# 4 0.0000 0.0000 0.0000 18.5388 0.0000 0.0000
# 5 0.0000 0.0000 0.0000 0.0000 26.7995 0.0000
# 6 0.0000 0.0000 0.0000 0.0000 0.0000 -7.1692
#
#
#
# Elastic Compliance Matrix: (Units=1/GPa)
#
#
# Indices 1 2 3 4 5 6 
#
# 1 0.007701 -0.000324 -0.005558 0.000000 0.000000 0.000000
# 2 -0.000324 0.024578 -0.000341 0.000000 0.000000 0.000000
# 3 -0.005558 -0.000341 0.010718 0.000000 0.000000 0.000000
# 4 0.000000 0.000000 0.000000 0.053941 0.000000 0.000000
# 5 0.000000 0.000000 0.000000 0.000000 0.037314 0.000000
# 6 0.000000 0.000000 0.000000 0.000000 0.000000 -0.139485
#
#
# Mechanical properties :
#
#
# Convention : Reuss Voigt Hill
#
# Bulk Modulus (GPa) = 32.73433 69.95699 51.34566
# Shear Modulus (GPa) = 287.37632 26.46282 156.91957
#
# Velocity S-wave (km/s) = 11.95929 3.62909 8.83728
# Velocity P-wave (km/s) = 14.38718 7.23722 11.38790
#
# Compressibility (1/GPa) = 0.03054897
#
# Stress axis : x y z
#
# Youngs Moduli (GPa) = 129.84894 40.68749 93.29753
#
# Poissons Ratio (x) = 0.01320 0.51858
# Poissons Ratio (y) = 0.04211 0.03185
# Poissons Ratio (z) = 0.72175 0.01389
#
# Static dielectric constant tensor:
#      x y z
#    x 1.746950 0.000000 0.000000 
#    y 0.000000 1.777650 0.000000 
#    z 0.000000 0.000000 1.664590 
# 
# From -- ./inp_files/21160.got.cif
#   From: 2010.05.17/outbox.cif.g08.bks.cpg/sg38_11_cif.got.tgz:21160.got - 2010.06.03 18:07:57.
