data_PCOD9356796
_publ_section_title
;
Structure prediction by ZEFSAII (Michael W. Deem and Ramdas Pophale) SiO2 
 PCOD9356796
Probable space group: A M M 2
;
_chemical_formula_sum "Si O2"
_cell_formula_units_Z 64
_cell_length_a 7.771335
_cell_length_b 17.064340
_cell_length_c 23.039482
_cell_angle_alpha 90.000000
_cell_angle_beta 90.000000
_cell_angle_gamma 90.000000
_cell_volume 3055.327977
_symmetry_space_group_name_H-M "A M M 2"
_symmetry_group_IT_number 38
_symmetry_cell_setting 'orthorhombic'
loop_
_space_group_symop_operation_xyz
x,y,z
-x,-y,z
-x,y,z
x,-y,z
x,1/2+y,1/2+z
-x,1/2-y,1/2+z
-x,1/2+y,1/2+z
x,1/2-y,1/2+z
loop_
_atom_site_type_symbol
_atom_site_label
_atom_site_fract_x
_atom_site_fract_y
_atom_site_fract_z
Si Si1 0.202818 0.913772 0.339600
Si Si2 0.793583 0.267144 0.763424
Si Si3 0.199106 0.088653 0.919638
Si Si4 0.202317 0.245911 0.137571
Si Si5 0.291674 0.084317 0.600165
Si Si6 0.790179 0.284965 0.510166
Si Si7 0.300472 0.883881 0.470171
Si Si8 0.694930 0.587832 0.289820
O O1 0.271426 0.833907 0.308644
O O2 0.219205 0.907473 0.409366
O O3 0.000000 0.916059 0.326225
O O4 0.275350 0.000000 0.322440
O O5 0.724681 0.283177 0.698433
O O6 0.763819 0.174036 0.773470
O O7 0.000000 0.274467 0.763525
O O8 0.261612 0.142784 0.970985
O O9 0.300263 0.091856 0.859804
O O10 0.000000 0.110872 0.905346
O O11 0.198455 0.000000 0.940312
O O12 0.221346 0.340105 0.132595
O O13 0.000000 0.227138 0.138075
O O14 0.272980 0.214439 0.076488
O O15 0.500000 0.090605 0.599631
O O16 0.233012 0.086277 0.532594
O O17 0.244282 0.000000 0.625558
O O18 0.720265 0.208694 0.478107
O O19 0.000000 0.279847 0.511397
O O20 0.500000 0.906403 0.466931
O O21 0.500000 0.585521 0.267506
O O22 0.772011 0.500000 0.275965
#
# Coordination Sequence:
#
# PCOD9356796 Si02
#       8
#     8   8   8   8   8   8   8   8
#     4  10  21  36  53  74 101 134 171 210 253 299
#     4  10  21  37  54  72  99 136 174 211 251 294
#     4   9  17  30  49  73 100 128 158 196 245 299
#     4   9  19  34  50  69  94 126 165 204 240 285
#     4   9  18  32  49  71 100 129 155 190 240 295
#     4   9  17  31  50  72  99 129 161 199 245 296
#     4  10  19  31  50  76 103 129 159 198 246 299
#     4  10  21  35  52  77 106 134 166 205 250 301
#
# _framework density 20.947016000000001
#
# number of rings (size 3 to 8) (size 9 to 14) (size 15 to 20)
#    0.000    2.500    0.000    1.875    0.000    7.250 
#    0.000    3.125    0.000    3.750    0.000    0.000 
#    0.000    5.000    0.000    0.000    0.000    0.000 
#
# Total GULP energy -178309.106928 kJ/mol
# GULP energy per Si atom -5572.159591 kJ/mol
# Density = 2.089934 g / cm^3
# Si number density = 20.947016 Si / 1000 Ang^3
#
#
#
# Elastic Constant Matrix: (Units=GPa)
#
#
# Indices 1 2 3 4 5 6 
#
# 1 29.9290 8.8129 0.4170 0.0000 0.0000 0.0000
# 2 8.8129 91.4299 62.0382 0.0000 0.0000 0.0000
# 3 0.4170 62.0382 94.5788 0.0000 0.0000 0.0000
# 4 0.0000 0.0000 0.0000 -6.6861 0.0000 0.0000
# 5 0.0000 0.0000 0.0000 0.0000 -47.3750 0.0000
# 6 0.0000 0.0000 0.0000 0.0000 0.0000 187.9580
#
#
#
# Elastic Compliance Matrix: (Units=1/GPa)
#
#
# Indices 1 2 3 4 5 6 
#
# 1 0.035100 -0.005908 0.003720 0.000000 0.000000 0.000000
# 2 -0.005908 0.020704 -0.013555 0.000000 0.000000 0.000000
# 3 0.003720 -0.013555 0.019448 0.000000 0.000000 0.000000
# 4 0.000000 0.000000 0.000000 -0.149564 0.000000 0.000000
# 5 0.000000 0.000000 0.000000 0.000000 -0.021108 0.000000
# 6 0.000000 0.000000 0.000000 0.000000 0.000000 0.005320
#
#
# Mechanical properties :
#
#
# Convention : Reuss Voigt Hill
#
# Bulk Modulus (GPa) = 22.84771 39.83043 31.33907
# Shear Modulus (GPa) = -113.56616 36.42403 -38.57107
#
# Velocity S-wave (km/s) = -7.37113 4.17449 -4.29577
# Velocity P-wave (km/s) = 7.84307 6.50318 3.10020
#
# Compressibility (1/GPa) = 0.04376807
#
# Stress axis : x y z
#
# Youngs Moduli (GPa) = 28.48998 48.29987 51.41971
#
# Poissons Ratio (x) = 0.28534 -0.19129
# Poissons Ratio (y) = 0.16831 0.69697
# Poissons Ratio (z) = -0.10599 0.65468
#
# Static dielectric constant tensor:
#      x y z
#    x 1.833410 0.000000 0.000000 
#    y 0.000000 1.780250 0.000000 
#    z 0.000000 0.000000 1.758550 
# 
# From -- ./inp_files/22219.got.cif
#   From: 2010.05.17/outbox.cif.g08.bks.cpg/sg38_12_cif.got.tgz:22219.got - 2010.06.03 18:07:57.
