data_PCOD9356757
_publ_section_title
;
Structure prediction by ZEFSAII (Michael W. Deem and Ramdas Pophale) SiO2 
 PCOD9356757
Probable space group: A M M 2
;
_chemical_formula_sum "Si O2"
_cell_formula_units_Z 64
_cell_length_a 9.092046
_cell_length_b 30.817585
_cell_length_c 14.815821
_cell_angle_alpha 90.000000
_cell_angle_beta 90.000000
_cell_angle_gamma 90.000000
_cell_volume 4151.317490
_symmetry_space_group_name_H-M "A M M 2"
_symmetry_group_IT_number 38
_symmetry_cell_setting 'orthorhombic'
loop_
_space_group_symop_operation_xyz
x,y,z
-x,-y,z
-x,y,z
x,-y,z
x,1/2+y,1/2+z
-x,1/2-y,1/2+z
-x,1/2+y,1/2+z
x,1/2-y,1/2+z
loop_
_atom_site_type_symbol
_atom_site_label
_atom_site_fract_x
_atom_site_fract_y
_atom_site_fract_z
Si Si1 0.675211 0.367632 0.413980
Si Si2 0.831175 0.673925 0.243697
Si Si3 0.824318 0.050028 0.850970
Si Si4 0.830670 0.222676 0.232823
Si Si5 0.323814 0.796202 0.416974
Si Si6 0.325305 0.450778 0.156994
Si Si7 0.676958 0.287168 0.540175
Si Si8 0.324928 0.362725 0.069422
O O1 0.500000 0.373048 0.412376
O O2 0.730493 0.346198 0.321038
O O3 0.752858 0.414338 0.416203
O O4 0.713176 0.332444 0.490616
O O5 0.828092 0.725643 0.249507
O O6 0.766704 0.660383 0.147656
O O7 0.000000 0.659049 0.254303
O O8 0.761974 0.057932 0.749671
O O9 0.000000 0.054266 0.850298
O O10 0.786826 0.000000 0.873593
O O11 0.752248 0.202773 0.320147
O O12 0.750183 0.214830 0.137993
O O13 0.000000 0.208605 0.226779
O O14 0.500000 0.792925 0.404693
O O15 0.278614 0.753789 0.476581
O O16 0.290869 0.839008 0.475893
O O17 0.500000 0.448577 0.178081
O O18 0.291835 0.500000 0.127832
O O19 0.295335 0.413810 0.083127
O O20 0.500000 0.284402 0.549673
O O21 0.500000 0.355835 0.085511
#
# Coordination Sequence:
#
# PCOD9356757 Si02
#       8
#     8   8   8   8   8   8   8   8
#     4  11  21  33  50  72  97 132 172 204 242 294
#     4  11  21  30  45  70 101 133 163 202 247 291
#     4  10  20  32  47  71 102 132 162 199 247 297
#     4  11  23  35  49  71 100 132 166 208 253 293
#     4  10  20  34  51  70  96 131 170 205 242 295
#     4   9  17  29  46  70  99 129 163 202 243 290
#     4  10  21  35  52  72  96 130 168 207 248 291
#     4  10  19  31  49  71  95 132 171 201 239 289
#
# _framework density 15.416793
#
# number of rings (size 3 to 8) (size 9 to 14) (size 15 to 20)
#    0.000    1.750    3.750    1.500    0.000    3.750 
#    0.000    0.000    0.000    0.000    0.000    0.875 
#    0.000    5.000    0.000    0.000    0.000    0.000 
#
# Total GULP energy -178502.090014 kJ/mol
# GULP energy per Si atom -5578.190313 kJ/mol
# Density = 1.538170 g / cm^3
# Si number density = 15.416793 Si / 1000 Ang^3
#
#
#
# Elastic Constant Matrix: (Units=GPa)
#
#
# Indices 1 2 3 4 5 6 
#
# 1 34.8968 35.6141 32.3073 0.0000 0.0000 0.0000
# 2 35.6141 94.8910 31.2122 0.0000 0.0000 0.0000
# 3 32.3073 31.2122 77.1659 0.0000 0.0000 0.0000
# 4 0.0000 0.0000 0.0000 20.0378 0.0000 0.0000
# 5 0.0000 0.0000 0.0000 0.0000 -40.6441 0.0000
# 6 0.0000 0.0000 0.0000 0.0000 0.0000 20.5093
#
#
#
# Elastic Compliance Matrix: (Units=1/GPa)
#
#
# Indices 1 2 3 4 5 6 
#
# 1 0.065827 -0.018041 -0.020263 0.000000 0.000000 0.000000
# 2 -0.018041 0.017100 0.000637 0.000000 0.000000 0.000000
# 3 -0.020263 0.000637 0.021185 0.000000 0.000000 0.000000
# 4 0.000000 0.000000 0.000000 0.049906 0.000000 0.000000
# 5 0.000000 0.000000 0.000000 0.000000 -0.024604 0.000000
# 6 0.000000 0.000000 0.000000 0.000000 0.000000 0.048758
#
#
# Mechanical properties :
#
#
# Convention : Reuss Voigt Hill
#
# Bulk Modulus (GPa) = 34.74894 45.02455 39.88674
# Shear Modulus (GPa) = 19.00428 7.16861 13.08644
#
# Velocity S-wave (km/s) = 3.51479 2.15870 2.91665
# Velocity P-wave (km/s) = 6.24982 5.95664 6.10499
#
# Compressibility (1/GPa) = 0.02877786
#
# Stress axis : x y z
#
# Youngs Moduli (GPa) = 15.19139 58.47934 47.20305
#
# Poissons Ratio (x) = 1.05502 0.95646
# Poissons Ratio (y) = 0.27407 -0.03005
# Poissons Ratio (z) = 0.30782 -0.03723
#
# Static dielectric constant tensor:
#      x y z
#    x 1.520360 0.000000 0.000000 
#    y 0.000000 1.542160 0.000000 
#    z 0.000000 0.000000 1.476380 
# 
# From -- ./inp_files/13054.got.cif
#   From: 2010.05.17/outbox.cif.g08.bks.cpg/sg38_7_cif.got.tgz:13054.got - 2010.06.03 18:07:57.
