data_PCOD9356909
_publ_section_title
;
Structure prediction by ZEFSAII (Michael W. Deem and Ramdas Pophale) SiO2 
 PCOD9356909
Probable space group: A M M 2
;
_chemical_formula_sum "Si O2"
_cell_formula_units_Z 48
_cell_length_a 7.431700
_cell_length_b 8.354551
_cell_length_c 34.505014
_cell_angle_alpha 90.000000
_cell_angle_beta 90.000000
_cell_angle_gamma 90.000000
_cell_volume 2142.365137
_symmetry_space_group_name_H-M "A M M 2"
_symmetry_group_IT_number 38
_symmetry_cell_setting 'orthorhombic'
loop_
_space_group_symop_operation_xyz
x,y,z
-x,-y,z
-x,y,z
x,-y,z
x,1/2+y,1/2+z
-x,1/2-y,1/2+z
-x,1/2+y,1/2+z
x,1/2-y,1/2+z
loop_
_atom_site_type_symbol
_atom_site_label
_atom_site_fract_x
_atom_site_fract_y
_atom_site_fract_z
Si Si1 0.207376 0.318314 0.551480
Si Si2 0.282325 0.822025 0.301156
Si Si3 0.289459 0.689969 0.639385
Si Si4 0.718417 0.816408 0.720712
Si Si5 0.219310 0.500000 0.918855
Si Si6 0.789870 0.826004 0.880131
Si Si7 0.780223 0.000000 0.509375
O O1 0.285063 0.500000 0.547181
O O2 0.208998 0.278078 0.597304
O O3 0.285136 0.165190 0.529139
O O4 0.000000 0.330674 0.538870
O O5 0.500000 0.818162 0.300757
O O6 0.220523 0.784715 0.257616
O O7 0.222115 0.699656 0.333933
O O8 0.223346 0.000000 0.312621
O O9 0.500000 0.733551 0.636029
O O10 0.276574 0.500000 0.645929
O O11 0.214730 0.770670 0.678058
O O12 0.500000 0.797857 0.718982
O O13 0.758941 0.000000 0.728896
O O14 0.286038 0.335638 0.899213
O O15 0.000000 0.500000 0.915076
O O16 0.262927 0.500000 0.964122
O O17 0.000000 0.830362 0.891047
O O18 0.712200 0.000000 0.890566
O O19 0.000000 0.000000 0.513296
#
# Coordination Sequence:
#
# PCOD9356909 Si02
#       7
#     8   8   8   8   4   8   4
#     4   9  18  32  50  73 100 129 163 205 251 298
#     4  10  19  32  52  75 101 136 175 212 255 304
#     4   9  17  30  48  69  95 129 168 206 247 295
#     4   9  17  28  44  69  98 129 169 212 246 287
#     4   9  18  34  53  77 105 131 167 213 255 303
#     4  10  20  34  54  78 104 135 169 209 258 308
#     4   9  18  32  53  77 101 131 167 207 251 301
#
# _framework density 22.405144
#
# number of rings (size 3 to 8) (size 9 to 14) (size 15 to 20)
#    0.000    2.667    0.833    1.000    1.167    3.667 
#    0.000    4.167    0.000    5.000    0.000    2.333 
#    0.000    0.000    0.000    0.000    0.000    0.000 
#
# Total GULP energy -133937.921917 kJ/mol
# GULP energy per Si atom -5580.746747 kJ/mol
# Density = 2.235415 g / cm^3
# Si number density = 22.405144 Si / 1000 Ang^3
#
#
#
# Elastic Constant Matrix: (Units=GPa)
#
#
# Indices 1 2 3 4 5 6 
#
# 1 64.4507 15.7352 -4.2501 0.0000 0.0000 0.0000
# 2 15.7352 169.3230 88.6759 0.0000 0.0000 0.0000
# 3 -4.2501 88.6759 111.7720 0.0000 0.0000 0.0000
# 4 0.0000 0.0000 0.0000 19.5800 0.0000 0.0000
# 5 0.0000 0.0000 0.0000 0.0000 17.3129 0.0000
# 6 0.0000 0.0000 0.0000 0.0000 0.0000 -3.3993
#
#
#
# Elastic Compliance Matrix: (Units=1/GPa)
#
#
# Indices 1 2 3 4 5 6 
#
# 1 0.016502 -0.003186 0.003155 0.000000 0.000000 0.000000
# 2 -0.003186 0.010719 -0.008625 0.000000 0.000000 0.000000
# 3 0.003155 -0.008625 0.015910 0.000000 0.000000 0.000000
# 4 0.000000 0.000000 0.000000 0.051072 0.000000 0.000000
# 5 0.000000 0.000000 0.000000 0.000000 0.057761 0.000000
# 6 0.000000 0.000000 0.000000 0.000000 0.000000 -0.294176
#
#
# Mechanical properties :
#
#
# Convention : Reuss Voigt Hill
#
# Bulk Modulus (GPa) = 38.73243 60.65196 49.69219
# Shear Modulus (GPa) = -42.99421 23.05770 -9.96826
#
# Velocity S-wave (km/s) = -4.38533 3.21148 -2.11158
# Velocity P-wave (km/s) = 2.88386 6.39381 4.03510
#
# Compressibility (1/GPa) = 0.02581816
#
# Stress axis : x y z
#
# Youngs Moduli (GPa) = 60.60038 93.29207 62.85479
#
# Poissons Ratio (x) = 0.29720 -0.19830
# Poissons Ratio (y) = 0.19306 0.54214
# Poissons Ratio (z) = -0.19119 0.80466
#
# Static dielectric constant tensor:
#      x y z
#    x 1.882250 0.000000 0.000000 
#    y 0.000000 1.832810 0.000000 
#    z 0.000000 0.000000 1.786490 
# 
# From -- ./inp_files/24358.got.cif
#   From: 2010.05.17/outbox.cif.g08.bks.cpg/sg38_13_cif.got.tgz:24358.got - 2010.06.03 18:07:57.
