data_PCOD9356375
_publ_section_title
;
Structure prediction by ZEFSAII (Michael W. Deem and Ramdas Pophale) SiO2 
 PCOD9356375
Probable space group: A M M 2
;
_chemical_formula_sum "Si O2"
_cell_formula_units_Z 48
_cell_length_a 19.782184
_cell_length_b 7.496304
_cell_length_c 15.549226
_cell_angle_alpha 90.000000
_cell_angle_beta 90.000000
_cell_angle_gamma 90.000000
_cell_volume 2305.845493
_symmetry_space_group_name_H-M "A M M 2"
_symmetry_group_IT_number 38
_symmetry_cell_setting 'orthorhombic'
loop_
_space_group_symop_operation_xyz
x,y,z
-x,-y,z
-x,y,z
x,-y,z
x,1/2+y,1/2+z
-x,1/2-y,1/2+z
-x,1/2+y,1/2+z
x,1/2-y,1/2+z
loop_
_atom_site_type_symbol
_atom_site_label
_atom_site_fract_x
_atom_site_fract_y
_atom_site_fract_z
Si Si1 0.423790 0.212369 0.109650
Si Si2 0.822760 0.786984 0.507721
Si Si3 0.674180 0.285325 0.953339
Si Si4 0.173205 0.213240 0.205536
Si Si5 0.323335 0.718602 0.757945
Si Si6 0.077440 0.718609 0.858097
O O1 0.500000 0.284208 0.107731
O O2 0.377698 0.281137 0.188042
O O3 0.428511 0.000000 0.122405
O O4 0.383696 0.239417 0.021005
O O5 0.747332 0.718488 0.486369
O O6 0.840659 0.751753 0.606266
O O7 0.878096 0.722143 0.439695
O O8 0.819697 0.000000 0.496517
O O9 0.677817 0.500000 0.950808
O O10 0.662090 0.225327 0.855614
O O11 0.248131 0.278199 0.230899
O O12 0.116832 0.277320 0.272259
O O13 0.175520 0.000000 0.215316
O O14 0.323185 0.500000 0.756459
O O15 0.076530 0.500000 0.858428
O O16 0.000000 0.777479 0.861229
#
# Coordination Sequence:
#
# PCOD9356375 Si02
#       6
#     8   8   8   8   8   8
#     4  10  21  36  53  76 106 136 167 210 265 312
#     4  10  19  32  52  79 106 134 171 214 260 308
#     4  10  19  33  55  79 101 132 176 216 251 302
#     4  10  18  32  55  78 100 133 176 214 251 304
#     4   9  17  32  54  76  98 131 173 210 246 300
#     4   9  18  33  53  77 106 139 174 214 259 306
#
# _framework density 20.816661
#
# number of rings (size 3 to 8) (size 9 to 14) (size 15 to 20)
#    0.000    2.333    3.333    0.000    0.000    1.667 
#    0.000    4.167    0.000    1.000    0.000    0.000 
#    0.000    0.000    0.000    0.000    0.000    0.000 
#
# Total GULP energy -134050.616580 kJ/mol
# GULP energy per Si atom -5585.442358 kJ/mol
# Density = 2.076928 g / cm^3
# Si number density = 20.816661 Si / 1000 Ang^3
#
#
#
# Elastic Constant Matrix: (Units=GPa)
#
#
# Indices 1 2 3 4 5 6 
#
# 1 208.1331 8.2161 115.0056 0.0000 0.0000 0.0000
# 2 8.2161 55.1431 -3.7329 0.0000 0.0000 0.0000
# 3 115.0056 -3.7329 200.5945 0.0000 0.0000 0.0000
# 4 0.0000 0.0000 0.0000 22.5130 0.0000 0.0000
# 5 0.0000 0.0000 0.0000 0.0000 31.0639 0.0000
# 6 0.0000 0.0000 0.0000 0.0000 0.0000 4.2818
#
#
#
# Elastic Compliance Matrix: (Units=1/GPa)
#
#
# Indices 1 2 3 4 5 6 
#
# 1 0.007130 -0.001341 -0.004113 0.000000 0.000000 0.000000
# 2 -0.001341 0.018410 0.001111 0.000000 0.000000 0.000000
# 3 -0.004113 0.001111 0.007364 0.000000 0.000000 0.000000
# 4 0.000000 0.000000 0.000000 0.044419 0.000000 0.000000
# 5 0.000000 0.000000 0.000000 0.000000 0.032192 0.000000
# 6 0.000000 0.000000 0.000000 0.000000 0.000000 0.233548
#
#
# Mechanical properties :
#
#
# Convention : Reuss Voigt Hill
#
# Bulk Modulus (GPa) = 41.28995 78.09425 59.69210
# Shear Modulus (GPa) = 13.89587 34.53055 24.21321
#
# Velocity S-wave (km/s) = 2.58647 4.07725 3.41422
# Velocity P-wave (km/s) = 5.36637 7.73059 6.65432
#
# Compressibility (1/GPa) = 0.02421897
#
# Stress axis : x y z
#
# Youngs Moduli (GPa) = 140.25032 54.31941 135.79886
#
# Poissons Ratio (x) = 0.07283 0.55851
# Poissons Ratio (y) = 0.18804 -0.15091
# Poissons Ratio (z) = 0.57682 -0.06036
#
# Static dielectric constant tensor:
#      x y z
#    x 1.717650 0.000000 0.000000 
#    y 0.000000 1.818990 0.000000 
#    z 0.000000 0.000000 1.711060 
# 
# From -- ./inp_files/10474.got.cif
#   From: 2010.05.17/outbox.cif.g08.bks.cpg/sg38_6_cif.got.tgz:10474.got - 2010.06.03 18:07:57.
