data_PCOD9356828
_publ_section_title
;
Structure prediction by ZEFSAII (Michael W. Deem and Ramdas Pophale) SiO2 
 PCOD9356828
Probable space group: A M M 2
;
_chemical_formula_sum "Si O2"
_cell_formula_units_Z 48
_cell_length_a 18.063417
_cell_length_b 24.660199
_cell_length_c 5.244960
_cell_angle_alpha 90.000000
_cell_angle_beta 90.000000
_cell_angle_gamma 90.000000
_cell_volume 2336.354098
_symmetry_space_group_name_H-M "A M M 2"
_symmetry_group_IT_number 38
_symmetry_cell_setting 'orthorhombic'
loop_
_space_group_symop_operation_xyz
x,y,z
-x,-y,z
-x,y,z
x,-y,z
x,1/2+y,1/2+z
-x,1/2-y,1/2+z
-x,1/2+y,1/2+z
x,1/2-y,1/2+z
loop_
_atom_site_type_symbol
_atom_site_label
_atom_site_fract_x
_atom_site_fract_y
_atom_site_fract_z
Si Si1 0.168102 0.565261 0.581790
Si Si2 0.756512 0.785478 0.184715
Si Si3 0.332228 0.391061 0.633225
Si Si4 0.588608 0.935733 0.634606
Si Si5 0.919321 0.713127 0.596798
Si Si6 0.916521 0.066023 0.588272
O O1 0.163194 0.500000 0.569575
O O2 0.253036 0.579164 0.625696
O O3 0.135824 0.585960 0.314496
O O4 0.116595 0.581416 0.817570
O O5 0.752538 0.760554 0.467086
O O6 0.691466 0.828394 0.144648
O O7 0.838030 0.812220 0.140862
O O8 0.377159 0.407165 0.381954
O O9 0.376544 0.410068 0.881376
O O10 0.500000 0.930374 0.632249
O O11 0.606498 0.000000 0.643186
O O12 0.918996 0.740052 0.316051
O O13 0.000000 0.684943 0.625888
O O14 0.000000 0.085566 0.624272
O O15 0.918363 0.000000 0.595946
#
# Coordination Sequence:
#
# PCOD9356828 Si02
#       6
#     8   8   8   8   8   8
#     4  10  19  31  51  80 111 145 190 243 295 347
#     4  10  21  38  60  87 121 162 206 252 301 350
#     4  12  23  39  65  93 123 157 200 249 305 368
#     4  11  24  43  68  97 127 157 191 240 306 377
#     4   8  14  27  49  75 106 148 197 251 305 345
#     4   9  17  30  47  69 107 157 197 232 281 342
#
# _framework density 20.544829
#
# number of rings (size 3 to 8) (size 9 to 14) (size 15 to 20)
#    0.000    2.000    0.000    4.500    0.000    4.667 
#    0.000    1.667    0.000   18.000    0.000    0.000 
#    0.000    0.000    0.000    0.000    0.000    0.000 
#
# Total GULP energy -134122.032421 kJ/mol
# GULP energy per Si atom -5588.418018 kJ/mol
# Density = 2.049807 g / cm^3
# Si number density = 20.544829 Si / 1000 Ang^3
#
#
#
# Elastic Constant Matrix: (Units=GPa)
#
#
# Indices 1 2 3 4 5 6 
#
# 1 95.7920 30.7850 -0.5757 0.0000 0.0000 0.0000
# 2 30.7850 48.2081 15.2175 0.0000 0.0000 0.0000
# 3 -0.5757 15.2175 40.4175 0.0000 0.0000 0.0000
# 4 0.0000 0.0000 0.0000 19.3788 0.0000 0.0000
# 5 0.0000 0.0000 0.0000 0.0000 -405.3255 0.0000
# 6 0.0000 0.0000 0.0000 0.0000 0.0000 5.7552
#
#
#
# Elastic Compliance Matrix: (Units=1/GPa)
#
#
# Indices 1 2 3 4 5 6 
#
# 1 0.013669 -0.009976 0.003951 0.000000 0.000000 0.000000
# 2 -0.009976 0.030822 -0.011747 0.000000 0.000000 0.000000
# 3 0.003951 -0.011747 0.029221 0.000000 0.000000 0.000000
# 4 0.000000 0.000000 0.000000 0.051603 0.000000 0.000000
# 5 0.000000 0.000000 0.000000 0.000000 -0.002467 0.000000
# 6 0.000000 0.000000 0.000000 0.000000 0.000000 0.173756
#
#
# Mechanical properties :
#
#
# Convention : Reuss Voigt Hill
#
# Bulk Modulus (GPa) = 26.20016 30.58570 28.39293
# Shear Modulus (GPa) = 14.49821 -66.77225 -26.13702
#
# Velocity S-wave (km/s) = 2.65936 -5.70713 -3.57065
# Velocity P-wave (km/s) = 4.71274 5.33936 1.77466
#
# Compressibility (1/GPa) = 0.03816770
#
# Stress axis : x y z
#
# Youngs Moduli (GPa) = 73.15812 32.44445 34.22218
#
# Poissons Ratio (x) = 0.32366 -0.13520
# Poissons Ratio (y) = 0.72982 0.40200
# Poissons Ratio (z) = -0.28903 0.38112
#
# Static dielectric constant tensor:
#      x y z
#    x 1.699150 0.000000 0.000000 
#    y 0.000000 1.780990 0.000000 
#    z 0.000000 0.000000 1.692610 
# 
# From -- ./inp_files/1329.got.cif
#   From: 2010.05.17/outbox.cif.g08.bks.cpg/sg38_1_cif.got.tgz:1329.got - 2010.06.03 18:07:57.
