data_PCOD9356044
_publ_section_title
;
Structure prediction by ZEFSAII (Michael W. Deem and Ramdas Pophale) SiO2 
 PCOD9356044
Probable space group: A M M 2
;
_chemical_formula_sum "Si O2"
_cell_formula_units_Z 64
_cell_length_a 8.942508
_cell_length_b 14.602132
_cell_length_c 24.491210
_cell_angle_alpha 90.000000
_cell_angle_beta 90.000000
_cell_angle_gamma 90.000000
_cell_volume 3198.054419
_symmetry_space_group_name_H-M "A M M 2"
_symmetry_group_IT_number 38
_symmetry_cell_setting 'orthorhombic'
loop_
_space_group_symop_operation_xyz
x,y,z
-x,-y,z
-x,y,z
x,-y,z
x,1/2+y,1/2+z
-x,1/2-y,1/2+z
-x,1/2+y,1/2+z
x,1/2-y,1/2+z
loop_
_atom_site_type_symbol
_atom_site_label
_atom_site_fract_x
_atom_site_fract_y
_atom_site_fract_z
Si Si1 0.163214 0.596772 0.199180
Si Si2 0.679499 0.105277 0.522297
Si Si3 0.180059 0.686085 0.915352
Si Si4 0.171952 0.754291 0.606230
Si Si5 0.325622 0.607323 0.679280
Si Si6 0.335182 0.628850 0.302941
Si Si7 0.823034 0.399159 0.411622
Si Si8 0.328906 0.346956 0.801541
O O1 0.167013 0.500000 0.168653
O O2 0.173415 0.679540 0.158608
O O3 0.290713 0.596377 0.243590
O O4 0.000000 0.603176 0.227200
O O5 0.500000 0.111120 0.520502
O O6 0.749792 0.126517 0.463425
O O7 0.741756 0.186009 0.561222
O O8 0.718206 0.000000 0.538671
O O9 0.229915 0.794114 0.925274
O O10 0.235297 0.643819 0.857377
O O11 0.000000 0.685631 0.916408
O O12 0.244488 0.663047 0.631304
O O13 0.000000 0.738914 0.588663
O O14 0.500000 0.637199 0.680725
O O15 0.318658 0.500000 0.667634
O O16 0.269306 0.620927 0.742192
O O17 0.500000 0.600029 0.320660
O O18 0.215851 0.599331 0.347523
O O19 0.336035 0.737623 0.297585
O O20 0.767213 0.500000 0.433474
O O21 0.000000 0.398546 0.421471
O O22 0.500000 0.382602 0.808063
#
# Coordination Sequence:
#
# PCOD9356044 Si02
#       8
#     8   8   8   8   8   8   8   8
#     4  10  20  32  48  74 109 149 189 231 287 351
#     4  11  25  45  68  91 118 156 202 253 312 377
#     4  10  21  37  61  91 122 159 206 258 309 361
#     4  11  23  40  63  88 120 156 197 252 308 363
#     4  10  21  39  63  90 124 166 208 251 304 368
#     4  10  18  28  46  75 112 152 195 240 282 335
#     4   9  18  33  52  77 115 159 196 233 286 350
#     4   9  18  34  55  83 123 165 204 248 300 357
#
# _framework density 20.012166000000001
#
# number of rings (size 3 to 8) (size 9 to 14) (size 15 to 20)
#    0.000    2.000    1.250    2.250    0.000    6.250 
#    0.000    1.875    0.000    2.250    0.000    0.000 
#    0.000    0.000    0.000    0.000    0.000    0.000 
#
# Total GULP energy -178193.703030 kJ/mol
# GULP energy per Si atom -5568.553220 kJ/mol
# Density = 1.996662 g / cm^3
# Si number density = 20.012166 Si / 1000 Ang^3
#
#
#
# Elastic Constant Matrix: (Units=GPa)
#
#
# Indices 1 2 3 4 5 6 
#
# 1 55.7498 28.3166 42.5379 0.0000 0.0000 0.0000
# 2 28.3166 80.2573 31.6475 0.0000 0.0000 0.0000
# 3 42.5379 31.6475 86.2971 0.0000 0.0000 0.0000
# 4 0.0000 0.0000 0.0000 22.4336 0.0000 0.0000
# 5 0.0000 0.0000 0.0000 0.0000 27.3478 0.0000
# 6 0.0000 0.0000 0.0000 0.0000 0.0000 16.9587
#
#
#
# Elastic Compliance Matrix: (Units=1/GPa)
#
#
# Indices 1 2 3 4 5 6 
#
# 1 0.030839 -0.005713 -0.013106 0.000000 0.000000 0.000000
# 2 -0.005713 0.015625 -0.002914 0.000000 0.000000 0.000000
# 3 -0.013106 -0.002914 0.019117 0.000000 0.000000 0.000000
# 4 0.000000 0.000000 0.000000 0.044576 0.000000 0.000000
# 5 0.000000 0.000000 0.000000 0.000000 0.036566 0.000000
# 6 0.000000 0.000000 0.000000 0.000000 0.000000 0.058967
#
#
# Mechanical properties :
#
#
# Convention : Reuss Voigt Hill
#
# Bulk Modulus (GPa) = 45.21894 47.47866 46.34880
# Shear Modulus (GPa) = 19.49110 21.33484 20.41297
#
# Velocity S-wave (km/s) = 3.12422 3.26865 3.19725
# Velocity P-wave (km/s) = 5.97153 6.16619 6.06964
#
# Compressibility (1/GPa) = 0.02211463
#
# Stress axis : x y z
#
# Youngs Moduli (GPa) = 32.42623 64.00182 52.30945
#
# Poissons Ratio (x) = 0.36562 0.68559
# Poissons Ratio (y) = 0.18524 0.15243
# Poissons Ratio (z) = 0.42499 0.18651
#
# Static dielectric constant tensor:
#      x y z
#    x 1.733340 0.000000 0.000000 
#    y 0.000000 1.760800 0.000000 
#    z 0.000000 0.000000 1.688890 
# 
# From -- ./inp_files/22212.got.cif
#   From: 2010.05.17/outbox.cif.g08.bks.cpg/sg38_12_cif.got.tgz:22212.got - 2010.06.03 18:07:57.
