data_PCOD9356841
_publ_section_title
;
Structure prediction by ZEFSAII (Michael W. Deem and Ramdas Pophale) SiO2 
 PCOD9356841
Probable space group: A M M 2
;
_chemical_formula_sum "Si O2"
_cell_formula_units_Z 64
_cell_length_a 8.803742
_cell_length_b 15.546168
_cell_length_c 23.378829
_cell_angle_alpha 90.000000
_cell_angle_beta 90.000000
_cell_angle_gamma 90.000000
_cell_volume 3199.730623
_symmetry_space_group_name_H-M "A M M 2"
_symmetry_group_IT_number 38
_symmetry_cell_setting 'orthorhombic'
loop_
_space_group_symop_operation_xyz
x,y,z
-x,-y,z
-x,y,z
x,-y,z
x,1/2+y,1/2+z
-x,1/2-y,1/2+z
-x,1/2+y,1/2+z
x,1/2-y,1/2+z
loop_
_atom_site_type_symbol
_atom_site_label
_atom_site_fract_x
_atom_site_fract_y
_atom_site_fract_z
Si Si1 0.180203 0.723190 0.315380
Si Si2 0.171059 0.100660 0.164813
Si Si3 0.682606 0.591299 0.974693
Si Si4 0.175647 0.671703 0.548005
Si Si5 0.824404 0.366444 0.093716
Si Si6 0.321039 0.101057 0.281272
Si Si7 0.318042 0.900008 0.718120
Si Si8 0.681183 0.721845 0.433136
O O1 0.234901 0.822905 0.313693
O O2 0.250710 0.666926 0.263967
O O3 0.238836 0.688508 0.376280
O O4 0.000000 0.720182 0.311147
O O5 0.228506 0.114460 0.100865
O O6 0.283793 0.125715 0.215266
O O7 0.000000 0.140579 0.170596
O O8 0.152297 0.000000 0.172779
O O9 0.500000 0.594096 0.973905
O O10 0.731176 0.500000 0.947915
O O11 0.734731 0.679428 0.945397
O O12 0.737866 0.592143 0.040167
O O13 0.178706 0.766203 0.576519
O O14 0.272444 0.671910 0.490636
O O15 0.000000 0.650647 0.534347
O O16 0.748107 0.382308 0.154783
O O17 0.000000 0.394204 0.095546
O O18 0.500000 0.107124 0.293100
O O19 0.277543 0.000000 0.291165
O O20 0.500000 0.890579 0.716597
O O21 0.282746 0.000000 0.732903
O O22 0.500000 0.721628 0.425540
#
# Coordination Sequence:
#
# PCOD9356841 Si02
#       8
#     8   8   8   8   8   8   8   8
#     4  12  25  41  61  83 112 151 194 241 289 339
#     4   9  17  31  53  81 112 144 181 228 280 333
#     4   9  18  33  53  78 109 144 180 221 272 329
#     4   9  18  33  52  77 109 144 181 224 277 333
#     4  10  19  31  52  83 116 147 180 222 275 335
#     4  10  21  37  59  88 121 155 191 232 280 338
#     4  11  24  41  61  85 114 149 191 239 289 342
#     4  10  21  37  56  77 103 140 187 234 278 329
#
# _framework density 20.001684000000001
#
# number of rings (size 3 to 8) (size 9 to 14) (size 15 to 20)
#    0.000    2.000    0.000    3.750    0.000    6.500 
#    0.000    1.875    0.000    2.250    0.000    0.000 
#    0.000    0.000    0.000    0.000    0.000    0.000 
#
# Total GULP energy -178526.638169 kJ/mol
# GULP energy per Si atom -5578.957443 kJ/mol
# Density = 1.995616 g / cm^3
# Si number density = 20.001684 Si / 1000 Ang^3
#
#
#
# Elastic Constant Matrix: (Units=GPa)
#
#
# Indices 1 2 3 4 5 6 
#
# 1 48.4234 16.4842 27.3507 0.0000 0.0000 0.0000
# 2 16.4842 23.5482 22.4789 0.0000 0.0000 0.0000
# 3 27.3507 22.4789 103.9325 0.0000 0.0000 0.0000
# 4 0.0000 0.0000 0.0000 8.2539 0.0000 0.0000
# 5 0.0000 0.0000 0.0000 0.0000 30.7195 0.0000
# 6 0.0000 0.0000 0.0000 0.0000 0.0000 19.4062
#
#
#
# Elastic Compliance Matrix: (Units=1/GPa)
#
#
# Indices 1 2 3 4 5 6 
#
# 1 0.028370 -0.016046 -0.003995 0.000000 0.000000 0.000000
# 2 -0.016046 0.062590 -0.009315 0.000000 0.000000 0.000000
# 3 -0.003995 -0.009315 0.012688 0.000000 0.000000 0.000000
# 4 0.000000 0.000000 0.000000 0.121154 0.000000 0.000000
# 5 0.000000 0.000000 0.000000 0.000000 0.032553 0.000000
# 6 0.000000 0.000000 0.000000 0.000000 0.000000 0.051530
#
#
# Mechanical properties :
#
#
# Convention : Reuss Voigt Hill
#
# Bulk Modulus (GPa) = 22.25369 34.28131 28.26750
# Shear Modulus (GPa) = 13.06934 18.98195 16.02565
#
# Velocity S-wave (km/s) = 2.55897 3.08395 2.83364
# Velocity P-wave (km/s) = 4.45883 5.46420 4.98691
#
# Compressibility (1/GPa) = 0.04493636
#
# Stress axis : x y z
#
# Youngs Moduli (GPa) = 35.24838 15.97699 78.81664
#
# Poissons Ratio (x) = 0.25636 0.31491
# Poissons Ratio (y) = 0.56558 0.73415
# Poissons Ratio (z) = 0.14083 0.14882
#
# Static dielectric constant tensor:
#      x y z
#    x 1.688460 0.000000 0.000000 
#    y 0.000000 1.770830 0.000000 
#    z 0.000000 0.000000 1.701860 
# 
# From -- ./inp_files/22204.got.cif
#   From: 2010.05.17/outbox.cif.g08.bks.cpg/sg38_12_cif.got.tgz:22204.got - 2010.06.03 18:07:57.
