data_PCOD9356118
_publ_section_title
;
Structure prediction by ZEFSAII (Michael W. Deem and Ramdas Pophale) SiO2 
 PCOD9356118
Probable space group: A M M 2
;
_chemical_formula_sum "Si O2"
_cell_formula_units_Z 64
_cell_length_a 7.976781
_cell_length_b 15.086142
_cell_length_c 28.786965
_cell_angle_alpha 90.000000
_cell_angle_beta 90.000000
_cell_angle_gamma 90.000000
_cell_volume 3464.190288
_symmetry_space_group_name_H-M "A M M 2"
_symmetry_group_IT_number 38
_symmetry_cell_setting 'orthorhombic'
loop_
_space_group_symop_operation_xyz
x,y,z
-x,-y,z
-x,y,z
x,-y,z
x,1/2+y,1/2+z
-x,1/2-y,1/2+z
-x,1/2+y,1/2+z
x,1/2-y,1/2+z
loop_
_atom_site_type_symbol
_atom_site_label
_atom_site_fract_x
_atom_site_fract_y
_atom_site_fract_z
Si Si1 0.802519 0.899822 0.777940
Si Si2 0.803500 0.226758 0.593676
Si Si3 0.702282 0.899696 0.407456
Si Si4 0.794805 0.899896 0.140414
Si Si5 0.303993 0.731020 0.828787
Si Si6 0.202809 0.899797 0.513657
Si Si7 0.202408 0.602331 0.747188
Si Si8 0.303442 0.102096 0.674968
O O1 0.771069 0.826394 0.816756
O O2 0.719461 0.873326 0.728948
O O3 0.000000 0.902714 0.768782
O O4 0.745576 0.000000 0.789791
O O5 0.731992 0.322760 0.606772
O O6 0.731536 0.171317 0.550651
O O7 0.788756 0.166436 0.639634
O O8 0.000000 0.240230 0.583464
O O9 0.500000 0.901448 0.403555
O O10 0.767047 0.825777 0.371831
O O11 0.747885 0.880682 0.460711
O O12 0.762894 0.000000 0.396393
O O13 0.746473 0.880651 0.193866
O O14 0.000000 0.899000 0.140093
O O15 0.742444 0.000000 0.128815
O O16 0.500000 0.744831 0.837126
O O17 0.279721 0.669303 0.783653
O O18 0.000000 0.900854 0.516296
O O19 0.261245 0.000000 0.524987
O O20 0.245515 0.500000 0.758168
O O21 0.000000 0.610509 0.749493
O O22 0.500000 0.105055 0.663736
O O23 0.244259 0.000000 0.670161
#
# Coordination Sequence:
#
# PCOD9356118 Si02
#       8
#     8   8   8   8   8   8   8   8
#     4  10  21  36  52  70  96 131 167 202 240 285
#     4  10  18  29  49  73  97 128 164 202 244 289
#     4   9  19  35  52  71  97 128 159 192 238 295
#     4   8  15  28  45  66  93 125 160 194 228 271
#     4  11  21  32  50  74  98 125 160 203 249 298
#     4   9  18  31  47  70  97 123 157 202 247 290
#     4   9  17  29  46  70 100 133 167 199 234 285
#     4  10  20  32  47  71 102 132 162 197 238 286
#
# _framework density 18.474736
#
# number of rings (size 3 to 8) (size 9 to 14) (size 15 to 20)
#    0.000    2.500    0.000    3.375    0.000    5.250 
#    0.000    2.500    0.000    1.875    0.000    1.750 
#    0.000    0.000    0.000    0.000    0.000    0.000 
#
# Total GULP energy -178546.800793 kJ/mol
# GULP energy per Si atom -5579.587525 kJ/mol
# Density = 1.843269 g / cm^3
# Si number density = 18.474736 Si / 1000 Ang^3
#
#
#
# Elastic Constant Matrix: (Units=GPa)
#
#
# Indices 1 2 3 4 5 6 
#
# 1 12.2443 -3.1354 -5.3700 0.0000 0.0000 0.0000
# 2 -3.1354 110.5191 81.5345 0.0000 0.0000 0.0000
# 3 -5.3700 81.5345 89.1121 0.0000 0.0000 0.0000
# 4 0.0000 0.0000 0.0000 32.6027 0.0000 0.0000
# 5 0.0000 0.0000 0.0000 0.0000 23.9158 0.0000
# 6 0.0000 0.0000 0.0000 0.0000 0.0000 10.8306
#
#
#
# Elastic Compliance Matrix: (Units=1/GPa)
#
#
# Indices 1 2 3 4 5 6 
#
# 1 0.084512 -0.004184 0.008921 0.000000 0.000000 0.000000
# 2 -0.004184 0.028048 -0.025915 0.000000 0.000000 0.000000
# 3 0.008921 -0.025915 0.035471 0.000000 0.000000 0.000000
# 4 0.000000 0.000000 0.000000 0.030672 0.000000 0.000000
# 5 0.000000 0.000000 0.000000 0.000000 0.041813 0.000000
# 6 0.000000 0.000000 0.000000 0.000000 0.000000 0.092331
#
#
# Mechanical properties :
#
#
# Convention : Reuss Voigt Hill
#
# Bulk Modulus (GPa) = 9.46303 39.77040 24.61672
# Shear Modulus (GPa) = 12.80642 22.72625 17.76633
#
# Velocity S-wave (km/s) = 2.63570 3.51112 3.10442
# Velocity P-wave (km/s) = 3.79418 6.16530 5.11892
#
# Compressibility (1/GPa) = 0.10567439
#
# Stress axis : x y z
#
# Youngs Moduli (GPa) = 11.83269 35.65273 28.19200
#
# Poissons Ratio (x) = 0.14915 -0.25149
# Poissons Ratio (y) = 0.04950 0.73061
# Poissons Ratio (z) = -0.10555 0.92395
#
# Static dielectric constant tensor:
#      x y z
#    x 1.650940 0.000000 0.000000 
#    y 0.000000 1.662050 0.000000 
#    z 0.000000 0.000000 1.615910 
# 
# From -- ./inp_files/22116.got.cif
#   From: 2010.05.17/outbox.cif.g08.bks.cpg/sg38_12_cif.got.tgz:22116.got - 2010.06.03 18:07:57.
