data_PCOD9356712
_publ_section_title
;
Structure prediction by ZEFSAII (Michael W. Deem and Ramdas Pophale) SiO2 
 PCOD9356712
Probable space group: A M M 2
;
_chemical_formula_sum "Si O2"
_cell_formula_units_Z 56
_cell_length_a 8.836359
_cell_length_b 14.073115
_cell_length_c 29.999003
_cell_angle_alpha 90.000000
_cell_angle_beta 90.000000
_cell_angle_gamma 90.000000
_cell_volume 3730.528910
_symmetry_space_group_name_H-M "A M M 2"
_symmetry_group_IT_number 38
_symmetry_cell_setting 'orthorhombic'
loop_
_space_group_symop_operation_xyz
x,y,z
-x,-y,z
-x,y,z
x,-y,z
x,1/2+y,1/2+z
-x,1/2-y,1/2+z
-x,1/2+y,1/2+z
x,1/2-y,1/2+z
loop_
_atom_site_type_symbol
_atom_site_label
_atom_site_fract_x
_atom_site_fract_y
_atom_site_fract_z
Si Si1 0.683399 0.792608 0.554450
Si Si2 0.819594 0.709946 0.417621
Si Si3 0.317186 0.390833 0.962288
Si Si4 0.174318 0.115337 0.738545
Si Si5 0.682308 0.887869 0.645303
Si Si6 0.317093 0.391738 0.503152
Si Si7 0.680427 0.112392 0.831933
O O1 0.500000 0.794784 0.556462
O O2 0.725787 0.859778 0.512750
O O3 0.737153 0.830759 0.601926
O O4 0.728077 0.686160 0.540130
O O5 0.757693 0.814630 0.429585
O O6 0.754390 0.642234 0.456697
O O7 0.759379 0.671619 0.370720
O O8 0.000000 0.708945 0.418683
O O9 0.500000 0.382018 0.959172
O O10 0.276160 0.500000 0.953993
O O11 0.246738 0.145980 0.691784
O O12 0.264394 0.143219 0.782913
O O13 0.000000 0.144788 0.741820
O O14 0.178884 0.000000 0.737623
O O15 0.500000 0.880389 0.648448
O O16 0.717254 0.000000 0.639155
O O17 0.500000 0.386710 0.498527
O O18 0.275853 0.500000 0.513557
O O19 0.500000 0.121445 0.835328
O O20 0.718335 0.000000 0.837291
#
# Coordination Sequence:
#
# PCOD9356712 Si02
#       7
#     8   8   8   8   8   8   8
#     4   8  14  25  43  66  87 111 147 184 217 252
#     4  11  21  30  43  65  92 119 146 178 220 267
#     4   9  17  31  49  66  87 117 152 187 218 251
#     4   9  17  28  41  60  87 114 139 172 217 265
#     4   9  15  24  40  61  85 113 143 174 211 259
#     4   9  17  30  46  63  86 117 153 190 222 255
#     4  10  19  31  47  65  86 114 148 183 218 260
#
# _framework density 15.011277
#
# number of rings (size 3 to 8) (size 9 to 14) (size 15 to 20)
#    0.000    2.714    0.000    3.857    0.000    6.571 
#    0.000    2.857    0.000    3.429    0.000    1.000 
#    0.000    5.714    0.000    0.000    0.000    0.000 
#
# Total GULP energy -156029.522932 kJ/mol
# GULP energy per Si atom -5572.482962 kJ/mol
# Density = 1.497711 g / cm^3
# Si number density = 15.011277 Si / 1000 Ang^3
#
#
#
# Elastic Constant Matrix: (Units=GPa)
#
#
# Indices 1 2 3 4 5 6 
#
# 1 38.0273 36.8461 40.7746 0.0000 0.0000 0.0000
# 2 36.8461 96.6982 64.0816 0.0000 0.0000 0.0000
# 3 40.7746 64.0816 136.5654 0.0000 0.0000 0.0000
# 4 0.0000 0.0000 0.0000 23.3878 0.0000 0.0000
# 5 0.0000 0.0000 0.0000 0.0000 -12.7880 0.0000
# 6 0.0000 0.0000 0.0000 0.0000 0.0000 10.2142
#
#
#
# Elastic Compliance Matrix: (Units=1/GPa)
#
#
# Indices 1 2 3 4 5 6 
#
# 1 0.047294 -0.012573 -0.008221 0.000000 0.000000 0.000000
# 2 -0.012573 0.018351 -0.004857 0.000000 0.000000 0.000000
# 3 -0.008221 -0.004857 0.012056 0.000000 0.000000 0.000000
# 4 0.000000 0.000000 0.000000 0.042757 0.000000 0.000000
# 5 0.000000 0.000000 0.000000 0.000000 -0.078199 0.000000
# 6 0.000000 0.000000 0.000000 0.000000 0.000000 0.097903
#
#
# Mechanical properties :
#
#
# Convention : Reuss Voigt Hill
#
# Bulk Modulus (GPa) = 37.87975 61.63284 49.75629
# Shear Modulus (GPa) = 24.96685 12.80205 18.88445
#
# Velocity S-wave (km/s) = 4.08267 2.92349 3.55070
# Velocity P-wave (km/s) = 6.89298 7.24862 7.07304
#
# Compressibility (1/GPa) = 0.02639933
#
# Stress axis : x y z
#
# Youngs Moduli (GPa) = 21.14413 54.49260 82.94520
#
# Poissons Ratio (x) = 0.68514 0.68189
# Poissons Ratio (y) = 0.26585 0.40287
# Poissons Ratio (z) = 0.17383 0.26467
#
# Static dielectric constant tensor:
#      x y z
#    x 1.500390 0.000000 0.000000 
#    y 0.000000 1.489430 0.000000 
#    z 0.000000 0.000000 1.487230 
# 
# From -- ./inp_files/24635.got.cif
#   From: 2010.05.17/outbox.cif.g08.bks.cpg/sg38_13_cif.got.tgz:24635.got - 2010.06.03 18:07:57.
