data_PCOD9356525
_publ_section_title
;
Structure prediction by ZEFSAII (Michael W. Deem and Ramdas Pophale) SiO2 
 PCOD9356525
Probable space group: A M M 2
;
_chemical_formula_sum "Si O2"
_cell_formula_units_Z 56
_cell_length_a 8.672141
_cell_length_b 14.167975
_cell_length_c 30.247271
_cell_angle_alpha 90.000000
_cell_angle_beta 90.000000
_cell_angle_gamma 90.000000
_cell_volume 3716.381673
_symmetry_space_group_name_H-M "A M M 2"
_symmetry_group_IT_number 38
_symmetry_cell_setting 'orthorhombic'
loop_
_space_group_symop_operation_xyz
x,y,z
-x,-y,z
-x,y,z
x,-y,z
x,1/2+y,1/2+z
-x,1/2-y,1/2+z
-x,1/2+y,1/2+z
x,1/2-y,1/2+z
loop_
_atom_site_type_symbol
_atom_site_label
_atom_site_fract_x
_atom_site_fract_y
_atom_site_fract_z
Si Si1 0.815156 0.391825 0.860770
Si Si2 0.314702 0.108826 0.997321
Si Si3 0.686601 0.216679 0.910274
Si Si4 0.813218 0.889855 0.187646
Si Si5 0.821514 0.385443 0.590227
Si Si6 0.687306 0.606001 0.321857
Si Si7 0.314745 0.292953 0.773983
O O1 0.771128 0.500000 0.869841
O O2 0.754129 0.317713 0.896859
O O3 0.746650 0.358619 0.813731
O O4 0.000000 0.386160 0.858357
O O5 0.500000 0.106425 0.995531
O O6 0.261285 0.173967 0.956932
O O7 0.260208 0.000000 0.991634
O O8 0.265281 0.143208 0.045818
O O9 0.500000 0.223399 0.910330
O O10 0.729430 0.145189 0.870418
O O11 0.761950 0.856583 0.138682
O O12 0.748829 0.828825 0.227572
O O13 0.000000 0.887462 0.187835
O O14 0.767998 0.000000 0.193644
O O15 0.817324 0.500000 0.591455
O O16 0.000000 0.357117 0.586380
O O17 0.500000 0.603046 0.320931
O O18 0.744349 0.500000 0.314243
O O19 0.734566 0.686424 0.287054
O O20 0.500000 0.296604 0.774025
#
# Coordination Sequence:
#
# PCOD9356525 Si02
#       7
#     8   8   8   8   8   8   8
#     4  10  20  32  44  59  83 114 143 172 208 249
#     4   9  16  26  42  65  91 115 138 168 208 250
#     4   9  17  28  44  65  85 109 141 172 203 242
#     4   9  17  29  43  59  84 117 145 170 206 250
#     4   8  15  27  41  58  82 113 145 172 203 247
#     4   8  14  26  42  59  82 110 137 165 199 242
#     4  10  19  28  43  66  85 107 141 176 210 248
#
# _framework density 15.068419
#
# number of rings (size 3 to 8) (size 9 to 14) (size 15 to 20)
#    0.000    3.000    0.000    3.429    0.000    6.000 
#    0.000    1.429    0.000   14.143    0.000    1.000 
#    0.000    3.429    0.000    0.000    0.000    0.000 
#
# Total GULP energy -155920.794678 kJ/mol
# GULP energy per Si atom -5568.599810 kJ/mol
# Density = 1.503412 g / cm^3
# Si number density = 15.068419 Si / 1000 Ang^3
#
#
#
# Elastic Constant Matrix: (Units=GPa)
#
#
# Indices 1 2 3 4 5 6 
#
# 1 16.6538 23.5129 27.8296 0.0000 0.0000 0.0000
# 2 23.5129 109.8004 75.1612 0.0000 0.0000 0.0000
# 3 27.8296 75.1612 153.8886 0.0000 0.0000 0.0000
# 4 0.0000 0.0000 0.0000 24.1480 0.0000 0.0000
# 5 0.0000 0.0000 0.0000 0.0000 22.1677 0.0000
# 6 0.0000 0.0000 0.0000 0.0000 0.0000 11.7283
#
#
#
# Elastic Compliance Matrix: (Units=1/GPa)
#
#
# Indices 1 2 3 4 5 6 
#
# 1 0.097329 -0.013210 -0.011149 0.000000 0.000000 0.000000
# 2 -0.013210 0.015475 -0.005169 0.000000 0.000000 0.000000
# 3 -0.011149 -0.005169 0.011039 0.000000 0.000000 0.000000
# 4 0.000000 0.000000 0.000000 0.041411 0.000000 0.000000
# 5 0.000000 0.000000 0.000000 0.000000 0.045111 0.000000
# 6 0.000000 0.000000 0.000000 0.000000 0.000000 0.085264
#
#
# Mechanical properties :
#
#
# Convention : Reuss Voigt Hill
#
# Bulk Modulus (GPa) = 15.43557 59.26115 37.34836
# Shear Modulus (GPa) = 13.28796 21.86473 17.57635
#
# Velocity S-wave (km/s) = 2.97280 3.81337 3.41902
# Velocity P-wave (km/s) = 4.69567 7.66828 6.35814
#
# Compressibility (1/GPa) = 0.06478544
#
# Stress axis : x y z
#
# Youngs Moduli (GPa) = 10.27448 64.62178 90.58752
#
# Poissons Ratio (x) = 0.85368 1.00996
# Poissons Ratio (y) = 0.13573 0.46825
# Poissons Ratio (z) = 0.11455 0.33403
#
# Static dielectric constant tensor:
#      x y z
#    x 1.513670 0.000000 0.000000 
#    y 0.000000 1.492230 0.000000 
#    z 0.000000 0.000000 1.500770 
# 
# From -- ./inp_files/23825.got.cif
#   From: 2010.05.17/outbox.cif.g08.bks.cpg/sg38_12_cif.got.tgz:23825.got - 2010.06.03 18:07:57.
