data_PCOD9356413
_publ_section_title
;
Structure prediction by ZEFSAII (Michael W. Deem and Ramdas Pophale) SiO2 
 PCOD9356413
Probable space group: A M M 2
;
_chemical_formula_sum "Si O2"
_cell_formula_units_Z 48
_cell_length_a 14.464027
_cell_length_b 7.470396
_cell_length_c 20.732584
_cell_angle_alpha 90.000000
_cell_angle_beta 90.000000
_cell_angle_gamma 90.000000
_cell_volume 2240.197362
_symmetry_space_group_name_H-M "A M M 2"
_symmetry_group_IT_number 38
_symmetry_cell_setting 'orthorhombic'
loop_
_space_group_symop_operation_xyz
x,y,z
-x,-y,z
-x,y,z
x,-y,z
x,1/2+y,1/2+z
-x,1/2-y,1/2+z
-x,1/2+y,1/2+z
x,1/2-y,1/2+z
loop_
_atom_site_type_symbol
_atom_site_label
_atom_site_fract_x
_atom_site_fract_y
_atom_site_fract_z
Si Si1 0.698763 0.719425 0.665450
Si Si2 0.500000 0.781740 0.218183
Si Si3 0.702488 0.792230 0.902363
Si Si4 0.796462 0.280723 0.534248
Si Si5 0.818572 0.703004 0.783205
Si Si6 0.500000 0.214354 0.367868
Si Si7 0.000000 0.218118 0.355469
Si Si8 0.000000 0.209623 0.007861
O O1 0.698104 0.500000 0.667423
O O2 0.594715 0.775649 0.683466
O O3 0.736969 0.774039 0.595968
O O4 0.770139 0.782965 0.720531
O O5 0.500000 0.724120 0.293107
O O6 0.500000 0.000000 0.218445
O O7 0.741319 0.698498 0.838876
O O8 0.592630 0.776556 0.902716
O O9 0.728402 0.000000 0.895621
O O10 0.749397 0.723206 0.967393
O O11 0.797024 0.500000 0.533892
O O12 0.902848 0.218002 0.534229
O O13 0.844837 0.500000 0.765137
O O14 0.909247 0.781151 0.817146
O O15 0.500000 0.000000 0.366975
O O16 0.000000 0.275666 0.429977
O O17 0.000000 0.000000 0.357736
O O18 0.000000 0.000000 0.024423
#
# Coordination Sequence:
#
# PCOD9356413 Si02
#       8
#     8   4   8   8   8   4   4   4
#     4   9  17  31  51  78 107 138 180 229 272 316
#     4   9  16  28  51  77 101 134 174 219 271 317
#     4  11  21  34  54  83 111 139 178 223 271 322
#     4   9  19  32  51  79 111 142 177 223 273 320
#     4  10  19  33  54  80 108 141 184 226 269 317
#     4  11  21  36  57  83 109 142 184 223 269 321
#     4  10  20  31  51  83 111 141 180 226 272 318
#     4  10  18  33  53  77 107 145 182 218 274 330
#
# _framework density 21.426683000000001
#
# number of rings (size 3 to 8) (size 9 to 14) (size 15 to 20)
#    0.000    2.167    3.333    0.750    0.000    1.333 
#    0.000    5.833    0.000    3.000    0.000    1.167 
#    0.000    0.000    0.000    0.000    0.000    0.000 
#
# Total GULP energy -134049.647267 kJ/mol
# GULP energy per Si atom -5585.401969 kJ/mol
# Density = 2.137791 g / cm^3
# Si number density = 21.426683 Si / 1000 Ang^3
#
#
#
# Elastic Constant Matrix: (Units=GPa)
#
#
# Indices 1 2 3 4 5 6 
#
# 1 131.3992 -5.5423 22.2065 0.0000 0.0000 0.0000
# 2 -5.5423 65.7480 -0.5549 0.0000 0.0000 0.0000
# 3 22.2065 -0.5549 93.6461 0.0000 0.0000 0.0000
# 4 0.0000 0.0000 0.0000 6.6231 0.0000 0.0000
# 5 0.0000 0.0000 0.0000 0.0000 35.3943 0.0000
# 6 0.0000 0.0000 0.0000 0.0000 0.0000 4.6964
#
#
#
# Elastic Compliance Matrix: (Units=1/GPa)
#
#
# Indices 1 2 3 4 5 6 
#
# 1 0.007956 0.000655 -0.001883 0.000000 0.000000 0.000000
# 2 0.000655 0.015264 -0.000065 0.000000 0.000000 0.000000
# 3 -0.001883 -0.000065 0.011125 0.000000 0.000000 0.000000
# 4 0.000000 0.000000 0.000000 0.150986 0.000000 0.000000
# 5 0.000000 0.000000 0.000000 0.000000 0.028253 0.000000
# 6 0.000000 0.000000 0.000000 0.000000 0.000000 0.212930
#
#
# Mechanical properties :
#
#
# Convention : Reuss Voigt Hill
#
# Bulk Modulus (GPa) = 31.48680 35.89023 33.68852
# Shear Modulus (GPa) = 11.37175 27.65502 19.51339
#
# Velocity S-wave (km/s) = 2.30625 3.59650 3.02106
# Velocity P-wave (km/s) = 4.67106 5.83379 5.28450
#
# Compressibility (1/GPa) = 0.03175934
#
# Stress axis : x y z
#
# Youngs Moduli (GPa) = 125.68797 65.51265 89.89096
#
# Poissons Ratio (x) = -0.04290 0.16925
# Poissons Ratio (y) = -0.08230 0.00583
# Poissons Ratio (z) = 0.23664 0.00425
#
# Static dielectric constant tensor:
#      x y z
#    x 1.765230 0.000000 0.000000 
#    y 0.000000 1.867200 0.000000 
#    z 0.000000 0.000000 1.714740 
# 
# From -- ./inp_files/18247.got.cif
#   From: 2010.05.17/outbox.cif.g08.bks.cpg/sg38_10_cif.got.tgz:18247.got - 2010.06.03 18:07:57.
