data_PCOD9356897
_publ_section_title
;
Structure prediction by ZEFSAII (Michael W. Deem and Ramdas Pophale) SiO2 
 PCOD9356897
Probable space group: A M M 2
;
_chemical_formula_sum "Si O2"
_cell_formula_units_Z 64
_cell_length_a 10.811082
_cell_length_b 15.791144
_cell_length_c 19.881226
_cell_angle_alpha 90.000000
_cell_angle_beta 90.000000
_cell_angle_gamma 90.000000
_cell_volume 3394.110033
_symmetry_space_group_name_H-M "A M M 2"
_symmetry_group_IT_number 38
_symmetry_cell_setting 'orthorhombic'
loop_
_space_group_symop_operation_xyz
x,y,z
-x,-y,z
-x,y,z
x,-y,z
x,1/2+y,1/2+z
-x,1/2-y,1/2+z
-x,1/2+y,1/2+z
x,1/2-y,1/2+z
loop_
_atom_site_type_symbol
_atom_site_label
_atom_site_fract_x
_atom_site_fract_y
_atom_site_fract_z
Si Si1 0.350034 0.405884 0.774320
Si Si2 0.866503 0.599020 0.239196
Si Si3 0.224838 0.596105 0.387761
Si Si4 0.351343 0.275840 0.887761
Si Si5 0.649965 0.094116 0.501202
Si Si6 0.639646 0.150315 0.650422
Si Si7 0.133498 0.099020 0.036327
Si Si8 0.360353 0.150315 0.125101
O O1 0.500000 0.405255 0.778237
O O2 0.308802 0.500000 0.795776
O O3 0.307542 0.329904 0.822680
O O4 0.321614 0.391209 0.696012
O O5 0.866903 0.500000 0.220646
O O6 0.853033 0.603014 0.319549
O O7 0.744025 0.635913 0.205592
O O8 0.000000 0.636211 0.218738
O O9 0.280864 0.500000 0.387761
O O10 0.312089 0.678347 0.387761
O O11 0.146967 0.603014 0.455974
O O12 0.500000 0.277692 0.887761
O O13 0.307542 0.329904 0.952842
O O14 0.500000 0.094745 0.497284
O O15 0.678384 0.108792 0.579510
O O16 0.691199 0.000000 0.479748
O O17 0.500000 0.120158 0.668796
O O18 0.630888 0.250000 0.637762
O O19 0.255975 0.135913 0.069931
O O20 0.000000 0.136211 0.056785
O O21 0.133098 0.000000 0.054876
O O22 0.500000 0.120158 0.106727
#
# Coordination Sequence:
#
# PCOD9356897 Si02
#       8
#     8   8   8   8   8   8   8   8
#     4   9  17  30  50  76 107 144 181 218 266 320
#     4  10  21  37  56  77 103 139 182 224 268 324
#     4  10  21  36  53  73 101 138 178 224 279 332
#     4  10  19  32  51  77 108 139 178 226 268 318
#     4   9  17  30  50  76 107 144 181 218 266 320
#     4  10  20  34  53  80 114 146 177 220 272 324
#     4  10  21  37  56  77 103 139 182 224 268 324
#     4  10  20  34  53  80 114 146 177 220 272 324
#
# _framework density 18.856193999999999
#
# number of rings (size 3 to 8) (size 9 to 14) (size 15 to 20)
#    0.000    2.250    0.000    3.000    0.000    8.250 
#    0.000    2.500    0.000    0.000    0.000    0.000 
#    0.000   10.000    0.000    0.000    0.000    0.000 
#
# Total GULP energy -178327.151658 kJ/mol
# GULP energy per Si atom -5572.723489 kJ/mol
# Density = 1.881328 g / cm^3
# Si number density = 18.856194 Si / 1000 Ang^3
#
#
#
# Elastic Constant Matrix: (Units=GPa)
#
#
# Indices 1 2 3 4 5 6 
#
# 1 95.2257 24.3291 59.8269 0.0000 0.0000 0.0000
# 2 24.3291 101.4087 31.4455 0.0000 0.0000 0.0000
# 3 59.8269 31.4455 87.4778 0.0000 0.0000 0.0000
# 4 0.0000 0.0000 0.0000 22.9621 0.0000 0.0000
# 5 0.0000 0.0000 0.0000 0.0000 -1.8138 0.0000
# 6 0.0000 0.0000 0.0000 0.0000 0.0000 27.1655
#
#
#
# Elastic Compliance Matrix: (Units=1/GPa)
#
#
# Indices 1 2 3 4 5 6 
#
# 1 0.018443 -0.000578 -0.012406 0.000000 0.000000 0.000000
# 2 -0.000578 0.011116 -0.003601 0.000000 0.000000 0.000000
# 3 -0.012406 -0.003601 0.021210 0.000000 0.000000 0.000000
# 4 0.000000 0.000000 0.000000 0.043550 0.000000 0.000000
# 5 0.000000 0.000000 0.000000 0.000000 -0.551325 0.000000
# 6 0.000000 0.000000 0.000000 0.000000 0.000000 0.036811
#
#
# Mechanical properties :
#
#
# Convention : Reuss Voigt Hill
#
# Bulk Modulus (GPa) = 56.81505 57.25723 57.03614
# Shear Modulus (GPa) = -13.11791 20.89680 3.88945
#
# Velocity S-wave (km/s) = -2.64044 3.33260 1.43776
# Velocity P-wave (km/s) = 4.57168 6.72603 5.75064
#
# Compressibility (1/GPa) = 0.01760097
#
# Stress axis : x y z
#
# Youngs Moduli (GPa) = 54.22113 89.95827 47.14732
#
# Poissons Ratio (x) = 0.05198 0.58489
# Poissons Ratio (y) = 0.03133 0.16977
# Poissons Ratio (z) = 0.67265 0.32392
#
# Static dielectric constant tensor:
#      x y z
#    x 1.665900 0.000000 0.000000 
#    y 0.000000 1.676950 0.000000 
#    z 0.000000 0.000000 1.676010 
# 
# From -- ./inp_files/17839.got.cif
#   From: 2010.05.17/outbox.cif.g08.bks.cpg/sg38_9_cif.got.tgz:17839.got - 2010.06.03 18:07:57.
