data_PCOD9356783
_publ_section_title
;
Structure prediction by ZEFSAII (Michael W. Deem and Ramdas Pophale) SiO2 
 PCOD9356783
Probable space group: A M M 2
;
_chemical_formula_sum "Si O2"
_cell_formula_units_Z 64
_cell_length_a 20.460120
_cell_length_b 8.593657
_cell_length_c 20.774824
_cell_angle_alpha 90.000000
_cell_angle_beta 90.000000
_cell_angle_gamma 90.000000
_cell_volume 3652.780245
_symmetry_space_group_name_H-M "A M M 2"
_symmetry_group_IT_number 38
_symmetry_cell_setting 'orthorhombic'
loop_
_space_group_symop_operation_xyz
x,y,z
-x,-y,z
-x,y,z
x,-y,z
x,1/2+y,1/2+z
-x,1/2-y,1/2+z
-x,1/2+y,1/2+z
x,1/2-y,1/2+z
loop_
_atom_site_type_symbol
_atom_site_label
_atom_site_fract_x
_atom_site_fract_y
_atom_site_fract_z
Si Si1 0.574620 0.810347 0.542500
Si Si2 0.171580 0.812731 0.792028
Si Si3 0.679963 0.813178 0.437743
Si Si4 0.075434 0.314210 0.684414
Si Si5 0.175378 0.186383 0.939529
Si Si6 0.322113 0.311741 0.295760
Si Si7 0.574678 0.189620 0.689163
Si Si8 0.924398 0.686207 0.044275
O O1 0.500000 0.762323 0.527788
O O2 0.627258 0.758104 0.490299
O O3 0.590153 0.762120 0.615860
O O4 0.575087 0.000000 0.542109
O O5 0.122552 0.739576 0.741218
O O6 0.157534 0.767202 0.866109
O O7 0.247233 0.768925 0.779259
O O8 0.166833 0.000000 0.787630
O O9 0.752629 0.753161 0.453306
O O10 0.662904 0.753592 0.366391
O O11 0.680637 0.000000 0.437597
O O12 0.077367 0.500000 0.678645
O O13 0.094716 0.241303 0.615800
O O14 0.000000 0.266967 0.697294
O O15 0.179206 0.000000 0.940876
O O16 0.122944 0.244683 0.990638
O O17 0.324285 0.500000 0.299320
O O18 0.373194 0.257898 0.241886
O O19 0.500000 0.236856 0.703845
O O20 0.575629 0.000000 0.689576
O O21 0.921715 0.500000 0.041628
O O22 0.000000 0.735591 0.034045
#
# Coordination Sequence:
#
# PCOD9356783 Si02
#       8
#     8   8   8   8   8   8   8   8
#     4   8  15  28  46  71 101 131 167 210 253 299
#     4   9  19  34  51  72 101 136 170 208 254 303
#     4  10  19  31  50  74 100 133 170 209 254 304
#     4  10  21  36  54  77 105 135 168 209 254 300
#     4  10  21  37  55  76 105 138 172 214 260 306
#     4   9  18  32  49  72 101 130 163 206 254 303
#     4   8  14  27  48  71  95 126 165 206 246 294
#     4  10  21  37  57  80 106 136 171 210 251 302
#
# _framework density 17.520900999999999
#
# number of rings (size 3 to 8) (size 9 to 14) (size 15 to 20)
#    0.000    2.750    0.000    3.000    0.000    6.000 
#    0.000    5.000    0.000    2.625    0.000    3.500 
#    0.000    0.000    0.000    0.000    0.000    0.000 
#
# Total GULP energy -178456.071611 kJ/mol
# GULP energy per Si atom -5576.752238 kJ/mol
# Density = 1.748102 g / cm^3
# Si number density = 17.520901 Si / 1000 Ang^3
#
#
#
# Elastic Constant Matrix: (Units=GPa)
#
#
# Indices 1 2 3 4 5 6 
#
# 1 125.6336 31.5663 128.8409 0.0000 0.0000 0.0000
# 2 31.5663 23.7414 34.7826 0.0000 0.0000 0.0000
# 3 128.8409 34.7826 158.8819 0.0000 0.0000 0.0000
# 4 0.0000 0.0000 0.0000 30.6805 0.0000 0.0000
# 5 0.0000 0.0000 0.0000 0.0000 44.4918 0.0000
# 6 0.0000 0.0000 0.0000 0.0000 0.0000 17.8212
#
#
#
# Elastic Compliance Matrix: (Units=1/GPa)
#
#
# Indices 1 2 3 4 5 6 
#
# 1 0.048892 -0.010188 -0.037417 0.000000 0.000000 0.000000
# 2 -0.010188 0.064132 -0.005778 0.000000 0.000000 0.000000
# 3 -0.037417 -0.005778 0.037901 0.000000 0.000000 0.000000
# 4 0.000000 0.000000 0.000000 0.032594 0.000000 0.000000
# 5 0.000000 0.000000 0.000000 0.000000 0.022476 0.000000
# 6 0.000000 0.000000 0.000000 0.000000 0.000000 0.056113
#
#
# Mechanical properties :
#
#
# Convention : Reuss Voigt Hill
#
# Bulk Modulus (GPa) = 22.64569 77.62627 50.13598
# Shear Modulus (GPa) = 13.03464 26.13650 19.58557
#
# Velocity S-wave (km/s) = 2.73050 3.86649 3.34704
# Velocity P-wave (km/s) = 4.78475 8.02085 6.60409
#
# Compressibility (1/GPa) = 0.04415851
#
# Stress axis : x y z
#
# Youngs Moduli (GPa) = 20.45338 15.59293 26.38427
#
# Poissons Ratio (x) = 0.15885 0.98722
# Poissons Ratio (y) = 0.20837 0.15246
# Poissons Ratio (z) = 0.76531 0.09010
#
# Static dielectric constant tensor:
#      x y z
#    x 1.584170 0.000000 0.000000 
#    y 0.000000 1.596550 0.000000 
#    z 0.000000 0.000000 1.574720 
# 
# From -- ./inp_files/18871.got.cif
#   From: 2010.05.17/outbox.cif.g08.bks.cpg/sg38_10_cif.got.tgz:18871.got - 2010.06.03 18:07:57.
