data_PCOD9356193
_publ_section_title
;
Structure prediction by ZEFSAII (Michael W. Deem and Ramdas Pophale) SiO2 
 PCOD9356193
Probable space group: A M M 2
;
_chemical_formula_sum "Si O2"
_cell_formula_units_Z 56
_cell_length_a 8.899857
_cell_length_b 16.775873
_cell_length_c 23.425668
_cell_angle_alpha 90.000000
_cell_angle_beta 90.000000
_cell_angle_gamma 90.000000
_cell_volume 3497.519482
_symmetry_space_group_name_H-M "A M M 2"
_symmetry_group_IT_number 38
_symmetry_cell_setting 'orthorhombic'
loop_
_space_group_symop_operation_xyz
x,y,z
-x,-y,z
-x,y,z
x,-y,z
x,1/2+y,1/2+z
-x,1/2-y,1/2+z
-x,1/2+y,1/2+z
x,1/2-y,1/2+z
loop_
_atom_site_type_symbol
_atom_site_label
_atom_site_fract_x
_atom_site_fract_y
_atom_site_fract_z
Si Si1 0.680044 0.000000 0.252700
Si Si2 0.680229 0.593544 0.438129
Si Si3 0.175921 0.500000 0.629997
Si Si4 0.321049 0.741234 0.148278
Si Si5 0.179612 0.408252 0.204993
Si Si6 0.821944 0.844301 0.053103
Si Si7 0.318434 0.676557 0.768667
Si Si8 0.820817 0.672201 0.326173
O O1 0.731496 0.085103 0.277628
O O2 0.500000 0.000000 0.256771
O O3 0.725260 0.000000 0.186399
O O4 0.500000 0.596692 0.437553
O O5 0.725707 0.500000 0.441509
O O6 0.742711 0.640093 0.493021
O O7 0.745121 0.633191 0.381082
O O8 0.204411 0.576994 0.591442
O O9 0.000000 0.500000 0.646762
O O10 0.500000 0.744448 0.142221
O O11 0.266004 0.653388 0.164976
O O12 0.243654 0.773392 0.091346
O O13 0.280070 0.796081 0.203636
O O14 0.220867 0.500000 0.196160
O O15 0.210377 0.381969 0.270270
O O16 0.000000 0.399519 0.196311
O O17 0.000000 0.834988 0.044763
O O18 0.500000 0.681311 0.773767
O O19 0.243948 0.740803 0.810398
O O20 0.000000 0.676279 0.333853
#
# Coordination Sequence:
#
# PCOD9356193 Si02
#       8
#     4   8   4   8   8   8   8   8
#     4  10  18  30  50  74 104 138 168 203 248 295
#     4  11  23  36  52  74 101 134 170 207 248 297
#     4  10  20  30  46  72 104 136 168 205 240 287
#     4  10  19  31  49  74 104 135 167 207 252 299
#     4   9  18  33  52  74 101 134 170 209 253 299
#     4  11  21  34  50  73 104 137 171 205 244 295
#     4   9  18  31  48  72 102 135 169 205 248 297
#     4  10  20  34  52  73 101 134 169 210 251 295
#
# _framework density 16.011347000000001
#
# number of rings (size 3 to 8) (size 9 to 14) (size 15 to 20)
#    0.000    2.000    2.143    2.143    0.000    4.000 
#    0.000    0.000    0.000    0.000    1.857    0.000 
#    0.000    0.000    0.000    0.000    0.000    0.000 
#
# Total GULP energy -156243.617821 kJ/mol
# GULP energy per Si atom -5580.129208 kJ/mol
# Density = 1.597490 g / cm^3
# Si number density = 16.011347 Si / 1000 Ang^3
#
#
#
# Elastic Constant Matrix: (Units=GPa)
#
#
# Indices 1 2 3 4 5 6 
#
# 1 41.0399 43.3861 47.6624 0.0000 0.0000 0.0000
# 2 43.3861 122.3296 57.3256 0.0000 0.0000 0.0000
# 3 47.6624 57.3256 102.5596 0.0000 0.0000 0.0000
# 4 0.0000 0.0000 0.0000 12.2485 0.0000 0.0000
# 5 0.0000 0.0000 0.0000 0.0000 28.8096 0.0000
# 6 0.0000 0.0000 0.0000 0.0000 0.0000 23.6066
#
#
#
# Elastic Compliance Matrix: (Units=1/GPa)
#
#
# Indices 1 2 3 4 5 6 
#
# 1 0.063355 -0.011750 -0.022875 0.000000 0.000000 0.000000
# 2 -0.011750 0.013255 -0.001948 0.000000 0.000000 0.000000
# 3 -0.022875 -0.001948 0.021470 0.000000 0.000000 0.000000
# 4 0.000000 0.000000 0.000000 0.081642 0.000000 0.000000
# 5 0.000000 0.000000 0.000000 0.000000 0.034711 0.000000
# 6 0.000000 0.000000 0.000000 0.000000 0.000000 0.042361
#
#
# Mechanical properties :
#
#
# Convention : Reuss Voigt Hill
#
# Bulk Modulus (GPa) = 40.10748 62.51967 51.31357
# Shear Modulus (GPa) = 14.78189 20.76994 17.77591
#
# Velocity S-wave (km/s) = 3.04174 3.60558 3.33559
# Velocity P-wave (km/s) = 6.11883 7.51435 6.85221
#
# Compressibility (1/GPa) = 0.02493301
#
# Stress axis : x y z
#
# Youngs Moduli (GPa) = 15.78413 75.44339 46.57640
#
# Poissons Ratio (x) = 0.88647 1.06544
# Poissons Ratio (y) = 0.18547 0.09074
# Poissons Ratio (z) = 0.36106 0.14698
#
# Static dielectric constant tensor:
#      x y z
#    x 1.531230 0.000000 0.000000 
#    y 0.000000 1.540530 0.000000 
#    z 0.000000 0.000000 1.501100 
# 
# From -- ./inp_files/19896.got.cif
#   From: 2010.05.17/outbox.cif.g08.bks.cpg/sg38_10_cif.got.tgz:19896.got - 2010.06.03 18:07:57.
