data_PCOD9356578
_publ_section_title
;
Structure prediction by ZEFSAII (Michael W. Deem and Ramdas Pophale) SiO2 
 PCOD9356578
Probable space group: A M M 2
;
_chemical_formula_sum "Si O2"
_cell_formula_units_Z 64
_cell_length_a 20.045754
_cell_length_b 8.865041
_cell_length_c 20.981500
_cell_angle_alpha 90.000000
_cell_angle_beta 90.000000
_cell_angle_gamma 90.000000
_cell_volume 3728.547484
_symmetry_space_group_name_H-M "A M M 2"
_symmetry_group_IT_number 38
_symmetry_cell_setting 'orthorhombic'
loop_
_space_group_symop_operation_xyz
x,y,z
-x,-y,z
-x,y,z
x,-y,z
x,1/2+y,1/2+z
-x,1/2-y,1/2+z
-x,1/2+y,1/2+z
x,1/2-y,1/2+z
loop_
_atom_site_type_symbol
_atom_site_label
_atom_site_fract_x
_atom_site_fract_y
_atom_site_fract_z
Si Si1 0.156169 0.181201 0.742630
Si Si2 0.712227 0.320046 0.690365
Si Si3 0.076051 0.183559 0.616311
Si Si4 0.155659 0.182122 0.490758
Si Si5 0.573292 0.823381 0.537742
Si Si6 0.711953 0.320202 0.540390
Si Si7 0.921884 0.317648 0.861964
Si Si8 0.426468 0.676662 0.192213
O O1 0.230419 0.243627 0.732083
O O2 0.115258 0.228806 0.679494
O O3 0.117973 0.246520 0.803354
O O4 0.157489 0.000000 0.745655
O O5 0.718060 0.500000 0.693234
O O6 0.720467 0.273550 0.615361
O O7 0.638509 0.268924 0.711846
O O8 0.113962 0.232228 0.552756
O O9 0.000000 0.236367 0.617394
O O10 0.074972 0.000000 0.615442
O O11 0.229172 0.248970 0.498977
O O12 0.115694 0.225059 0.427296
O O13 0.160167 0.000000 0.491931
O O14 0.500000 0.769824 0.515551
O O15 0.639006 0.734021 0.518084
O O16 0.572086 0.815122 0.614977
O O17 0.580005 0.000000 0.521126
O O18 0.715556 0.500000 0.538416
O O19 0.920002 0.500000 0.857115
O O20 0.000000 0.272782 0.862507
O O21 0.500000 0.728058 0.214550
O O22 0.418713 0.500000 0.208707
#
# Coordination Sequence:
#
# PCOD9356578 Si02
#       8
#     8   8   8   8   8   8   8   8
#     4  11  21  34  54  77 103 136 173 215 259 308
#     4  10  19  30  46  71 105 139 173 214 260 308
#     4   9  17  30  51  77  98 122 165 212 251 299
#     4  10  19  34  55  75  99 135 174 211 254 309
#     4   8  14  25  42  65  96 135 175 210 247 298
#     4  10  19  29  45  72 106 137 168 213 262 304
#     4  10  22  39  57  77 103 134 169 214 266 316
#     4   8  14  25  42  66  98 135 173 211 253 302
#
# _framework density 17.164860000000001
#
# number of rings (size 3 to 8) (size 9 to 14) (size 15 to 20)
#    0.000    2.500    1.250    2.625    0.000    4.250 
#    0.000    2.500    0.000    1.875    0.000    0.875 
#    0.000    1.000    0.000    0.000    0.000    0.000 
#
# Total GULP energy -178383.747671 kJ/mol
# GULP energy per Si atom -5574.492115 kJ/mol
# Density = 1.712579 g / cm^3
# Si number density = 17.164860 Si / 1000 Ang^3
#
#
#
# Elastic Constant Matrix: (Units=GPa)
#
#
# Indices 1 2 3 4 5 6 
#
# 1 186.4982 48.3753 69.6593 0.0000 0.0000 0.0000
# 2 48.3753 28.3021 31.5006 0.0000 0.0000 0.0000
# 3 69.6593 31.5006 95.3541 0.0000 0.0000 0.0000
# 4 0.0000 0.0000 0.0000 19.1836 0.0000 0.0000
# 5 0.0000 0.0000 0.0000 0.0000 18.9538 0.0000
# 6 0.0000 0.0000 0.0000 0.0000 0.0000 19.6890
#
#
#
# Elastic Compliance Matrix: (Units=1/GPa)
#
#
# Indices 1 2 3 4 5 6 
#
# 1 0.010034 -0.014221 -0.002632 0.000000 0.000000 0.000000
# 2 -0.014221 0.076034 -0.014729 0.000000 0.000000 0.000000
# 3 -0.002632 -0.014729 0.017276 0.000000 0.000000 0.000000
# 4 0.000000 0.000000 0.000000 0.052128 0.000000 0.000000
# 5 0.000000 0.000000 0.000000 0.000000 0.052760 0.000000
# 6 0.000000 0.000000 0.000000 0.000000 0.000000 0.050790
#
#
# Mechanical properties :
#
#
# Convention : Reuss Voigt Hill
#
# Bulk Modulus (GPa) = 24.88856 67.69164 46.29010
# Shear Modulus (GPa) = 14.89964 22.27322 18.58643
#
# Velocity S-wave (km/s) = 2.94943 3.60614 3.29419
# Velocity P-wave (km/s) = 5.11176 7.54061 6.44169
#
# Compressibility (1/GPa) = 0.04017910
#
# Stress axis : x y z
#
# Youngs Moduli (GPa) = 99.66360 13.15207 57.88355
#
# Poissons Ratio (x) = 0.18703 0.15236
# Poissons Ratio (y) = 1.41727 0.85260
# Poissons Ratio (z) = 0.26233 0.19372
#
# Static dielectric constant tensor:
#      x y z
#    x 1.595790 0.000000 0.000000 
#    y 0.000000 1.570630 0.000000 
#    z 0.000000 0.000000 1.564380 
# 
# From -- ./inp_files/18845.got.cif
#   From: 2010.05.17/outbox.cif.g08.bks.cpg/sg38_10_cif.got.tgz:18845.got - 2010.06.03 18:07:57.
