data_PCOD9356812
_publ_section_title
;
Structure prediction by ZEFSAII (Michael W. Deem and Ramdas Pophale) SiO2 
 PCOD9356812
Probable space group: A M M 2
;
_chemical_formula_sum "Si O2"
_cell_formula_units_Z 64
_cell_length_a 15.020836
_cell_length_b 8.753956
_cell_length_c 25.507397
_cell_angle_alpha 90.000000
_cell_angle_beta 90.000000
_cell_angle_gamma 90.000000
_cell_volume 3354.011949
_symmetry_space_group_name_H-M "A M M 2"
_symmetry_group_IT_number 38
_symmetry_cell_setting 'orthorhombic'
loop_
_space_group_symop_operation_xyz
x,y,z
-x,-y,z
-x,y,z
x,-y,z
x,1/2+y,1/2+z
-x,1/2-y,1/2+z
-x,1/2+y,1/2+z
x,1/2-y,1/2+z
loop_
_atom_site_type_symbol
_atom_site_label
_atom_site_fract_x
_atom_site_fract_y
_atom_site_fract_z
Si Si1 0.099279 0.315967 0.333530
Si Si2 0.286585 0.184434 0.592280
Si Si3 0.657008 0.325875 0.978411
Si Si4 0.395230 0.816361 0.190259
Si Si5 0.594359 0.317761 0.376973
Si Si6 0.863560 0.675583 0.947614
Si Si7 0.901145 0.682689 0.559421
Si Si8 0.720059 0.314802 0.285608
O O1 0.105186 0.500000 0.338836
O O2 0.113551 0.247511 0.391607
O O3 0.177010 0.269546 0.293252
O O4 0.000000 0.275624 0.315613
O O5 0.334380 0.230748 0.537692
O O6 0.343582 0.250277 0.639824
O O7 0.184335 0.242441 0.587816
O O8 0.284554 0.000000 0.594068
O O9 0.624091 0.500000 0.979162
O O10 0.603056 0.229867 0.936839
O O11 0.757413 0.325711 0.956020
O O12 0.500000 0.768924 0.192320
O O13 0.337992 0.756832 0.239547
O O14 0.393269 0.000000 0.188919
O O15 0.500000 0.261043 0.355385
O O16 0.595434 0.500000 0.374464
O O17 0.673811 0.265539 0.340119
O O18 0.894216 0.500000 0.949796
O O19 0.898164 0.766416 0.998338
O O20 0.892137 0.500000 0.562293
O O21 0.000000 0.725532 0.579825
O O22 0.716043 0.500000 0.280344
#
# Coordination Sequence:
#
# PCOD9356812 Si02
#       8
#     8   8   8   8   8   8   8   8
#     4  10  20  34  55  84 116 153 197 240 288 347
#     4  10  22  40  62  88 117 153 198 247 298 353
#     4   9  19  34  52  79 115 152 188 229 282 341
#     4  11  25  44  66  90 113 146 196 251 304 359
#     4  10  20  33  53  82 112 147 190 232 285 352
#     4  10  19  31  50  79 117 160 202 241 283 340
#     4  10  20  34  55  85 122 162 201 242 290 346
#     4  10  21  39  61  84 115 153 194 243 295 352
#
# _framework density 19.081624999999999
#
# number of rings (size 3 to 8) (size 9 to 14) (size 15 to 20)
#    0.000    2.000    1.250    3.000    0.000    8.500 
#    0.000    3.125    0.000    2.250    0.000    0.000 
#    0.000    0.000    0.000    0.000    0.000    0.000 
#
# Total GULP energy -178499.643923 kJ/mol
# GULP energy per Si atom -5578.113873 kJ/mol
# Density = 1.903819 g / cm^3
# Si number density = 19.081625 Si / 1000 Ang^3
#
#
#
# Elastic Constant Matrix: (Units=GPa)
#
#
# Indices 1 2 3 4 5 6 
#
# 1 153.2253 42.5421 78.2662 0.0000 0.0000 0.0000
# 2 42.5421 35.1689 29.9094 0.0000 0.0000 0.0000
# 3 78.2662 29.9094 116.2902 0.0000 0.0000 0.0000
# 4 0.0000 0.0000 0.0000 30.5846 0.0000 0.0000
# 5 0.0000 0.0000 0.0000 0.0000 16.0498 0.0000
# 6 0.0000 0.0000 0.0000 0.0000 0.0000 19.8795
#
#
#
# Elastic Compliance Matrix: (Units=1/GPa)
#
#
# Indices 1 2 3 4 5 6 
#
# 1 0.012155 -0.009915 -0.005631 0.000000 0.000000 0.000000
# 2 -0.009915 0.044483 -0.004768 0.000000 0.000000 0.000000
# 3 -0.005631 -0.004768 0.013615 0.000000 0.000000 0.000000
# 4 0.000000 0.000000 0.000000 0.032696 0.000000 0.000000
# 5 0.000000 0.000000 0.000000 0.000000 0.062306 0.000000
# 6 0.000000 0.000000 0.000000 0.000000 0.000000 0.050303
#
#
# Mechanical properties :
#
#
# Convention : Reuss Voigt Hill
#
# Bulk Modulus (GPa) = 33.75405 67.34666 50.55035
# Shear Modulus (GPa) = 18.79272 23.56723 21.17997
#
# Velocity S-wave (km/s) = 3.14165 3.51818 3.33523
# Velocity P-wave (km/s) = 5.55767 7.20236 6.43279
#
# Compressibility (1/GPa) = 0.02962608
#
# Stress axis : x y z
#
# Youngs Moduli (GPa) = 82.26853 22.48065 73.44832
#
# Poissons Ratio (x) = 0.22290 0.41357
# Poissons Ratio (y) = 0.81570 0.35018
# Poissons Ratio (z) = 0.46323 0.10718
#
# Static dielectric constant tensor:
#      x y z
#    x 1.709910 0.000000 0.000000 
#    y 0.000000 1.651640 0.000000 
#    z 0.000000 0.000000 1.633620 
# 
# From -- ./inp_files/22966.got.cif
#   From: 2010.05.17/outbox.cif.g08.bks.cpg/sg38_12_cif.got.tgz:22966.got - 2010.06.03 18:07:57.
