data_PCOD9356674
_publ_section_title
;
Structure prediction by ZEFSAII (Michael W. Deem and Ramdas Pophale) SiO2 
 PCOD9356674
Probable space group: A M M 2
;
_chemical_formula_sum "Si O2"
_cell_formula_units_Z 64
_cell_length_a 14.076075
_cell_length_b 14.129946
_cell_length_c 18.889659
_cell_angle_alpha 90.000000
_cell_angle_beta 90.000000
_cell_angle_gamma 90.000000
_cell_volume 3757.043231
_symmetry_space_group_name_H-M "A M M 2"
_symmetry_group_IT_number 38
_symmetry_cell_setting 'orthorhombic'
loop_
_space_group_symop_operation_xyz
x,y,z
-x,-y,z
-x,y,z
x,-y,z
x,1/2+y,1/2+z
-x,1/2-y,1/2+z
-x,1/2+y,1/2+z
x,1/2-y,1/2+z
loop_
_atom_site_type_symbol
_atom_site_label
_atom_site_fract_x
_atom_site_fract_y
_atom_site_fract_z
Si Si1 0.393849 0.114748 0.563330
Si Si2 0.885266 0.607212 0.565746
Si Si3 0.200788 0.387612 0.000419
Si Si4 0.891821 0.886867 0.653685
Si Si5 0.113477 0.777722 0.927243
Si Si6 0.112996 0.113349 0.227958
Si Si7 0.612535 0.112146 0.729224
Si Si8 0.787790 0.288287 0.284475
O O1 0.500000 0.148549 0.546051
O O2 0.309793 0.144656 0.511362
O O3 0.372709 0.136689 0.645813
O O4 0.394961 0.000000 0.561141
O O5 0.850700 0.500000 0.556332
O O6 0.855991 0.669915 0.499579
O O7 0.862808 0.637326 0.645759
O O8 0.000000 0.605060 0.564038
O O9 0.197654 0.500000 0.987617
O O10 0.144756 0.329912 0.941638
O O11 0.153019 0.369414 0.076979
O O12 0.838676 0.840859 0.719107
O O13 0.000000 0.852653 0.652291
O O14 0.890552 0.000000 0.663387
O O15 0.166804 0.817610 0.859022
O O16 0.000000 0.785234 0.918395
O O17 0.181928 0.178747 0.274001
O O18 0.000000 0.134240 0.240344
O O19 0.124294 0.000000 0.236849
O O20 0.500000 0.121511 0.743177
O O21 0.679013 0.179588 0.775846
O O22 0.637289 0.000000 0.737839
#
# Coordination Sequence:
#
# PCOD9356674 Si02
#       8
#     8   8   8   8   8   8   8   8
#     4   8  14  28  52  79 101 122 158 209 261 312
#     4   8  16  32  49  63  86 127 174 211 241 280
#     4  10  19  33  51  73 102 137 173 208 257 317
#     4  10  19  30  48  75 103 130 165 215 271 322
#     4  11  23  33  44  70 108 144 171 201 252 310
#     4   9  18  33  52  71  95 136 187 225 248 283
#     4   9  18  34  56  82 109 133 162 210 275 338
#     4  12  21  32  50  75 104 134 174 215 261 311
#
# _framework density 17.034670999999999
#
# number of rings (size 3 to 8) (size 9 to 14) (size 15 to 20)
#    0.000    2.375    1.250    4.125    0.000    3.250 
#    0.000    1.875    0.000    0.375    0.000    0.000 
#    0.000    0.000    0.000    0.000    0.000    0.000 
#
# Total GULP energy -178379.580987 kJ/mol
# GULP energy per Si atom -5574.361906 kJ/mol
# Density = 1.699590 g / cm^3
# Si number density = 17.034671 Si / 1000 Ang^3
#
#
#
# Elastic Constant Matrix: (Units=GPa)
#
#
# Indices 1 2 3 4 5 6 
#
# 1 63.7392 16.5298 8.7834 0.0000 0.0000 0.0000
# 2 16.5298 45.7463 18.9787 0.0000 0.0000 0.0000
# 3 8.7834 18.9787 38.1902 0.0000 0.0000 0.0000
# 4 0.0000 0.0000 0.0000 10.9382 0.0000 0.0000
# 5 0.0000 0.0000 0.0000 0.0000 18.8439 0.0000
# 6 0.0000 0.0000 0.0000 0.0000 0.0000 22.2831
#
#
#
# Elastic Compliance Matrix: (Units=1/GPa)
#
#
# Indices 1 2 3 4 5 6 
#
# 1 0.017348 -0.005811 -0.001102 0.000000 0.000000 0.000000
# 2 -0.005811 0.029484 -0.013315 0.000000 0.000000 0.000000
# 3 -0.001102 -0.013315 0.033055 0.000000 0.000000 0.000000
# 4 0.000000 0.000000 0.000000 0.091423 0.000000 0.000000
# 5 0.000000 0.000000 0.000000 0.000000 0.053068 0.000000
# 6 0.000000 0.000000 0.000000 0.000000 0.000000 0.044877
#
#
# Mechanical properties :
#
#
# Convention : Reuss Voigt Hill
#
# Bulk Modulus (GPa) = 25.36166 26.25104 25.80635
# Shear Modulus (GPa) = 15.48684 17.30528 16.39606
#
# Velocity S-wave (km/s) = 3.01846 3.19075 3.10580
# Velocity P-wave (km/s) = 5.20276 5.38687 5.29562
#
# Compressibility (1/GPa) = 0.03942959
#
# Stress axis : x y z
#
# Youngs Moduli (GPa) = 57.64402 33.91713 30.25237
#
# Poissons Ratio (x) = 0.19710 0.03334
# Poissons Ratio (y) = 0.33498 0.40282
# Poissons Ratio (z) = 0.06352 0.45162
#
# Static dielectric constant tensor:
#      x y z
#    x 1.590100 0.000000 0.000000 
#    y 0.000000 1.618830 0.000000 
#    z 0.000000 0.000000 1.570030 
# 
# From -- ./inp_files/18531.got.cif
#   From: 2010.05.17/outbox.cif.g08.bks.cpg/sg38_10_cif.got.tgz:18531.got - 2010.06.03 18:07:57.
