data_PCOD9356996
_publ_section_title
;
Structure prediction by ZEFSAII (Michael W. Deem and Ramdas Pophale) SiO2 
 PCOD9356996
Probable space group: A M M 2
;
_chemical_formula_sum "Si O2"
_cell_formula_units_Z 64
_cell_length_a 25.017189
_cell_length_b 7.506502
_cell_length_c 15.502653
_cell_angle_alpha 90.000000
_cell_angle_beta 90.000000
_cell_angle_gamma 90.000000
_cell_volume 2911.267690
_symmetry_space_group_name_H-M "A M M 2"
_symmetry_group_IT_number 38
_symmetry_cell_setting 'orthorhombic'
loop_
_space_group_symop_operation_xyz
x,y,z
-x,-y,z
-x,y,z
x,-y,z
x,1/2+y,1/2+z
-x,1/2-y,1/2+z
-x,1/2+y,1/2+z
x,1/2-y,1/2+z
loop_
_atom_site_type_symbol
_atom_site_label
_atom_site_fract_x
_atom_site_fract_y
_atom_site_fract_z
Si Si1 0.875177 0.288409 0.817040
Si Si2 0.253179 0.701646 0.089585
Si Si3 0.140688 0.707315 0.128851
Si Si4 0.355597 0.209285 0.850370
Si Si5 0.240446 0.212481 0.893227
Si Si6 0.939151 0.218463 0.482674
Si Si7 0.630877 0.215790 0.550209
Si Si8 0.439267 0.781950 0.708447
O O1 0.880291 0.500000 0.812502
O O2 0.885128 0.215735 0.722312
O O3 0.814557 0.245409 0.844723
O O4 0.915079 0.224328 0.891121
O O5 0.258918 0.500000 0.124735
O O6 0.200647 0.786521 0.131737
O O7 0.312519 0.781298 0.090031
O O8 0.239114 0.700312 0.987612
O O9 0.149228 0.500000 0.105671
O O10 0.101548 0.781719 0.056474
O O11 0.294502 0.277688 0.846258
O O12 0.398688 0.281561 0.782990
O O13 0.352025 0.000000 0.830649
O O14 0.373026 0.228499 0.950488
O O15 0.245876 0.000000 0.906837
O O16 0.000000 0.275515 0.495686
O O17 0.939141 0.000000 0.484356
O O18 0.584063 0.269287 0.614939
O O19 0.633557 0.000000 0.548814
O O20 0.500000 0.722655 0.721505
O O21 0.439800 0.000000 0.710492
#
# Coordination Sequence:
#
# PCOD9356996 Si02
#       8
#     8   8   8   8   8   8   8   8
#     4  11  22  36  55  83 113 144 180 220 269 320
#     4   9  17  32  54  78 108 141 175 216 270 325
#     4  10  20  35  56  82 109 142 179 217 264 319
#     4   9  19  34  53  77 106 139 176 220 267 316
#     4  10  19  32  54  80 110 142 179 223 270 320
#     4   9  19  38  60  78 105 146 184 218 262 320
#     4   9  18  32  53  77 104 136 173 217 263 315
#     4   9  18  33  53  76 102 139 183 217 255 319
#
# _framework density 21.983552
#
# number of rings (size 3 to 8) (size 9 to 14) (size 15 to 20)
#    0.000    2.500    1.250    0.750    1.750    2.000 
#    0.000    0.625    0.000    3.375    0.000    0.000 
#    0.000    0.000    0.000    0.000    0.000    0.000 
#
# Total GULP energy -178658.769606 kJ/mol
# GULP energy per Si atom -5583.086550 kJ/mol
# Density = 2.193352 g / cm^3
# Si number density = 21.983552 Si / 1000 Ang^3
#
#
#
# Elastic Constant Matrix: (Units=GPa)
#
#
# Indices 1 2 3 4 5 6 
#
# 1 81.8651 -2.9722 14.9941 0.0000 0.0000 0.0000
# 2 -2.9722 59.7355 -19.4741 0.0000 0.0000 0.0000
# 3 14.9941 -19.4741 33.0859 0.0000 0.0000 0.0000
# 4 0.0000 0.0000 0.0000 18.8774 0.0000 0.0000
# 5 0.0000 0.0000 0.0000 0.0000 18.0028 0.0000
# 6 0.0000 0.0000 0.0000 0.0000 0.0000 -0.8426
#
#
#
# Elastic Compliance Matrix: (Units=1/GPa)
#
#
# Indices 1 2 3 4 5 6 
#
# 1 0.013448 -0.001631 -0.007054 0.000000 0.000000 0.000000
# 2 -0.001631 0.020913 0.013048 0.000000 0.000000 0.000000
# 3 -0.007054 0.013048 0.041101 0.000000 0.000000 0.000000
# 4 0.000000 0.000000 0.000000 0.052973 0.000000 0.000000
# 5 0.000000 0.000000 0.000000 0.000000 0.055547 0.000000
# 6 0.000000 0.000000 0.000000 0.000000 0.000000 -1.186834
#
#
# Mechanical properties :
#
#
# Convention : Reuss Voigt Hill
#
# Bulk Modulus (GPa) = 11.87799 17.75356 14.81577
# Shear Modulus (GPa) = -5.08381 19.35011 7.13315
#
# Velocity S-wave (km/s) = -1.52236 2.97005 1.80328
# Velocity P-wave (km/s) = 1.52472 4.45589 3.33014
#
# Compressibility (1/GPa) = 0.08418932
#
# Stress axis : x y z
#
# Youngs Moduli (GPa) = 74.36026 47.81693 24.33012
#
# Poissons Ratio (x) = 0.07797 0.17163
# Poissons Ratio (y) = 0.12125 -0.31746
# Poissons Ratio (z) = 0.52455 -0.62393
#
# Static dielectric constant tensor:
#      x y z
#    x 1.799760 0.000000 0.000000 
#    y 0.000000 1.850780 0.000000 
#    z 0.000000 0.000000 1.770440 
# 
# From -- ./inp_files/15800.got.cif
#   From: 2010.05.17/outbox.cif.g08.bks.cpg/sg38_8_cif.got.tgz:15800.got - 2010.06.03 18:07:57.
