data_PCOD9356647
_publ_section_title
;
Structure prediction by ZEFSAII (Michael W. Deem and Ramdas Pophale) SiO2 
 PCOD9356647
Probable space group: A M M 2
;
_chemical_formula_sum "Si O2"
_cell_formula_units_Z 64
_cell_length_a 21.406387
_cell_length_b 8.638528
_cell_length_c 19.268838
_cell_angle_alpha 90.000000
_cell_angle_beta 90.000000
_cell_angle_gamma 90.000000
_cell_volume 3563.187231
_symmetry_space_group_name_H-M "A M M 2"
_symmetry_group_IT_number 38
_symmetry_cell_setting 'orthorhombic'
loop_
_space_group_symop_operation_xyz
x,y,z
-x,-y,z
-x,y,z
x,-y,z
x,1/2+y,1/2+z
-x,1/2-y,1/2+z
-x,1/2+y,1/2+z
x,1/2-y,1/2+z
loop_
_atom_site_type_symbol
_atom_site_label
_atom_site_fract_x
_atom_site_fract_y
_atom_site_fract_z
Si Si1 0.700219 0.315036 0.020840
Si Si2 0.181981 0.312869 0.928551
Si Si3 0.179931 0.687160 0.768765
Si Si4 0.297705 0.187972 0.176616
Si Si5 0.566806 0.316518 0.683991
Si Si6 0.072192 0.314808 0.173899
Si Si7 0.927885 0.185421 0.021938
Si Si8 0.431611 0.182656 0.015857
O O1 0.701786 0.500000 0.026545
O O2 0.709552 0.245079 0.097689
O O3 0.631802 0.265437 0.993419
O O4 0.756326 0.263566 0.970862
O O5 0.180312 0.500000 0.930042
O O6 0.184331 0.263145 0.848573
O O7 0.120630 0.250598 0.966686
O O8 0.178135 0.500000 0.767227
O O9 0.240302 0.736864 0.724374
O O10 0.118568 0.750651 0.731435
O O11 0.365230 0.244041 0.205322
O O12 0.299495 0.000000 0.174762
O O13 0.500000 0.249739 0.708272
O O14 0.565765 0.500000 0.700267
O O15 0.567466 0.304082 0.600002
O O16 0.076283 0.500000 0.170915
O O17 0.089123 0.247217 0.098437
O O18 0.000000 0.271462 0.187729
O O19 0.000000 0.232547 0.008172
O O20 0.925234 0.000000 0.022438
O O21 0.500000 0.239488 0.991227
O O22 0.427256 0.000000 0.000246
#
# Coordination Sequence:
#
# PCOD9356647 Si02
#       8
#     8   8   8   8   8   8   8   8
#     4  10  19  30  47  72 102 133 165 205 253 303
#     4  10  22  37  51  72 105 142 175 210 255 303
#     4  10  21  36  53  73 101 138 176 213 251 296
#     4   9  17  30  49  71  95 126 167 211 249 291
#     4   7  10  19  38  64  90 114 146 193 243 285
#     4  10  21  37  57  80 105 131 161 203 255 308
#     4  10  21  37  58  82 104 129 167 212 254 302
#     4   8  14  26  45  69  96 126 163 206 250 298
#
# _framework density 17.961448000000001
#
# number of rings (size 3 to 8) (size 9 to 14) (size 15 to 20)
#    0.000    2.750    0.000    3.375    0.000    6.250 
#    0.000    2.500    0.000    0.750    0.000    3.500 
#    0.000    0.000    0.000    0.000    0.000    0.000 
#
# Total GULP energy -178336.441541 kJ/mol
# GULP energy per Si atom -5573.013798 kJ/mol
# Density = 1.792057 g / cm^3
# Si number density = 17.961448 Si / 1000 Ang^3
#
#
#
# Elastic Constant Matrix: (Units=GPa)
#
#
# Indices 1 2 3 4 5 6 
#
# 1 149.5650 27.9284 94.9921 0.0000 0.0000 0.0000
# 2 27.9284 12.0462 21.2408 0.0000 0.0000 0.0000
# 3 94.9921 21.2408 102.3543 0.0000 0.0000 0.0000
# 4 0.0000 0.0000 0.0000 19.1207 0.0000 0.0000
# 5 0.0000 0.0000 0.0000 0.0000 -4.0106 0.0000
# 6 0.0000 0.0000 0.0000 0.0000 0.0000 26.6559
#
#
#
# Elastic Compliance Matrix: (Units=1/GPa)
#
#
# Indices 1 2 3 4 5 6 
#
# 1 0.019022 -0.020460 -0.013408 0.000000 0.000000 0.000000
# 2 -0.020460 0.152925 -0.012747 0.000000 0.000000 0.000000
# 3 -0.013408 -0.012747 0.024859 0.000000 0.000000 0.000000
# 4 0.000000 0.000000 0.000000 0.052299 0.000000 0.000000
# 5 0.000000 0.000000 0.000000 0.000000 -0.249341 0.000000
# 6 0.000000 0.000000 0.000000 0.000000 0.000000 0.037515
#
#
# Mechanical properties :
#
#
# Convention : Reuss Voigt Hill
#
# Bulk Modulus (GPa) = 9.65474 61.36535 35.51004
# Shear Modulus (GPa) = 30.29619 16.34013 23.31816
#
# Velocity S-wave (km/s) = 4.11144 3.01945 3.60701
# Velocity P-wave (km/s) = 5.28446 6.81141 6.09594
#
# Compressibility (1/GPa) = 0.10357610
#
# Stress axis : x y z
#
# Youngs Moduli (GPa) = 52.56939 6.53915 40.22641
#
# Poissons Ratio (x) = 0.13379 0.53937
# Poissons Ratio (y) = 1.07555 0.51278
# Poissons Ratio (z) = 0.70487 0.08336
#
# Static dielectric constant tensor:
#      x y z
#    x 1.656120 0.000000 0.000000 
#    y 0.000000 1.612700 0.000000 
#    z 0.000000 0.000000 1.577550 
# 
# From -- ./inp_files/18972.got.cif
#   From: 2010.05.17/outbox.cif.g08.bks.cpg/sg38_10_cif.got.tgz:18972.got - 2010.06.03 18:07:57.
