data_PCOD9356366
_publ_section_title
;
Structure prediction by ZEFSAII (Michael W. Deem and Ramdas Pophale) SiO2 
 PCOD9356366
Probable space group: A M M 2
;
_chemical_formula_sum "Si O2"
_cell_formula_units_Z 64
_cell_length_a 7.588624
_cell_length_b 21.041046
_cell_length_c 20.417938
_cell_angle_alpha 90.000000
_cell_angle_beta 90.000000
_cell_angle_gamma 90.000000
_cell_volume 3260.184975
_symmetry_space_group_name_H-M "A M M 2"
_symmetry_group_IT_number 38
_symmetry_cell_setting 'orthorhombic'
loop_
_space_group_symop_operation_xyz
x,y,z
-x,-y,z
-x,y,z
x,-y,z
x,1/2+y,1/2+z
-x,1/2-y,1/2+z
-x,1/2+y,1/2+z
x,1/2-y,1/2+z
loop_
_atom_site_type_symbol
_atom_site_label
_atom_site_fract_x
_atom_site_fract_y
_atom_site_fract_z
Si Si1 0.201703 0.101257 0.010840
Si Si2 0.707786 0.200738 0.659337
Si Si3 0.784440 0.570282 0.653459
Si Si4 0.212570 0.569665 0.227800
Si Si5 0.787577 0.737202 0.877767
Si Si6 0.215942 0.884410 0.869309
Si Si7 0.291663 0.747069 0.520962
Si Si8 0.203938 0.318771 0.746715
O O1 0.281063 0.077212 0.078706
O O2 0.000000 0.078259 0.009190
O O3 0.278186 0.087607 0.938919
O O4 0.201932 0.178059 0.016957
O O5 0.500000 0.213395 0.661970
O O6 0.737087 0.129283 0.683318
O O7 0.768511 0.215367 0.585338
O O8 0.792157 0.251841 0.708320
O O9 0.742107 0.500000 0.678277
O O10 0.719156 0.626928 0.699799
O O11 0.000000 0.575628 0.649869
O O12 0.273403 0.500000 0.205755
O O13 0.272184 0.582267 0.302586
O O14 0.000000 0.569067 0.229466
O O15 0.729439 0.810342 0.867042
O O16 0.739495 0.718954 0.951631
O O17 0.718722 0.694116 0.818526
O O18 0.000000 0.738133 0.873562
O O19 0.000000 0.885634 0.871048
O O20 0.500000 0.735096 0.526900
O O21 0.000000 0.336937 0.756704
#
# Coordination Sequence:
#
# PCOD9356366 Si02
#       8
#     8   8   8   8   8   8   8   8
#     4   9  16  28  48  71 100 137 170 202 241 293
#     4  11  22  34  51  75 103 135 171 212 259 304
#     4   9  17  28  47  77 106 133 167 207 252 297
#     4  10  20  34  52  74 103 138 173 212 255 301
#     4   9  17  30  50  74  98 130 168 208 257 300
#     4   8  14  26  44  70  99 127 164 201 238 287
#     4  10  20  32  48  73 102 131 167 211 255 298
#     4  10  18  32  54  76 102 134 170 212 254 300
#
# _framework density 19.630787999999999
#
# number of rings (size 3 to 8) (size 9 to 14) (size 15 to 20)
#    0.000    2.500    2.500    1.500    0.000    2.750 
#    0.000    2.500    0.000    2.250    0.000    1.750 
#    0.000    0.000    0.000    0.000    0.000    0.000 
#
# Total GULP energy -178506.429182 kJ/mol
# GULP energy per Si atom -5578.325912 kJ/mol
# Density = 1.958611 g / cm^3
# Si number density = 19.630788 Si / 1000 Ang^3
#
#
#
# Elastic Constant Matrix: (Units=GPa)
#
#
# Indices 1 2 3 4 5 6 
#
# 1 46.5631 -6.2110 -2.3942 0.0000 0.0000 0.0000
# 2 -6.2110 90.2069 51.2326 0.0000 0.0000 0.0000
# 3 -2.3942 51.2326 130.9856 0.0000 0.0000 0.0000
# 4 0.0000 0.0000 0.0000 20.2050 0.0000 0.0000
# 5 0.0000 0.0000 0.0000 0.0000 27.5288 0.0000
# 6 0.0000 0.0000 0.0000 0.0000 0.0000 -26.3214
#
#
#
# Elastic Compliance Matrix: (Units=1/GPa)
#
#
# Indices 1 2 3 4 5 6 
#
# 1 0.021681 0.001630 -0.000241 0.000000 0.000000 0.000000
# 2 0.001630 0.014374 -0.005592 0.000000 0.000000 0.000000
# 3 -0.000241 -0.005592 0.009817 0.000000 0.000000 0.000000
# 4 0.000000 0.000000 0.000000 0.049493 0.000000 0.000000
# 5 0.000000 0.000000 0.000000 0.000000 0.036326 0.000000
# 6 0.000000 0.000000 0.000000 0.000000 0.000000 -0.037992
#
#
# Mechanical properties :
#
#
# Convention : Reuss Voigt Hill
#
# Bulk Modulus (GPa) = 26.69148 39.22338 32.95743
# Shear Modulus (GPa) = 43.63197 19.29101 31.46149
#
# Velocity S-wave (km/s) = 4.71959 3.13819 4.00767
# Velocity P-wave (km/s) = 6.58222 5.75803 6.18387
#
# Compressibility (1/GPa) = 0.03746514
#
# Stress axis : x y z
#
# Youngs Moduli (GPa) = 46.12285 69.57013 101.86041
#
# Poissons Ratio (x) = -0.11338 0.02457
# Poissons Ratio (y) = -0.07517 0.56964
# Poissons Ratio (z) = 0.01112 0.38906
#
# Static dielectric constant tensor:
#      x y z
#    x 1.757790 0.000000 0.000000 
#    y 0.000000 1.671250 0.000000 
#    z 0.000000 0.000000 1.714940 
# 
# From -- ./inp_files/20254.got.cif
#   From: 2010.05.17/outbox.cif.g08.bks.cpg/sg38_11_cif.got.tgz:20254.got - 2010.06.03 18:07:57.
