data_PCOD9356248
_publ_section_title
;
Structure prediction by ZEFSAII (Michael W. Deem and Ramdas Pophale) SiO2 
 PCOD9356248
Probable space group: A M M 2
;
_chemical_formula_sum "Si O2"
_cell_formula_units_Z 56
_cell_length_a 14.382853
_cell_length_b 13.611133
_cell_length_c 18.823969
_cell_angle_alpha 90.000000
_cell_angle_beta 90.000000
_cell_angle_gamma 90.000000
_cell_volume 3685.110529
_symmetry_space_group_name_H-M "A M M 2"
_symmetry_group_IT_number 38
_symmetry_cell_setting 'orthorhombic'
loop_
_space_group_symop_operation_xyz
x,y,z
-x,-y,z
-x,y,z
x,-y,z
x,1/2+y,1/2+z
-x,1/2-y,1/2+z
-x,1/2+y,1/2+z
x,1/2-y,1/2+z
loop_
_atom_site_type_symbol
_atom_site_label
_atom_site_fract_x
_atom_site_fract_y
_atom_site_fract_z
Si Si1 0.111445 0.706888 0.946510
Si Si2 0.797430 0.386073 0.519350
Si Si3 0.395754 0.880678 0.079453
Si Si4 0.603873 0.880680 0.244001
Si Si5 0.795848 0.882132 0.307422
Si Si6 0.887599 0.890744 0.596656
Si Si7 0.888285 0.686686 0.662034
O O1 0.159305 0.666104 0.876356
O O2 0.000000 0.707179 0.938705
O O3 0.148201 0.814880 0.966534
O O4 0.134782 0.640487 0.015757
O O5 0.798786 0.500000 0.498287
O O6 0.690956 0.350993 0.531200
O O7 0.845659 0.374528 0.596642
O O8 0.500000 0.849302 0.058375
O O9 0.380095 0.850771 0.161721
O O10 0.395004 0.000000 0.079453
O O11 0.500000 0.848753 0.265028
O O12 0.689218 0.850313 0.293111
O O13 0.603907 0.000000 0.243593
O O14 0.851524 0.851881 0.236638
O O15 0.798898 0.000000 0.314479
O O16 0.859356 0.800081 0.646775
O O17 0.000000 0.893872 0.600392
O O18 0.852324 0.000000 0.613424
O O19 0.000000 0.680816 0.658961
#
# Coordination Sequence:
#
# PCOD9356248 Si02
#       7
#     8   8   8   8   8   8   8
#     4  10  21  32  43  64  94 129 164 190 221 277
#     4  10  18  31  48  67  93 124 154 190 238 280
#     4   8  13  24  45  71  94 115 144 186 235 283
#     4   8  14  26  45  69  94 117 142 181 238 290
#     4  11  20  31  47  68  94 122 152 193 239 276
#     4   8  15  30  47  60  82 120 157 187 221 263
#     4  10  19  28  44  71  93 112 152 199 231 270
#
# _framework density 15.196287999999999
#
# number of rings (size 3 to 8) (size 9 to 14) (size 15 to 20)
#    0.000    2.714    1.429    3.429    0.000    3.429 
#    0.000    1.429    0.000    1.714    0.000    0.000 
#    0.000   11.429    0.000    0.000    0.000    0.000 
#
# Total GULP energy -155909.105785 kJ/mol
# GULP energy per Si atom -5568.182349 kJ/mol
# Density = 1.516170 g / cm^3
# Si number density = 15.196288 Si / 1000 Ang^3
#
#
#
# Elastic Constant Matrix: (Units=GPa)
#
#
# Indices 1 2 3 4 5 6 
#
# 1 86.1967 16.7101 24.3000 0.0000 0.0000 0.0000
# 2 16.7101 60.0915 20.8479 0.0000 0.0000 0.0000
# 3 24.3000 20.8479 58.8880 0.0000 0.0000 0.0000
# 4 0.0000 0.0000 0.0000 11.9482 0.0000 0.0000
# 5 0.0000 0.0000 0.0000 0.0000 24.0923 0.0000
# 6 0.0000 0.0000 0.0000 0.0000 0.0000 12.3508
#
#
#
# Elastic Compliance Matrix: (Units=1/GPa)
#
#
# Indices 1 2 3 4 5 6 
#
# 1 0.013347 -0.002053 -0.004781 0.000000 0.000000 0.000000
# 2 -0.002053 0.019287 -0.005981 0.000000 0.000000 0.000000
# 3 -0.004781 -0.005981 0.021072 0.000000 0.000000 0.000000
# 4 0.000000 0.000000 0.000000 0.083695 0.000000 0.000000
# 5 0.000000 0.000000 0.000000 0.000000 0.041507 0.000000
# 6 0.000000 0.000000 0.000000 0.000000 0.000000 0.080966
#
#
# Mechanical properties :
#
#
# Convention : Reuss Voigt Hill
#
# Bulk Modulus (GPa) = 35.61718 36.54357 36.08038
# Shear Modulus (GPa) = 16.95703 19.23278 18.09491
#
# Velocity S-wave (km/s) = 3.34408 3.56142 3.45446
# Velocity P-wave (km/s) = 6.19673 6.40402 6.30123
#
# Compressibility (1/GPa) = 0.02807634
#
# Stress axis : x y z
#
# Youngs Moduli (GPa) = 74.92238 51.84786 47.45704
#
# Poissons Ratio (x) = 0.10644 0.22689
# Poissons Ratio (y) = 0.15381 0.28384
# Poissons Ratio (z) = 0.35820 0.31011
#
# Static dielectric constant tensor:
#      x y z
#    x 1.533670 0.000000 0.000000 
#    y 0.000000 1.512820 0.000000 
#    z 0.000000 0.000000 1.482870 
# 
# From -- ./inp_files/18480.got.cif
#   From: 2010.05.17/outbox.cif.g08.bks.cpg/sg38_10_cif.got.tgz:18480.got - 2010.06.03 18:07:57.
