data_PCOD9356805
_publ_section_title
;
Structure prediction by ZEFSAII (Michael W. Deem and Ramdas Pophale) SiO2 
 PCOD9356805
Probable space group: A M M 2
;
_chemical_formula_sum "Si O2"
_cell_formula_units_Z 64
_cell_length_a 13.940360
_cell_length_b 10.191191
_cell_length_c 25.940094
_cell_angle_alpha 90.000000
_cell_angle_beta 90.000000
_cell_angle_gamma 90.000000
_cell_volume 3685.279878
_symmetry_space_group_name_H-M "A M M 2"
_symmetry_group_IT_number 38
_symmetry_cell_setting 'orthorhombic'
loop_
_space_group_symop_operation_xyz
x,y,z
-x,-y,z
-x,y,z
x,-y,z
x,1/2+y,1/2+z
-x,1/2-y,1/2+z
-x,1/2+y,1/2+z
x,1/2-y,1/2+z
loop_
_atom_site_type_symbol
_atom_site_label
_atom_site_fract_x
_atom_site_fract_y
_atom_site_fract_z
Si Si1 0.235840 0.655436 0.570530
Si Si2 0.226801 0.656125 0.369460
Si Si3 0.607962 0.207698 0.733310
Si Si4 0.388519 0.155142 0.614163
Si Si5 0.112308 0.350568 0.674127
Si Si6 0.180056 0.357801 0.256841
Si Si7 0.610943 0.852020 0.334672
Si Si8 0.109517 0.158917 0.970886
O O1 0.263272 0.500000 0.566295
O O2 0.323564 0.755533 0.577641
O O3 0.172704 0.669467 0.622288
O O4 0.170813 0.691527 0.521513
O O5 0.250307 0.500000 0.373292
O O6 0.165215 0.671736 0.317005
O O7 0.320491 0.745228 0.360807
O O8 0.166649 0.696863 0.419381
O O9 0.500000 0.151292 0.741932
O O10 0.616830 0.218190 0.671743
O O11 0.704369 0.134547 0.750045
O O12 0.612656 0.330687 0.772353
O O13 0.500000 0.157960 0.598788
O O14 0.359962 0.000000 0.617456
O O15 0.129276 0.500000 0.691650
O O16 0.142703 0.251310 0.718465
O O17 0.000000 0.336074 0.662355
O O18 0.138409 0.500000 0.244145
O O19 0.500000 0.834185 0.350224
O O20 0.641298 0.000000 0.346662
O O21 0.000000 0.208121 0.972565
O O22 0.104224 0.000000 0.969950
#
# Coordination Sequence:
#
# PCOD9356805 Si02
#       8
#     8   8   8   8   8   8   8   8
#     4  10  20  35  57  81 104 135 180 228 269 313
#     4   9  19  34  54  80 106 136 178 225 271 317
#     4   9  17  29  48  74 105 142 179 210 246 304
#     4  10  20  34  53  78 111 148 179 211 261 321
#     4  10  21  35  50  72 103 137 171 210 263 323
#     4  10  19  31  50  78 108 136 169 212 261 315
#     4   9  18  32  51  77 110 147 182 216 260 315
#     4   9  18  36  61  82 101 134 183 234 277 319
#
# _framework density 17.366387
#
# number of rings (size 3 to 8) (size 9 to 14) (size 15 to 20)
#    0.000    2.500    1.250    0.750    0.000    6.500 
#    0.000    7.500    0.000    6.000    0.000    0.000 
#    0.000    0.000    0.000    0.000    0.000    0.000 
#
# Total GULP energy -178149.791112 kJ/mol
# GULP energy per Si atom -5567.180972 kJ/mol
# Density = 1.732686 g / cm^3
# Si number density = 17.366387 Si / 1000 Ang^3
#
#
#
# Elastic Constant Matrix: (Units=GPa)
#
#
# Indices 1 2 3 4 5 6 
#
# 1 82.5533 54.2350 53.4240 0.0000 0.0000 0.0000
# 2 54.2350 75.6498 56.2276 0.0000 0.0000 0.0000
# 3 53.4240 56.2276 102.1233 0.0000 0.0000 0.0000
# 4 0.0000 0.0000 0.0000 14.0962 0.0000 0.0000
# 5 0.0000 0.0000 0.0000 0.0000 20.5316 0.0000
# 6 0.0000 0.0000 0.0000 0.0000 0.0000 5.3639
#
#
#
# Elastic Compliance Matrix: (Units=1/GPa)
#
#
# Indices 1 2 3 4 5 6 
#
# 1 0.024497 -0.013605 -0.005325 0.000000 0.000000 0.000000
# 2 -0.013605 0.029931 -0.009363 0.000000 0.000000 0.000000
# 3 -0.005325 -0.009363 0.017732 0.000000 0.000000 0.000000
# 4 0.000000 0.000000 0.000000 0.070941 0.000000 0.000000
# 5 0.000000 0.000000 0.000000 0.000000 0.048705 0.000000
# 6 0.000000 0.000000 0.000000 0.000000 0.000000 0.186432
#
#
# Mechanical properties :
#
#
# Convention : Reuss Voigt Hill
#
# Bulk Modulus (GPa) = 64.19834 65.34441 64.77138
# Shear Modulus (GPa) = 11.36322 14.42766 12.89544
#
# Velocity S-wave (km/s) = 2.56075 2.88545 2.72794
# Velocity P-wave (km/s) = 6.76687 6.98640 6.87751
#
# Compressibility (1/GPa) = 0.01557673
#
# Stress axis : x y z
#
# Youngs Moduli (GPa) = 40.82083 33.40972 56.39400
#
# Poissons Ratio (x) = 0.45454 0.30027
# Poissons Ratio (y) = 0.55537 0.52799
# Poissons Ratio (z) = 0.21735 0.31280
#
# Static dielectric constant tensor:
#      x y z
#    x 1.602590 0.000000 0.000000 
#    y 0.000000 1.592010 0.000000 
#    z 0.000000 0.000000 1.584480 
# 
# From -- ./inp_files/22902.got.cif
#   From: 2010.05.17/outbox.cif.g08.bks.cpg/sg38_12_cif.got.tgz:22902.got - 2010.06.03 18:07:57.
