data_PCOD9356978
_publ_section_title
;
Structure prediction by ZEFSAII (Michael W. Deem and Ramdas Pophale) SiO2 
 PCOD9356978
Probable space group: A M M 2
;
_chemical_formula_sum "Si O2"
_cell_formula_units_Z 64
_cell_length_a 25.270602
_cell_length_b 8.865392
_cell_length_c 14.673994
_cell_angle_alpha 90.000000
_cell_angle_beta 90.000000
_cell_angle_gamma 90.000000
_cell_volume 3287.470531
_symmetry_space_group_name_H-M "A M M 2"
_symmetry_group_IT_number 38
_symmetry_cell_setting 'orthorhombic'
loop_
_space_group_symop_operation_xyz
x,y,z
-x,-y,z
-x,y,z
x,-y,z
x,1/2+y,1/2+z
-x,1/2-y,1/2+z
-x,1/2+y,1/2+z
x,1/2-y,1/2+z
loop_
_atom_site_type_symbol
_atom_site_label
_atom_site_fract_x
_atom_site_fract_y
_atom_site_fract_z
Si Si1 0.630929 0.817300 0.067570
Si Si2 0.559390 0.183314 0.229416
Si Si3 0.131096 0.680268 0.924632
Si Si4 0.350203 0.318889 0.870145
Si Si5 0.744430 0.672500 0.612887
Si Si6 0.147596 0.319282 0.134474
Si Si7 0.060330 0.317748 0.279139
Si Si8 0.240030 0.826287 0.891904
O O1 0.580586 0.778841 0.128798
O O2 0.684103 0.775608 0.124192
O O3 0.633405 0.000000 0.054318
O O4 0.633465 0.736151 0.970991
O O5 0.500000 0.238255 0.246965
O O6 0.603803 0.232033 0.301421
O O7 0.558442 0.000000 0.233976
O O8 0.129772 0.500000 0.919578
O O9 0.081495 0.751400 0.873541
O O10 0.184961 0.740778 0.878153
O O11 0.133627 0.725812 0.030803
O O12 0.346145 0.500000 0.867363
O O13 0.292177 0.250443 0.850958
O O14 0.748471 0.500000 0.643763
O O15 0.793076 0.763284 0.654086
O O16 0.751332 0.675847 0.502294
O O17 0.148255 0.500000 0.137386
O O18 0.102322 0.265450 0.202992
O O19 0.062287 0.500000 0.282616
O O20 0.000000 0.273379 0.259624
O O21 0.235468 0.000000 0.863330
#
# Coordination Sequence:
#
# PCOD9356978 Si02
#       8
#     8   8   8   8   8   8   8   8
#     4   9  18  34  54  75 102 139 177 211 258 321
#     4   9  19  35  53  74 103 141 183 222 264 318
#     4  10  20  35  57  84 110 136 173 222 269 310
#     4  10  19  32  53  81 109 136 172 221 271 313
#     4   8  15  28  49  77 105 131 163 208 259 312
#     4   9  19  35  55  78 104 136 172 213 262 312
#     4  10  22  39  55  74 105 145 184 217 257 314
#     4   9  17  32  54  80 110 141 172 208 260 325
#
# _framework density 19.467856000000001
#
# number of rings (size 3 to 8) (size 9 to 14) (size 15 to 20)
#    0.000    2.750    0.000    1.875    0.000    6.250 
#    0.000    3.750    0.000    2.625    0.000    0.000 
#    0.000    0.000    0.000    0.000    0.000    0.000 
#
# Total GULP energy -178568.130977 kJ/mol
# GULP energy per Si atom -5580.254093 kJ/mol
# Density = 1.942355 g / cm^3
# Si number density = 19.467856 Si / 1000 Ang^3
#
#
#
# Elastic Constant Matrix: (Units=GPa)
#
#
# Indices 1 2 3 4 5 6 
#
# 1 109.9259 17.8271 21.6000 0.0000 0.0000 0.0000
# 2 17.8271 20.6873 9.6107 0.0000 0.0000 0.0000
# 3 21.6000 9.6107 45.1458 0.0000 0.0000 0.0000
# 4 0.0000 0.0000 0.0000 15.6551 0.0000 0.0000
# 5 0.0000 0.0000 0.0000 0.0000 30.9499 0.0000
# 6 0.0000 0.0000 0.0000 0.0000 0.0000 25.5929
#
#
#
# Elastic Compliance Matrix: (Units=1/GPa)
#
#
# Indices 1 2 3 4 5 6 
#
# 1 0.011086 -0.007867 -0.003629 0.000000 0.000000 0.000000
# 2 -0.007867 0.059227 -0.008844 0.000000 0.000000 0.000000
# 3 -0.003629 -0.008844 0.025770 0.000000 0.000000 0.000000
# 4 0.000000 0.000000 0.000000 0.063877 0.000000 0.000000
# 5 0.000000 0.000000 0.000000 0.000000 0.032310 0.000000
# 6 0.000000 0.000000 0.000000 0.000000 0.000000 0.039073
#
#
# Mechanical properties :
#
#
# Convention : Reuss Voigt Hill
#
# Bulk Modulus (GPa) = 18.05017 30.42607 24.23812
# Shear Modulus (GPa) = 17.21217 22.88765 20.04991
#
# Velocity S-wave (km/s) = 2.97666 3.43252 3.21268
# Velocity P-wave (km/s) = 4.59412 5.60110 5.12242
#
# Compressibility (1/GPa) = 0.05540114
#
# Stress axis : x y z
#
# Youngs Moduli (GPa) = 90.20349 16.88416 38.80528
#
# Poissons Ratio (x) = 0.13283 0.14084
# Poissons Ratio (y) = 0.70965 0.34321
# Poissons Ratio (z) = 0.32738 0.14933
#
# Static dielectric constant tensor:
#      x y z
#    x 1.678780 0.000000 0.000000 
#    y 0.000000 1.654880 0.000000 
#    z 0.000000 0.000000 1.712120 
# 
# From -- ./inp_files/15858.got.cif
#   From: 2010.05.17/outbox.cif.g08.bks.cpg/sg38_8_cif.got.tgz:15858.got - 2010.06.03 18:07:57.
