data_PCOD9356627
_publ_section_title
;
Structure prediction by ZEFSAII (Michael W. Deem and Ramdas Pophale) SiO2 
 PCOD9356627
Probable space group: A M M 2
;
_chemical_formula_sum "Si O2"
_cell_formula_units_Z 56
_cell_length_a 9.042483
_cell_length_b 20.923823
_cell_length_c 18.687154
_cell_angle_alpha 90.000000
_cell_angle_beta 90.000000
_cell_angle_gamma 90.000000
_cell_volume 3535.671462
_symmetry_space_group_name_H-M "A M M 2"
_symmetry_group_IT_number 38
_symmetry_cell_setting 'orthorhombic'
loop_
_space_group_symop_operation_xyz
x,y,z
-x,-y,z
-x,y,z
x,-y,z
x,1/2+y,1/2+z
-x,1/2-y,1/2+z
-x,1/2+y,1/2+z
x,1/2-y,1/2+z
loop_
_atom_site_type_symbol
_atom_site_label
_atom_site_fract_x
_atom_site_fract_y
_atom_site_fract_z
Si Si1 0.176229 0.368233 0.274200
Si Si2 0.176282 0.741430 0.541855
Si Si3 0.825523 0.621638 0.965977
Si Si4 0.670492 0.318319 0.409719
Si Si5 0.675671 0.500000 0.038484
Si Si6 0.174312 0.000000 0.691827
Si Si7 0.669162 0.821895 0.335110
Si Si8 0.678232 0.747857 0.695457
O O1 0.246465 0.363067 0.353038
O O2 0.202021 0.436563 0.237939
O O3 0.251121 0.313199 0.225959
O O4 0.000000 0.356627 0.277916
O O5 0.202635 0.813302 0.511195
O O6 0.244086 0.693043 0.483596
O O7 0.255780 0.734874 0.617780
O O8 0.000000 0.733200 0.548151
O O9 0.739277 0.562910 0.000203
O O10 0.771830 0.635482 0.885193
O O11 0.000000 0.609202 0.967940
O O12 0.500000 0.337180 0.420626
O O13 0.669365 0.248578 0.371367
O O14 0.500000 0.500000 0.035390
O O15 0.731056 0.500000 0.120097
O O16 0.000000 0.000000 0.671653
O O17 0.500000 0.845600 0.337146
O O18 0.714074 0.807470 0.253568
O O19 0.500000 0.754042 0.693647
#
# Coordination Sequence:
#
# PCOD9356627 Si02
#       8
#     8   8   8   8   4   4   8   8
#     4  10  19  32  48  66  92 126 161 195 231 276
#     4  10  19  30  47  71  96 124 156 192 234 279
#     4  10  20  33  48  66  92 124 158 194 230 271
#     4   9  17  30  47  67  92 121 153 192 235 280
#     4  12  24  34  48  68  93 126 161 194 228 270
#     4  10  22  36  48  66  95 128 161 196 230 266
#     4   8  16  30  46  65  90 119 152 188 230 278
#     4  10  19  30  46  70  98 125 153 192 237 278
#
# _framework density 15.838576
#
# number of rings (size 3 to 8) (size 9 to 14) (size 15 to 20)
#    0.000    2.286    0.000    4.500    0.000   10.286 
#    0.000    0.000    0.000    0.000    0.000    1.000 
#    0.000    4.571    0.000    0.000    0.000    0.000 
#
# Total GULP energy -156172.133844 kJ/mol
# GULP energy per Si atom -5577.576209 kJ/mol
# Density = 1.580253 g / cm^3
# Si number density = 15.838576 Si / 1000 Ang^3
#
#
#
# Elastic Constant Matrix: (Units=GPa)
#
#
# Indices 1 2 3 4 5 6 
#
# 1 112.3484 58.2136 86.3389 0.0000 0.0000 0.0000
# 2 58.2136 54.6535 51.2405 0.0000 0.0000 0.0000
# 3 86.3389 51.2405 155.7819 0.0000 0.0000 0.0000
# 4 0.0000 0.0000 0.0000 19.1027 0.0000 0.0000
# 5 0.0000 0.0000 0.0000 0.0000 32.2170 0.0000
# 6 0.0000 0.0000 0.0000 0.0000 0.0000 18.2554
#
#
#
# Elastic Compliance Matrix: (Units=1/GPa)
#
#
# Indices 1 2 3 4 5 6 
#
# 1 0.024402 -0.019247 -0.007193 0.000000 0.000000 0.000000
# 2 -0.019247 0.041637 -0.003028 0.000000 0.000000 0.000000
# 3 -0.007193 -0.003028 0.011402 0.000000 0.000000 0.000000
# 4 0.000000 0.000000 0.000000 0.052349 0.000000 0.000000
# 5 0.000000 0.000000 0.000000 0.000000 0.031039 0.000000
# 6 0.000000 0.000000 0.000000 0.000000 0.000000 0.054778
#
#
# Mechanical properties :
#
#
# Convention : Reuss Voigt Hill
#
# Bulk Modulus (GPa) = 54.04343 79.37444 66.70893
# Shear Modulus (GPa) = 17.81176 22.38107 20.09642
#
# Velocity S-wave (km/s) = 3.35712 3.76317 3.56592
# Velocity P-wave (km/s) = 7.01587 8.31296 7.69181
#
# Compressibility (1/GPa) = 0.01850364
#
# Stress axis : x y z
#
# Youngs Moduli (GPa) = 40.98012 24.01694 87.70391
#
# Poissons Ratio (x) = 0.46227 0.63089
# Poissons Ratio (y) = 0.78876 0.26557
# Poissons Ratio (z) = 0.29479 0.07272
#
# Static dielectric constant tensor:
#      x y z
#    x 1.532580 0.000000 0.000000 
#    y 0.000000 1.503320 0.000000 
#    z 0.000000 0.000000 1.530260 
# 
# From -- ./inp_files/12468.got.cif
#   From: 2010.05.17/outbox.cif.g08.bks.cpg/sg38_7_cif.got.tgz:12468.got - 2010.06.03 18:07:57.
