data_PCOD9356885
_publ_section_title
;
Structure prediction by ZEFSAII (Michael W. Deem and Ramdas Pophale) SiO2 
 PCOD9356885
Probable space group: A M M 2
;
_chemical_formula_sum "Si O2"
_cell_formula_units_Z 56
_cell_length_a 8.585007
_cell_length_b 14.698171
_cell_length_c 23.525420
_cell_angle_alpha 90.000000
_cell_angle_beta 90.000000
_cell_angle_gamma 90.000000
_cell_volume 2968.529266
_symmetry_space_group_name_H-M "A M M 2"
_symmetry_group_IT_number 38
_symmetry_cell_setting 'orthorhombic'
loop_
_space_group_symop_operation_xyz
x,y,z
-x,-y,z
-x,y,z
x,-y,z
x,1/2+y,1/2+z
-x,1/2-y,1/2+z
-x,1/2+y,1/2+z
x,1/2-y,1/2+z
loop_
_atom_site_type_symbol
_atom_site_label
_atom_site_fract_x
_atom_site_fract_y
_atom_site_fract_z
Si Si1 0.313486 0.902381 0.811930
Si Si2 0.188917 0.598940 0.013008
Si Si3 0.687316 0.296357 0.775638
Si Si4 0.176154 0.645852 0.429391
Si Si5 0.176012 0.856098 0.390014
Si Si6 0.313279 0.294184 0.545965
Si Si7 0.309667 0.894944 0.161044
O O1 0.500000 0.901249 0.805889
O O2 0.254345 0.807895 0.784434
O O3 0.272551 0.899144 0.878807
O O4 0.255217 0.000000 0.789047
O O5 0.228943 0.500000 0.038382
O O6 0.254890 0.689868 0.041437
O O7 0.000000 0.606899 0.011839
O O8 0.242136 0.598636 0.946860
O O9 0.500000 0.292364 0.773820
O O10 0.733654 0.354943 0.830972
O O11 0.743031 0.342825 0.717792
O O12 0.168564 0.750984 0.409630
O O13 0.250624 0.649873 0.491583
O O14 0.000000 0.610466 0.431441
O O15 0.000000 0.889046 0.380361
O O16 0.500000 0.293583 0.543491
O O17 0.261947 0.341854 0.604215
O O18 0.500000 0.894965 0.161678
O O19 0.259566 0.000000 0.160584
#
# Coordination Sequence:
#
# PCOD9356885 Si02
#       7
#     8   8   8   8   8   8   8
#     4   9  17  29  47  73 102 129 159 199 249 303
#     4   9  18  33  52  74 104 139 166 194 244 305
#     4   9  17  31  50  70  94 127 165 202 242 292
#     4   9  17  30  48  70  98 131 163 197 241 292
#     4   8  15  28  46  69  97 127 156 190 235 283
#     4  10  19  32  51  74 100 131 169 212 252 291
#     4   9  19  35  52  70  95 129 167 207 253 299
#
# _framework density 18.864560000000001
#
# number of rings (size 3 to 8) (size 9 to 14) (size 15 to 20)
#    0.000    3.000    0.000    1.714    0.000    5.143 
#    0.000    3.571    0.000    5.571    0.000    0.000 
#    0.000    0.000    0.000    0.000    0.000    0.000 
#
# Total GULP energy -155931.145534 kJ/mol
# GULP energy per Si atom -5568.969483 kJ/mol
# Density = 1.882162 g / cm^3
# Si number density = 18.864560 Si / 1000 Ang^3
#
#
#
# Elastic Constant Matrix: (Units=GPa)
#
#
# Indices 1 2 3 4 5 6 
#
# 1 13.7486 11.1158 17.4719 0.0000 0.0000 0.0000
# 2 11.1158 135.3595 67.3560 0.0000 0.0000 0.0000
# 3 17.4719 67.3560 140.7932 0.0000 0.0000 0.0000
# 4 0.0000 0.0000 0.0000 16.0107 0.0000 0.0000
# 5 0.0000 0.0000 0.0000 0.0000 -1.0310 0.0000
# 6 0.0000 0.0000 0.0000 0.0000 0.0000 6.0215
#
#
#
# Elastic Compliance Matrix: (Units=1/GPa)
#
#
# Indices 1 2 3 4 5 6 
#
# 1 0.086906 -0.002323 -0.009673 0.000000 0.000000 0.000000
# 2 -0.002323 0.009758 -0.004380 0.000000 0.000000 0.000000
# 3 -0.009673 -0.004380 0.010398 0.000000 0.000000 0.000000
# 4 0.000000 0.000000 0.000000 0.062458 0.000000 0.000000
# 5 0.000000 0.000000 0.000000 0.000000 -0.969932 0.000000
# 6 0.000000 0.000000 0.000000 0.000000 0.000000 0.166070
#
#
# Mechanical properties :
#
#
# Convention : Reuss Voigt Hill
#
# Bulk Modulus (GPa) = 13.45728 53.53209 33.49468
# Shear Modulus (GPa) = -8.66824 17.13075 4.23126
#
# Velocity S-wave (km/s) = -2.14592 3.01673 1.49928
# Velocity P-wave (km/s) = 1.00457 6.36968 4.55972
#
# Compressibility (1/GPa) = 0.07430923
#
# Stress axis : x y z
#
# Youngs Moduli (GPa) = 11.50672 102.47969 96.16843
#
# Poissons Ratio (x) = 0.23809 0.93026
# Poissons Ratio (y) = 0.02673 0.42121
# Poissons Ratio (z) = 0.11131 0.44886
#
# Static dielectric constant tensor:
#      x y z
#    x 1.656560 0.000000 0.000000 
#    y 0.000000 1.711600 0.000000 
#    z 0.000000 0.000000 1.635370 
# 
# From -- ./inp_files/19826.got.cif
#   From: 2010.05.17/outbox.cif.g08.bks.cpg/sg38_10_cif.got.tgz:19826.got - 2010.06.03 18:07:57.
