data_PCOD9356973
_publ_section_title
;
Structure prediction by ZEFSAII (Michael W. Deem and Ramdas Pophale) SiO2 
 PCOD9356973
Probable space group: A M M 2
;
_chemical_formula_sum "Si O2"
_cell_formula_units_Z 40
_cell_length_a 13.702341
_cell_length_b 8.713144
_cell_length_c 18.446857
_cell_angle_alpha 90.000000
_cell_angle_beta 90.000000
_cell_angle_gamma 90.000000
_cell_volume 2202.378932
_symmetry_space_group_name_H-M "A M M 2"
_symmetry_group_IT_number 38
_symmetry_cell_setting 'orthorhombic'
loop_
_space_group_symop_operation_xyz
x,y,z
-x,-y,z
-x,y,z
x,-y,z
x,1/2+y,1/2+z
-x,1/2-y,1/2+z
-x,1/2+y,1/2+z
x,1/2-y,1/2+z
loop_
_atom_site_type_symbol
_atom_site_label
_atom_site_fract_x
_atom_site_fract_y
_atom_site_fract_z
Si Si1 0.000000 0.815458 0.694420
Si Si2 0.604092 0.317267 0.956378
Si Si3 0.184342 0.315155 0.951143
Si Si4 0.000000 0.181855 0.034939
Si Si5 0.392728 0.318198 0.780952
Si Si6 0.810526 0.182999 0.789504
O O1 0.902578 0.777034 0.739531
O O2 0.000000 0.731527 0.618187
O O3 0.000000 0.000000 0.682789
O O4 0.500000 0.251991 0.982567
O O5 0.602558 0.500000 0.971187
O O6 0.709734 0.259093 0.980641
O O7 0.605241 0.301486 0.868756
O O8 0.183313 0.500000 0.953103
O O9 0.176766 0.262301 0.867679
O O10 0.095319 0.249779 0.996189
O O11 0.000000 0.000000 0.027170
O O12 0.500000 0.264923 0.754528
O O13 0.384662 0.500000 0.766167
O O14 0.294117 0.234425 0.757118
O O15 0.809654 0.000000 0.800005
#
# Coordination Sequence:
#
# PCOD9356973 Si02
#       6
#     4   8   8   4   8   8
#     4  10  23  40  53  69  99 137 171 210 263 314
#     4   7  11  22  43  72 101 128 160 196 234 283
#     4  10  19  33  55  79 106 138 169 203 250 309
#     4  12  25  38  53  73  99 131 173 222 261 300
#     4   8  14  26  45  71 104 138 170 205 248 299
#     4  10  19  32  53  80 108 134 168 215 257 299
#
# _framework density 18.162178999999998
#
# number of rings (size 3 to 8) (size 9 to 14) (size 15 to 20)
#    0.000    2.800    0.000    5.100    0.000    2.800 
#    0.000    0.000    0.000    3.000    0.000    2.800 
#    0.000    0.000    0.000    0.000    0.000    0.000 
#
# Total GULP energy -111395.981282 kJ/mol
# GULP energy per Si atom -5569.799064 kJ/mol
# Density = 1.812084 g / cm^3
# Si number density = 18.162179 Si / 1000 Ang^3
#
#
#
# Elastic Constant Matrix: (Units=GPa)
#
#
# Indices 1 2 3 4 5 6 
#
# 1 237.5858 65.0274 62.2805 0.0000 0.0000 0.0000
# 2 65.0274 52.6913 31.7500 0.0000 0.0000 0.0000
# 3 62.2805 31.7500 42.7774 0.0000 0.0000 0.0000
# 4 0.0000 0.0000 0.0000 20.5572 0.0000 0.0000
# 5 0.0000 0.0000 0.0000 0.0000 -7.0245 0.0000
# 6 0.0000 0.0000 0.0000 0.0000 0.0000 23.7815
#
#
#
# Elastic Compliance Matrix: (Units=1/GPa)
#
#
# Indices 1 2 3 4 5 6 
#
# 1 0.007420 -0.004790 -0.007248 0.000000 0.000000 0.000000
# 2 -0.004790 0.037426 -0.020804 0.000000 0.000000 0.000000
# 3 -0.007248 -0.020804 0.049370 0.000000 0.000000 0.000000
# 4 0.000000 0.000000 0.000000 0.048645 0.000000 0.000000
# 5 0.000000 0.000000 0.000000 0.000000 -0.142359 0.000000
# 6 0.000000 0.000000 0.000000 0.000000 0.000000 0.042050
#
#
# Mechanical properties :
#
#
# Convention : Reuss Voigt Hill
#
# Bulk Modulus (GPa) = 35.04823 72.35226 53.70025
# Shear Modulus (GPa) = 42.46451 19.06260 30.76355
#
# Velocity S-wave (km/s) = 4.84061 3.24323 4.12008
# Velocity P-wave (km/s) = 7.11205 7.34493 7.22943
#
# Compressibility (1/GPa) = 0.02853211
#
# Stress axis : x y z
#
# Youngs Moduli (GPa) = 134.77299 26.71968 20.25521
#
# Poissons Ratio (x) = 0.12798 0.14680
# Poissons Ratio (y) = 0.64554 0.42139
# Poissons Ratio (z) = 0.97679 0.55588
#
# Static dielectric constant tensor:
#      x y z
#    x 1.689770 0.000000 0.000000 
#    y 0.000000 1.606860 0.000000 
#    z 0.000000 0.000000 1.580000 
# 
# From -- ./inp_files/14323.got.cif
#   From: 2010.05.17/outbox.cif.g08.bks.cpg/sg38_8_cif.got.tgz:14323.got - 2010.06.03 18:07:57.
