data_PCOD9356217
_publ_section_title
;
Structure prediction by ZEFSAII (Michael W. Deem and Ramdas Pophale) SiO2 
 PCOD9356217
Probable space group: A M M 2
;
_chemical_formula_sum "Si O2"
_cell_formula_units_Z 64
_cell_length_a 7.541003
_cell_length_b 25.650340
_cell_length_c 15.623709
_cell_angle_alpha 90.000000
_cell_angle_beta 90.000000
_cell_angle_gamma 90.000000
_cell_volume 3022.082953
_symmetry_space_group_name_H-M "A M M 2"
_symmetry_group_IT_number 38
_symmetry_cell_setting 'orthorhombic'
loop_
_space_group_symop_operation_xyz
x,y,z
-x,-y,z
-x,y,z
x,-y,z
x,1/2+y,1/2+z
-x,1/2-y,1/2+z
-x,1/2+y,1/2+z
x,1/2-y,1/2+z
loop_
_atom_site_type_symbol
_atom_site_label
_atom_site_fract_x
_atom_site_fract_y
_atom_site_fract_z
Si Si1 0.287817 0.850738 0.527220
Si Si2 0.792828 0.730496 0.350741
Si Si3 0.787171 0.440503 0.500389
Si Si4 0.714856 0.736624 0.550788
Si Si5 0.212693 0.441908 0.158105
Si Si6 0.297353 0.347009 0.836251
Si Si7 0.713057 0.636753 0.653578
Si Si8 0.782596 0.116156 0.827467
O O1 0.500000 0.844974 0.519168
O O2 0.225084 0.795954 0.568236
O O3 0.252024 0.900289 0.584893
O O4 0.215845 0.855761 0.430160
O O5 0.772126 0.725419 0.453401
O O6 0.701796 0.784205 0.324184
O O7 0.724275 0.675859 0.314366
O O8 0.000000 0.736093 0.329878
O O9 0.720781 0.500000 0.500546
O O10 0.747909 0.409344 0.587024
O O11 0.723136 0.407795 0.417971
O O12 0.000000 0.442921 0.492271
O O13 0.500000 0.735208 0.552805
O O14 0.780240 0.690920 0.612304
O O15 0.280591 0.500000 0.140992
O O16 0.275698 0.419604 0.249007
O O17 0.000000 0.444895 0.164581
O O18 0.500000 0.366030 0.841791
O O19 0.216703 0.370388 0.749853
O O20 0.500000 0.641748 0.661096
O O21 0.000000 0.117535 0.829073
#
# Coordination Sequence:
#
# PCOD9356217 Si02
#       8
#     8   8   8   8   8   8   8   8
#     4   9  19  36  55  77 105 136 177 223 271 319
#     4  10  18  30  51  80 110 140 176 215 258 313
#     4  10  20  36  57  79 109 147 181 220 270 321
#     4   9  18  33  52  77 108 141 173 212 266 321
#     4  10  21  37  56  77 103 139 183 225 266 317
#     4   9  20  37  55  76 109 147 179 216 269 326
#     4  10  20  35  56  80 108 144 183 222 267 320
#     4   9  18  33  52  78 109 142 176 211 262 323
#
# _framework density 21.177446
#
# number of rings (size 3 to 8) (size 9 to 14) (size 15 to 20)
#    0.000    2.500    1.250    1.500    1.750    4.500 
#    0.000    1.875    0.000    5.250    0.000    0.000 
#    0.000    0.000    0.000    0.000    0.000    0.000 
#
# Total GULP energy -178635.600586 kJ/mol
# GULP energy per Si atom -5582.362518 kJ/mol
# Density = 2.112924 g / cm^3
# Si number density = 21.177446 Si / 1000 Ang^3
#
#
#
# Elastic Constant Matrix: (Units=GPa)
#
#
# Indices 1 2 3 4 5 6 
#
# 1 53.2147 -7.5887 -2.5462 0.0000 0.0000 0.0000
# 2 -7.5887 115.7890 54.4416 0.0000 0.0000 0.0000
# 3 -2.5462 54.4416 99.0654 0.0000 0.0000 0.0000
# 4 0.0000 0.0000 0.0000 27.6486 0.0000 0.0000
# 5 0.0000 0.0000 0.0000 0.0000 17.6912 0.0000
# 6 0.0000 0.0000 0.0000 0.0000 0.0000 23.6866
#
#
#
# Elastic Compliance Matrix: (Units=1/GPa)
#
#
# Indices 1 2 3 4 5 6 
#
# 1 0.018974 0.001368 -0.000264 0.000000 0.000000 0.000000
# 2 0.001368 0.011744 -0.006419 0.000000 0.000000 0.000000
# 3 -0.000264 -0.006419 0.013615 0.000000 0.000000 0.000000
# 4 0.000000 0.000000 0.000000 0.036168 0.000000 0.000000
# 5 0.000000 0.000000 0.000000 0.000000 0.056525 0.000000
# 6 0.000000 0.000000 0.000000 0.000000 0.000000 0.042218
#
#
# Mechanical properties :
#
#
# Convention : Reuss Voigt Hill
#
# Bulk Modulus (GPa) = 29.67086 39.63140 34.65113
# Shear Modulus (GPa) = 24.86211 28.72277 26.79244
#
# Velocity S-wave (km/s) = 3.43007 3.68678 3.56074
# Velocity P-wave (km/s) = 5.45236 6.07270 5.77087
#
# Compressibility (1/GPa) = 0.03370310
#
# Stress axis : x y z
#
# Youngs Moduli (GPa) = 52.70312 85.14976 73.44828
#
# Poissons Ratio (x) = -0.11645 0.01938
# Poissons Ratio (y) = -0.07208 0.47145
# Poissons Ratio (z) = 0.01391 0.54656
#
# Static dielectric constant tensor:
#      x y z
#    x 1.816810 0.000000 0.000000 
#    y 0.000000 1.758440 0.000000 
#    z 0.000000 0.000000 1.766070 
# 
# From -- ./inp_files/12787.got.cif
#   From: 2010.05.17/outbox.cif.g08.bks.cpg/sg38_7_cif.got.tgz:12787.got - 2010.06.03 18:07:57.
