data_PCOD9356910
_publ_section_title
;
Structure prediction by ZEFSAII (Michael W. Deem and Ramdas Pophale) SiO2 
 PCOD9356910
Probable space group: A M M 2
;
_chemical_formula_sum "Si O2"
_cell_formula_units_Z 64
_cell_length_a 7.550405
_cell_length_b 17.530730
_cell_length_c 21.700281
_cell_angle_alpha 90.000000
_cell_angle_beta 90.000000
_cell_angle_gamma 90.000000
_cell_volume 2872.338413
_symmetry_space_group_name_H-M "A M M 2"
_symmetry_group_IT_number 38
_symmetry_cell_setting 'orthorhombic'
loop_
_space_group_symop_operation_xyz
x,y,z
-x,-y,z
-x,y,z
x,-y,z
x,1/2+y,1/2+z
-x,1/2-y,1/2+z
-x,1/2+y,1/2+z
x,1/2-y,1/2+z
loop_
_atom_site_type_symbol
_atom_site_label
_atom_site_fract_x
_atom_site_fract_y
_atom_site_fract_z
Si Si1 0.209004 0.706023 0.055530
Si Si2 0.703033 0.618987 0.291638
Si Si3 0.714169 0.083192 0.192385
Si Si4 0.285831 0.583192 0.157567
Si Si5 0.796189 0.186905 0.424976
Si Si6 0.296967 0.881013 0.058314
Si Si7 0.790996 0.293977 0.794422
Si Si8 0.717387 0.367071 0.424976
O O1 0.230250 0.651733 0.113708
O O2 0.295341 0.788754 0.063045
O O3 0.000000 0.720903 0.046747
O O4 0.278805 0.667018 0.992239
O O5 0.500000 0.592194 0.292552
O O6 0.782778 0.590976 0.227590
O O7 0.704659 0.711246 0.286907
O O8 0.776554 0.599154 0.359361
O O9 0.500000 0.086278 0.189681
O O10 0.782778 0.090976 0.122362
O O11 0.769750 0.151733 0.236244
O O12 0.766500 0.000000 0.216887
O O13 0.500000 0.586278 0.160271
O O14 0.233500 0.500000 0.133065
O O15 0.721195 0.167018 0.357714
O O16 0.782206 0.279387 0.424976
O O17 0.000000 0.160900 0.424976
O O18 0.500000 0.907806 0.057400
O O19 0.223446 0.900846 0.990591
O O20 0.000000 0.279097 0.803206
O O21 0.500000 0.365788 0.424976
#
# Coordination Sequence:
#
# PCOD9356910 Si02
#       8
#     8   8   8   8   8   8   8   8
#     4  10  19  32  52  75  96 121 156 197 239 283
#     4   9  17  31  51  73  97 125 157 194 235 279
#     4  10  21  35  48  66  97 133 163 193 233 279
#     4  10  21  35  48  66  97 133 163 193 233 279
#     4   8  16  30  47  70  97 120 147 190 241 284
#     4   9  17  31  51  73  97 125 157 194 235 279
#     4  10  19  32  52  75  96 121 156 197 239 283
#     4   8  14  26  47  73  95 118 153 193 231 274
#
# _framework density 22.281495
#
# number of rings (size 3 to 8) (size 9 to 14) (size 15 to 20)
#    0.000    2.750    0.000    1.500    0.000    5.500 
#    0.000    1.250    0.000    7.500    0.000    0.000 
#    0.000   12.000    0.000    0.000    0.000    0.000 
#
# Total GULP energy -178410.861423 kJ/mol
# GULP energy per Si atom -5575.339419 kJ/mol
# Density = 2.223078 g / cm^3
# Si number density = 22.281495 Si / 1000 Ang^3
#
#
#
# Elastic Constant Matrix: (Units=GPa)
#
#
# Indices 1 2 3 4 5 6 
#
# 1 67.6551 0.0756 1.8589 0.0000 0.0000 0.0000
# 2 0.0756 70.7301 39.3036 0.0000 0.0000 0.0000
# 3 1.8589 39.3036 150.0368 0.0000 0.0000 0.0000
# 4 0.0000 0.0000 0.0000 -28.9191 0.0000 0.0000
# 5 0.0000 0.0000 0.0000 0.0000 0.8770 0.0000
# 6 0.0000 0.0000 0.0000 0.0000 0.0000 5.5748
#
#
#
# Elastic Compliance Matrix: (Units=1/GPa)
#
#
# Indices 1 2 3 4 5 6 
#
# 1 0.014786 0.000101 -0.000210 0.000000 0.000000 0.000000
# 2 0.000101 0.016548 -0.004336 0.000000 0.000000 0.000000
# 3 -0.000210 -0.004336 0.007804 0.000000 0.000000 0.000000
# 4 0.000000 0.000000 0.000000 -0.034579 0.000000 0.000000
# 5 0.000000 0.000000 0.000000 0.000000 1.140299 0.000000
# 6 0.000000 0.000000 0.000000 0.000000 0.000000 0.179379
#
#
# Mechanical properties :
#
#
# Convention : Reuss Voigt Hill
#
# Bulk Modulus (GPa) = 33.06042 41.21093 37.13567
# Shear Modulus (GPa) = 3.72243 11.98544 7.85394
#
# Velocity S-wave (km/s) = 1.29393 2.32181 1.87950
# Velocity P-wave (km/s) = 4.13548 5.07183 4.62740
#
# Compressibility (1/GPa) = 0.03024765
#
# Stress axis : x y z
#
# Youngs Moduli (GPa) = 67.62931 60.43158 128.14754
#
# Poissons Ratio (x) = -0.00608 0.02686
# Poissons Ratio (y) = -0.00681 0.55566
# Poissons Ratio (z) = 0.01417 0.26204
#
# Static dielectric constant tensor:
#      x y z
#    x 1.934950 0.000000 0.000000 
#    y 0.000000 1.746750 0.000000 
#    z 0.000000 0.000000 1.894410 
# 
# From -- ./inp_files/20026.got.cif
#   From: 2010.05.17/outbox.cif.g08.bks.cpg/sg38_11_cif.got.tgz:20026.got - 2010.06.03 18:07:57.
