data_PCOD9356416
_publ_section_title
;
Structure prediction by ZEFSAII (Michael W. Deem and Ramdas Pophale) SiO2 
 PCOD9356416
Probable space group: A M M 2
;
_chemical_formula_sum "Si O2"
_cell_formula_units_Z 64
_cell_length_a 13.508204
_cell_length_b 18.508749
_cell_length_c 15.048613
_cell_angle_alpha 90.000000
_cell_angle_beta 90.000000
_cell_angle_gamma 90.000000
_cell_volume 3762.453579
_symmetry_space_group_name_H-M "A M M 2"
_symmetry_group_IT_number 38
_symmetry_cell_setting 'orthorhombic'
loop_
_space_group_symop_operation_xyz
x,y,z
-x,-y,z
-x,y,z
x,-y,z
x,1/2+y,1/2+z
-x,1/2-y,1/2+z
-x,1/2+y,1/2+z
x,1/2-y,1/2+z
loop_
_atom_site_type_symbol
_atom_site_label
_atom_site_fract_x
_atom_site_fract_y
_atom_site_fract_z
Si Si1 0.886453 0.776071 0.758730
Si Si2 0.259639 0.712002 0.621983
Si Si3 0.203189 0.768807 0.434133
Si Si4 0.616728 0.414860 0.547932
Si Si5 0.389105 0.183233 0.879311
Si Si6 0.613267 0.652412 0.170563
Si Si7 0.813740 0.579715 0.167407
Si Si8 0.884975 0.081179 0.468467
O O1 0.813046 0.722327 0.705406
O O2 0.871163 0.766389 0.863530
O O3 0.851865 0.855811 0.728940
O O4 0.000000 0.764452 0.733844
O O5 0.199460 0.737145 0.533932
O O6 0.310955 0.634944 0.606834
O O7 0.347654 0.770987 0.633265
O O8 0.310595 0.745163 0.399258
O O9 0.181868 0.853688 0.434339
O O10 0.500000 0.405112 0.571473
O O11 0.638545 0.500000 0.551156
O O12 0.628635 0.382194 0.448299
O O13 0.500000 0.209975 0.895472
O O14 0.382625 0.157954 0.777832
O O15 0.500000 0.637323 0.144475
O O16 0.698480 0.595738 0.144925
O O17 0.824293 0.500000 0.206709
O O18 0.873143 0.582551 0.075228
O O19 0.000000 0.094232 0.445700
O O20 0.857930 0.000000 0.439018
#
# Coordination Sequence:
#
# PCOD9356416 Si02
#       8
#     8   8   8   8   8   8   8   8
#     4  11  22  36  56  83 107 141 187 228 275 324
#     4  10  20  35  55  82 111 140 182 229 270 318
#     4  11  19  36  56  81 108 141 181 226 271 323
#     4   9  18  33  55  83 113 148 186 219 262 324
#     4   9  18  32  53  81 111 146 183 220 264 317
#     4  10  18  33  54  79 111 146 181 219 269 324
#     4  10  20  35  53  79 113 142 175 223 274 324
#     4  10  20  35  56  79 105 141 183 227 272 319
#
# _framework density 17.010176000000001
#
# number of rings (size 3 to 8) (size 9 to 14) (size 15 to 20)
#    0.000    2.000    5.000    1.125    0.000    2.500 
#    0.000    1.875    0.000    1.500    0.000    0.000 
#    0.000    0.000    0.000    0.000    0.000    0.000 
#
# Total GULP energy -178317.629769 kJ/mol
# GULP energy per Si atom -5572.425930 kJ/mol
# Density = 1.697146 g / cm^3
# Si number density = 17.010176 Si / 1000 Ang^3
#
#
#
# Elastic Constant Matrix: (Units=GPa)
#
#
# Indices 1 2 3 4 5 6 
#
# 1 83.1457 42.9650 12.1160 0.0000 0.0000 0.0000
# 2 42.9650 130.3852 15.8117 0.0000 0.0000 0.0000
# 3 12.1160 15.8117 39.4928 0.0000 0.0000 0.0000
# 4 0.0000 0.0000 0.0000 15.6566 0.0000 0.0000
# 5 0.0000 0.0000 0.0000 0.0000 20.0740 0.0000
# 6 0.0000 0.0000 0.0000 0.0000 0.0000 20.8457
#
#
#
# Elastic Compliance Matrix: (Units=1/GPa)
#
#
# Indices 1 2 3 4 5 6 
#
# 1 0.014767 -0.004537 -0.002714 0.000000 0.000000 0.000000
# 2 -0.004537 0.009455 -0.002394 0.000000 0.000000 0.000000
# 3 -0.002714 -0.002394 0.027112 0.000000 0.000000 0.000000
# 4 0.000000 0.000000 0.000000 0.063871 0.000000 0.000000
# 5 0.000000 0.000000 0.000000 0.000000 0.049816 0.000000
# 6 0.000000 0.000000 0.000000 0.000000 0.000000 0.047972
#
#
# Mechanical properties :
#
#
# Convention : Reuss Voigt Hill
#
# Bulk Modulus (GPa) = 31.20610 43.86766 37.53688
# Shear Modulus (GPa) = 20.57932 23.45733 22.01833
#
# Velocity S-wave (km/s) = 3.48203 3.71754 3.60171
# Velocity P-wave (km/s) = 5.87804 6.65371 6.27787
#
# Compressibility (1/GPa) = 0.03204502
#
# Stress axis : x y z
#
# Youngs Moduli (GPa) = 67.71863 105.76552 36.88408
#
# Poissons Ratio (x) = 0.47985 0.10010
# Poissons Ratio (y) = 0.30724 0.08828
# Poissons Ratio (z) = 0.18378 0.25315
#
# Static dielectric constant tensor:
#      x y z
#    x 1.594580 0.000000 0.000000 
#    y 0.000000 1.565190 0.000000 
#    z 0.000000 0.000000 1.590420 
# 
# From -- ./inp_files/14777.got.cif
#   From: 2010.05.17/outbox.cif.g08.bks.cpg/sg38_8_cif.got.tgz:14777.got - 2010.06.03 18:07:57.
