data_PCOD9356042
_publ_section_title
;
Structure prediction by ZEFSAII (Michael W. Deem and Ramdas Pophale) SiO2 
 PCOD9356042
Probable space group: A M M 2
;
_chemical_formula_sum "Si O2"
_cell_formula_units_Z 64
_cell_length_a 13.581546
_cell_length_b 22.590337
_cell_length_c 11.353422
_cell_angle_alpha 90.000000
_cell_angle_beta 90.000000
_cell_angle_gamma 90.000000
_cell_volume 3483.362717
_symmetry_space_group_name_H-M "A M M 2"
_symmetry_group_IT_number 38
_symmetry_cell_setting 'orthorhombic'
loop_
_space_group_symop_operation_xyz
x,y,z
-x,-y,z
-x,y,z
x,-y,z
x,1/2+y,1/2+z
-x,1/2-y,1/2+z
-x,1/2+y,1/2+z
x,1/2-y,1/2+z
loop_
_atom_site_type_symbol
_atom_site_label
_atom_site_fract_x
_atom_site_fract_y
_atom_site_fract_z
Si Si1 0.226866 0.659515 0.632250
Si Si2 0.736762 0.744900 0.937338
Si Si3 0.614059 0.350090 0.832682
Si Si4 0.892382 0.743671 0.256601
Si Si5 0.612204 0.429007 0.065009
Si Si6 0.893192 0.656692 0.034964
Si Si7 0.883155 0.928658 0.957907
Si Si8 0.198596 0.929642 0.699828
O O1 0.271459 0.711144 0.547052
O O2 0.310125 0.639891 0.725269
O O3 0.139919 0.693109 0.703427
O O4 0.179498 0.608019 0.553263
O O5 0.639717 0.715300 0.884573
O O6 0.803906 0.776613 0.839862
O O7 0.806336 0.687590 0.963641
O O8 0.500000 0.353720 0.796210
O O9 0.628672 0.395879 0.940978
O O10 0.898644 0.699926 0.147253
O O11 0.000000 0.743679 0.314915
O O12 0.500000 0.416271 0.101759
O O13 0.621300 0.500000 0.048546
O O14 0.691265 0.409609 0.163367
O O15 0.866182 0.594529 0.092236
O O16 0.000000 0.654238 0.976636
O O17 0.844002 0.912642 0.826980
O O18 0.000000 0.914800 0.965420
O O19 0.872234 0.000000 0.973111
O O20 0.198201 0.000000 0.699973
#
# Coordination Sequence:
#
# PCOD9356042 Si02
#       8
#     8   8   8   8   8   8   8   8
#     4  10  21  35  56  81 112 145 184 227 275 332
#     4  10  19  33  50  75 106 141 179 223 271 325
#     4  10  21  38  58  80 108 144 185 233 284 334
#     4   9  18  31  50  75 102 138 180 220 260 314
#     4   9  18  35  59  81 103 139 187 235 281 325
#     4  10  18  28  46  73 104 135 173 216 261 313
#     4  10  21  37  58  83 114 151 185 223 278 339
#     4  10  19  32  52  78 109 143 180 222 269 325
#
# _framework density 18.373049999999999
#
# number of rings (size 3 to 8) (size 9 to 14) (size 15 to 20)
#    0.000    2.250    1.250    1.875    0.000    4.250 
#    0.000    0.625    0.000    0.750    0.000    0.000 
#    0.000    0.000    0.000    0.000    0.000    0.000 
#
# Total GULP energy -178276.862490 kJ/mol
# GULP energy per Si atom -5571.151953 kJ/mol
# Density = 1.833123 g / cm^3
# Si number density = 18.373050 Si / 1000 Ang^3
#
#
#
# Elastic Constant Matrix: (Units=GPa)
#
#
# Indices 1 2 3 4 5 6 
#
# 1 101.0848 27.7851 33.1753 0.0000 0.0000 0.0000
# 2 27.7851 42.6976 24.2087 0.0000 0.0000 0.0000
# 3 33.1753 24.2087 67.7388 0.0000 0.0000 0.0000
# 4 0.0000 0.0000 0.0000 30.8315 0.0000 0.0000
# 5 0.0000 0.0000 0.0000 0.0000 25.4434 0.0000
# 6 0.0000 0.0000 0.0000 0.0000 0.0000 28.5750
#
#
#
# Elastic Compliance Matrix: (Units=1/GPa)
#
#
# Indices 1 2 3 4 5 6 
#
# 1 0.012922 -0.006046 -0.004168 0.000000 0.000000 0.000000
# 2 -0.006046 0.032201 -0.008547 0.000000 0.000000 0.000000
# 3 -0.004168 -0.008547 0.019858 0.000000 0.000000 0.000000
# 4 0.000000 0.000000 0.000000 0.032434 0.000000 0.000000
# 5 0.000000 0.000000 0.000000 0.000000 0.039303 0.000000
# 6 0.000000 0.000000 0.000000 0.000000 0.000000 0.034996
#
#
# Mechanical properties :
#
#
# Convention : Reuss Voigt Hill
#
# Bulk Modulus (GPa) = 36.41704 42.42884 39.42294
# Shear Modulus (GPa) = 22.89479 25.39344 24.14412
#
# Velocity S-wave (km/s) = 3.53385 3.72170 3.62899
# Velocity P-wave (km/s) = 6.04274 6.45067 6.25004
#
# Compressibility (1/GPa) = 0.02745967
#
# Stress axis : x y z
#
# Youngs Moduli (GPa) = 77.38453 31.05502 50.35628
#
# Poissons Ratio (x) = 0.18776 0.20989
# Poissons Ratio (y) = 0.46786 0.43040
# Poissons Ratio (z) = 0.32255 0.26543
#
# Static dielectric constant tensor:
#      x y z
#    x 1.726380 0.000000 0.000000 
#    y 0.000000 1.658870 0.000000 
#    z 0.000000 0.000000 1.653970 
# 
# From -- ./inp_files/9575.got.cif
#   From: 2010.05.17/outbox.cif.g08.bks.cpg/sg38_5_cif.got.tgz:9575.got - 2010.06.03 18:07:57.
