data_PCOD9356336
_publ_section_title
;
Structure prediction by ZEFSAII (Michael W. Deem and Ramdas Pophale) SiO2 
 PCOD9356336
Probable space group: A M M 2
;
_chemical_formula_sum "Si O2"
_cell_formula_units_Z 48
_cell_length_a 14.573281
_cell_length_b 7.648724
_cell_length_c 20.837155
_cell_angle_alpha 90.000000
_cell_angle_beta 90.000000
_cell_angle_gamma 90.000000
_cell_volume 2322.655243
_symmetry_space_group_name_H-M "A M M 2"
_symmetry_group_IT_number 38
_symmetry_cell_setting 'orthorhombic'
loop_
_space_group_symop_operation_xyz
x,y,z
-x,-y,z
-x,y,z
x,-y,z
x,1/2+y,1/2+z
-x,1/2-y,1/2+z
-x,1/2+y,1/2+z
x,1/2-y,1/2+z
loop_
_atom_site_type_symbol
_atom_site_label
_atom_site_fract_x
_atom_site_fract_y
_atom_site_fract_z
Si Si1 0.500000 0.710681 0.406760
Si Si2 0.696746 0.785571 0.855511
Si Si3 0.000000 0.710312 0.530806
Si Si4 0.804019 0.797533 0.731398
Si Si5 0.500000 0.207010 0.559366
Si Si6 0.000000 0.289106 0.182548
Si Si7 0.301894 0.796011 0.105907
Si Si8 0.193711 0.713683 0.481065
O O1 0.500000 0.500000 0.402961
O O2 0.406732 0.772971 0.372291
O O3 0.500000 0.750597 0.483095
O O4 0.744374 0.722995 0.790058
O O5 0.692868 0.000000 0.853727
O O6 0.761228 0.732378 0.914697
O O7 0.908723 0.773853 0.495750
O O8 0.000000 0.500000 0.526443
O O9 0.000000 0.751382 0.606431
O O10 0.741496 0.791632 0.667975
O O11 0.904831 0.722803 0.714124
O O12 0.821105 0.000000 0.748541
O O13 0.409567 0.277496 0.594202
O O14 0.500000 0.000000 0.565512
O O15 0.000000 0.500000 0.187918
O O16 0.254947 0.728236 0.041021
O O17 0.278272 0.000000 0.112222
O O18 0.194470 0.500000 0.480688
#
# Coordination Sequence:
#
# PCOD9356336 Si02
#       8
#     4   8   4   8   4   4   8   8
#     4  10  18  35  60  81 107 149 197 239 286 340
#     4   9  18  33  55  82 112 149 191 238 288 340
#     4  10  18  31  55  85 109 143 196 240 275 331
#     4  10  21  36  55  83 118 155 193 236 291 345
#     4  12  24  37  58  89 119 147 185 235 288 346
#     4  10  20  33  51  79 117 155 188 234 295 347
#     4  11  21  37  60  84 112 147 191 237 281 333
#     4   9  17  30  54  84 108 139 189 239 275 322
#
# _framework density 20.666004000000001
#
# number of rings (size 3 to 8) (size 9 to 14) (size 15 to 20)
#    0.000    2.000    3.333    1.250    0.000    1.333 
#    0.000    5.833    0.000    0.000    0.000    1.167 
#    0.000    0.000    0.000    0.000    0.000    0.000 
#
# Total GULP energy -133996.090232 kJ/mol
# GULP energy per Si atom -5583.170426 kJ/mol
# Density = 2.061897 g / cm^3
# Si number density = 20.666004 Si / 1000 Ang^3
#
#
#
# Elastic Constant Matrix: (Units=GPa)
#
#
# Indices 1 2 3 4 5 6 
#
# 1 197.3829 -7.6540 87.2037 0.0000 0.0000 0.0000
# 2 -7.6540 41.3897 -5.4362 0.0000 0.0000 0.0000
# 3 87.2037 -5.4362 151.7280 0.0000 0.0000 0.0000
# 4 0.0000 0.0000 0.0000 18.9295 0.0000 0.0000
# 5 0.0000 0.0000 0.0000 0.0000 53.5223 0.0000
# 6 0.0000 0.0000 0.0000 0.0000 0.0000 2.3131
#
#
#
# Elastic Compliance Matrix: (Units=1/GPa)
#
#
# Indices 1 2 3 4 5 6 
#
# 1 0.006814 0.000749 -0.003889 0.000000 0.000000 0.000000
# 2 0.000749 0.024357 0.000442 0.000000 0.000000 0.000000
# 3 -0.003889 0.000442 0.008842 0.000000 0.000000 0.000000
# 4 0.000000 0.000000 0.000000 0.052828 0.000000 0.000000
# 5 0.000000 0.000000 0.000000 0.000000 0.018684 0.000000
# 6 0.000000 0.000000 0.000000 0.000000 0.000000 0.432320
#
#
# Mechanical properties :
#
#
# Convention : Reuss Voigt Hill
#
# Bulk Modulus (GPa) = 28.88765 59.85861 44.37313
# Shear Modulus (GPa) = 8.91618 36.04547 22.48083
#
# Velocity S-wave (km/s) = 2.07937 4.18088 3.30178
# Velocity P-wave (km/s) = 4.44677 7.23423 6.00449
#
# Compressibility (1/GPa) = 0.03461686
#
# Stress axis : x y z
#
# Youngs Moduli (GPa) = 146.76573 41.05560 113.09877
#
# Poissons Ratio (x) = -0.03076 0.43986
# Poissons Ratio (y) = -0.10996 -0.05000
# Poissons Ratio (z) = 0.57080 -0.01815
#
# Static dielectric constant tensor:
#      x y z
#    x 1.615950 0.000000 0.000000 
#    y 0.000000 1.799650 0.000000 
#    z 0.000000 0.000000 1.689560 
# 
# From -- ./inp_files/18243.got.cif
#   From: 2010.05.17/outbox.cif.g08.bks.cpg/sg38_10_cif.got.tgz:18243.got - 2010.06.03 18:07:57.
