data_PCOD9356537
_publ_section_title
;
Structure prediction by ZEFSAII (Michael W. Deem and Ramdas Pophale) SiO2 
 PCOD9356537
Probable space group: A M M 2
;
_chemical_formula_sum "Si O2"
_cell_formula_units_Z 56
_cell_length_a 14.488129
_cell_length_b 26.411290
_cell_length_c 9.657019
_cell_angle_alpha 90.000000
_cell_angle_beta 90.000000
_cell_angle_gamma 90.000000
_cell_volume 3695.260026
_symmetry_space_group_name_H-M "A M M 2"
_symmetry_group_IT_number 38
_symmetry_cell_setting 'orthorhombic'
loop_
_space_group_symop_operation_xyz
x,y,z
-x,-y,z
-x,y,z
x,-y,z
x,1/2+y,1/2+z
-x,1/2-y,1/2+z
-x,1/2+y,1/2+z
x,1/2-y,1/2+z
loop_
_atom_site_type_symbol
_atom_site_label
_atom_site_fract_x
_atom_site_fract_y
_atom_site_fract_z
Si Si1 0.891558 0.138619 0.701730
Si Si2 0.394305 0.722726 0.522310
Si Si3 0.210473 0.671331 0.467194
Si Si4 0.109362 0.279418 0.964598
Si Si5 0.110206 0.558934 0.963828
Si Si6 0.206358 0.637681 0.775470
Si Si7 0.394074 0.685116 0.829157
O O1 0.828604 0.142200 0.835683
O O2 0.878271 0.188504 0.606009
O O3 0.870714 0.090932 0.603120
O O4 0.000000 0.136836 0.740063
O O5 0.500000 0.709270 0.487333
O O6 0.318382 0.685549 0.458825
O O7 0.384722 0.718699 0.688420
O O8 0.377791 0.778285 0.459724
O O9 0.157199 0.725184 0.473335
O O10 0.195727 0.642308 0.611265
O O11 0.154602 0.314205 0.845659
O O12 0.000000 0.274058 0.939428
O O13 0.133428 0.500000 0.975443
O O14 0.162740 0.587848 0.841566
O O15 0.000000 0.563570 0.939897
O O16 0.313869 0.644039 0.816300
O O17 0.500000 0.666590 0.833372
#
# Coordination Sequence:
#
# PCOD9356537 Si02
#       7
#     8   8   8   8   8   8   8
#     4   9  19  31  45  66  91 122 158 187 224 276
#     4   9  18  29  42  63  94 131 162 185 216 261
#     4  11  19  27  44  69  99 124 150 190 224 264
#     4  10  19  29  41  62  97 133 156 177 216 271
#     4   9  19  37  55  67  86 118 154 194 238 282
#     4  10  19  30  47  70  92 121 158 190 226 273
#     4   9  17  29  44  65  94 126 158 190 222 261
#
# _framework density 15.154548
#
# number of rings (size 3 to 8) (size 9 to 14) (size 15 to 20)
#    0.000    2.429    1.429    2.571    2.000    3.429 
#    0.000    0.714    0.000    2.143    0.000    0.000 
#    0.000    1.143    0.000    0.000    0.000    0.000 
#
# Total GULP energy -156111.043563 kJ/mol
# GULP energy per Si atom -5575.394413 kJ/mol
# Density = 1.512006 g / cm^3
# Si number density = 15.154548 Si / 1000 Ang^3
#
#
#
# Elastic Constant Matrix: (Units=GPa)
#
#
# Indices 1 2 3 4 5 6 
#
# 1 63.8790 36.2787 36.5963 0.0000 0.0000 0.0000
# 2 36.2787 88.9929 35.6058 0.0000 0.0000 0.0000
# 3 36.5963 35.6058 59.5055 0.0000 0.0000 0.0000
# 4 0.0000 0.0000 0.0000 5.9980 0.0000 0.0000
# 5 0.0000 0.0000 0.0000 0.0000 23.7694 0.0000
# 6 0.0000 0.0000 0.0000 0.0000 0.0000 15.2656
#
#
#
# Elastic Compliance Matrix: (Units=1/GPa)
#
#
# Indices 1 2 3 4 5 6 
#
# 1 0.026098 -0.005545 -0.012733 0.000000 0.000000 0.000000
# 2 -0.005545 0.015952 -0.006135 0.000000 0.000000 0.000000
# 3 -0.012733 -0.006135 0.028307 0.000000 0.000000 0.000000
# 4 0.000000 0.000000 0.000000 0.166722 0.000000 0.000000
# 5 0.000000 0.000000 0.000000 0.000000 0.042071 0.000000
# 6 0.000000 0.000000 0.000000 0.000000 0.000000 0.065507
#
#
# Mechanical properties :
#
#
# Convention : Reuss Voigt Hill
#
# Bulk Modulus (GPa) = 46.44269 47.70434 47.07352
# Shear Modulus (GPa) = 12.47945 15.93303 14.20624
#
# Velocity S-wave (km/s) = 2.87274 3.24600 3.06506
# Velocity P-wave (km/s) = 6.45880 6.75245 6.60726
#
# Compressibility (1/GPa) = 0.02153191
#
# Stress axis : x y z
#
# Youngs Moduli (GPa) = 38.31660 62.68903 35.32714
#
# Poissons Ratio (x) = 0.34760 0.44982
# Poissons Ratio (y) = 0.21246 0.21673
# Poissons Ratio (z) = 0.48788 0.38459
#
# Static dielectric constant tensor:
#      x y z
#    x 1.523370 0.000000 0.000000 
#    y 0.000000 1.468280 0.000000 
#    z 0.000000 0.000000 1.511730 
# 
# From -- ./inp_files/5961.got.cif
#   From: 2010.05.17/outbox.cif.g08.bks.cpg/sg38_3_cif.got.tgz:5961.got - 2010.06.03 18:07:57.
