data_PCOD9356650
_publ_section_title
;
Structure prediction by ZEFSAII (Michael W. Deem and Ramdas Pophale) SiO2 
 PCOD9356650
Probable space group: A M M 2
;
_chemical_formula_sum "Si O2"
_cell_formula_units_Z 56
_cell_length_a 8.885431
_cell_length_b 21.097622
_cell_length_c 18.738854
_cell_angle_alpha 90.000000
_cell_angle_beta 90.000000
_cell_angle_gamma 90.000000
_cell_volume 3512.813015
_symmetry_space_group_name_H-M "A M M 2"
_symmetry_group_IT_number 38
_symmetry_cell_setting 'orthorhombic'
loop_
_space_group_symop_operation_xyz
x,y,z
-x,-y,z
-x,y,z
x,-y,z
x,1/2+y,1/2+z
-x,1/2-y,1/2+z
-x,1/2+y,1/2+z
x,1/2-y,1/2+z
loop_
_atom_site_type_symbol
_atom_site_label
_atom_site_fract_x
_atom_site_fract_y
_atom_site_fract_z
Si Si1 0.681739 0.250740 0.698340
Si Si2 0.681337 0.000000 0.689164
Si Si3 0.679193 0.500000 0.356875
Si Si4 0.819624 0.742366 0.853312
Si Si5 0.326212 0.681863 0.986591
Si Si6 0.178011 0.622953 0.428180
Si Si7 0.327821 0.320956 0.560674
Si Si8 0.819565 0.126872 0.623028
O O1 0.500000 0.244140 0.697631
O O2 0.742823 0.264537 0.776725
O O3 0.721441 0.305905 0.641303
O O4 0.754809 0.185629 0.669384
O O5 0.719507 0.000000 0.773210
O O6 0.751044 0.937597 0.653643
O O7 0.500000 0.000000 0.681830
O O8 0.500000 0.500000 0.362109
O O9 0.742212 0.437283 0.394221
O O10 0.753721 0.693284 0.911120
O O11 0.785055 0.813091 0.883613
O O12 0.000000 0.736610 0.848583
O O13 0.500000 0.661919 0.978882
O O14 0.327352 0.751267 0.024103
O O15 0.237016 0.638143 0.042079
O O16 0.228985 0.635667 0.509461
O O17 0.000000 0.614112 0.425124
O O18 0.500000 0.344013 0.560646
O O19 0.000000 0.126888 0.626379
#
# Coordination Sequence:
#
# PCOD9356650 Si02
#       8
#     8   4   4   8   8   8   8   8
#     4  10  19  31  48  71  98 129 161 196 239 288
#     4  11  23  37  51  69  94 129 168 199 233 283
#     4  11  23  35  49  67  92 127 164 197 229 273
#     4  10  19  30  47  73 100 126 157 199 245 285
#     4   9  17  31  49  68  93 126 160 195 236 288
#     4  10  20  32  47  67  94 125 158 195 236 279
#     4   8  16  30  47  66  90 121 158 194 232 279
#     4  11  21  33  49  70  97 128 162 202 242 282
#
# _framework density 15.94164
#
# number of rings (size 3 to 8) (size 9 to 14) (size 15 to 20)
#    0.000    2.143    0.000    5.143    0.000    9.143 
#    0.000    0.000    0.000    0.000    0.000    1.000 
#    0.000    5.714    0.000    0.000    0.000    0.000 
#
# Total GULP energy -156200.231515 kJ/mol
# GULP energy per Si atom -5578.579697 kJ/mol
# Density = 1.590536 g / cm^3
# Si number density = 15.941640 Si / 1000 Ang^3
#
#
#
# Elastic Constant Matrix: (Units=GPa)
#
#
# Indices 1 2 3 4 5 6 
#
# 1 90.1787 47.6833 70.9362 0.0000 0.0000 0.0000
# 2 47.6833 69.2539 61.9836 0.0000 0.0000 0.0000
# 3 70.9362 61.9836 165.0048 0.0000 0.0000 0.0000
# 4 0.0000 0.0000 0.0000 22.5996 0.0000 0.0000
# 5 0.0000 0.0000 0.0000 0.0000 25.0033 0.0000
# 6 0.0000 0.0000 0.0000 0.0000 0.0000 23.3415
#
#
#
# Elastic Compliance Matrix: (Units=1/GPa)
#
#
# Indices 1 2 3 4 5 6 
#
# 1 0.019977 -0.009142 -0.005154 0.000000 0.000000 0.000000
# 2 -0.009142 0.025937 -0.005813 0.000000 0.000000 0.000000
# 3 -0.005154 -0.005813 0.010460 0.000000 0.000000 0.000000
# 4 0.000000 0.000000 0.000000 0.044249 0.000000 0.000000
# 5 0.000000 0.000000 0.000000 0.000000 0.039995 0.000000
# 6 0.000000 0.000000 0.000000 0.000000 0.000000 0.042842
#
#
# Mechanical properties :
#
#
# Convention : Reuss Voigt Hill
#
# Bulk Modulus (GPa) = 61.89682 76.18263 69.03972
# Shear Modulus (GPa) = 21.82805 23.77782 22.80293
#
# Velocity S-wave (km/s) = 3.70435 3.86625 3.78617
# Velocity P-wave (km/s) = 7.56358 8.23546 7.90666
#
# Compressibility (1/GPa) = 0.01615592
#
# Stress axis : x y z
#
# Youngs Moduli (GPa) = 50.05653 38.55535 95.60335
#
# Poissons Ratio (x) = 0.35247 0.49276
# Poissons Ratio (y) = 0.45761 0.55574
# Poissons Ratio (z) = 0.25800 0.22412
#
# Static dielectric constant tensor:
#      x y z
#    x 1.532380 0.000000 0.000000 
#    y 0.000000 1.505390 0.000000 
#    z 0.000000 0.000000 1.539230 
# 
# From -- ./inp_files/12473.got.cif
#   From: 2010.05.17/outbox.cif.g08.bks.cpg/sg38_7_cif.got.tgz:12473.got - 2010.06.03 18:07:57.
