data_PCOD9356966
_publ_section_title
;
Structure prediction by ZEFSAII (Michael W. Deem and Ramdas Pophale) SiO2 
 PCOD9356966
Probable space group: A M M 2
;
_chemical_formula_sum "Si O2"
_cell_formula_units_Z 64
_cell_length_a 20.399721
_cell_length_b 7.931817
_cell_length_c 20.912246
_cell_angle_alpha 90.000000
_cell_angle_beta 90.000000
_cell_angle_gamma 90.000000
_cell_volume 3383.744732
_symmetry_space_group_name_H-M "A M M 2"
_symmetry_group_IT_number 38
_symmetry_cell_setting 'orthorhombic'
loop_
_space_group_symop_operation_xyz
x,y,z
-x,-y,z
-x,y,z
x,-y,z
x,1/2+y,1/2+z
-x,1/2-y,1/2+z
-x,1/2+y,1/2+z
x,1/2-y,1/2+z
loop_
_atom_site_type_symbol
_atom_site_label
_atom_site_fract_x
_atom_site_fract_y
_atom_site_fract_z
Si Si1 0.675887 0.202977 0.536000
Si Si2 0.925883 0.296476 0.480302
Si Si3 0.689469 0.299081 0.394005
Si Si4 0.818269 0.703771 0.084138
Si Si5 0.425569 0.703614 0.143465
Si Si6 0.162171 0.793594 0.864333
Si Si7 0.188222 0.196389 0.726003
Si Si8 0.666925 0.195537 0.256031
O O1 0.662279 0.249891 0.462860
O O2 0.748411 0.265069 0.556291
O O3 0.621713 0.264478 0.586308
O O4 0.677158 0.000000 0.539994
O O5 0.927901 0.500000 0.477670
O O6 0.877332 0.249055 0.537532
O O7 0.892713 0.237428 0.414023
O O8 0.000000 0.234230 0.488453
O O9 0.688828 0.500000 0.388217
O O10 0.765816 0.242538 0.389756
O O11 0.654845 0.227048 0.331013
O O12 0.813976 0.500000 0.087331
O O13 0.827361 0.769452 0.156503
O O14 0.500000 0.765391 0.138251
O O15 0.426917 0.500000 0.140163
O O16 0.391874 0.751867 0.210192
O O17 0.157152 0.732213 0.791180
O O18 0.161740 0.000000 0.863078
O O19 0.266801 0.206191 0.736482
O O20 0.169222 0.000000 0.723965
O O21 0.681530 0.000000 0.246072
#
# Coordination Sequence:
#
# PCOD9356966 Si02
#       8
#     8   8   8   8   8   8   8   8
#     4  10  19  33  54  83 112 139 178 230 281 328
#     4  10  20  34  51  74 107 144 184 228 275 329
#     4  10  19  33  55  79 107 142 183 228 271 322
#     4  10  19  32  53  79 110 139 175 227 275 326
#     4  10  21  39  60  80 110 151 186 220 273 337
#     4   8  15  29  50  74  98 129 175 221 262 311
#     4   9  17  33  54  77 105 138 177 225 274 323
#     4  11  21  33  53  82 113 142 178 227 273 323
#
# _framework density 18.913955999999999
#
# number of rings (size 3 to 8) (size 9 to 14) (size 15 to 20)
#    0.000    2.250    2.500    2.250    0.000    1.500 
#    0.000    1.250    0.000    4.500    0.000    0.000 
#    0.000    0.000    0.000    0.000    0.000    0.000 
#
# Total GULP energy -178526.585559 kJ/mol
# GULP energy per Si atom -5578.955799 kJ/mol
# Density = 1.887091 g / cm^3
# Si number density = 18.913956 Si / 1000 Ang^3
#
#
#
# Elastic Constant Matrix: (Units=GPa)
#
#
# Indices 1 2 3 4 5 6 
#
# 1 119.2336 3.2405 95.4417 0.0000 0.0000 0.0000
# 2 3.2405 18.7164 3.4534 0.0000 0.0000 0.0000
# 3 95.4417 3.4534 194.7375 0.0000 0.0000 0.0000
# 4 0.0000 0.0000 0.0000 16.0649 0.0000 0.0000
# 5 0.0000 0.0000 0.0000 0.0000 25.1329 0.0000
# 6 0.0000 0.0000 0.0000 0.0000 0.0000 13.0005
#
#
#
# Elastic Compliance Matrix: (Units=1/GPa)
#
#
# Indices 1 2 3 4 5 6 
#
# 1 0.013826 -0.001147 -0.006756 0.000000 0.000000 0.000000
# 2 -0.001147 0.053700 -0.000390 0.000000 0.000000 0.000000
# 3 -0.006756 -0.000390 0.008453 0.000000 0.000000 0.000000
# 4 0.000000 0.000000 0.000000 0.062248 0.000000 0.000000
# 5 0.000000 0.000000 0.000000 0.000000 0.039788 0.000000
# 6 0.000000 0.000000 0.000000 0.000000 0.000000 0.076920
#
#
# Mechanical properties :
#
#
# Convention : Reuss Voigt Hill
#
# Bulk Modulus (GPa) = 16.83714 59.66207 38.24961
# Shear Modulus (GPa) = 17.16337 26.20979 21.68658
#
# Velocity S-wave (km/s) = 3.01565 3.72659 3.38981
# Velocity P-wave (km/s) = 4.58768 7.08019 5.96556
#
# Compressibility (1/GPa) = 0.05939250
#
# Stress axis : x y z
#
# Youngs Moduli (GPa) = 72.32881 18.62210 118.30070
#
# Poissons Ratio (x) = 0.02136 0.79921
# Poissons Ratio (y) = 0.08298 0.04614
# Poissons Ratio (z) = 0.48863 0.00726
#
# Static dielectric constant tensor:
#      x y z
#    x 1.629880 0.000000 0.000000 
#    y 0.000000 1.691150 0.000000 
#    z 0.000000 0.000000 1.671290 
# 
# From -- ./inp_files/21531.got.cif
#   From: 2010.05.17/outbox.cif.g08.bks.cpg/sg38_11_cif.got.tgz:21531.got - 2010.06.03 18:07:57.
