data_PCOD9356929
_publ_section_title
;
Structure prediction by ZEFSAII (Michael W. Deem and Ramdas Pophale) SiO2 
 PCOD9356929
Probable space group: A M M 2
;
_chemical_formula_sum "Si O2"
_cell_formula_units_Z 56
_cell_length_a 15.391505
_cell_length_b 14.556684
_cell_length_c 12.264324
_cell_angle_alpha 90.000000
_cell_angle_beta 90.000000
_cell_angle_gamma 90.000000
_cell_volume 2747.812895
_symmetry_space_group_name_H-M "A M M 2"
_symmetry_group_IT_number 38
_symmetry_cell_setting 'orthorhombic'
loop_
_space_group_symop_operation_xyz
x,y,z
-x,-y,z
-x,y,z
x,-y,z
x,1/2+y,1/2+z
-x,1/2-y,1/2+z
-x,1/2+y,1/2+z
x,1/2-y,1/2+z
loop_
_atom_site_type_symbol
_atom_site_label
_atom_site_fract_x
_atom_site_fract_y
_atom_site_fract_z
Si Si1 0.332019 0.796614 0.194530
Si Si2 0.904593 0.896993 0.689628
Si Si3 0.601343 0.400352 0.146971
Si Si4 0.176466 0.743822 0.047419
Si Si5 0.403971 0.389560 0.481853
Si Si6 0.214597 0.393652 0.393245
Si Si7 0.692871 0.106774 0.423652
O O1 0.362748 0.691522 0.199503
O O2 0.236038 0.789277 0.142044
O O3 0.333475 0.848804 0.308861
O O4 0.388956 0.847515 0.101911
O O5 0.896876 0.816575 0.602603
O O6 0.824658 0.886323 0.772849
O O7 0.000000 0.893024 0.743320
O O8 0.896429 0.000000 0.641673
O O9 0.500000 0.403730 0.168641
O O10 0.639643 0.500000 0.182976
O O11 0.618888 0.392506 0.017256
O O12 0.156700 0.826431 0.966605
O O13 0.233597 0.670030 0.978952
O O14 0.500000 0.359555 0.440792
O O15 0.405739 0.500000 0.487116
O O16 0.315465 0.366380 0.415808
O O17 0.206809 0.500000 0.426070
O O18 0.718375 0.000000 0.408712
#
# Coordination Sequence:
#
# PCOD9356929 Si02
#       7
#     8   8   8   8   8   8   8
#     4  10  19  32  52  78 108 146 190 236 287 343
#     4  10  21  38  62  90 117 149 191 239 294 357
#     4   9  19  34  50  72 103 138 181 233 285 337
#     4  10  20  36  56  82 112 148 185 231 288 344
#     4   9  17  30  52  84 119 155 198 246 290 334
#     4   9  19  36  58  86 122 159 198 243 290 347
#     4  10  20  34  54  78 105 142 186 233 287 342
#
# _framework density 20.379845
#
# number of rings (size 3 to 8) (size 9 to 14) (size 15 to 20)
#    0.000    2.429    0.000    2.143    0.000    2.857 
#    0.000    2.143    0.000   18.857    0.000   56.000 
#    0.000    0.000    0.000    0.000    0.000    0.000 
#
# Total GULP energy -156223.777682 kJ/mol
# GULP energy per Si atom -5579.420632 kJ/mol
# Density = 2.033346 g / cm^3
# Si number density = 20.379845 Si / 1000 Ang^3
#
#
#
# Elastic Constant Matrix: (Units=GPa)
#
#
# Indices 1 2 3 4 5 6 
#
# 1 79.6772 19.7993 25.6989 0.0000 0.0000 0.0000
# 2 19.7993 103.8461 53.8516 0.0000 0.0000 0.0000
# 3 25.6989 53.8516 86.7108 0.0000 0.0000 0.0000
# 4 0.0000 0.0000 0.0000 41.1388 0.0000 0.0000
# 5 0.0000 0.0000 0.0000 0.0000 10.0483 0.0000
# 6 0.0000 0.0000 0.0000 0.0000 0.0000 21.4747
#
#
#
# Elastic Compliance Matrix: (Units=1/GPa)
#
#
# Indices 1 2 3 4 5 6 
#
# 1 0.013918 -0.000759 -0.003654 0.000000 0.000000 0.000000
# 2 -0.000759 0.014246 -0.008622 0.000000 0.000000 0.000000
# 3 -0.003654 -0.008622 0.017970 0.000000 0.000000 0.000000
# 4 0.000000 0.000000 0.000000 0.024308 0.000000 0.000000
# 5 0.000000 0.000000 0.000000 0.000000 0.099519 0.000000
# 6 0.000000 0.000000 0.000000 0.000000 0.000000 0.046566
#
#
# Mechanical properties :
#
#
# Convention : Reuss Voigt Hill
#
# Bulk Modulus (GPa) = 49.84041 52.10375 50.97208
# Shear Modulus (GPa) = 20.05739 25.92464 22.99102
#
# Velocity S-wave (km/s) = 3.14056 3.57048 3.36240
# Velocity P-wave (km/s) = 6.13675 6.52837 6.33559
#
# Compressibility (1/GPa) = 0.02006404
#
# Stress axis : x y z
#
# Youngs Moduli (GPa) = 71.85133 70.19718 55.64754
#
# Poissons Ratio (x) = 0.05328 0.20331
# Poissons Ratio (y) = 0.05453 0.47981
# Poissons Ratio (z) = 0.26251 0.60526
#
# Static dielectric constant tensor:
#      x y z
#    x 1.750770 0.000000 0.000000 
#    y 0.000000 1.738970 0.000000 
#    z 0.000000 0.000000 1.744300 
# 
# From -- ./inp_files/10075.got.cif
#   From: 2010.05.17/outbox.cif.g08.bks.cpg/sg38_6_cif.got.tgz:10075.got - 2010.06.03 18:07:57.
