data_PCOD9356495
_publ_section_title
;
Structure prediction by ZEFSAII (Michael W. Deem and Ramdas Pophale) SiO2 
 PCOD9356495
Probable space group: A M M 2
;
_chemical_formula_sum "Si O2"
_cell_formula_units_Z 64
_cell_length_a 20.473445
_cell_length_b 27.509024
_cell_length_c 5.740743
_cell_angle_alpha 90.000000
_cell_angle_beta 90.000000
_cell_angle_gamma 90.000000
_cell_volume 3233.212233
_symmetry_space_group_name_H-M "A M M 2"
_symmetry_group_IT_number 38
_symmetry_cell_setting 'orthorhombic'
loop_
_space_group_symop_operation_xyz
x,y,z
-x,-y,z
-x,y,z
x,-y,z
x,1/2+y,1/2+z
-x,1/2-y,1/2+z
-x,1/2+y,1/2+z
x,1/2-y,1/2+z
loop_
_atom_site_type_symbol
_atom_site_label
_atom_site_fract_x
_atom_site_fract_y
_atom_site_fract_z
Si Si1 0.573531 0.684566 0.040050
Si Si2 0.290591 0.272737 0.092525
Si Si3 0.428466 0.080117 0.791057
Si Si4 0.880394 0.187616 0.019041
Si Si5 0.075312 0.204450 0.517764
Si Si6 0.294659 0.554782 0.055681
Si Si7 0.245503 0.861351 0.832079
Si Si8 0.357497 0.380319 0.675232
O O1 0.500000 0.704172 0.021646
O O2 0.630754 0.721021 0.110711
O O3 0.571114 0.636476 0.203901
O O4 0.601913 0.660757 0.805048
O O5 0.272340 0.247050 0.337394
O O6 0.256056 0.325000 0.116329
O O7 0.500000 0.059917 0.745173
O O8 0.366959 0.054965 0.671926
O O9 0.410041 0.083521 0.061245
O O10 0.915878 0.178297 0.767926
O O11 0.880033 0.246864 0.024481
O O12 0.813701 0.158423 0.983649
O O13 0.909725 0.176488 0.275808
O O14 0.000000 0.221253 0.503238
O O15 0.273978 0.500000 0.007369
O O16 0.247023 0.584334 0.229335
O O17 0.308766 0.587986 0.832253
O O18 0.311321 0.856855 0.982223
#
# Coordination Sequence:
#
# PCOD9356495 Si02
#       8
#     8   8   8   8   8   8   8   8
#     4  10  20  37  55  75 103 148 199 256 315 372
#     4  12  26  38  58  83 115 155 199 254 297 356
#     4   9  18  34  58  81 105 137 187 254 330 399
#     4  10  21  32  59  88 123 178 201 236 282 345
#     4  10  20  38  59  93 137 171 207 244 281 332
#     4  10  22  39  60  80 111 153 196 261 331 381
#     4  11  24  39  58  85 127 153 209 249 306 367
#     4  10  18  37  58  80 111 151 192 258 322 378
#
# _framework density 19.794557000000001
#
# number of rings (size 3 to 8) (size 9 to 14) (size 15 to 20)
#    0.000    1.750    3.750    3.000    5.250    3.250 
#    0.000    0.000    0.000    0.000    0.000    0.000 
#    0.000    5.500    0.000    0.000    0.000    0.000 
#
# Total GULP energy -178354.088848 kJ/mol
# GULP energy per Si atom -5573.565277 kJ/mol
# Density = 1.974950 g / cm^3
# Si number density = 19.794557 Si / 1000 Ang^3
#
#
#
# Elastic Constant Matrix: (Units=GPa)
#
#
# Indices 1 2 3 4 5 6 
#
# 1 48.3278 3.8759 -1.2273 0.0000 0.0000 0.0000
# 2 3.8759 46.8997 14.3761 0.0000 0.0000 0.0000
# 3 -1.2273 14.3761 105.7122 0.0000 0.0000 0.0000
# 4 0.0000 0.0000 0.0000 -14.9365 0.0000 0.0000
# 5 0.0000 0.0000 0.0000 0.0000 16.4920 0.0000
# 6 0.0000 0.0000 0.0000 0.0000 0.0000 9.8304
#
#
#
# Elastic Compliance Matrix: (Units=1/GPa)
#
#
# Indices 1 2 3 4 5 6 
#
# 1 0.020855 -0.001876 0.000497 0.000000 0.000000 0.000000
# 2 -0.001876 0.022418 -0.003071 0.000000 0.000000 0.000000
# 3 0.000497 -0.003071 0.009883 0.000000 0.000000 0.000000
# 4 0.000000 0.000000 0.000000 -0.066950 0.000000 0.000000
# 5 0.000000 0.000000 0.000000 0.000000 0.060636 0.000000
# 6 0.000000 0.000000 0.000000 0.000000 0.000000 0.101726
#
#
# Mechanical properties :
#
#
# Convention : Reuss Voigt Hill
#
# Bulk Modulus (GPa) = 22.59478 26.10989 24.35233
# Shear Modulus (GPa) = 29.03283 14.53816 21.78549
#
# Velocity S-wave (km/s) = 3.83392 2.71302 3.32110
# Velocity P-wave (km/s) = 5.57117 4.79927 5.19957
#
# Compressibility (1/GPa) = 0.04425802
#
# Stress axis : x y z
#
# Youngs Moduli (GPa) = 47.94986 44.60640 101.18397
#
# Poissons Ratio (x) = 0.08368 -0.05031
# Poissons Ratio (y) = 0.08995 0.31069
# Poissons Ratio (z) = -0.02384 0.13696
#
# Static dielectric constant tensor:
#      x y z
#    x 1.724980 0.000000 0.000000 
#    y 0.000000 1.720260 0.000000 
#    z 0.000000 0.000000 1.796260 
# 
# From -- ./inp_files/1978.got.cif
#   From: 2010.05.17/outbox.cif.g08.bks.cpg/sg38_1_cif.got.tgz:1978.got - 2010.06.03 18:07:57.
