data_PCOD9356214
_publ_section_title
;
Structure prediction by ZEFSAII (Michael W. Deem and Ramdas Pophale) SiO2 
 PCOD9356214
Probable space group: A M M 2
;
_chemical_formula_sum "Si O2"
_cell_formula_units_Z 56
_cell_length_a 16.129266
_cell_length_b 8.111515
_cell_length_c 20.855209
_cell_angle_alpha 90.000000
_cell_angle_beta 90.000000
_cell_angle_gamma 90.000000
_cell_volume 2728.545036
_symmetry_space_group_name_H-M "A M M 2"
_symmetry_group_IT_number 38
_symmetry_cell_setting 'orthorhombic'
loop_
_space_group_symop_operation_xyz
x,y,z
-x,-y,z
-x,y,z
x,-y,z
x,1/2+y,1/2+z
-x,1/2-y,1/2+z
-x,1/2+y,1/2+z
x,1/2-y,1/2+z
loop_
_atom_site_type_symbol
_atom_site_label
_atom_site_fract_x
_atom_site_fract_y
_atom_site_fract_z
Si Si1 0.589736 0.301169 0.021000
Si Si2 0.227852 0.695835 0.345126
Si Si3 0.090991 0.198005 0.243294
Si Si4 0.629562 0.194570 0.666089
Si Si5 0.230195 0.695150 0.484556
Si Si6 0.810184 0.299374 0.624339
Si Si7 0.409610 0.807850 0.304599
O O1 0.500000 0.252091 0.994506
O O2 0.597496 0.500000 0.015450
O O3 0.591945 0.261831 0.096986
O O4 0.670839 0.221445 0.991000
O O5 0.219501 0.500000 0.346618
O O6 0.165075 0.757848 0.291226
O O7 0.205172 0.764975 0.415611
O O8 0.324321 0.732606 0.330609
O O9 0.115658 0.250082 0.171119
O O10 0.000000 0.262034 0.261884
O O11 0.087322 0.000000 0.242507
O O12 0.726663 0.231852 0.657001
O O13 0.596105 0.288919 0.727524
O O14 0.616207 0.000000 0.677064
O O15 0.213436 0.500000 0.483694
O O16 0.190233 0.760063 0.550623
O O17 0.804696 0.500000 0.623551
O O18 0.500000 0.739230 0.324716
O O19 0.408225 0.000000 0.322143
#
# Coordination Sequence:
#
# PCOD9356214 Si02
#       7
#     8   8   8   8   8   8   8
#     4   9  18  31  48  74 108 146 189 234 281 335
#     4  11  23  39  58  83 118 155 191 238 289 336
#     4  10  21  38  63  91 116 146 186 233 286 345
#     4  10  18  30  51  79 111 145 183 233 288 335
#     4   9  20  36  54  78 109 148 188 229 281 333
#     4   9  17  34  58  82 111 144 183 228 277 337
#     4  11  23  36  52  77 111 154 200 242 285 336
#
# _framework density 20.523758000000001
#
# number of rings (size 3 to 8) (size 9 to 14) (size 15 to 20)
#    0.000    2.143    1.429    1.714    0.000    4.571 
#    0.000    3.571    0.000    2.571    0.000    0.000 
#    0.000    0.000    0.000    0.000    0.000    0.000 
#
# Total GULP energy -156230.809424 kJ/mol
# GULP energy per Si atom -5579.671765 kJ/mol
# Density = 2.047705 g / cm^3
# Si number density = 20.523758 Si / 1000 Ang^3
#
#
#
# Elastic Constant Matrix: (Units=GPa)
#
#
# Indices 1 2 3 4 5 6 
#
# 1 109.3275 9.9548 56.0933 0.0000 0.0000 0.0000
# 2 9.9548 12.3588 7.5901 0.0000 0.0000 0.0000
# 3 56.0933 7.5901 127.9248 0.0000 0.0000 0.0000
# 4 0.0000 0.0000 0.0000 16.3363 0.0000 0.0000
# 5 0.0000 0.0000 0.0000 0.0000 -8.1715 0.0000
# 6 0.0000 0.0000 0.0000 0.0000 0.0000 6.4098
#
#
#
# Elastic Compliance Matrix: (Units=1/GPa)
#
#
# Indices 1 2 3 4 5 6 
#
# 1 0.012339 -0.006866 -0.005003 0.000000 0.000000 0.000000
# 2 -0.006866 0.087795 -0.002198 0.000000 0.000000 0.000000
# 3 -0.005003 -0.002198 0.010141 0.000000 0.000000 0.000000
# 4 0.000000 0.000000 0.000000 0.061213 0.000000 0.000000
# 5 0.000000 0.000000 0.000000 0.000000 -0.122376 0.000000
# 6 0.000000 0.000000 0.000000 0.000000 0.000000 0.156010
#
#
# Mechanical properties :
#
#
# Convention : Reuss Voigt Hill
#
# Bulk Modulus (GPa) = 12.17436 44.09862 28.13649
# Shear Modulus (GPa) = 19.18374 14.64646 16.91510
#
# Velocity S-wave (km/s) = 3.06062 2.67429 2.87395
# Velocity P-wave (km/s) = 4.29355 5.57396 4.97512
#
# Compressibility (1/GPa) = 0.08213983
#
# Stress axis : x y z
#
# Youngs Moduli (GPa) = 81.04379 11.39019 98.60660
#
# Poissons Ratio (x) = 0.07821 0.49334
# Poissons Ratio (y) = 0.55647 0.21677
# Poissons Ratio (z) = 0.40547 0.02504
#
# Static dielectric constant tensor:
#      x y z
#    x 1.748950 0.000000 0.000000 
#    y 0.000000 1.718340 0.000000 
#    z 0.000000 0.000000 1.778730 
# 
# From -- ./inp_files/21007.got.cif
#   From: 2010.05.17/outbox.cif.g08.bks.cpg/sg38_11_cif.got.tgz:21007.got - 2010.06.03 18:07:57.
