data_PCOD9356059
_publ_section_title
;
Structure prediction by ZEFSAII (Michael W. Deem and Ramdas Pophale) SiO2 
 PCOD9356059
Probable space group: A M M 2
;
_chemical_formula_sum "Si O2"
_cell_formula_units_Z 56
_cell_length_a 7.797043
_cell_length_b 13.948207
_cell_length_c 33.461049
_cell_angle_alpha 90.000000
_cell_angle_beta 90.000000
_cell_angle_gamma 90.000000
_cell_volume 3639.048680
_symmetry_space_group_name_H-M "A M M 2"
_symmetry_group_IT_number 38
_symmetry_cell_setting 'orthorhombic'
loop_
_space_group_symop_operation_xyz
x,y,z
-x,-y,z
-x,y,z
x,-y,z
x,1/2+y,1/2+z
-x,1/2-y,1/2+z
-x,1/2+y,1/2+z
x,1/2-y,1/2+z
loop_
_atom_site_type_symbol
_atom_site_label
_atom_site_fract_x
_atom_site_fract_y
_atom_site_fract_z
Si Si1 0.307652 0.113500 0.442780
Si Si2 0.298227 0.115465 0.651746
Si Si3 0.000000 0.616340 0.091402
Si Si4 0.703690 0.800048 0.735787
Si Si5 0.798205 0.200278 0.360231
Si Si6 0.708288 0.108566 0.818519
Si Si7 0.000000 0.383407 0.000175
Si Si8 0.207409 0.108057 0.276947
O O1 0.500000 0.124846 0.458523
O O2 0.288786 0.167978 0.400944
O O3 0.166618 0.145263 0.474775
O O4 0.279292 0.000000 0.434718
O O5 0.500000 0.139134 0.644676
O O6 0.170586 0.143588 0.616040
O O7 0.235018 0.163699 0.692962
O O8 0.289445 0.000000 0.656673
O O9 0.000000 0.500000 0.090111
O O10 0.000000 0.651063 0.045772
O O11 0.500000 0.816737 0.734976
O O12 0.769789 0.858715 0.774329
O O13 0.736433 0.688973 0.745722
O O14 0.771856 0.311387 0.349247
O O15 0.734185 0.142527 0.321052
O O16 0.000000 0.179749 0.364626
O O17 0.500000 0.111906 0.818516
O O18 0.761395 0.000000 0.826973
O O19 0.000000 0.500000 0.001666
O O20 0.000000 0.108725 0.277647
O O21 0.265444 0.000000 0.268636
#
# Coordination Sequence:
#
# PCOD9356059 Si02
#       8
#     8   8   4   8   8   8   4   8
#     4  10  19  30  47  68  90 120 153 184 222 267
#     4   9  17  29  45  66  92 119 149 184 218 260
#     4   9  18  30  46  67  89 119 149 175 220 272
#     4   9  17  28  43  62  85 118 154 188 223 257
#     4  10  18  29  44  62  89 121 154 192 225 261
#     4   9  17  29  43  60  87 121 156 193 227 259
#     4   9  18  32  46  65  93 117 145 183 220 266
#     4   9  18  29  41  59  86 120 153 189 228 258
#
# _framework density 15.388636999999999
#
# number of rings (size 3 to 8) (size 9 to 14) (size 15 to 20)
#    0.000    2.714    0.714    1.286    1.000    4.000 
#    0.000    2.857    0.000    0.000    0.000    0.000 
#    0.000    2.286    0.000    4.000    0.000    0.286 
#
# Total GULP energy -156050.756844 kJ/mol
# GULP energy per Si atom -5573.241316 kJ/mol
# Density = 1.535361 g / cm^3
# Si number density = 15.388637 Si / 1000 Ang^3
#
#
#
# Elastic Constant Matrix: (Units=GPa)
#
#
# Indices 1 2 3 4 5 6 
#
# 1 61.1996 14.4079 48.0249 0.0000 0.0000 0.0000
# 2 14.4079 51.3832 31.1936 0.0000 0.0000 0.0000
# 3 48.0249 31.1936 120.5627 0.0000 0.0000 0.0000
# 4 0.0000 0.0000 0.0000 17.5481 0.0000 0.0000
# 5 0.0000 0.0000 0.0000 0.0000 12.0083 0.0000
# 6 0.0000 0.0000 0.0000 0.0000 0.0000 17.2203
#
#
#
# Elastic Compliance Matrix: (Units=1/GPa)
#
#
# Indices 1 2 3 4 5 6 
#
# 1 0.023822 -0.001090 -0.009207 0.000000 0.000000 0.000000
# 2 -0.001090 0.023138 -0.005552 0.000000 0.000000 0.000000
# 3 -0.009207 -0.005552 0.013399 0.000000 0.000000 0.000000
# 4 0.000000 0.000000 0.000000 0.056986 0.000000 0.000000
# 5 0.000000 0.000000 0.000000 0.000000 0.083276 0.000000
# 6 0.000000 0.000000 0.000000 0.000000 0.000000 0.058071
#
#
# Mechanical properties :
#
#
# Convention : Reuss Voigt Hill
#
# Bulk Modulus (GPa) = 34.89299 46.71093 40.80196
# Shear Modulus (GPa) = 16.66983 18.65662 17.66322
#
# Velocity S-wave (km/s) = 3.29486 3.48568 3.39161
# Velocity P-wave (km/s) = 6.09906 6.82788 6.47374
#
# Compressibility (1/GPa) = 0.02865905
#
# Stress axis : x y z
#
# Youngs Moduli (GPa) = 41.97867 43.21892 74.63512
#
# Poissons Ratio (x) = 0.04712 0.68717
# Poissons Ratio (y) = 0.04577 0.41440
# Poissons Ratio (z) = 0.38650 0.23996
#
# Static dielectric constant tensor:
#      x y z
#    x 1.554620 0.000000 0.000000 
#    y 0.000000 1.494950 0.000000 
#    z 0.000000 0.000000 1.494890 
# 
# From -- ./inp_files/24674.got.cif
#   From: 2010.05.17/outbox.cif.g08.bks.cpg/sg38_13_cif.got.tgz:24674.got - 2010.06.03 18:07:57.
