data_PCOD9356258
_publ_section_title
;
Structure prediction by ZEFSAII (Michael W. Deem and Ramdas Pophale) SiO2 
 PCOD9356258
Probable space group: A M M 2
;
_chemical_formula_sum "Si O2"
_cell_formula_units_Z 64
_cell_length_a 20.292063
_cell_length_b 8.495389
_cell_length_c 20.883237
_cell_angle_alpha 90.000000
_cell_angle_beta 90.000000
_cell_angle_gamma 90.000000
_cell_volume 3600.039692
_symmetry_space_group_name_H-M "A M M 2"
_symmetry_group_IT_number 38
_symmetry_cell_setting 'orthorhombic'
loop_
_space_group_symop_operation_xyz
x,y,z
-x,-y,z
-x,y,z
x,-y,z
x,1/2+y,1/2+z
-x,1/2-y,1/2+z
-x,1/2+y,1/2+z
x,1/2-y,1/2+z
loop_
_atom_site_type_symbol
_atom_site_label
_atom_site_fract_x
_atom_site_fract_y
_atom_site_fract_z
Si Si1 0.290555 0.188090 0.497090
Si Si2 0.571693 0.187956 0.005982
Si Si3 0.147439 0.187406 0.701456
Si Si4 0.077081 0.310683 0.575889
Si Si5 0.285515 0.692039 0.146812
Si Si6 0.844107 0.311714 0.448725
Si Si7 0.429125 0.688969 0.151285
Si Si8 0.923999 0.311981 0.827215
O O1 0.361136 0.253347 0.474280
O O2 0.279956 0.240609 0.571760
O O3 0.229488 0.245891 0.455410
O O4 0.293002 0.000000 0.497478
O O5 0.500000 0.223979 0.975760
O O6 0.571181 0.269340 0.075833
O O7 0.575454 0.000000 0.014526
O O8 0.106236 0.227581 0.638000
O O9 0.222047 0.243898 0.686684
O O10 0.112708 0.264184 0.762177
O O11 0.149184 0.000000 0.711118
O O12 0.084169 0.500000 0.583602
O O13 0.116652 0.261705 0.512690
O O14 0.000000 0.276091 0.568294
O O15 0.285111 0.500000 0.146512
O O16 0.356917 0.744864 0.173530
O O17 0.841382 0.500000 0.447957
O O18 0.883604 0.254493 0.387072
O O19 0.500000 0.748822 0.177031
O O20 0.429537 0.500000 0.158212
O O21 0.925390 0.500000 0.831777
O O22 0.000000 0.254609 0.827103
#
# Coordination Sequence:
#
# PCOD9356258 Si02
#       8
#     8   8   8   8   8   8   8   8
#     4  10  18  31  50  74 107 142 178 218 264 319
#     4   9  16  25  39  65 102 140 178 219 262 308
#     4  11  21  35  55  79 107 139 177 219 265 317
#     4  10  21  36  54  78 107 135 167 211 264 324
#     4   8  15  27  45  72 104 135 170 213 256 305
#     4  11  22  37  58  82 107 137 175 220 273 327
#     4   8  13  23  40  63  95 136 175 210 255 310
#     4  11  25  43  59  76 103 138 178 225 275 327
#
# _framework density 17.777583
#
# number of rings (size 3 to 8) (size 9 to 14) (size 15 to 20)
#    0.000    2.250    1.250    3.375    0.000    4.500 
#    0.000    0.625    0.000    0.000    0.000    0.875 
#    0.000    5.000    0.000    0.000    0.000    0.000 
#
# Total GULP energy -178386.871023 kJ/mol
# GULP energy per Si atom -5574.589719 kJ/mol
# Density = 1.773712 g / cm^3
# Si number density = 17.777583 Si / 1000 Ang^3
#
#
#
# Elastic Constant Matrix: (Units=GPa)
#
#
# Indices 1 2 3 4 5 6 
#
# 1 191.1885 26.6352 49.7143 0.0000 0.0000 0.0000
# 2 26.6352 21.0324 14.1990 0.0000 0.0000 0.0000
# 3 49.7143 14.1990 71.4872 0.0000 0.0000 0.0000
# 4 0.0000 0.0000 0.0000 21.0319 0.0000 0.0000
# 5 0.0000 0.0000 0.0000 0.0000 9.9533 0.0000
# 6 0.0000 0.0000 0.0000 0.0000 0.0000 25.4052
#
#
#
# Elastic Compliance Matrix: (Units=1/GPa)
#
#
# Indices 1 2 3 4 5 6 
#
# 1 0.007083 -0.006518 -0.003631 0.000000 0.000000 0.000000
# 2 -0.006518 0.060907 -0.007565 0.000000 0.000000 0.000000
# 3 -0.003631 -0.007565 0.018016 0.000000 0.000000 0.000000
# 4 0.000000 0.000000 0.000000 0.047547 0.000000 0.000000
# 5 0.000000 0.000000 0.000000 0.000000 0.100470 0.000000
# 6 0.000000 0.000000 0.000000 0.000000 0.000000 0.039362
#
#
# Mechanical properties :
#
#
# Convention : Reuss Voigt Hill
#
# Bulk Modulus (GPa) = 19.77123 51.64502 35.70813
# Shear Modulus (GPa) = 15.35292 24.15538 19.75415
#
# Velocity S-wave (km/s) = 2.94191 3.69013 3.33706
# Velocity P-wave (km/s) = 4.76292 6.87530 5.91418
#
# Compressibility (1/GPa) = 0.05057853
#
# Stress axis : x y z
#
# Youngs Moduli (GPa) = 141.19057 16.41844 55.50620
#
# Poissons Ratio (x) = 0.10702 0.20153
# Poissons Ratio (y) = 0.92031 0.41988
# Poissons Ratio (z) = 0.51264 0.12420
#
# Static dielectric constant tensor:
#      x y z
#    x 1.665440 0.000000 0.000000 
#    y 0.000000 1.608380 0.000000 
#    z 0.000000 0.000000 1.569740 
# 
# From -- ./inp_files/18950.got.cif
#   From: 2010.05.17/outbox.cif.g08.bks.cpg/sg38_10_cif.got.tgz:18950.got - 2010.06.03 18:07:57.
