data_PCOD9356546
_publ_section_title
;
Structure prediction by ZEFSAII (Michael W. Deem and Ramdas Pophale) SiO2 
 PCOD9356546
Probable space group: A M M 2
;
_chemical_formula_sum "Si O2"
_cell_formula_units_Z 56
_cell_length_a 9.227272
_cell_length_b 13.974428
_cell_length_c 29.600266
_cell_angle_alpha 90.000000
_cell_angle_beta 90.000000
_cell_angle_gamma 90.000000
_cell_volume 3816.831406
_symmetry_space_group_name_H-M "A M M 2"
_symmetry_group_IT_number 38
_symmetry_cell_setting 'orthorhombic'
loop_
_space_group_symop_operation_xyz
x,y,z
-x,-y,z
-x,y,z
x,-y,z
x,1/2+y,1/2+z
-x,1/2-y,1/2+z
-x,1/2+y,1/2+z
x,1/2-y,1/2+z
loop_
_atom_site_type_symbol
_atom_site_label
_atom_site_fract_x
_atom_site_fract_y
_atom_site_fract_z
Si Si1 0.826989 0.889361 0.743250
Si Si2 0.166750 0.383717 0.516342
Si Si3 0.327086 0.887039 0.107597
Si Si4 0.327800 0.886041 0.924650
Si Si5 0.828062 0.705203 0.339777
Si Si6 0.172898 0.109803 0.284619
Si Si7 0.673738 0.211377 0.201944
O O1 0.798572 0.859374 0.795335
O O2 0.740424 0.815291 0.712279
O O3 0.000000 0.876868 0.736300
O O4 0.789963 0.000000 0.735923
O O5 0.168914 0.500000 0.516684
O O6 0.243478 0.354159 0.562840
O O7 0.252976 0.354825 0.471454
O O8 0.000000 0.352769 0.514494
O O9 0.500000 0.879187 0.100038
O O10 0.289052 0.828425 0.152447
O O11 0.295623 0.000000 0.115194
O O12 0.500000 0.873181 0.927421
O O13 0.261269 0.830717 0.882288
O O14 0.299183 0.000000 0.918766
O O15 0.794125 0.813267 0.323697
O O16 0.000000 0.698345 0.349482
O O17 0.258773 0.142317 0.240135
O O18 0.000000 0.118894 0.275518
O O19 0.203927 0.000000 0.296249
O O20 0.500000 0.213009 0.206206
#
# Coordination Sequence:
#
# PCOD9356546 Si02
#       7
#     8   8   8   8   8   8   8
#     4   9  18  32  47  63  87 119 152 186 221 256
#     4   9  17  28  43  63  85 111 144 179 213 252
#     4   9  17  29  43  61  89 120 145 173 213 259
#     4  10  19  29  42  62  89 118 144 173 213 260
#     4   9  17  29  45  64  85 112 147 182 216 254
#     4   9  18  32  47  63  87 119 152 185 219 256
#     4  10  19  29  44  67  92 118 148 181 220 263
#
# _framework density 14.671855000000001
#
# number of rings (size 3 to 8) (size 9 to 14) (size 15 to 20)
#    0.000    2.714    0.000    3.000    0.000    7.714 
#    0.000    1.429    0.000    0.000    0.000    1.000 
#    0.000    5.714    0.000    0.000    0.000    0.000 
#
# Total GULP energy -156061.387938 kJ/mol
# GULP energy per Si atom -5573.620998 kJ/mol
# Density = 1.463846 g / cm^3
# Si number density = 14.671855 Si / 1000 Ang^3
#
#
#
# Elastic Constant Matrix: (Units=GPa)
#
#
# Indices 1 2 3 4 5 6 
#
# 1 64.4635 49.7641 78.5534 0.0000 0.0000 0.0000
# 2 49.7641 91.3248 65.0397 0.0000 0.0000 0.0000
# 3 78.5534 65.0397 144.1991 0.0000 0.0000 0.0000
# 4 0.0000 0.0000 0.0000 22.2682 0.0000 0.0000
# 5 0.0000 0.0000 0.0000 0.0000 34.2912 0.0000
# 6 0.0000 0.0000 0.0000 0.0000 0.0000 19.3506
#
#
#
# Elastic Compliance Matrix: (Units=1/GPa)
#
#
# Indices 1 2 3 4 5 6 
#
# 1 0.054476 -0.012596 -0.023995 0.000000 0.000000 0.000000
# 2 -0.012596 0.019044 -0.001728 0.000000 0.000000 0.000000
# 3 -0.023995 -0.001728 0.020786 0.000000 0.000000 0.000000
# 4 0.000000 0.000000 0.000000 0.044907 0.000000 0.000000
# 5 0.000000 0.000000 0.000000 0.000000 0.029162 0.000000
# 6 0.000000 0.000000 0.000000 0.000000 0.000000 0.051678
#
#
# Mechanical properties :
#
#
# Convention : Reuss Voigt Hill
#
# Bulk Modulus (GPa) = 56.59903 76.30020 66.44961
# Shear Modulus (GPa) = 16.52458 22.29067 19.40762
#
# Velocity S-wave (km/s) = 3.35965 3.90202 3.64095
# Velocity P-wave (km/s) = 7.32871 8.50990 7.94130
#
# Compressibility (1/GPa) = 0.01766815
#
# Stress axis : x y z
#
# Youngs Moduli (GPa) = 18.35680 52.50920 48.11032
#
# Poissons Ratio (x) = 0.66140 1.15439
# Poissons Ratio (y) = 0.23122 0.08314
# Poissons Ratio (z) = 0.44047 0.09074
#
# Static dielectric constant tensor:
#      x y z
#    x 1.488930 0.000000 0.000000 
#    y 0.000000 1.476470 0.000000 
#    z 0.000000 0.000000 1.461520 
# 
# From -- ./inp_files/24628.got.cif
#   From: 2010.05.17/outbox.cif.g08.bks.cpg/sg38_13_cif.got.tgz:24628.got - 2010.06.03 18:07:57.
