data_PCOD9356191
_publ_section_title
;
Structure prediction by ZEFSAII (Michael W. Deem and Ramdas Pophale) SiO2 
 PCOD9356191
Probable space group: A M M 2
;
_chemical_formula_sum "Si O2"
_cell_formula_units_Z 32
_cell_length_a 11.060406
_cell_length_b 7.669715
_cell_length_c 18.314950
_cell_angle_alpha 90.000000
_cell_angle_beta 90.000000
_cell_angle_gamma 90.000000
_cell_volume 1553.660172
_symmetry_space_group_name_H-M "A M M 2"
_symmetry_group_IT_number 38
_symmetry_cell_setting 'orthorhombic'
loop_
_space_group_symop_operation_xyz
x,y,z
-x,-y,z
-x,y,z
x,-y,z
x,1/2+y,1/2+z
-x,1/2-y,1/2+z
-x,1/2+y,1/2+z
x,1/2-y,1/2+z
loop_
_atom_site_type_symbol
_atom_site_label
_atom_site_fract_x
_atom_site_fract_y
_atom_site_fract_z
Si Si1 0.000000 0.714575 0.971640
Si Si2 0.500000 0.207609 0.218894
Si Si3 0.241237 0.296585 0.896137
Si Si4 0.500000 0.214065 0.389060
Si Si5 0.763193 0.205989 0.727057
Si Si6 0.000000 0.212961 0.640129
O O1 0.120835 0.778407 0.931405
O O2 0.000000 0.500000 0.967870
O O3 0.000000 0.765329 0.055964
O O4 0.500000 0.266991 0.303769
O O5 0.368658 0.265517 0.190402
O O6 0.500000 0.000000 0.217803
O O7 0.243306 0.500000 0.916594
O O8 0.371971 0.223941 0.919991
O O9 0.235843 0.286598 0.808135
O O10 0.500000 0.000000 0.390260
O O11 0.877686 0.270414 0.680891
O O12 0.777783 0.000000 0.737444
O O13 0.000000 0.000000 0.641054
#
# Coordination Sequence:
#
# PCOD9356191 Si02
#       6
#     4   4   8   4   8   4
#     4   9  17  30  47  67  94 129 168 204 234 275
#     4   9  17  31  50  73  99 123 159 207 244 284
#     4   9  16  28  48  70  92 121 160 203 240 278
#     4   7  12  23  40  65  89 107 137 187 238 272
#     4  10  18  30  50  74 101 130 159 196 246 297
#     4   9  19  32  45  69 104 135 164 200 240 287
#
# _framework density 20.596523999999999
#
# number of rings (size 3 to 8) (size 9 to 14) (size 15 to 20)
#    0.000    3.000    0.000    3.375    0.000    0.000 
#    0.000    3.125    0.000   12.000    0.000    0.000 
#    0.000    0.000    0.000    0.000    0.000    0.000 
#
# Total GULP energy -89146.771061 kJ/mol
# GULP energy per Si atom -5571.673191 kJ/mol
# Density = 2.054965 g / cm^3
# Si number density = 20.596524 Si / 1000 Ang^3
#
#
#
# Elastic Constant Matrix: (Units=GPa)
#
#
# Indices 1 2 3 4 5 6 
#
# 1 274.2181 1.7370 76.3302 0.0000 0.0000 0.0000
# 2 1.7370 37.6706 -12.6254 0.0000 0.0000 0.0000
# 3 76.3302 -12.6254 49.7436 0.0000 0.0000 0.0000
# 4 0.0000 0.0000 0.0000 9.3817 0.0000 0.0000
# 5 0.0000 0.0000 0.0000 0.0000 -7.8457 0.0000
# 6 0.0000 0.0000 0.0000 0.0000 0.0000 1.6933
#
#
#
# Elastic Compliance Matrix: (Units=1/GPa)
#
#
# Indices 1 2 3 4 5 6 
#
# 1 0.006937 -0.004249 -0.011722 0.000000 0.000000 0.000000
# 2 -0.004249 0.031616 0.014544 0.000000 0.000000 0.000000
# 3 -0.011722 0.014544 0.041782 0.000000 0.000000 0.000000
# 4 0.000000 0.000000 0.000000 0.106590 0.000000 0.000000
# 5 0.000000 0.000000 0.000000 0.000000 -0.127459 0.000000
# 6 0.000000 0.000000 0.000000 0.000000 0.000000 0.590566
#
#
# Mechanical properties :
#
#
# Convention : Reuss Voigt Hill
#
# Bulk Modulus (GPa) = 12.90640 54.72400 33.81520
# Shear Modulus (GPa) = 7.36687 20.39190 13.87939
#
# Velocity S-wave (km/s) = 1.89328 3.14994 2.59872
# Velocity P-wave (km/s) = 3.32555 6.31322 5.04559
#
# Compressibility (1/GPa) = 0.07748095
#
# Stress axis : x y z
#
# Youngs Moduli (GPa) = 144.16140 31.62927 23.93357
#
# Poissons Ratio (x) = 0.13438 0.28056
# Poissons Ratio (y) = 0.61250 -0.34809
# Poissons Ratio (z) = 1.68993 -0.46002
#
# Static dielectric constant tensor:
#      x y z
#    x 1.805710 0.000000 0.000000 
#    y 0.000000 1.756430 0.000000 
#    z 0.000000 0.000000 1.674640 
# 
# From -- ./inp_files/13328.got.cif
#   From: 2010.05.17/outbox.cif.g08.bks.cpg/sg38_7_cif.got.tgz:13328.got - 2010.06.03 18:07:57.
