data_PCOD9356998
_publ_section_title
;
Structure prediction by ZEFSAII (Michael W. Deem and Ramdas Pophale) SiO2 
 PCOD9356998
Probable space group: A M M 2
;
_chemical_formula_sum "Si O2"
_cell_formula_units_Z 52
_cell_length_a 11.764053
_cell_length_b 19.914613
_cell_length_c 12.920399
_cell_angle_alpha 90.000000
_cell_angle_beta 90.000000
_cell_angle_gamma 90.000000
_cell_volume 3026.946668
_symmetry_space_group_name_H-M "A M M 2"
_symmetry_group_IT_number 38
_symmetry_cell_setting 'orthorhombic'
loop_
_space_group_symop_operation_xyz
x,y,z
-x,-y,z
-x,y,z
x,-y,z
x,1/2+y,1/2+z
-x,1/2-y,1/2+z
-x,1/2+y,1/2+z
x,1/2-y,1/2+z
loop_
_atom_site_type_symbol
_atom_site_label
_atom_site_fract_x
_atom_site_fract_y
_atom_site_fract_z
Si Si1 0.365658 0.170338 0.286070
Si Si2 0.000000 0.210443 0.649972
Si Si3 0.365274 0.805080 0.518477
Si Si4 0.000000 0.762126 0.430583
Si Si5 0.000000 0.853380 0.226981
Si Si6 0.750825 0.811511 0.728463
Si Si7 0.229820 0.825142 0.953000
Si Si8 0.776143 0.420632 0.646979
O O1 0.500000 0.184825 0.276580
O O2 0.340943 0.159032 0.408271
O O3 0.293937 0.235508 0.249885
O O4 0.327470 0.109773 0.213416
O O5 0.115166 0.188871 0.704834
O O6 0.000000 0.190437 0.530980
O O7 0.000000 0.291768 0.645552
O O8 0.500000 0.802009 0.532123
O O9 0.309836 0.834228 0.622746
O O10 0.314861 0.730404 0.500824
O O11 0.112284 0.715807 0.434696
O O12 0.000000 0.811050 0.332542
O O13 0.888762 0.897196 0.208617
O O14 0.729740 0.847128 0.838433
O O15 0.218393 0.884097 0.035607
O O16 0.770667 0.500000 0.636864
#
# Coordination Sequence:
#
# PCOD9356998 Si02
#       8
#     8   4   8   4   4   8   8   8
#     4  10  20  35  54  78 109 144 186 228 280 329
#     4  12  18  29  53  83 109 135 161 215 287 334
#     4  10  19  32  54  81 109 137 172 237 294 327
#     4  12  18  30  56  81 112 131 170 236 277 326
#     4  12  19  35  52  82 111 140 179 221 274 324
#     4  11  19  31  53  83 111 137 174 233 288 330
#     4  11  20  32  51  80 111 144 182 214 277 329
#     4  12  24  37  53  77 116 156 186 215 257 333
#
# _framework density 17.179026
#
# number of rings (size 3 to 8) (size 9 to 14) (size 15 to 20)
#    0.000    0.923    7.692    1.615    0.000    0.923 
#    0.000    0.000    0.000    0.923    0.000    0.000 
#    0.000    0.000    0.000    0.000    0.000    0.000 
#
# Total GULP energy -145038.456706 kJ/mol
# GULP energy per Si atom -5578.402181 kJ/mol
# Density = 1.713993 g / cm^3
# Si number density = 17.179026 Si / 1000 Ang^3
#
#
#
# Elastic Constant Matrix: (Units=GPa)
#
#
# Indices 1 2 3 4 5 6 
#
# 1 89.1670 18.3208 49.6752 0.0000 0.0000 0.0000
# 2 18.3208 76.3969 46.5534 0.0000 0.0000 0.0000
# 3 49.6752 46.5534 173.8684 0.0000 0.0000 0.0000
# 4 0.0000 0.0000 0.0000 15.0291 0.0000 0.0000
# 5 0.0000 0.0000 0.0000 0.0000 26.7727 0.0000
# 6 0.0000 0.0000 0.0000 0.0000 0.0000 1.8017
#
#
#
# Elastic Compliance Matrix: (Units=1/GPa)
#
#
# Indices 1 2 3 4 5 6 
#
# 1 0.013408 -0.001053 -0.003549 0.000000 0.000000 0.000000
# 2 -0.001053 0.015724 -0.003909 0.000000 0.000000 0.000000
# 3 -0.003549 -0.003909 0.007812 0.000000 0.000000 0.000000
# 4 0.000000 0.000000 0.000000 0.066537 0.000000 0.000000
# 5 0.000000 0.000000 0.000000 0.000000 0.037351 0.000000
# 6 0.000000 0.000000 0.000000 0.000000 0.000000 0.555023
#
#
# Mechanical properties :
#
#
# Convention : Reuss Voigt Hill
#
# Bulk Modulus (GPa) = 50.19476 63.17013 56.68245
# Shear Modulus (GPa) = 6.94907 23.71290 15.33099
#
# Velocity S-wave (km/s) = 2.01342 3.71932 2.99059
# Velocity P-wave (km/s) = 5.88959 7.43613 6.70758
#
# Compressibility (1/GPa) = 0.01992240
#
# Stress axis : x y z
#
# Youngs Moduli (GPa) = 74.58032 63.59607 128.00550
#
# Poissons Ratio (x) = 0.06696 0.45428
# Poissons Ratio (y) = 0.07852 0.50042
# Poissons Ratio (z) = 0.26468 0.24862
#
# Static dielectric constant tensor:
#      x y z
#    x 1.617310 0.000000 0.000000 
#    y 0.000000 1.530330 0.000000 
#    z 0.000000 0.000000 1.673880 
# 
# From -- ./inp_files/13896.got.cif
#   From: 2010.05.17/outbox.cif.g08.bks.cpg/sg38_7_cif.got.tgz:13896.got - 2010.06.03 18:07:57.
