data_PCOD9356637
_publ_section_title
;
Structure prediction by ZEFSAII (Michael W. Deem and Ramdas Pophale) SiO2 
 PCOD9356637
Probable space group: A M M 2
;
_chemical_formula_sum "Si O2"
_cell_formula_units_Z 48
_cell_length_a 14.733503
_cell_length_b 7.382145
_cell_length_c 21.070264
_cell_angle_alpha 90.000000
_cell_angle_beta 90.000000
_cell_angle_gamma 90.000000
_cell_volume 2291.704219
_symmetry_space_group_name_H-M "A M M 2"
_symmetry_group_IT_number 38
_symmetry_cell_setting 'orthorhombic'
loop_
_space_group_symop_operation_xyz
x,y,z
-x,-y,z
-x,y,z
x,-y,z
x,1/2+y,1/2+z
-x,1/2-y,1/2+z
-x,1/2+y,1/2+z
x,1/2-y,1/2+z
loop_
_atom_site_type_symbol
_atom_site_label
_atom_site_fract_x
_atom_site_fract_y
_atom_site_fract_z
Si Si1 0.100675 0.786554 0.671750
Si Si2 0.293796 0.278550 0.132726
Si Si3 0.280293 0.710436 0.885629
Si Si4 0.898381 0.280975 0.820972
Si Si5 0.604383 0.219172 0.760855
Si Si6 0.604641 0.221693 0.504636
O O1 0.189441 0.715393 0.636186
O O2 0.117573 0.769059 0.747388
O O3 0.000000 0.710072 0.658820
O O4 0.096234 0.000000 0.657574
O O5 0.292666 0.500000 0.133154
O O6 0.345018 0.221759 0.196864
O O7 0.348216 0.223454 0.070326
O O8 0.263792 0.500000 0.901266
O O9 0.182815 0.787805 0.865045
O O10 0.342693 0.719723 0.823217
O O11 0.335595 0.785805 0.945097
O O12 0.897332 0.500000 0.822909
O O13 0.000000 0.220493 0.838209
O O14 0.500000 0.278344 0.761556
O O15 0.605261 0.000000 0.761181
O O16 0.500000 0.279824 0.500510
O O17 0.603158 0.000000 0.503536
#
# Coordination Sequence:
#
# PCOD9356637 Si02
#       6
#     8   8   8   8   8   8
#     4   9  16  27  46  71  94 116 148 192 237 276
#     4   9  16  28  45  67  93 120 153 190 229 274
#     4  10  19  31  48  70  94 122 158 195 232 275
#     4   9  17  29  45  67  95 124 152 185 232 284
#     4  10  19  30  47  70  93 119 155 198 238 276
#     4   9  17  29  45  65  92 126 158 188 228 279
#
# _framework density 20.945112000000002
#
# number of rings (size 3 to 8) (size 9 to 14) (size 15 to 20)
#    0.000    2.667    1.667    1.000    0.000    3.000 
#    0.000    0.833    0.000    7.000    0.000    0.000 
#    0.000    5.333    0.000    0.000    0.000    0.000 
#
# Total GULP energy -133990.305144 kJ/mol
# GULP energy per Si atom -5582.929381 kJ/mol
# Density = 2.089744 g / cm^3
# Si number density = 20.945112 Si / 1000 Ang^3
#
#
#
# Elastic Constant Matrix: (Units=GPa)
#
#
# Indices 1 2 3 4 5 6 
#
# 1 189.8900 -2.0420 67.0230 0.0000 0.0000 0.0000
# 2 -2.0420 72.9033 -10.8633 0.0000 0.0000 0.0000
# 3 67.0230 -10.8633 115.2372 0.0000 0.0000 0.0000
# 4 0.0000 0.0000 0.0000 12.1501 0.0000 0.0000
# 5 0.0000 0.0000 0.0000 0.0000 35.1459 0.0000
# 6 0.0000 0.0000 0.0000 0.0000 0.0000 3.9508
#
#
#
# Elastic Compliance Matrix: (Units=1/GPa)
#
#
# Indices 1 2 3 4 5 6 
#
# 1 0.006638 -0.000395 -0.003898 0.000000 0.000000 0.000000
# 2 -0.000395 0.013936 0.001543 0.000000 0.000000 0.000000
# 3 -0.003898 0.001543 0.011090 0.000000 0.000000 0.000000
# 4 0.000000 0.000000 0.000000 0.082304 0.000000 0.000000
# 5 0.000000 0.000000 0.000000 0.000000 0.028453 0.000000
# 6 0.000000 0.000000 0.000000 0.000000 0.000000 0.253112
#
#
# Mechanical properties :
#
#
# Convention : Reuss Voigt Hill
#
# Bulk Modulus (GPa) = 38.21887 54.02955 46.12421
# Shear Modulus (GPa) = 12.20249 31.84356 22.02302
#
# Velocity S-wave (km/s) = 2.41632 3.90338 3.24615
# Velocity P-wave (km/s) = 5.10603 6.79462 6.00993
#
# Compressibility (1/GPa) = 0.02616508
#
# Stress axis : x y z
#
# Youngs Moduli (GPa) = 150.65443 71.75807 90.16942
#
# Poissons Ratio (x) = 0.02834 0.35146
# Poissons Ratio (y) = 0.05949 -0.13917
# Poissons Ratio (z) = 0.58722 -0.11075
#
# Static dielectric constant tensor:
#      x y z
#    x 1.760830 0.000000 0.000000 
#    y 0.000000 1.969460 0.000000 
#    z 0.000000 0.000000 1.684710 
# 
# From -- ./inp_files/14485.got.cif
#   From: 2010.05.17/outbox.cif.g08.bks.cpg/sg38_8_cif.got.tgz:14485.got - 2010.06.03 18:07:57.
