data_PCOD9356115
_publ_section_title
;
Structure prediction by ZEFSAII (Michael W. Deem and Ramdas Pophale) SiO2 
 PCOD9356115
Probable space group: A M M 2
;
_chemical_formula_sum "Si O2"
_cell_formula_units_Z 64
_cell_length_a 7.637119
_cell_length_b 15.382708
_cell_length_c 28.415149
_cell_angle_alpha 90.000000
_cell_angle_beta 90.000000
_cell_angle_gamma 90.000000
_cell_volume 3338.199530
_symmetry_space_group_name_H-M "A M M 2"
_symmetry_group_IT_number 38
_symmetry_cell_setting 'orthorhombic'
loop_
_space_group_symop_operation_xyz
x,y,z
-x,-y,z
-x,y,z
x,-y,z
x,1/2+y,1/2+z
-x,1/2-y,1/2+z
-x,1/2+y,1/2+z
x,1/2-y,1/2+z
loop_
_atom_site_type_symbol
_atom_site_label
_atom_site_fract_x
_atom_site_fract_y
_atom_site_fract_z
Si Si1 0.213486 0.597870 0.608560
Si Si2 0.205648 0.274122 0.959451
Si Si3 0.291503 0.597494 0.772622
Si Si4 0.790547 0.097297 0.381195
Si Si5 0.214246 0.402209 0.500370
Si Si6 0.709780 0.099214 0.544000
Si Si7 0.791100 0.903142 0.652900
Si Si8 0.791061 0.725405 0.689006
O O1 0.266466 0.500000 0.622068
O O2 0.266734 0.613341 0.554713
O O3 0.278783 0.667570 0.645775
O O4 0.000000 0.599493 0.608984
O O5 0.281653 0.330852 0.916809
O O6 0.000000 0.261594 0.949289
O O7 0.278515 0.178239 0.969425
O O8 0.220083 0.332001 0.006620
O O9 0.500000 0.593076 0.770751
O O10 0.222260 0.500000 0.760574
O O11 0.240014 0.616423 0.826396
O O12 0.236471 0.671704 0.736486
O O13 0.000000 0.093554 0.388406
O O14 0.720604 0.000000 0.390873
O O15 0.268536 0.500000 0.486910
O O16 0.000000 0.401615 0.499964
O O17 0.500000 0.100538 0.541315
O O18 0.762379 0.118516 0.597761
O O19 0.769540 0.000000 0.533351
O O20 0.722317 0.823583 0.684226
O O21 0.000000 0.908812 0.660083
O O22 0.717547 0.000000 0.661195
O O23 0.000000 0.731362 0.682393
#
# Coordination Sequence:
#
# PCOD9356115 Si02
#       8
#     8   8   8   8   8   8   8   8
#     4   8  13  21  36  62  93 121 149 180 215 260
#     4  10  18  29  49  73  95 123 161 201 238 278
#     4  10  21  35  50  70  96 123 151 189 239 291
#     4   9  18  32  49  69  92 119 154 196 241 288
#     4   8  14  25  42  67  98 126 153 188 228 269
#     4  10  20  31  44  67 100 134 163 192 232 282
#     4   9  18  32  49  70  97 128 162 199 234 269
#     4  10  18  29  49  72  93 122 159 196 235 278
#
# _framework density 19.172011000000001
#
# number of rings (size 3 to 8) (size 9 to 14) (size 15 to 20)
#    0.000    2.750    0.000    3.000    0.000    5.500 
#    0.000    1.250    0.000    1.125    0.000    3.500 
#    0.000    0.000    0.000    0.000    0.000    0.000 
#
# Total GULP energy -178508.493908 kJ/mol
# GULP energy per Si atom -5578.390435 kJ/mol
# Density = 1.912838 g / cm^3
# Si number density = 19.172011 Si / 1000 Ang^3
#
#
#
# Elastic Constant Matrix: (Units=GPa)
#
#
# Indices 1 2 3 4 5 6 
#
# 1 37.3467 4.3368 -4.3976 0.0000 0.0000 0.0000
# 2 4.3368 183.2208 112.2971 0.0000 0.0000 0.0000
# 3 -4.3976 112.2971 91.5698 0.0000 0.0000 0.0000
# 4 0.0000 0.0000 0.0000 -16.7146 0.0000 0.0000
# 5 0.0000 0.0000 0.0000 0.0000 206.3119 0.0000
# 6 0.0000 0.0000 0.0000 0.0000 0.0000 0.2727
#
#
#
# Elastic Compliance Matrix: (Units=1/GPa)
#
#
# Indices 1 2 3 4 5 6 
#
# 1 0.028526 -0.006100 0.008850 0.000000 0.000000 0.000000
# 2 -0.006100 0.023280 -0.028842 0.000000 0.000000 0.000000
# 3 0.008850 -0.028842 0.046717 0.000000 0.000000 0.000000
# 4 0.000000 0.000000 0.000000 -0.059828 0.000000 0.000000
# 5 0.000000 0.000000 0.000000 0.000000 0.004847 0.000000
# 6 0.000000 0.000000 0.000000 0.000000 0.000000 3.666815
#
#
# Mechanical properties :
#
#
# Convention : Reuss Voigt Hill
#
# Bulk Modulus (GPa) = 21.57984 59.62334 40.60159
# Shear Modulus (GPa) = 1.32346 51.30072 26.31209
#
# Velocity S-wave (km/s) = 0.83175 5.17844 3.70864
# Velocity P-wave (km/s) = 3.49324 8.18056 6.28985
#
# Compressibility (1/GPa) = 0.04633955
#
# Stress axis : x y z
#
# Youngs Moduli (GPa) = 35.05514 42.95538 21.40560
#
# Poissons Ratio (x) = 0.26201 -0.18944
# Poissons Ratio (y) = 0.21382 0.61739
# Poissons Ratio (z) = -0.31024 1.23894
#
# Static dielectric constant tensor:
#      x y z
#    x 1.692790 0.000000 0.000000 
#    y 0.000000 1.705120 0.000000 
#    z 0.000000 0.000000 1.635440 
# 
# From -- ./inp_files/24774.got.cif
#   From: 2010.05.17/outbox.cif.g08.bks.cpg/sg38_13_cif.got.tgz:24774.got - 2010.06.03 18:07:57.
