data_PCOD9356284
_publ_section_title
;
Structure prediction by ZEFSAII (Michael W. Deem and Ramdas Pophale) SiO2 
 PCOD9356284
Probable space group: A M M 2
;
_chemical_formula_sum "Si O2"
_cell_formula_units_Z 64
_cell_length_a 20.108474
_cell_length_b 7.644910
_cell_length_c 21.158998
_cell_angle_alpha 90.000000
_cell_angle_beta 90.000000
_cell_angle_gamma 90.000000
_cell_volume 3252.719314
_symmetry_space_group_name_H-M "A M M 2"
_symmetry_group_IT_number 38
_symmetry_cell_setting 'orthorhombic'
loop_
_space_group_symop_operation_xyz
x,y,z
-x,-y,z
-x,y,z
x,-y,z
x,1/2+y,1/2+z
-x,1/2-y,1/2+z
-x,1/2+y,1/2+z
x,1/2-y,1/2+z
loop_
_atom_site_type_symbol
_atom_site_label
_atom_site_fract_x
_atom_site_fract_y
_atom_site_fract_z
Si Si1 0.574538 0.291730 0.963240
Si Si2 0.074524 0.210852 0.195605
Si Si3 0.788472 0.714069 0.391627
Si Si4 0.712944 0.210092 0.016905
Si Si5 0.926466 0.710006 0.343551
Si Si6 0.789374 0.207236 0.139763
Si Si7 0.709728 0.212144 0.765935
Si Si8 0.573750 0.293120 0.317865
O O1 0.500000 0.227791 0.980260
O O2 0.571679 0.500000 0.958800
O O3 0.590055 0.224606 0.892433
O O4 0.634692 0.247259 0.009695
O O5 0.086402 0.252789 0.269496
O O6 0.136810 0.278476 0.155060
O O7 0.000000 0.274806 0.179342
O O8 0.073528 0.000000 0.190372
O O9 0.787928 0.500000 0.392569
O O10 0.750270 0.774850 0.453850
O O11 0.864705 0.773012 0.384919
O O12 0.750849 0.767709 0.327779
O O13 0.749691 0.278620 0.079375
O O14 0.718708 0.000000 0.017180
O O15 0.928427 0.500000 0.350039
O O16 0.000000 0.779152 0.359042
O O17 0.745193 0.229478 0.202362
O O18 0.797982 0.000000 0.128944
O O19 0.634390 0.276399 0.776416
O O20 0.709318 0.000000 0.765683
O O21 0.500000 0.217335 0.307977
O O22 0.570003 0.500000 0.305046
#
# Coordination Sequence:
#
# PCOD9356284 Si02
#       8
#     8   8   8   8   8   8   8   8
#     4  10  20  33  51  77 104 128 161 208 254 294
#     4   9  17  30  47  69  98 129 162 200 246 298
#     4   9  16  29  49  73  97 125 164 206 245 289
#     4  10  20  36  53  71 101 138 172 204 245 302
#     4   9  16  27  46  72  98 125 162 207 251 291
#     4  10  21  34  50  74 102 134 170 208 248 295
#     4  10  18  31  52  75 100 130 164 206 250 295
#     4   9  17  31  52  76 100 131 169 203 245 302
#
# _framework density 19.675844000000001
#
# number of rings (size 3 to 8) (size 9 to 14) (size 15 to 20)
#    0.000    2.500    2.500    0.375    0.000    1.750 
#    0.000    1.875    0.000    6.000    0.000    0.000 
#    0.000    5.000    0.000    0.000    0.000    0.000 
#
# Total GULP energy -178474.302817 kJ/mol
# GULP energy per Si atom -5577.321963 kJ/mol
# Density = 1.963106 g / cm^3
# Si number density = 19.675844 Si / 1000 Ang^3
#
#
#
# Elastic Constant Matrix: (Units=GPa)
#
#
# Indices 1 2 3 4 5 6 
#
# 1 181.4138 2.7219 74.2563 0.0000 0.0000 0.0000
# 2 2.7219 37.9047 -2.8702 0.0000 0.0000 0.0000
# 3 74.2563 -2.8702 100.5808 0.0000 0.0000 0.0000
# 4 0.0000 0.0000 0.0000 12.4407 0.0000 0.0000
# 5 0.0000 0.0000 0.0000 0.0000 22.0454 0.0000
# 6 0.0000 0.0000 0.0000 0.0000 0.0000 10.3527
#
#
#
# Elastic Compliance Matrix: (Units=1/GPa)
#
#
# Indices 1 2 3 4 5 6 
#
# 1 0.007938 -0.001016 -0.005890 0.000000 0.000000 0.000000
# 2 -0.001016 0.026569 0.001508 0.000000 0.000000 0.000000
# 3 -0.005890 0.001508 0.014333 0.000000 0.000000 0.000000
# 4 0.000000 0.000000 0.000000 0.080381 0.000000 0.000000
# 5 0.000000 0.000000 0.000000 0.000000 0.045361 0.000000
# 6 0.000000 0.000000 0.000000 0.000000 0.000000 0.096593
#
#
# Mechanical properties :
#
#
# Convention : Reuss Voigt Hill
#
# Bulk Modulus (GPa) = 26.28386 52.01280 39.14833
# Shear Modulus (GPa) = 16.96913 25.35385 21.16149
#
# Velocity S-wave (km/s) = 2.93991 3.59357 3.28305
# Velocity P-wave (km/s) = 4.99115 6.61140 5.85756
#
# Compressibility (1/GPa) = 0.03804616
#
# Stress axis : x y z
#
# Youngs Moduli (GPa) = 125.97264 37.63765 69.76692
#
# Poissons Ratio (x) = 0.03824 0.41090
# Poissons Ratio (y) = 0.12799 -0.10523
# Poissons Ratio (z) = 0.74193 -0.05677
#
# Static dielectric constant tensor:
#      x y z
#    x 1.749630 0.000000 0.000000 
#    y 0.000000 1.750010 0.000000 
#    z 0.000000 0.000000 1.643270 
# 
# From -- ./inp_files/18915.got.cif
#   From: 2010.05.17/outbox.cif.g08.bks.cpg/sg38_10_cif.got.tgz:18915.got - 2010.06.03 18:07:57.
