data_PCOD9356705
_publ_section_title
;
Structure prediction by ZEFSAII (Michael W. Deem and Ramdas Pophale) SiO2 
 PCOD9356705
Probable space group: A M M 2
;
_chemical_formula_sum "Si O2"
_cell_formula_units_Z 64
_cell_length_a 8.135756
_cell_length_b 19.500769
_cell_length_c 22.191977
_cell_angle_alpha 90.000000
_cell_angle_beta 90.000000
_cell_angle_gamma 90.000000
_cell_volume 3520.834787
_symmetry_space_group_name_H-M "A M M 2"
_symmetry_group_IT_number 38
_symmetry_cell_setting 'orthorhombic'
loop_
_space_group_symop_operation_xyz
x,y,z
-x,-y,z
-x,y,z
x,-y,z
x,1/2+y,1/2+z
-x,1/2-y,1/2+z
-x,1/2+y,1/2+z
x,1/2-y,1/2+z
loop_
_atom_site_type_symbol
_atom_site_label
_atom_site_fract_x
_atom_site_fract_y
_atom_site_fract_z
Si Si1 0.815423 0.819104 0.076260
Si Si2 0.686363 0.077945 0.988015
Si Si3 0.197824 0.924486 0.434248
Si Si4 0.798343 0.922277 0.176254
Si Si5 0.305922 0.217111 0.481121
Si Si6 0.304689 0.074729 0.843576
Si Si7 0.698769 0.276240 0.352395
Si Si8 0.198343 0.632330 0.805903
O O1 0.738984 0.862243 0.131380
O O2 0.000000 0.800320 0.093584
O O3 0.811403 0.875114 0.022796
O O4 0.736733 0.754047 0.043528
O O5 0.500000 0.103975 0.999524
O O6 0.707242 0.076456 0.916391
O O7 0.697574 0.000000 0.009417
O O8 0.245117 0.860578 0.475585
O O9 0.256401 0.906053 0.366466
O O10 0.000000 0.926460 0.432161
O O11 0.257434 0.000000 0.452140
O O12 0.748956 0.903396 0.244241
O O13 0.000000 0.922025 0.173111
O O14 0.746102 0.000000 0.160893
O O15 0.500000 0.216453 0.474744
O O16 0.242824 0.258112 0.421026
O O17 0.500000 0.073440 0.828929
O O18 0.238913 0.150352 0.827500
O O19 0.236390 0.000000 0.823771
O O20 0.500000 0.281104 0.354851
O O21 0.746946 0.211067 0.312462
O O22 0.000000 0.630718 0.806427
#
# Coordination Sequence:
#
# PCOD9356705 Si02
#       8
#     8   8   8   8   8   8   8   8
#     4  11  20  29  44  65  92 123 159 199 234 270
#     4   9  16  27  42  59  84 121 158 186 220 271
#     4   9  17  30  50  75  98 120 151 194 241 286
#     4   9  18  32  48  67  93 127 164 197 231 275
#     4  10  19  31  46  66  94 126 157 190 236 288
#     4   8  13  23  40  60  84 117 152 180 215 271
#     4   9  16  28  45  65  90 119 153 194 237 280
#     4   9  17  30  49  69  91 123 160 195 233 279
#
# _framework density 18.177506999999999
#
# number of rings (size 3 to 8) (size 9 to 14) (size 15 to 20)
#    0.000    2.750    1.250    2.250    0.000    3.000 
#    0.000    1.250    0.000    3.000    0.000    0.875 
#    0.000    5.000    0.000    0.000    0.000    0.125 
#
# Total GULP energy -178163.921820 kJ/mol
# GULP energy per Si atom -5567.622557 kJ/mol
# Density = 1.813613 g / cm^3
# Si number density = 18.177507 Si / 1000 Ang^3
#
#
#
# Elastic Constant Matrix: (Units=GPa)
#
#
# Indices 1 2 3 4 5 6 
#
# 1 9.4456 13.0247 5.6400 0.0000 0.0000 0.0000
# 2 13.0247 158.7660 39.8247 0.0000 0.0000 0.0000
# 3 5.6400 39.8247 55.6570 0.0000 0.0000 0.0000
# 4 0.0000 0.0000 0.0000 18.8217 0.0000 0.0000
# 5 0.0000 0.0000 0.0000 0.0000 6.7425 0.0000
# 6 0.0000 0.0000 0.0000 0.0000 0.0000 18.5016
#
#
#
# Elastic Compliance Matrix: (Units=1/GPa)
#
#
# Indices 1 2 3 4 5 6 
#
# 1 0.121156 -0.008360 -0.006295 0.000000 0.000000 0.000000
# 2 -0.008360 0.008253 -0.005058 0.000000 0.000000 0.000000
# 3 -0.006295 -0.005058 0.022225 0.000000 0.000000 0.000000
# 4 0.000000 0.000000 0.000000 0.053130 0.000000 0.000000
# 5 0.000000 0.000000 0.000000 0.000000 0.148312 0.000000
# 6 0.000000 0.000000 0.000000 0.000000 0.000000 0.054049
#
#
# Mechanical properties :
#
#
# Convention : Reuss Voigt Hill
#
# Bulk Modulus (GPa) = 8.91217 37.87193 23.39205
# Shear Modulus (GPa) = 10.33154 19.83846 15.08500
#
# Velocity S-wave (km/s) = 2.38664 3.30718 2.88387
# Velocity P-wave (km/s) = 3.53670 5.95508 4.89751
#
# Compressibility (1/GPa) = 0.11220616
#
# Stress axis : x y z
#
# Youngs Moduli (GPa) = 8.25383 121.16426 44.99522
#
# Poissons Ratio (x) = 1.01296 0.28326
# Poissons Ratio (y) = 0.06900 0.22760
# Poissons Ratio (z) = 0.05196 0.61289
#
# Static dielectric constant tensor:
#      x y z
#    x 1.647010 0.000000 0.000000 
#    y 0.000000 1.684560 0.000000 
#    z 0.000000 0.000000 1.613790 
# 
# From -- ./inp_files/22296.got.cif
#   From: 2010.05.17/outbox.cif.g08.bks.cpg/sg38_12_cif.got.tgz:22296.got - 2010.06.03 18:07:57.
