data_PCOD9356369
_publ_section_title
;
Structure prediction by ZEFSAII (Michael W. Deem and Ramdas Pophale) SiO2 
 PCOD9356369
Probable space group: A M M 2
;
_chemical_formula_sum "Si O2"
_cell_formula_units_Z 64
_cell_length_a 8.586519
_cell_length_b 21.273677
_cell_length_c 20.376002
_cell_angle_alpha 90.000000
_cell_angle_beta 90.000000
_cell_angle_gamma 90.000000
_cell_volume 3722.019729
_symmetry_space_group_name_H-M "A M M 2"
_symmetry_group_IT_number 38
_symmetry_cell_setting 'orthorhombic'
loop_
_space_group_symop_operation_xyz
x,y,z
-x,-y,z
-x,y,z
x,-y,z
x,1/2+y,1/2+z
-x,1/2-y,1/2+z
-x,1/2+y,1/2+z
x,1/2-y,1/2+z
loop_
_atom_site_type_symbol
_atom_site_label
_atom_site_fract_x
_atom_site_fract_y
_atom_site_fract_z
Si Si1 0.687864 0.686719 0.908280
Si Si2 0.688830 0.263394 0.046740
Si Si3 0.313590 0.881178 0.191477
Si Si4 0.688803 0.766320 0.691583
Si Si5 0.187942 0.569789 0.410886
Si Si6 0.186598 0.121519 0.050956
Si Si7 0.688308 0.812909 0.829983
Si Si8 0.813866 0.930115 0.326797
O O1 0.500000 0.684231 0.905669
O O2 0.736006 0.749917 0.869345
O O3 0.750900 0.625158 0.872869
O O4 0.736140 0.695843 0.984001
O O5 0.500000 0.258773 0.046091
O O6 0.737703 0.287438 0.118807
O O7 0.754118 0.192862 0.040443
O O8 0.500000 0.884701 0.193910
O O9 0.268307 0.807281 0.198660
O O10 0.255637 0.901877 0.119870
O O11 0.243447 0.917675 0.252724
O O12 0.500000 0.768025 0.692718
O O13 0.742957 0.804631 0.754826
O O14 0.239580 0.500000 0.391006
O O15 0.233672 0.582995 0.486478
O O16 0.250987 0.625326 0.365665
O O17 0.000000 0.571744 0.408780
O O18 0.000000 0.121381 0.055752
O O19 0.500000 0.814482 0.830738
O O20 0.000000 0.927957 0.327475
O O21 0.762456 0.000000 0.347563
#
# Coordination Sequence:
#
# PCOD9356369 Si02
#       8
#     8   8   8   8   8   8   8   8
#     4  10  19  33  55  81 105 134 177 224 266 313
#     4   9  17  31  52  77 106 138 172 216 265 315
#     4  10  19  34  54  76 105 141 177 215 258 310
#     4   8  15  29  50  76 105 132 160 208 265 308
#     4  10  22  37  50  70 105 145 179 214 262 315
#     4  10  19  31  49  75 106 142 179 215 258 313
#     4  10  18  32  54  80 104 130 174 223 263 308
#     4  11  24  38  52  75 108 143 178 218 266 322
#
# _framework density 17.194966000000001
#
# number of rings (size 3 to 8) (size 9 to 14) (size 15 to 20)
#    0.000    2.250    2.500    1.875    0.000    3.250 
#    0.000    1.875    0.000    0.750    0.000    5.250 
#    0.000    0.000    0.000    0.000    0.000    0.000 
#
# Total GULP energy -178493.502244 kJ/mol
# GULP energy per Si atom -5577.921945 kJ/mol
# Density = 1.715583 g / cm^3
# Si number density = 17.194966 Si / 1000 Ang^3
#
#
#
# Elastic Constant Matrix: (Units=GPa)
#
#
# Indices 1 2 3 4 5 6 
#
# 1 13.3767 23.7046 25.7054 0.0000 0.0000 0.0000
# 2 23.7046 123.0336 82.3234 0.0000 0.0000 0.0000
# 3 25.7054 82.3234 141.8385 0.0000 0.0000 0.0000
# 4 0.0000 0.0000 0.0000 20.1117 0.0000 0.0000
# 5 0.0000 0.0000 0.0000 0.0000 24.1326 0.0000
# 6 0.0000 0.0000 0.0000 0.0000 0.0000 26.3764
#
#
#
# Elastic Compliance Matrix: (Units=1/GPa)
#
#
# Indices 1 2 3 4 5 6 
#
# 1 0.129996 -0.015176 -0.014751 0.000000 0.000000 0.000000
# 2 -0.015176 0.015060 -0.005991 0.000000 0.000000 0.000000
# 3 -0.014751 -0.005991 0.013201 0.000000 0.000000 0.000000
# 4 0.000000 0.000000 0.000000 0.049722 0.000000 0.000000
# 5 0.000000 0.000000 0.000000 0.000000 0.041438 0.000000
# 6 0.000000 0.000000 0.000000 0.000000 0.000000 0.037913
#
#
# Mechanical properties :
#
#
# Convention : Reuss Voigt Hill
#
# Bulk Modulus (GPa) = 11.57120 60.19064 35.88092
# Shear Modulus (GPa) = 12.88755 23.89184 18.38969
#
# Velocity S-wave (km/s) = 2.74066 3.73160 3.27384
# Velocity P-wave (km/s) = 4.09377 7.32443 5.93322
#
# Compressibility (1/GPa) = 0.08642145
#
# Stress axis : x y z
#
# Youngs Moduli (GPa) = 7.69256 66.40026 75.75427
#
# Poissons Ratio (x) = 1.00768 1.11745
# Poissons Ratio (y) = 0.11674 0.45382
# Poissons Ratio (z) = 0.11347 0.39778
#
# Static dielectric constant tensor:
#      x y z
#    x 1.585080 0.000000 0.000000 
#    y 0.000000 1.562870 0.000000 
#    z 0.000000 0.000000 1.602440 
# 
# From -- ./inp_files/17202.got.cif
#   From: 2010.05.17/outbox.cif.g08.bks.cpg/sg38_9_cif.got.tgz:17202.got - 2010.06.03 18:07:57.
