data_PCOD9356243
_publ_section_title
;
Structure prediction by ZEFSAII (Michael W. Deem and Ramdas Pophale) SiO2 
 PCOD9356243
Probable space group: A M M 2
;
_chemical_formula_sum "Si O2"
_cell_formula_units_Z 64
_cell_length_a 7.647374
_cell_length_b 29.358366
_cell_length_c 13.007156
_cell_angle_alpha 90.000000
_cell_angle_beta 90.000000
_cell_angle_gamma 90.000000
_cell_volume 2920.293888
_symmetry_space_group_name_H-M "A M M 2"
_symmetry_group_IT_number 38
_symmetry_cell_setting 'orthorhombic'
loop_
_space_group_symop_operation_xyz
x,y,z
-x,-y,z
-x,y,z
x,-y,z
x,1/2+y,1/2+z
-x,1/2-y,1/2+z
-x,1/2+y,1/2+z
x,1/2-y,1/2+z
loop_
_atom_site_type_symbol
_atom_site_label
_atom_site_fract_x
_atom_site_fract_y
_atom_site_fract_z
Si Si1 0.714774 0.693751 0.006170
Si Si2 0.288483 0.591226 0.956627
Si Si3 0.789688 0.620854 0.558699
Si Si4 0.208623 0.051656 0.233888
Si Si5 0.796069 0.952046 0.901221
Si Si6 0.290364 0.208074 0.944090
Si Si7 0.296405 0.176733 0.726995
Si Si8 0.298403 0.430283 0.176890
O O1 0.500000 0.692475 0.006688
O O2 0.777791 0.698530 0.123915
O O3 0.769201 0.644442 0.961796
O O4 0.771742 0.740002 0.952090
O O5 0.500000 0.591562 0.963875
O O6 0.239309 0.567030 0.851177
O O7 0.226121 0.565935 0.061250
O O8 0.725869 0.591381 0.656624
O O9 0.723747 0.591926 0.459311
O O10 0.743862 0.673328 0.537751
O O11 0.000000 0.620823 0.562799
O O12 0.000000 0.049330 0.217580
O O13 0.276804 0.000000 0.216394
O O14 0.786435 0.950439 0.778346
O O15 0.000000 0.952858 0.929316
O O16 0.716709 0.000000 0.936654
O O17 0.500000 0.210150 0.938631
O O18 0.218609 0.187105 0.837752
O O19 0.500000 0.190847 0.731694
O O20 0.294561 0.123467 0.701226
O O21 0.500000 0.445591 0.176252
#
# Coordination Sequence:
#
# PCOD9356243 Si02
#       8
#     8   8   8   8   8   8   8   8
#     4   8  16  30  50  79 110 142 177 218 270 324
#     4   9  19  36  57  81 110 142 180 225 272 322
#     4  10  21  37  54  74 105 141 179 225 277 325
#     4  10  22  40  59  77 105 150 193 230 280 338
#     4  10  20  33  51  75 101 131 171 216 260 315
#     4  10  18  30  54  81 104 138 184 224 264 321
#     4   8  14  27  46  70 103 134 162 204 257 310
#     4   9  17  32  52  74 104 136 165 208 267 319
#
# _framework density 21.915603000000001
#
# number of rings (size 3 to 8) (size 9 to 14) (size 15 to 20)
#    0.000    2.750    1.250    1.875    0.000    4.500 
#    0.000    5.625    0.000    3.750    0.000    0.000 
#    0.000    0.000    0.000    0.000    0.000    0.000 
#
# Total GULP energy -178323.444718 kJ/mol
# GULP energy per Si atom -5572.607647 kJ/mol
# Density = 2.186572 g / cm^3
# Si number density = 21.915603 Si / 1000 Ang^3
#
#
#
# Elastic Constant Matrix: (Units=GPa)
#
#
# Indices 1 2 3 4 5 6 
#
# 1 37.8207 0.9779 -5.6999 0.0000 0.0000 0.0000
# 2 0.9779 66.8242 16.1154 0.0000 0.0000 0.0000
# 3 -5.6999 16.1154 94.4909 0.0000 0.0000 0.0000
# 4 0.0000 0.0000 0.0000 25.3178 0.0000 0.0000
# 5 0.0000 0.0000 0.0000 0.0000 16.6627 0.0000
# 6 0.0000 0.0000 0.0000 0.0000 0.0000 10.6760
#
#
#
# Elastic Compliance Matrix: (Units=1/GPa)
#
#
# Indices 1 2 3 4 5 6 
#
# 1 0.026725 -0.000813 0.001751 0.000000 0.000000 0.000000
# 2 -0.000813 0.015631 -0.002715 0.000000 0.000000 0.000000
# 3 0.001751 -0.002715 0.011152 0.000000 0.000000 0.000000
# 4 0.000000 0.000000 0.000000 0.039498 0.000000 0.000000
# 5 0.000000 0.000000 0.000000 0.000000 0.060014 0.000000
# 6 0.000000 0.000000 0.000000 0.000000 0.000000 0.093668
#
#
# Mechanical properties :
#
#
# Convention : Reuss Voigt Hill
#
# Bulk Modulus (GPa) = 20.01862 24.65806 22.33834
# Shear Modulus (GPa) = 18.73394 23.04745 20.89070
#
# Velocity S-wave (km/s) = 2.92691 3.24643 3.09080
# Velocity P-wave (km/s) = 4.53615 5.03271 4.79087
#
# Compressibility (1/GPa) = 0.04995349
#
# Stress axis : x y z
#
# Youngs Moduli (GPa) = 37.41752 63.97432 89.67255
#
# Poissons Ratio (x) = 0.05203 -0.15700
# Poissons Ratio (y) = 0.03043 0.24346
# Poissons Ratio (z) = -0.06551 0.17369
#
# Static dielectric constant tensor:
#      x y z
#    x 1.831890 0.000000 0.000000 
#    y 0.000000 1.833090 0.000000 
#    z 0.000000 0.000000 1.821210 
# 
# From -- ./inp_files/8611.got.cif
#   From: 2010.05.17/outbox.cif.g08.bks.cpg/sg38_5_cif.got.tgz:8611.got - 2010.06.03 18:07:57.
