data_PCOD9356802
_publ_section_title
;
Structure prediction by ZEFSAII (Michael W. Deem and Ramdas Pophale) SiO2 
 PCOD9356802
Probable space group: A M M 2
;
_chemical_formula_sum "Si O2"
_cell_formula_units_Z 40
_cell_length_a 15.934365
_cell_length_b 7.531348
_cell_length_c 14.599371
_cell_angle_alpha 90.000000
_cell_angle_beta 90.000000
_cell_angle_gamma 90.000000
_cell_volume 1752.030336
_symmetry_space_group_name_H-M "A M M 2"
_symmetry_group_IT_number 38
_symmetry_cell_setting 'orthorhombic'
loop_
_space_group_symop_operation_xyz
x,y,z
-x,-y,z
-x,y,z
x,-y,z
x,1/2+y,1/2+z
-x,1/2-y,1/2+z
-x,1/2+y,1/2+z
x,1/2-y,1/2+z
loop_
_atom_site_type_symbol
_atom_site_label
_atom_site_fract_x
_atom_site_fract_y
_atom_site_fract_z
Si Si1 0.595620 0.782425 0.867830
Si Si2 0.268729 0.705392 0.229858
Si Si3 0.909650 0.212199 0.503227
Si Si4 0.274317 0.206597 0.019651
Si Si5 0.089210 0.784857 0.722071
O O1 0.500000 0.720318 0.869659
O O2 0.649138 0.722835 0.779434
O O3 0.592259 0.000000 0.868628
O O4 0.652589 0.726122 0.953784
O O5 0.264035 0.500000 0.258814
O O6 0.274309 0.708210 0.119995
O O7 0.178205 0.786369 0.256355
O O8 0.818135 0.277875 0.473761
O O9 0.910813 0.249222 0.612711
O O10 0.000000 0.280844 0.467379
O O11 0.909329 0.000000 0.492005
O O12 0.289423 0.000000 0.036028
O O13 0.000000 0.717435 0.758715
O O14 0.089308 0.000000 0.732200
#
# Coordination Sequence:
#
# PCOD9356802 Si02
#       5
#     8   8   8   8   8
#     4   9  19  35  52  71  99 135 173 213 258 307
#     4   9  17  32  53  72  93 130 175 207 240 300
#     4   8  14  27  48  72 100 136 171 199 236 295
#     4  10  19  31  50  77 106 132 162 209 263 303
#     4   7  10  19  39  66  90 113 148 192 231 271
#
# _framework density 22.830656000000001
#
# number of rings (size 3 to 8) (size 9 to 14) (size 15 to 20)
#    0.000    3.400    0.000    3.000    0.000    1.200 
#    0.000    3.000    0.000    7.800    0.000    0.000 
#    0.000    0.000    0.000    0.000    0.000    0.000 
#
# Total GULP energy -111493.714091 kJ/mol
# GULP energy per Si atom -5574.685705 kJ/mol
# Density = 2.277869 g / cm^3
# Si number density = 22.830656 Si / 1000 Ang^3
#
#
#
# Elastic Constant Matrix: (Units=GPa)
#
#
# Indices 1 2 3 4 5 6 
#
# 1 289.0722 6.4575 71.6414 0.0000 0.0000 0.0000
# 2 6.4575 52.4305 -8.1258 0.0000 0.0000 0.0000
# 3 71.6414 -8.1258 83.3097 0.0000 0.0000 0.0000
# 4 0.0000 0.0000 0.0000 4.4277 0.0000 0.0000
# 5 0.0000 0.0000 0.0000 0.0000 45.1473 0.0000
# 6 0.0000 0.0000 0.0000 0.0000 0.0000 11.3260
#
#
#
# Elastic Compliance Matrix: (Units=1/GPa)
#
#
# Indices 1 2 3 4 5 6 
#
# 1 0.004465 -0.001163 -0.003953 0.000000 0.000000 0.000000
# 2 -0.001163 0.019668 0.002918 0.000000 0.000000 0.000000
# 3 -0.003953 0.002918 0.015687 0.000000 0.000000 0.000000
# 4 0.000000 0.000000 0.000000 0.225848 0.000000 0.000000
# 5 0.000000 0.000000 0.000000 0.000000 0.022150 0.000000
# 6 0.000000 0.000000 0.000000 0.000000 0.000000 0.088292
#
#
# Mechanical properties :
#
#
# Convention : Reuss Voigt Hill
#
# Bulk Modulus (GPa) = 28.22802 62.75096 45.48949
# Shear Modulus (GPa) = 12.74488 35.83616 24.29052
#
# Velocity S-wave (km/s) = 2.36526 3.96618 3.26535
# Velocity P-wave (km/s) = 4.45536 6.96557 5.84677
#
# Compressibility (1/GPa) = 0.03542579
#
# Stress axis : x y z
#
# Youngs Moduli (GPa) = 223.96397 50.84320 63.74542
#
# Poissons Ratio (x) = 0.05911 0.25199
# Poissons Ratio (y) = 0.26037 -0.18602
# Poissons Ratio (z) = 0.88534 -0.14837
#
# Static dielectric constant tensor:
#      x y z
#    x 1.888970 0.000000 0.000000 
#    y 0.000000 1.862160 0.000000 
#    z 0.000000 0.000000 1.869630 
# 
# From -- ./inp_files/14270.got.cif
#   From: 2010.05.17/outbox.cif.g08.bks.cpg/sg38_8_cif.got.tgz:14270.got - 2010.06.03 18:07:57.
