data_PCOD9356595
_publ_section_title
;
Structure prediction by ZEFSAII (Michael W. Deem and Ramdas Pophale) SiO2 
 PCOD9356595
Probable space group: A M M 2
;
_chemical_formula_sum "Si O2"
_cell_formula_units_Z 36
_cell_length_a 7.515347
_cell_length_b 13.681862
_cell_length_c 23.142573
_cell_angle_alpha 90.000000
_cell_angle_beta 90.000000
_cell_angle_gamma 90.000000
_cell_volume 2379.610550
_symmetry_space_group_name_H-M "A M M 2"
_symmetry_group_IT_number 38
_symmetry_cell_setting 'orthorhombic'
loop_
_space_group_symop_operation_xyz
x,y,z
-x,-y,z
-x,y,z
x,-y,z
x,1/2+y,1/2+z
-x,1/2-y,1/2+z
-x,1/2+y,1/2+z
x,1/2-y,1/2+z
loop_
_atom_site_type_symbol
_atom_site_label
_atom_site_fract_x
_atom_site_fract_y
_atom_site_fract_z
Si Si1 0.290152 0.888311 0.947220
Si Si2 0.708769 0.615643 0.753780
Si Si3 0.000000 0.694809 0.531605
Si Si4 0.000000 0.611302 0.961560
Si Si5 0.000000 0.116966 0.158869
Si Si6 0.288837 0.197422 0.377578
O O1 0.500000 0.882747 0.961248
O O2 0.170282 0.855217 0.000961
O O3 0.256182 0.809404 0.896767
O O4 0.248462 0.000000 0.931333
O O5 0.500000 0.631628 0.742021
O O6 0.733867 0.500000 0.766423
O O7 0.829872 0.639079 0.698996
O O8 0.758900 0.673952 0.811620
O O9 0.000000 0.807860 0.512030
O O10 0.000000 0.674521 0.599178
O O11 0.170384 0.633348 0.920873
O O12 0.000000 0.500000 0.981349
O O13 0.000000 0.000000 0.146500
O O14 0.500000 0.177029 0.384128
#
# Coordination Sequence:
#
# PCOD9356595 Si02
#       6
#     8   8   4   4   4   8
#     4   9  17  29  46  68  92 117 145 178 217 260
#     4   9  17  28  43  64  88 113 142 177 216 258
#     4  10  20  32  45  63  89 118 149 183 216 253
#     4  10  19  30  47  68  88 114 145 178 220 266
#     4  10  19  30  44  61  83 114 148 179 214 255
#     4   9  17  29  46  69  94 116 140 176 221 265
#
# _framework density 15.128526000000001
#
# number of rings (size 3 to 8) (size 9 to 14) (size 15 to 20)
#    0.000    2.667    0.000    2.333    0.000    3.111 
#    0.000    2.222    0.000    1.333    0.000    0.000 
#    0.000    0.000    0.000    0.000    0.000    0.000 
#
# Total GULP energy -100324.714114 kJ/mol
# GULP energy per Si atom -5573.595229 kJ/mol
# Density = 1.509409 g / cm^3
# Si number density = 15.128526 Si / 1000 Ang^3
#
#
#
# Elastic Constant Matrix: (Units=GPa)
#
#
# Indices 1 2 3 4 5 6 
#
# 1 60.1253 43.9958 57.3949 0.0000 0.0000 0.0000
# 2 43.9958 103.1925 66.0446 0.0000 0.0000 0.0000
# 3 57.3949 66.0446 145.6199 0.0000 0.0000 0.0000
# 4 0.0000 0.0000 0.0000 15.9597 0.0000 0.0000
# 5 0.0000 0.0000 0.0000 0.0000 6.7324 0.0000
# 6 0.0000 0.0000 0.0000 0.0000 0.0000 13.0100
#
#
#
# Elastic Compliance Matrix: (Units=1/GPa)
#
#
# Indices 1 2 3 4 5 6 
#
# 1 0.030214 -0.007411 -0.008547 0.000000 0.000000 0.000000
# 2 -0.007411 0.015472 -0.004096 0.000000 0.000000 0.000000
# 3 -0.008547 -0.004096 0.012094 0.000000 0.000000 0.000000
# 4 0.000000 0.000000 0.000000 0.062658 0.000000 0.000000
# 5 0.000000 0.000000 0.000000 0.000000 0.148535 0.000000
# 6 0.000000 0.000000 0.000000 0.000000 0.000000 0.076864
#
#
# Mechanical properties :
#
#
# Convention : Reuss Voigt Hill
#
# Bulk Modulus (GPa) = 56.59143 71.53427 64.06285
# Shear Modulus (GPa) = 12.76044 16.57393 14.66719
#
# Velocity S-wave (km/s) = 2.90740 3.31349 3.11707
# Velocity P-wave (km/s) = 6.98276 7.87566 7.44261
#
# Compressibility (1/GPa) = 0.01767052
#
# Stress axis : x y z
#
# Youngs Moduli (GPa) = 33.09695 64.63304 82.68706
#
# Poissons Ratio (x) = 0.47902 0.70676
# Poissons Ratio (y) = 0.24529 0.33869
# Poissons Ratio (z) = 0.28289 0.26474
#
# Static dielectric constant tensor:
#      x y z
#    x 1.530740 0.000000 0.000000 
#    y 0.000000 1.500670 0.000000 
#    z 0.000000 0.000000 1.462730 
# 
# From -- ./inp_files/19394.got.cif
#   From: 2010.05.17/outbox.cif.g08.bks.cpg/sg38_10_cif.got.tgz:19394.got - 2010.06.03 18:07:57.
