data_PCOD9356727
_publ_section_title
;
Structure prediction by ZEFSAII (Michael W. Deem and Ramdas Pophale) SiO2 
 PCOD9356727
Probable space group: A M M 2
;
_chemical_formula_sum "Si O2"
_cell_formula_units_Z 64
_cell_length_a 20.297811
_cell_length_b 7.524789
_cell_length_c 21.045489
_cell_angle_alpha 90.000000
_cell_angle_beta 90.000000
_cell_angle_gamma 90.000000
_cell_volume 3214.419485
_symmetry_space_group_name_H-M "A M M 2"
_symmetry_group_IT_number 38
_symmetry_cell_setting 'orthorhombic'
loop_
_space_group_symop_operation_xyz
x,y,z
-x,-y,z
-x,y,z
x,-y,z
x,1/2+y,1/2+z
-x,1/2-y,1/2+z
-x,1/2+y,1/2+z
x,1/2-y,1/2+z
loop_
_atom_site_type_symbol
_atom_site_label
_atom_site_fract_x
_atom_site_fract_y
_atom_site_fract_z
Si Si1 0.285343 0.289339 0.512650
Si Si2 0.924259 0.718276 0.701390
Si Si3 0.429122 0.287397 0.002258
Si Si4 0.923518 0.284366 0.960995
Si Si5 0.428663 0.205749 0.853540
Si Si6 0.142784 0.788474 0.330915
Si Si7 0.839209 0.293725 0.583977
Si Si8 0.287316 0.285795 0.366965
O O1 0.272986 0.500000 0.507639
O O2 0.360640 0.264605 0.534260
O O3 0.229871 0.214739 0.559380
O O4 0.279807 0.218898 0.440060
O O5 0.924381 0.500000 0.700589
O O6 0.895118 0.777641 0.768924
O O7 0.877444 0.781889 0.644406
O O8 0.000000 0.773155 0.692907
O O9 0.500000 0.234188 0.030809
O O10 0.428776 0.500000 0.996175
O O11 0.427438 0.210586 0.930723
O O12 0.920182 0.500000 0.962883
O O13 0.886792 0.220394 0.897339
O O14 0.000000 0.233638 0.959639
O O15 0.887217 0.215683 0.023369
O O16 0.500000 0.285231 0.834871
O O17 0.356502 0.281737 0.837659
O O18 0.429764 0.000000 0.833055
O O19 0.220831 0.756297 0.329963
O O20 0.132322 0.000000 0.331987
O O21 0.826452 0.500000 0.600056
O O22 0.293371 0.500000 0.370272
#
# Coordination Sequence:
#
# PCOD9356727 Si02
#       8
#     8   8   8   8   8   8   8   8
#     4   9  17  28  43  65  93 122 153 191 233 278
#     4   9  18  33  52  71  91 119 158 200 237 278
#     4   9  16  24  37  61  92 124 156 188 224 270
#     4  10  20  32  47  69  96 123 151 187 235 290
#     4   8  14  25  40  59  88 125 157 187 227 271
#     4  10  19  31  48  69  93 124 157 190 232 283
#     4  10  19  33  52  72  92 119 158 200 238 277
#     4   9  16  27  43  66  95 122 152 193 231 272
#
# _framework density 19.910283
#
# number of rings (size 3 to 8) (size 9 to 14) (size 15 to 20)
#    0.000    2.750    1.250    1.875    0.000    5.500 
#    0.000    0.625    0.000    1.875    0.000    0.875 
#    0.000    5.000    0.000    0.000    0.000    0.000 
#
# Total GULP energy -178350.769271 kJ/mol
# GULP energy per Si atom -5573.461540 kJ/mol
# Density = 1.986497 g / cm^3
# Si number density = 19.910283 Si / 1000 Ang^3
#
#
#
# Elastic Constant Matrix: (Units=GPa)
#
#
# Indices 1 2 3 4 5 6 
#
# 1 133.6532 -14.7627 17.3259 0.0000 0.0000 0.0000
# 2 -14.7627 48.6603 -6.0696 0.0000 0.0000 0.0000
# 3 17.3259 -6.0696 57.7034 0.0000 0.0000 0.0000
# 4 0.0000 0.0000 0.0000 3.0216 0.0000 0.0000
# 5 0.0000 0.0000 0.0000 0.0000 20.8763 0.0000
# 6 0.0000 0.0000 0.0000 0.0000 0.0000 20.1401
#
#
#
# Elastic Compliance Matrix: (Units=1/GPa)
#
#
# Indices 1 2 3 4 5 6 
#
# 1 0.008002 0.002156 -0.002176 0.000000 0.000000 0.000000
# 2 0.002156 0.021405 0.001604 0.000000 0.000000 0.000000
# 3 -0.002176 0.001604 0.018152 0.000000 0.000000 0.000000
# 4 0.000000 0.000000 0.000000 0.330954 0.000000 0.000000
# 5 0.000000 0.000000 0.000000 0.000000 0.047901 0.000000
# 6 0.000000 0.000000 0.000000 0.000000 0.000000 0.049652
#
#
# Mechanical properties :
#
#
# Convention : Reuss Voigt Hill
#
# Bulk Modulus (GPa) = 19.71294 25.88937 22.80115
# Shear Modulus (GPa) = 10.20809 25.04248 17.62529
#
# Velocity S-wave (km/s) = 2.26675 3.55035 2.97852
# Velocity P-wave (km/s) = 4.09552 5.46240 4.82758
#
# Compressibility (1/GPa) = 0.05072811
#
# Stress axis : x y z
#
# Youngs Moduli (GPa) = 124.96407 46.71831 55.09016
#
# Poissons Ratio (x) = -0.10074 0.11987
# Poissons Ratio (y) = -0.26946 -0.08837
# Poissons Ratio (z) = 0.27191 -0.07494
#
# Static dielectric constant tensor:
#      x y z
#    x 1.760170 0.000000 0.000000 
#    y 0.000000 2.052950 0.000000 
#    z 0.000000 0.000000 1.659720 
# 
# From -- ./inp_files/21543.got.cif
#   From: 2010.05.17/outbox.cif.g08.bks.cpg/sg38_11_cif.got.tgz:21543.got - 2010.06.03 18:07:57.
