data_PCOD9356836
_publ_section_title
;
Structure prediction by ZEFSAII (Michael W. Deem and Ramdas Pophale) SiO2 
 PCOD9356836
Probable space group: A M M 2
;
_chemical_formula_sum "Si O2"
_cell_formula_units_Z 64
_cell_length_a 7.634522
_cell_length_b 14.275946
_cell_length_c 25.361407
_cell_angle_alpha 90.000000
_cell_angle_beta 90.000000
_cell_angle_gamma 90.000000
_cell_volume 2764.140353
_symmetry_space_group_name_H-M "A M M 2"
_symmetry_group_IT_number 38
_symmetry_cell_setting 'orthorhombic'
loop_
_space_group_symop_operation_xyz
x,y,z
-x,-y,z
-x,y,z
x,-y,z
x,1/2+y,1/2+z
-x,1/2-y,1/2+z
-x,1/2+y,1/2+z
x,1/2-y,1/2+z
loop_
_atom_site_type_symbol
_atom_site_label
_atom_site_fract_x
_atom_site_fract_y
_atom_site_fract_z
Si Si1 0.704300 0.310132 0.794990
Si Si2 0.305684 0.611233 0.404794
Si Si3 0.802181 0.604859 0.288178
Si Si4 0.715548 0.104119 0.189401
Si Si5 0.695780 0.247545 0.105165
Si Si6 0.203718 0.890574 0.019636
Si Si7 0.713294 0.390619 0.022359
Si Si8 0.286927 0.609684 0.904298
O O1 0.500000 0.332911 0.799426
O O2 0.716732 0.203460 0.773473
O O3 0.774685 0.376910 0.749149
O O4 0.775380 0.330100 0.853926
O O5 0.500000 0.651885 0.395150
O O6 0.323662 0.500000 0.412402
O O7 0.197320 0.616670 0.351670
O O8 0.231157 0.644485 0.459915
O O9 0.725227 0.500000 0.277733
O O10 0.000000 0.604150 0.268120
O O11 0.500000 0.106139 0.187694
O O12 0.778130 0.190198 0.153260
O O13 0.768231 0.000000 0.171359
O O14 0.500000 0.277538 0.121965
O O15 0.685747 0.168873 0.059836
O O16 0.780961 0.332008 0.072300
O O17 0.000000 0.881086 0.033173
O O18 0.250032 0.000000 0.022725
O O19 0.500000 0.379672 0.022754
O O20 0.751863 0.500000 0.028325
O O21 0.773692 0.362925 0.963288
O O22 0.500000 0.614076 0.906591
O O23 0.242046 0.500000 0.895822
#
# Coordination Sequence:
#
# PCOD9356836 Si02
#       8
#     8   8   8   8   8   8   8   8
#     4  10  19  31  53  79 101 134 182 226 267 318
#     4   9  17  30  49  72  99 134 176 217 256 307
#     4  10  21  36  51  71 106 146 177 213 267 323
#     4   9  18  33  52  78 111 140 173 225 279 323
#     4  10  19  31  52  77 103 139 182 222 268 323
#     4  10  20  32  46  70 106 143 177 216 267 323
#     4   8  15  28  46  72 104 131 165 218 270 318
#     4   8  14  26  46  73 102 130 165 215 271 322
#
# _framework density 23.153673000000001
#
# number of rings (size 3 to 8) (size 9 to 14) (size 15 to 20)
#    0.000    2.750    0.000    2.625    1.750    5.000 
#    0.000    1.250    0.000    4.875    0.000    1.750 
#    0.000    0.000    0.000    0.000    0.000    0.000 
#
# Total GULP energy -178391.819024 kJ/mol
# GULP energy per Si atom -5574.744345 kJ/mol
# Density = 2.310097 g / cm^3
# Si number density = 23.153673 Si / 1000 Ang^3
#
#
#
# Elastic Constant Matrix: (Units=GPa)
#
#
# Indices 1 2 3 4 5 6 
#
# 1 41.5752 -2.7316 -2.7562 0.0000 0.0000 0.0000
# 2 -2.7316 133.8428 48.1749 0.0000 0.0000 0.0000
# 3 -2.7562 48.1749 93.0494 0.0000 0.0000 0.0000
# 4 0.0000 0.0000 0.0000 109.8212 0.0000 0.0000
# 5 0.0000 0.0000 0.0000 0.0000 -17.7831 0.0000
# 6 0.0000 0.0000 0.0000 0.0000 0.0000 -8.7108
#
#
#
# Elastic Compliance Matrix: (Units=1/GPa)
#
#
# Indices 1 2 3 4 5 6 
#
# 1 0.024109 0.000289 0.000565 0.000000 0.000000 0.000000
# 2 0.000289 0.009186 -0.004747 0.000000 0.000000 0.000000
# 3 0.000565 -0.004747 0.013222 0.000000 0.000000 0.000000
# 4 0.000000 0.000000 0.000000 0.009106 0.000000 0.000000
# 5 0.000000 0.000000 0.000000 0.000000 -0.056233 0.000000
# 6 0.000000 0.000000 0.000000 0.000000 0.000000 -0.114801
#
#
# Mechanical properties :
#
#
# Convention : Reuss Voigt Hill
#
# Bulk Modulus (GPa) = 25.82049 39.31573 32.56811
# Shear Modulus (GPa) = -52.79075 31.71750 -10.53662
#
# Velocity S-wave (km/s) = -4.78013 3.70519 -2.13556
# Velocity P-wave (km/s) = 4.39206 5.94321 2.83122
#
# Compressibility (1/GPa) = 0.03872894
#
# Stress axis : x y z
#
# Youngs Moduli (GPa) = 41.47796 108.86000 75.63384
#
# Poissons Ratio (x) = -0.03144 -0.04270
# Poissons Ratio (y) = -0.01198 0.35906
# Poissons Ratio (z) = -0.02342 0.51680
#
# Static dielectric constant tensor:
#      x y z
#    x 1.904330 0.000000 0.000000 
#    y 0.000000 1.740920 0.000000 
#    z 0.000000 0.000000 1.874740 
# 
# From -- ./inp_files/22123.got.cif
#   From: 2010.05.17/outbox.cif.g08.bks.cpg/sg38_12_cif.got.tgz:22123.got - 2010.06.03 18:07:57.
