data_PCOD9356281
_publ_section_title
;
Structure prediction by ZEFSAII (Michael W. Deem and Ramdas Pophale) SiO2 
 PCOD9356281
Probable space group: A M M 2
;
_chemical_formula_sum "Si O2"
_cell_formula_units_Z 64
_cell_length_a 8.652582
_cell_length_b 28.364659
_cell_length_c 15.142710
_cell_angle_alpha 90.000000
_cell_angle_beta 90.000000
_cell_angle_gamma 90.000000
_cell_volume 3716.438032
_symmetry_space_group_name_H-M "A M M 2"
_symmetry_group_IT_number 38
_symmetry_cell_setting 'orthorhombic'
loop_
_space_group_symop_operation_xyz
x,y,z
-x,-y,z
-x,y,z
x,-y,z
x,1/2+y,1/2+z
-x,1/2-y,1/2+z
-x,1/2+y,1/2+z
x,1/2-y,1/2+z
loop_
_atom_site_type_symbol
_atom_site_label
_atom_site_fract_x
_atom_site_fract_y
_atom_site_fract_z
Si Si1 0.312767 0.864410 0.399490
Si Si2 0.686678 0.721405 0.570449
Si Si3 0.313610 0.445707 0.766321
Si Si4 0.183475 0.325852 0.073435
Si Si5 0.313265 0.633579 0.449499
Si Si6 0.184760 0.554572 0.575367
Si Si7 0.313087 0.327157 0.266180
Si Si8 0.312857 0.219133 0.271939
O O1 0.500000 0.863316 0.404377
O O2 0.266812 0.910615 0.344334
O O3 0.246208 0.859649 0.496970
O O4 0.258953 0.819129 0.342144
O O5 0.500000 0.725866 0.566793
O O6 0.755057 0.772945 0.553152
O O7 0.733571 0.680861 0.502711
O O8 0.730032 0.707469 0.670864
O O9 0.500000 0.444237 0.760645
O O10 0.266222 0.500000 0.781539
O O11 0.248635 0.430440 0.671299
O O12 0.245681 0.338744 0.170611
O O13 0.000000 0.325491 0.074141
O O14 0.500000 0.631516 0.452876
O O15 0.246983 0.588754 0.499897
O O16 0.266817 0.639888 0.347578
O O17 0.233379 0.500000 0.561931
O O18 0.000000 0.556200 0.577265
O O19 0.500000 0.327333 0.259686
O O20 0.265953 0.273116 0.288625
O O21 0.500000 0.218231 0.275505
#
# Coordination Sequence:
#
# PCOD9356281 Si02
#       8
#     8   8   8   8   8   8   8   8
#     4  10  18  31  52  73  96 129 167 207 250 292
#     4   9  17  32  51  72 100 131 164 202 247 295
#     4   9  18  33  54  79 103 128 164 208 248 290
#     4  11  22  33  46  69 101 135 169 204 245 296
#     4  10  19  32  55  79  96 125 172 216 248 286
#     4  10  21  35  51  75 109 141 161 188 242 304
#     4   9  18  33  50  69  95 128 168 211 250 287
#     4   8  14  26  47  71  94 124 159 192 232 289
#
# _framework density 17.220790000000001
#
# number of rings (size 3 to 8) (size 9 to 14) (size 15 to 20)
#    0.000    2.500    0.000    3.750    0.000    6.250 
#    0.000    5.000    0.000    0.750    0.000    1.750 
#    0.000    0.000    0.000    0.000    0.000    0.000 
#
# Total GULP energy -178535.003699 kJ/mol
# GULP energy per Si atom -5579.218866 kJ/mol
# Density = 1.718159 g / cm^3
# Si number density = 17.220790 Si / 1000 Ang^3
#
#
#
# Elastic Constant Matrix: (Units=GPa)
#
#
# Indices 1 2 3 4 5 6 
#
# 1 22.1648 25.6715 34.1857 0.0000 0.0000 0.0000
# 2 25.6715 78.7589 87.2486 0.0000 0.0000 0.0000
# 3 34.1857 87.2486 146.6884 0.0000 0.0000 0.0000
# 4 0.0000 0.0000 0.0000 30.7259 0.0000 0.0000
# 5 0.0000 0.0000 0.0000 0.0000 0.4814 0.0000
# 6 0.0000 0.0000 0.0000 0.0000 0.0000 12.6877
#
#
#
# Elastic Compliance Matrix: (Units=1/GPa)
#
#
# Indices 1 2 3 4 5 6 
#
# 1 0.076121 -0.015126 -0.008743 0.000000 0.000000 0.000000
# 2 -0.015126 0.040230 -0.020403 0.000000 0.000000 0.000000
# 3 -0.008743 -0.020403 0.020990 0.000000 0.000000 0.000000
# 4 0.000000 0.000000 0.000000 0.032546 0.000000 0.000000
# 5 0.000000 0.000000 0.000000 0.000000 2.077216 0.000000
# 6 0.000000 0.000000 0.000000 0.000000 0.000000 0.078817
#
#
# Mechanical properties :
#
#
# Convention : Reuss Voigt Hill
#
# Bulk Modulus (GPa) = 20.49339 60.20264 40.34801
# Shear Modulus (GPa) = 2.05700 15.47943 8.76821
#
# Velocity S-wave (km/s) = 1.09411 3.00139 2.25892
# Velocity P-wave (km/s) = 3.67727 6.85903 5.50312
#
# Compressibility (1/GPa) = 0.04879623
#
# Stress axis : x y z
#
# Youngs Moduli (GPa) = 13.13706 24.85731 47.64114
#
# Poissons Ratio (x) = 0.37599 0.41653
# Poissons Ratio (y) = 0.19871 0.97202
# Poissons Ratio (z) = 0.11486 0.50716
#
# Static dielectric constant tensor:
#      x y z
#    x 1.579390 0.000000 0.000000 
#    y 0.000000 1.578290 0.000000 
#    z 0.000000 0.000000 1.582590 
# 
# From -- ./inp_files/12814.got.cif
#   From: 2010.05.17/outbox.cif.g08.bks.cpg/sg38_7_cif.got.tgz:12814.got - 2010.06.03 18:07:57.
