data_PCOD9356718
_publ_section_title
;
Structure prediction by ZEFSAII (Michael W. Deem and Ramdas Pophale) SiO2 
 PCOD9356718
Probable space group: A M M 2
;
_chemical_formula_sum "Si O2"
_cell_formula_units_Z 64
_cell_length_a 8.711450
_cell_length_b 14.255761
_cell_length_c 30.504998
_cell_angle_alpha 90.000000
_cell_angle_beta 90.000000
_cell_angle_gamma 90.000000
_cell_volume 3788.365343
_symmetry_space_group_name_H-M "A M M 2"
_symmetry_group_IT_number 38
_symmetry_cell_setting 'orthorhombic'
loop_
_space_group_symop_operation_xyz
x,y,z
-x,-y,z
-x,y,z
x,-y,z
x,1/2+y,1/2+z
-x,1/2-y,1/2+z
-x,1/2+y,1/2+z
x,1/2-y,1/2+z
loop_
_atom_site_type_symbol
_atom_site_label
_atom_site_fract_x
_atom_site_fract_y
_atom_site_fract_z
Si Si1 0.314691 0.890524 0.701640
Si Si2 0.823620 0.888012 0.873767
Si Si3 0.319003 0.792772 0.793908
Si Si4 0.673355 0.894644 0.194501
Si Si5 0.819471 0.101111 0.288553
Si Si6 0.177823 0.613341 0.470514
Si Si7 0.317927 0.890413 0.062946
Si Si8 0.823500 0.246861 0.135137
O O1 0.500000 0.888986 0.700986
O O2 0.267629 0.834879 0.746481
O O3 0.254528 0.837248 0.658154
O O4 0.266157 0.000000 0.703674
O O5 0.717498 0.863168 0.833115
O O6 0.772404 0.853323 0.922112
O O7 0.000000 0.855673 0.866334
O O8 0.829496 0.000000 0.876471
O O9 0.500000 0.774665 0.790298
O O10 0.231486 0.698564 0.808893
O O11 0.500000 0.856880 0.188054
O O12 0.714516 0.900373 0.245205
O O13 0.800143 0.831151 0.172705
O O14 0.676122 0.000000 0.176279
O O15 0.000000 0.105648 0.277247
O O16 0.795603 0.000000 0.311428
O O17 0.179618 0.500000 0.469049
O O18 0.276435 0.636973 0.513053
O O19 0.000000 0.641699 0.477081
O O20 0.500000 0.892644 0.069455
O O21 0.250407 0.809776 0.094460
O O22 0.262250 0.000000 0.070145
O O23 0.000000 0.267092 0.125959
#
# Coordination Sequence:
#
# PCOD9356718 Si02
#       8
#     8   8   8   8   8   8   8   8
#     4  10  22  39  54  69  96 134 173 215 259 298
#     4   9  18  32  51  75 105 140 174 211 254 299
#     4  11  21  33  52  76 102 135 174 212 253 301
#     4  10  19  31  47  67  94 127 162 200 242 289
#     4  10  20  33  49  70  96 128 166 206 250 298
#     4   8  15  30  50  73 103 136 168 205 252 303
#     4  10  20  33  51  76 106 138 169 206 253 304
#     4  12  23  33  49  72  98 132 171 208 248 298
#
# _framework density 16.893830000000001
#
# number of rings (size 3 to 8) (size 9 to 14) (size 15 to 20)
#    0.000    2.000    1.250    4.125    0.000    5.750 
#    0.000    1.250    0.000    0.000    0.000    0.875 
#    0.000    1.000    0.000    0.000    0.000    0.000 
#
# Total GULP energy -178140.567358 kJ/mol
# GULP energy per Si atom -5566.892730 kJ/mol
# Density = 1.685538 g / cm^3
# Si number density = 16.893830 Si / 1000 Ang^3
#
#
#
# Elastic Constant Matrix: (Units=GPa)
#
#
# Indices 1 2 3 4 5 6 
#
# 1 49.2845 24.5792 24.7436 0.0000 0.0000 0.0000
# 2 24.5792 78.5870 26.9930 0.0000 0.0000 0.0000
# 3 24.7436 26.9930 80.2068 0.0000 0.0000 0.0000
# 4 0.0000 0.0000 0.0000 18.1280 0.0000 0.0000
# 5 0.0000 0.0000 0.0000 0.0000 21.7824 0.0000
# 6 0.0000 0.0000 0.0000 0.0000 0.0000 21.9671
#
#
#
# Elastic Compliance Matrix: (Units=1/GPa)
#
#
# Indices 1 2 3 4 5 6 
#
# 1 0.026419 -0.006178 -0.006071 0.000000 0.000000 0.000000
# 2 -0.006178 0.015832 -0.003422 0.000000 0.000000 0.000000
# 3 -0.006071 -0.003422 0.015493 0.000000 0.000000 0.000000
# 4 0.000000 0.000000 0.000000 0.055163 0.000000 0.000000
# 5 0.000000 0.000000 0.000000 0.000000 0.045909 0.000000
# 6 0.000000 0.000000 0.000000 0.000000 0.000000 0.045523
#
#
# Mechanical properties :
#
#
# Convention : Reuss Voigt Hill
#
# Bulk Modulus (GPa) = 37.87659 40.07887 38.97773
# Shear Modulus (GPa) = 20.45139 21.15968 20.80553
#
# Velocity S-wave (km/s) = 3.48312 3.54292 3.51315
# Velocity P-wave (km/s) = 6.21653 6.36489 6.29115
#
# Compressibility (1/GPa) = 0.02640153
#
# Stress axis : x y z
#
# Youngs Moduli (GPa) = 37.85094 63.16140 64.54705
#
# Poissons Ratio (x) = 0.39019 0.39188
# Poissons Ratio (y) = 0.23383 0.22091
# Poissons Ratio (z) = 0.22980 0.21617
#
# Static dielectric constant tensor:
#      x y z
#    x 1.590350 0.000000 0.000000 
#    y 0.000000 1.628470 0.000000 
#    z 0.000000 0.000000 1.581250 
# 
# From -- ./inp_files/24813.got.cif
#   From: 2010.05.17/outbox.cif.g08.bks.cpg/sg38_13_cif.got.tgz:24813.got - 2010.06.03 18:07:57.
