data_PCOD9356666
_publ_section_title
;
Structure prediction by ZEFSAII (Michael W. Deem and Ramdas Pophale) SiO2 
 PCOD9356666
Probable space group: A M M 2
;
_chemical_formula_sum "Si O2"
_cell_formula_units_Z 64
_cell_length_a 8.878709
_cell_length_b 14.694269
_cell_length_c 29.038325
_cell_angle_alpha 90.000000
_cell_angle_beta 90.000000
_cell_angle_gamma 90.000000
_cell_volume 3788.518129
_symmetry_space_group_name_H-M "A M M 2"
_symmetry_group_IT_number 38
_symmetry_cell_setting 'orthorhombic'
loop_
_space_group_symop_operation_xyz
x,y,z
-x,-y,z
-x,y,z
x,-y,z
x,1/2+y,1/2+z
-x,1/2-y,1/2+z
-x,1/2+y,1/2+z
x,1/2-y,1/2+z
loop_
_atom_site_type_symbol
_atom_site_label
_atom_site_fract_x
_atom_site_fract_y
_atom_site_fract_z
Si Si1 0.681674 0.394084 0.500000
Si Si2 0.180980 0.894017 0.277472
Si Si3 0.677852 0.108407 0.105414
Si Si4 0.680158 0.894008 0.377284
Si Si5 0.180961 0.217303 0.189085
Si Si6 0.676829 0.608773 0.042587
Si Si7 0.181493 0.896023 0.641943
Si Si8 0.179212 0.220582 0.459355
O O1 0.500000 0.386747 0.497349
O O2 0.720517 0.500000 0.491816
O O3 0.725095 0.370562 0.552934
O O4 0.758034 0.322270 0.466491
O O5 0.260112 0.875047 0.325960
O O6 0.234589 0.829527 0.236085
O O7 0.000000 0.884307 0.283067
O O8 0.209958 0.000000 0.265266
O O9 0.500000 0.128796 0.109096
O O10 0.764671 0.161376 0.144762
O O11 0.696628 0.000000 0.111509
O O12 0.500000 0.885514 0.379054
O O13 0.754542 0.828207 0.414395
O O14 0.718448 0.000000 0.387807
O O15 0.225681 0.321631 0.179811
O O16 0.000000 0.213491 0.190476
O O17 0.500000 0.632240 0.040987
O O18 0.691628 0.500000 0.034867
O O19 0.742747 0.627798 0.093164
O O20 0.763056 0.663064 0.003279
O O21 0.000000 0.892384 0.636187
O O22 0.222473 0.000000 0.653497
O O23 0.000000 0.220782 0.457820
#
# Coordination Sequence:
#
# PCOD9356666 Si02
#       8
#     8   8   8   8   8   8   8   8
#     4   9  19  36  54  72 100 138 175 211 249 287
#     4   9  18  33  51  72  99 127 157 199 251 302
#     4   9  18  31  47  70 100 132 165 201 242 287
#     4  10  21  37  56  77 100 127 162 203 248 302
#     4  10  19  30  48  73  99 131 168 202 243 296
#     4  10  20  33  49  71 101 136 173 211 250 296
#     4   9  18  32  48  69 100 135 170 208 248 289
#     4  12  23  33  51  77 103 132 166 205 251 303
#
# _framework density 16.893149999999999
#
# number of rings (size 3 to 8) (size 9 to 14) (size 15 to 20)
#    0.000    2.250    0.000    4.125    0.000    7.500 
#    0.000    2.500    0.000    0.750    0.000    1.750 
#    0.000    0.000    0.000    0.000    0.000    0.000 
#
# Total GULP energy -178627.683668 kJ/mol
# GULP energy per Si atom -5582.115115 kJ/mol
# Density = 1.685470 g / cm^3
# Si number density = 16.893150 Si / 1000 Ang^3
#
#
#
# Elastic Constant Matrix: (Units=GPa)
#
#
# Indices 1 2 3 4 5 6 
#
# 1 44.8024 49.2575 49.2908 0.0000 0.0000 0.0000
# 2 49.2575 102.9444 99.3279 0.0000 0.0000 0.0000
# 3 49.2908 99.3279 120.3882 0.0000 0.0000 0.0000
# 4 0.0000 0.0000 0.0000 33.8179 0.0000 0.0000
# 5 0.0000 0.0000 0.0000 0.0000 14.2177 0.0000
# 6 0.0000 0.0000 0.0000 0.0000 0.0000 22.3148
#
#
#
# Elastic Compliance Matrix: (Units=1/GPa)
#
#
# Indices 1 2 3 4 5 6 
#
# 1 0.047378 -0.019386 -0.003404 0.000000 0.000000 0.000000
# 2 -0.019386 0.055568 -0.037910 0.000000 0.000000 0.000000
# 3 -0.003404 -0.037910 0.040978 0.000000 0.000000 0.000000
# 4 0.000000 0.000000 0.000000 0.029570 0.000000 0.000000
# 5 0.000000 0.000000 0.000000 0.000000 0.070335 0.000000
# 6 0.000000 0.000000 0.000000 0.000000 0.000000 0.044813
#
#
# Mechanical properties :
#
#
# Convention : Reuss Voigt Hill
#
# Bulk Modulus (GPa) = 44.39388 73.76526 59.07957
# Shear Modulus (GPa) = 11.97461 18.75401 15.36431
#
# Velocity S-wave (km/s) = 2.66530 3.33551 3.01906
# Velocity P-wave (km/s) = 5.98398 7.65472 6.87033
#
# Compressibility (1/GPa) = 0.02252563
#
# Stress axis : x y z
#
# Youngs Moduli (GPa) = 21.10665 17.99598 24.40327
#
# Poissons Ratio (x) = 0.34887 0.08306
# Poissons Ratio (y) = 0.40917 0.92513
# Poissons Ratio (z) = 0.07184 0.68223
#
# Static dielectric constant tensor:
#      x y z
#    x 1.560420 0.000000 0.000000 
#    y 0.000000 1.589610 0.000000 
#    z 0.000000 0.000000 1.540010 
# 
# From -- ./inp_files/22203.got.cif
#   From: 2010.05.17/outbox.cif.g08.bks.cpg/sg38_12_cif.got.tgz:22203.got - 2010.06.03 18:07:57.
