data_PCOD9356496
_publ_section_title
;
Structure prediction by ZEFSAII (Michael W. Deem and Ramdas Pophale) SiO2 
 PCOD9356496
Probable space group: A M M 2
;
_chemical_formula_sum "Si O2"
_cell_formula_units_Z 56
_cell_length_a 17.183759
_cell_length_b 8.457684
_cell_length_c 21.013967
_cell_angle_alpha 90.000000
_cell_angle_beta 90.000000
_cell_angle_gamma 90.000000
_cell_volume 3054.060766
_symmetry_space_group_name_H-M "A M M 2"
_symmetry_group_IT_number 38
_symmetry_cell_setting 'orthorhombic'
loop_
_space_group_symop_operation_xyz
x,y,z
-x,-y,z
-x,y,z
x,-y,z
x,1/2+y,1/2+z
-x,1/2-y,1/2+z
-x,1/2+y,1/2+z
x,1/2-y,1/2+z
loop_
_atom_site_type_symbol
_atom_site_label
_atom_site_fract_x
_atom_site_fract_y
_atom_site_fract_z
Si Si1 0.738436 0.809895 0.021960
Si Si2 0.165734 0.807232 0.898663
Si Si3 0.589074 0.691041 0.817178
Si Si4 0.164400 0.690007 0.644169
Si Si5 0.250392 0.189687 0.769632
Si Si6 0.000000 0.191604 0.949957
Si Si7 0.587690 0.809721 0.464187
Si Si8 0.000000 0.811762 0.595925
O O1 0.782116 0.754786 0.084999
O O2 0.740883 0.000000 0.022144
O O3 0.784319 0.753946 0.959292
O O4 0.650657 0.755696 0.012442
O O5 0.204975 0.754230 0.833261
O O6 0.077375 0.758069 0.912519
O O7 0.166625 0.000000 0.897901
O O8 0.500000 0.738870 0.800456
O O9 0.590958 0.500000 0.815503
O O10 0.659971 0.755248 0.775397
O O11 0.603271 0.741217 0.890917
O O12 0.161676 0.500000 0.643614
O O13 0.204701 0.746971 0.708640
O O14 0.077623 0.752218 0.631296
O O15 0.249209 0.000000 0.768609
O O16 0.000000 0.249919 0.022874
O O17 0.000000 0.000000 0.953293
O O18 0.500000 0.760530 0.479926
O O19 0.590729 0.000000 0.464349
O O20 0.000000 0.000000 0.594704
#
# Coordination Sequence:
#
# PCOD9356496 Si02
#       8
#     8   8   8   8   8   4   8   4
#     4  10  19  35  58  84 110 146 194 235 279 340
#     4   9  18  33  57  85 112 145 186 234 286 338
#     4   9  18  34  56  82 113 152 194 233 285 353
#     4  11  24  42  62  82 115 160 196 229 283 352
#     4  11  22  37  57  88 122 149 190 243 293 340
#     4  10  18  37  62  83 113 153 191 229 282 346
#     4   9  18  32  53  84 119 151 186 236 293 340
#     4  12  24  39  60  89 117 145 191 243 288 334
#
# _framework density 18.336243
#
# number of rings (size 3 to 8) (size 9 to 14) (size 15 to 20)
#    0.000    2.000    2.857    2.357    0.000    2.286 
#    0.000    5.000    0.000    0.857    0.000    0.000 
#    0.000    0.000    0.000    0.000    0.000    0.000 
#
# Total GULP energy -156269.574903 kJ/mol
# GULP energy per Si atom -5581.056247 kJ/mol
# Density = 1.829451 g / cm^3
# Si number density = 18.336243 Si / 1000 Ang^3
#
#
#
# Elastic Constant Matrix: (Units=GPa)
#
#
# Indices 1 2 3 4 5 6 
#
# 1 181.6999 30.4205 91.5069 0.0000 0.0000 0.0000
# 2 30.4205 31.5559 27.0054 0.0000 0.0000 0.0000
# 3 91.5069 27.0054 138.1333 0.0000 0.0000 0.0000
# 4 0.0000 0.0000 0.0000 24.8268 0.0000 0.0000
# 5 0.0000 0.0000 0.0000 0.0000 24.6418 0.0000
# 6 0.0000 0.0000 0.0000 0.0000 0.0000 23.8868
#
#
#
# Elastic Compliance Matrix: (Units=1/GPa)
#
#
# Indices 1 2 3 4 5 6 
#
# 1 0.008688 -0.004143 -0.004945 0.000000 0.000000 0.000000
# 2 -0.004143 0.040033 -0.005082 0.000000 0.000000 0.000000
# 3 -0.004945 -0.005082 0.011509 0.000000 0.000000 0.000000
# 4 0.000000 0.000000 0.000000 0.040279 0.000000 0.000000
# 5 0.000000 0.000000 0.000000 0.000000 0.040582 0.000000
# 6 0.000000 0.000000 0.000000 0.000000 0.000000 0.041864
#
#
# Mechanical properties :
#
#
# Convention : Reuss Voigt Hill
#
# Bulk Modulus (GPa) = 31.35871 72.13942 51.74906
# Shear Modulus (GPa) = 22.53019 28.16815 25.34917
#
# Velocity S-wave (km/s) = 3.50912 3.92369 3.72218
# Velocity P-wave (km/s) = 5.79290 7.74307 6.83787
#
# Compressibility (1/GPa) = 0.03188907
#
# Stress axis : x y z
#
# Youngs Moduli (GPa) = 115.10512 24.97944 86.88908
#
# Poissons Ratio (x) = 0.10349 0.42969
# Poissons Ratio (y) = 0.47688 0.44157
# Poissons Ratio (z) = 0.56922 0.12695
#
# Static dielectric constant tensor:
#      x y z
#    x 1.637160 0.000000 0.000000 
#    y 0.000000 1.632290 0.000000 
#    z 0.000000 0.000000 1.608160 
# 
# From -- ./inp_files/21126.got.cif
#   From: 2010.05.17/outbox.cif.g08.bks.cpg/sg38_11_cif.got.tgz:21126.got - 2010.06.03 18:07:57.
