data_PCOD9356075
_publ_section_title
;
Structure prediction by ZEFSAII (Michael W. Deem and Ramdas Pophale) SiO2 
 PCOD9356075
Probable space group: A M M 2
;
_chemical_formula_sum "Si O2"
_cell_formula_units_Z 64
_cell_length_a 20.587006
_cell_length_b 7.309744
_cell_length_c 21.050608
_cell_angle_alpha 90.000000
_cell_angle_beta 90.000000
_cell_angle_gamma 90.000000
_cell_volume 3167.816398
_symmetry_space_group_name_H-M "A M M 2"
_symmetry_group_IT_number 38
_symmetry_cell_setting 'orthorhombic'
loop_
_space_group_symop_operation_xyz
x,y,z
-x,-y,z
-x,y,z
x,-y,z
x,1/2+y,1/2+z
-x,1/2-y,1/2+z
-x,1/2+y,1/2+z
x,1/2-y,1/2+z
loop_
_atom_site_type_symbol
_atom_site_label
_atom_site_fract_x
_atom_site_fract_y
_atom_site_fract_z
Si Si1 0.348769 0.219631 0.561570
Si Si2 0.346618 0.776695 0.312133
Si Si3 0.573913 0.283822 0.690755
Si Si4 0.574408 0.222974 0.437044
Si Si5 0.788499 0.277059 0.865942
Si Si6 0.069960 0.720411 0.016950
Si Si7 0.211895 0.723052 0.014888
Si Si8 0.069756 0.220417 0.365261
O O1 0.387216 0.263136 0.625346
O O2 0.388546 0.284151 0.500105
O O3 0.274365 0.283433 0.554702
O O4 0.346433 0.000000 0.557671
O O5 0.382796 0.711888 0.248935
O O6 0.387960 0.722369 0.373761
O O7 0.272589 0.717767 0.324264
O O8 0.345374 0.000000 0.310729
O O9 0.500000 0.210917 0.687436
O O10 0.567728 0.500000 0.702336
O O11 0.500000 0.282028 0.436599
O O12 0.574573 0.000000 0.437691
O O13 0.788921 0.500000 0.866138
O O14 0.859684 0.215736 0.842476
O O15 0.779844 0.225023 0.940370
O O16 0.069426 0.500000 0.024182
O O17 0.140889 0.784465 0.039093
O O18 0.000000 0.787270 0.042139
O O19 0.070078 0.756395 0.941096
O O20 0.210806 0.500000 0.015094
O O21 0.000000 0.287510 0.339988
O O22 0.069271 0.000000 0.358221
#
# Coordination Sequence:
#
# PCOD9356075 Si02
#       8
#     8   8   8   8   8   8   8   8
#     4  10  18  29  46  67  87 108 136 173 215 254
#     4   9  15  25  40  58  78 102 134 172 209 242
#     4  10  21  34  45  59  83 113 142 173 210 254
#     4   9  15  23  39  62  81  97 126 170 213 247
#     4   8  11  17  31  52  77 100 127 167 206 237
#     4   7   9  13  23  43  76 113 135 150 189 247
#     4   8  12  19  33  57  85 106 130 169 210 242
#     4   7   9  12  20  39  70 104 128 148 188 244
#
# _framework density 20.203192000000001
#
# number of rings (size 3 to 8) (size 9 to 14) (size 15 to 20)
#    0.000    3.500    1.250    3.000    0.000    2.250 
#    0.000    0.000    0.000    0.750    0.000    0.875 
#    0.000    1.500    0.000    0.000    0.000    2.125 
#
# Total GULP energy -178307.041545 kJ/mol
# GULP energy per Si atom -5572.095048 kJ/mol
# Density = 2.015721 g / cm^3
# Si number density = 20.203192 Si / 1000 Ang^3
#
#
#
# Elastic Constant Matrix: (Units=GPa)
#
#
# Indices 1 2 3 4 5 6 
#
# 1 277.2327 8.3065 88.6461 0.0000 0.0000 0.0000
# 2 8.3065 78.8462 -0.8366 0.0000 0.0000 0.0000
# 3 88.6461 -0.8366 103.6683 0.0000 0.0000 0.0000
# 4 0.0000 0.0000 0.0000 41.2870 0.0000 0.0000
# 5 0.0000 0.0000 0.0000 0.0000 8.6776 0.0000
# 6 0.0000 0.0000 0.0000 0.0000 0.0000 -10.6320
#
#
#
# Elastic Compliance Matrix: (Units=1/GPa)
#
#
# Indices 1 2 3 4 5 6 
#
# 1 0.004990 -0.000571 -0.004272 0.000000 0.000000 0.000000
# 2 -0.000571 0.012749 0.000591 0.000000 0.000000 0.000000
# 3 -0.004272 0.000591 0.013304 0.000000 0.000000 0.000000
# 4 0.000000 0.000000 0.000000 0.024221 0.000000 0.000000
# 5 0.000000 0.000000 0.000000 0.000000 0.115239 0.000000
# 6 0.000000 0.000000 0.000000 0.000000 0.000000 -0.094056
#
#
# Mechanical properties :
#
#
# Convention : Reuss Voigt Hill
#
# Bulk Modulus (GPa) = 44.36545 72.44214 58.40379
# Shear Modulus (GPa) = 54.07548 32.10860 43.09204
#
# Velocity S-wave (km/s) = 5.17918 3.99091 4.62338
# Velocity P-wave (km/s) = 7.60082 7.56116 7.58102
#
# Compressibility (1/GPa) = 0.02254006
#
# Stress axis : x y z
#
# Youngs Moduli (GPa) = 200.39957 78.43534 75.16817
#
# Poissons Ratio (x) = 0.04479 0.32108
# Poissons Ratio (y) = 0.11443 -0.04444
# Poissons Ratio (z) = 0.85602 -0.04637
#
# Static dielectric constant tensor:
#      x y z
#    x 1.772520 0.000000 0.000000 
#    y 0.000000 1.751170 0.000000 
#    z 0.000000 0.000000 1.650710 
# 
# From -- ./inp_files/21564.got.cif
#   From: 2010.05.17/outbox.cif.g08.bks.cpg/sg38_11_cif.got.tgz:21564.got - 2010.06.03 18:07:57.
