data_PCOD9356274
_publ_section_title
;
Structure prediction by ZEFSAII (Michael W. Deem and Ramdas Pophale) SiO2 
 PCOD9356274
Probable space group: A M M 2
;
_chemical_formula_sum "Si O2"
_cell_formula_units_Z 56
_cell_length_a 14.112805
_cell_length_b 14.076180
_cell_length_c 13.352719
_cell_angle_alpha 90.000000
_cell_angle_beta 90.000000
_cell_angle_gamma 90.000000
_cell_volume 2652.576161
_symmetry_space_group_name_H-M "A M M 2"
_symmetry_group_IT_number 38
_symmetry_cell_setting 'orthorhombic'
loop_
_space_group_symop_operation_xyz
x,y,z
-x,-y,z
-x,y,z
x,-y,z
x,1/2+y,1/2+z
-x,1/2-y,1/2+z
-x,1/2+y,1/2+z
x,1/2-y,1/2+z
loop_
_atom_site_type_symbol
_atom_site_label
_atom_site_fract_x
_atom_site_fract_y
_atom_site_fract_z
Si Si1 0.390852 0.602285 0.905360
Si Si2 0.763239 0.607970 0.079684
Si Si3 0.604786 0.390427 0.225062
Si Si4 0.230387 0.111329 0.058127
Si Si5 0.887447 0.607017 0.354135
Si Si6 0.887778 0.752377 0.670424
Si Si7 0.391909 0.810887 0.929967
O O1 0.500000 0.600545 0.947068
O O2 0.383021 0.500000 0.849395
O O3 0.382088 0.710785 0.869068
O O4 0.305900 0.602705 0.984898
O O5 0.793432 0.500000 0.100722
O O6 0.692061 0.649010 0.163996
O O7 0.853152 0.676308 0.081716
O O8 0.500000 0.348285 0.207639
O O9 0.600202 0.500000 0.191891
O O10 0.624323 0.387220 0.342968
O O11 0.163498 0.119732 0.959885
O O12 0.322482 0.169607 0.021582
O O13 0.251219 0.000000 0.074691
O O14 0.174981 0.159152 0.150396
O O15 0.861699 0.500000 0.317500
O O16 0.867974 0.688600 0.272472
O O17 0.000000 0.607948 0.370123
O O18 0.000000 0.733301 0.665528
O O19 0.500000 0.817067 0.964664
#
# Coordination Sequence:
#
# PCOD9356274 Si02
#       7
#     8   8   8   8   8   8   8
#     4   9  17  30  49  73 101 135 173 211 257 320
#     4  10  18  31  51  75 105 137 171 219 277 331
#     4   9  17  29  50  81 110 137 175 225 277 328
#     4  11  22  38  60  84 113 152 193 230 281 343
#     4   9  19  37  61  87 113 143 184 237 291 341
#     4  11  22  35  54  83 113 143 187 238 283 332
#     4  10  19  32  51  79 110 141 179 226 275 327
#
# _framework density 21.111550999999999
#
# number of rings (size 3 to 8) (size 9 to 14) (size 15 to 20)
#    0.000    2.143    1.429    2.571    0.000    6.571 
#    0.000    0.000    0.000    5.143    0.000    4.000 
#    0.000    0.000    0.000    0.000    0.000    0.143 
#
# Total GULP energy -155932.822409 kJ/mol
# GULP energy per Si atom -5569.029372 kJ/mol
# Density = 2.106350 g / cm^3
# Si number density = 21.111551 Si / 1000 Ang^3
#
#
#
# Elastic Constant Matrix: (Units=GPa)
#
#
# Indices 1 2 3 4 5 6 
#
# 1 43.4377 21.8969 12.0249 0.0000 0.0000 0.0000
# 2 21.8969 119.4011 12.8582 0.0000 0.0000 0.0000
# 3 12.0249 12.8582 21.1317 0.0000 0.0000 0.0000
# 4 0.0000 0.0000 0.0000 27.7847 0.0000 0.0000
# 5 0.0000 0.0000 0.0000 0.0000 17.7364 0.0000
# 6 0.0000 0.0000 0.0000 0.0000 0.0000 26.3772
#
#
#
# Elastic Compliance Matrix: (Units=1/GPa)
#
#
# Indices 1 2 3 4 5 6 
#
# 1 0.028827 -0.003767 -0.014112 0.000000 0.000000 0.000000
# 2 -0.003767 0.009455 -0.003609 0.000000 0.000000 0.000000
# 3 -0.014112 -0.003609 0.057549 0.000000 0.000000 0.000000
# 4 0.000000 0.000000 0.000000 0.035991 0.000000 0.000000
# 5 0.000000 0.000000 0.000000 0.000000 0.056381 0.000000
# 6 0.000000 0.000000 0.000000 0.000000 0.000000 0.037912
#
#
# Mechanical properties :
#
#
# Convention : Reuss Voigt Hill
#
# Bulk Modulus (GPa) = 18.91999 30.83673 24.87836
# Shear Modulus (GPa) = 17.43932 23.52568 20.48250
#
# Velocity S-wave (km/s) = 2.87724 3.34181 3.11819
# Velocity P-wave (km/s) = 4.47430 5.43402 4.97734
#
# Compressibility (1/GPa) = 0.05285416
#
# Stress axis : x y z
#
# Youngs Moduli (GPa) = 34.68978 105.76833 17.37657
#
# Poissons Ratio (x) = 0.39841 0.24521
# Poissons Ratio (y) = 0.13067 0.06272
# Poissons Ratio (z) = 0.48953 0.38176
#
# Static dielectric constant tensor:
#      x y z
#    x 1.805140 0.000000 0.000000 
#    y 0.000000 1.837550 0.000000 
#    z 0.000000 0.000000 1.753220 
# 
# From -- ./inp_files/10090.got.cif
#   From: 2010.05.17/outbox.cif.g08.bks.cpg/sg38_6_cif.got.tgz:10090.got - 2010.06.03 18:07:57.
