data_PCOD9356340
_publ_section_title
;
Structure prediction by ZEFSAII (Michael W. Deem and Ramdas Pophale) SiO2 
 PCOD9356340
Probable space group: A M M 2
;
_chemical_formula_sum "Si O2"
_cell_formula_units_Z 48
_cell_length_a 28.620801
_cell_length_b 14.452050
_cell_length_c 5.318439
_cell_angle_alpha 90.000000
_cell_angle_beta 90.000000
_cell_angle_gamma 90.000000
_cell_volume 2199.861919
_symmetry_space_group_name_H-M "A M M 2"
_symmetry_group_IT_number 38
_symmetry_cell_setting 'orthorhombic'
loop_
_space_group_symop_operation_xyz
x,y,z
-x,-y,z
-x,y,z
x,-y,z
x,1/2+y,1/2+z
-x,1/2-y,1/2+z
-x,1/2+y,1/2+z
x,1/2-y,1/2+z
loop_
_atom_site_type_symbol
_atom_site_label
_atom_site_fract_x
_atom_site_fract_y
_atom_site_fract_z
Si Si1 0.401691 0.691247 0.222260
Si Si2 0.299442 0.889382 0.746698
Si Si3 0.755409 0.612779 0.744942
Si Si4 0.860157 0.150790 0.354452
Si Si5 0.000000 0.812251 0.744911
Si Si6 0.500000 0.688373 0.332045
Si Si7 0.898182 0.860728 0.853960
O O1 0.402462 0.771639 0.436072
O O2 0.353060 0.640299 0.263115
O O3 0.450582 0.638998 0.279734
O O4 0.276359 0.861154 0.483180
O O5 0.297994 0.000000 0.751962
O O6 0.269468 0.858172 0.987064
O O7 0.760900 0.500000 0.743644
O O8 0.806382 0.656102 0.777930
O O9 0.866498 0.104920 0.625578
O O10 0.883825 0.251912 0.383077
O O11 0.886945 0.101668 0.127575
O O12 0.047959 0.867624 0.778685
O O13 0.000000 0.762054 0.474512
O O14 0.500000 0.730597 0.614654
#
# Coordination Sequence:
#
# PCOD9356340 Si02
#       7
#     8   8   8   8   4   4   8
#     4  10  19  35  54  82 107 136 179 216 267 311
#     4  10  21  38  54  74 105 142 180 218 259 315
#     4  10  21  37  54  69  97 143 177 203 253 306
#     4  10  18  32  45  70  98 122 163 199 241 288
#     4  12  16  30  48  70 102 130 156 180 254 332
#     4   8  16  30  53  74 107 140 164 212 264 324
#     4  10  19  30  48  75  99 125 152 201 256 293
#
# _framework density 21.81955
#
# number of rings (size 3 to 8) (size 9 to 14) (size 15 to 20)
#    0.000    2.000    3.333    2.000    0.000    0.000 
#   18.000    0.417    0.000    0.000    0.000   16.917 
#    0.000    0.000    0.000    0.000    0.000    0.000 
#
# Total GULP energy -133980.216026 kJ/mol
# GULP energy per Si atom -5582.509001 kJ/mol
# Density = 2.176989 g / cm^3
# Si number density = 21.819550 Si / 1000 Ang^3
#
#
#
# Elastic Constant Matrix: (Units=GPa)
#
#
# Indices 1 2 3 4 5 6 
#
# 1 102.7108 -1.5023 -38.4935 0.0000 0.0000 0.0000
# 2 -1.5023 57.8451 -4.0632 0.0000 0.0000 0.0000
# 3 -38.4935 -4.0632 99.9727 0.0000 0.0000 0.0000
# 4 0.0000 0.0000 0.0000 -5.8156 0.0000 0.0000
# 5 0.0000 0.0000 0.0000 0.0000 42.0486 0.0000
# 6 0.0000 0.0000 0.0000 0.0000 0.0000 -187.8885
#
#
#
# Elastic Compliance Matrix: (Units=1/GPa)
#
#
# Indices 1 2 3 4 5 6 
#
# 1 0.011399 0.000606 0.004414 0.000000 0.000000 0.000000
# 2 0.000606 0.017369 0.000939 0.000000 0.000000 0.000000
# 3 0.004414 0.000939 0.011740 0.000000 0.000000 0.000000
# 4 0.000000 0.000000 0.000000 -0.171953 0.000000 0.000000
# 5 0.000000 0.000000 0.000000 0.000000 0.023782 0.000000
# 6 0.000000 0.000000 0.000000 0.000000 0.000000 -0.005322
#
#
# Mechanical properties :
#
#
# Convention : Reuss Voigt Hill
#
# Bulk Modulus (GPa) = 19.07413 19.15673 19.11543
# Shear Modulus (GPa) = -46.54328 -10.02526 -28.28427
#
# Velocity S-wave (km/s) = -4.62356 -2.14583 -3.60430
# Velocity P-wave (km/s) = 4.44323 1.63071 2.92259
#
# Compressibility (1/GPa) = 0.05242702
#
# Stress axis : x y z
#
# Youngs Moduli (GPa) = 87.72616 57.57294 85.17612
#
# Poissons Ratio (x) = -0.03489 -0.37595
# Poissons Ratio (y) = -0.05317 -0.08001
# Poissons Ratio (z) = -0.38720 -0.05408
#
# Static dielectric constant tensor:
#      x y z
#    x 1.787940 0.000000 0.000000 
#    y 0.000000 1.741560 0.000000 
#    z 0.000000 0.000000 1.842280 
# 
# From -- ./inp_files/2109.got.cif
#   From: 2010.05.17/outbox.cif.g08.bks.cpg/sg38_2_cif.got.tgz:2109.got - 2010.06.03 18:07:57.
