data_PCOD9356150
_publ_section_title
;
Structure prediction by ZEFSAII (Michael W. Deem and Ramdas Pophale) SiO2 
 PCOD9356150
Probable space group: A M M 2
;
_chemical_formula_sum "Si O2"
_cell_formula_units_Z 64
_cell_length_a 7.466373
_cell_length_b 31.387524
_cell_length_c 15.190196
_cell_angle_alpha 90.000000
_cell_angle_beta 90.000000
_cell_angle_gamma 90.000000
_cell_volume 3559.837041
_symmetry_space_group_name_H-M "A M M 2"
_symmetry_group_IT_number 38
_symmetry_cell_setting 'orthorhombic'
loop_
_space_group_symop_operation_xyz
x,y,z
-x,-y,z
-x,y,z
x,-y,z
x,1/2+y,1/2+z
-x,1/2-y,1/2+z
-x,1/2+y,1/2+z
x,1/2-y,1/2+z
loop_
_atom_site_type_symbol
_atom_site_label
_atom_site_fract_x
_atom_site_fract_y
_atom_site_fract_z
Si Si1 0.716299 0.048104 0.231460
Si Si2 0.216377 0.818576 0.138504
Si Si3 0.711091 0.708392 0.323848
Si Si4 0.783896 0.135327 0.958775
Si Si5 0.720576 0.208914 0.435050
Si Si6 0.292862 0.867981 0.316144
Si Si7 0.294144 0.280101 0.132464
Si Si8 0.786759 0.047496 0.025542
O O1 0.500000 0.048223 0.236431
O O2 0.784870 0.085320 0.295463
O O3 0.761434 0.057534 0.129326
O O4 0.778753 0.000000 0.250574
O O5 0.272581 0.840929 0.048213
O O6 0.284060 0.844109 0.222524
O O7 0.288252 0.770930 0.139791
O O8 0.000000 0.817494 0.141848
O O9 0.500000 0.717275 0.312556
O O10 0.730051 0.664969 0.378037
O O11 0.779860 0.748732 0.381207
O O12 0.787414 0.704777 0.225171
O O13 0.718178 0.086748 0.967387
O O14 0.000000 0.134193 0.959170
O O15 0.500000 0.210011 0.434900
O O16 0.781231 0.166063 0.385545
O O17 0.782485 0.209625 0.536228
O O18 0.500000 0.874363 0.341410
O O19 0.500000 0.295318 0.129418
O O20 0.000000 0.045377 0.011437
O O21 0.712850 0.000000 0.009788
#
# Coordination Sequence:
#
# PCOD9356150 Si02
#       8
#     8   8   8   8   8   8   8   8
#     4   9  17  27  42  66  92 116 145 183 222 260
#     4  11  20  28  42  66  93 118 148 181 219 257
#     4  10  19  30  47  66  84 115 155 184 217 262
#     4  10  20  31  43  65  93 119 149 181 220 262
#     4   9  17  29  46  65  84 113 153 186 212 252
#     4  10  18  30  46  64  89 122 153 179 215 261
#     4  10  19  33  47  62  87 117 154 189 216 256
#     4   9  17  30  46  63  88 120 149 178 216 267
#
# _framework density 17.978349999999999
#
# number of rings (size 3 to 8) (size 9 to 14) (size 15 to 20)
#    0.000    2.250    3.750    0.375    0.000    1.500 
#    0.000    0.625    0.000    0.000    0.000    0.875 
#    0.000    3.000    0.000    0.000    0.000    0.000 
#
# Total GULP energy -178454.155977 kJ/mol
# GULP energy per Si atom -5576.692374 kJ/mol
# Density = 1.793743 g / cm^3
# Si number density = 17.978350 Si / 1000 Ang^3
#
#
#
# Elastic Constant Matrix: (Units=GPa)
#
#
# Indices 1 2 3 4 5 6 
#
# 1 54.2520 -2.4540 2.1582 0.0000 0.0000 0.0000
# 2 -2.4540 144.5903 73.3884 0.0000 0.0000 0.0000
# 3 2.1582 73.3884 131.2549 0.0000 0.0000 0.0000
# 4 0.0000 0.0000 0.0000 19.7801 0.0000 0.0000
# 5 0.0000 0.0000 0.0000 0.0000 10.4635 0.0000
# 6 0.0000 0.0000 0.0000 0.0000 0.0000 -15.2788
#
#
#
# Elastic Compliance Matrix: (Units=1/GPa)
#
#
# Indices 1 2 3 4 5 6 
#
# 1 0.018489 0.000654 -0.000669 0.000000 0.000000 0.000000
# 2 0.000654 0.009680 -0.005423 0.000000 0.000000 0.000000
# 3 -0.000669 -0.005423 0.010662 0.000000 0.000000 0.000000
# 4 0.000000 0.000000 0.000000 0.050556 0.000000 0.000000
# 5 0.000000 0.000000 0.000000 0.000000 0.095570 0.000000
# 6 0.000000 0.000000 0.000000 0.000000 0.000000 -0.065450
#
#
# Mechanical properties :
#
#
# Convention : Reuss Voigt Hill
#
# Bulk Modulus (GPa) = 35.77478 52.92027 44.34753
# Shear Modulus (GPa) = 35.79062 20.12660 27.95861
#
# Velocity S-wave (km/s) = 4.46664 3.34951 3.94779
# Velocity P-wave (km/s) = 6.82225 6.66771 6.74543
#
# Compressibility (1/GPa) = 0.02795265
#
# Stress axis : x y z
#
# Youngs Moduli (GPa) = 54.08714 103.30951 93.79205
#
# Poissons Ratio (x) = -0.06752 0.06279
# Poissons Ratio (y) = -0.03535 0.50863
# Poissons Ratio (z) = 0.03621 0.56024
#
# Static dielectric constant tensor:
#      x y z
#    x 1.679820 0.000000 0.000000 
#    y 0.000000 1.633150 0.000000 
#    z 0.000000 0.000000 1.612640 
# 
# From -- ./inp_files/13042.got.cif
#   From: 2010.05.17/outbox.cif.g08.bks.cpg/sg38_7_cif.got.tgz:13042.got - 2010.06.03 18:07:57.
