data_PCOD9356116
_publ_section_title
;
Structure prediction by ZEFSAII (Michael W. Deem and Ramdas Pophale) SiO2 
 PCOD9356116
Probable space group: A M M 2
;
_chemical_formula_sum "Si O2"
_cell_formula_units_Z 64
_cell_length_a 7.957918
_cell_length_b 15.135235
_cell_length_c 28.998481
_cell_angle_alpha 90.000000
_cell_angle_beta 90.000000
_cell_angle_gamma 90.000000
_cell_volume 3492.720856
_symmetry_space_group_name_H-M "A M M 2"
_symmetry_group_IT_number 38
_symmetry_cell_setting 'orthorhombic'
loop_
_space_group_symop_operation_xyz
x,y,z
-x,-y,z
-x,y,z
x,-y,z
x,1/2+y,1/2+z
-x,1/2-y,1/2+z
-x,1/2+y,1/2+z
x,1/2-y,1/2+z
loop_
_atom_site_type_symbol
_atom_site_label
_atom_site_fract_x
_atom_site_fract_y
_atom_site_fract_z
Si Si1 0.297720 0.221764 0.208360
Si Si2 0.704700 0.898837 0.292155
Si Si3 0.702159 0.279285 0.436366
Si Si4 0.200269 0.599655 0.520825
Si Si5 0.297580 0.100453 0.852405
Si Si6 0.702378 0.600351 0.625459
Si Si7 0.705356 0.099375 0.397831
Si Si8 0.200035 0.099881 0.748617
O O1 0.500000 0.215223 0.208546
O O2 0.234926 0.169043 0.253631
O O3 0.235674 0.170720 0.162943
O O4 0.254998 0.324354 0.213584
O O5 0.500000 0.896085 0.291900
O O6 0.755456 0.880152 0.344843
O O7 0.752501 0.000000 0.280970
O O8 0.500000 0.276843 0.432927
O O9 0.743916 0.330183 0.482985
O O10 0.765597 0.335708 0.392487
O O11 0.762172 0.178648 0.430580
O O12 0.266431 0.500000 0.510503
O O13 0.253256 0.622330 0.572848
O O14 0.000000 0.595686 0.519611
O O15 0.500000 0.099104 0.855329
O O16 0.254098 0.127063 0.800357
O O17 0.235671 0.000000 0.859298
O O18 0.500000 0.598005 0.628772
O O19 0.763463 0.500000 0.634942
O O20 0.500000 0.097625 0.398159
O O21 0.761754 0.000000 0.409257
O O22 0.000000 0.095573 0.747921
O O23 0.266394 0.000000 0.740392
#
# Coordination Sequence:
#
# PCOD9356116 Si02
#       8
#     8   8   8   8   8   8   8   8
#     4  10  18  29  50  76  97 121 157 197 235 277
#     4   8  13  23  42  70 101 126 149 182 226 277
#     4  10  18  29  49  73  95 123 161 202 242 283
#     4  10  21  35  50  70  97 127 156 189 235 290
#     4   9  17  29  46  69  95 123 159 202 243 283
#     4   9  18  33  53  77 102 124 149 187 236 288
#     4   8  14  24  40  66  98 127 154 187 227 270
#     4  10  21  34  46  64  95 134 169 199 234 277
#
# _framework density 18.323823000000001
#
# number of rings (size 3 to 8) (size 9 to 14) (size 15 to 20)
#    0.000    2.750    0.000    3.000    0.000    6.500 
#    0.000    1.250    0.000    2.250    0.000    3.500 
#    0.000    0.000    0.000    0.000    0.000    0.000 
#
# Total GULP energy -178462.347614 kJ/mol
# GULP energy per Si atom -5576.948363 kJ/mol
# Density = 1.828212 g / cm^3
# Si number density = 18.323823 Si / 1000 Ang^3
#
#
#
# Elastic Constant Matrix: (Units=GPa)
#
#
# Indices 1 2 3 4 5 6 
#
# 1 12.6761 9.7184 5.2799 0.0000 0.0000 0.0000
# 2 9.7184 146.3434 110.6839 0.0000 0.0000 0.0000
# 3 5.2799 110.6839 113.5369 0.0000 0.0000 0.0000
# 4 0.0000 0.0000 0.0000 30.9397 0.0000 0.0000
# 5 0.0000 0.0000 0.0000 0.000014930.6475 0.0000
# 6 0.0000 0.0000 0.0000 0.0000 0.0000 6.0309
#
#
#
# Elastic Compliance Matrix: (Units=1/GPa)
#
#
# Indices 1 2 3 4 5 6 
#
# 1 0.084126 -0.010004 0.005840 0.000000 0.000000 0.000000
# 2 -0.010004 0.027204 -0.026055 0.000000 0.000000 0.000000
# 3 0.005840 -0.026055 0.033936 0.000000 0.000000 0.000000
# 4 0.000000 0.000000 0.000000 0.032321 0.000000 0.000000
# 5 0.000000 0.000000 0.000000 0.000000 0.000067 0.000000
# 6 0.000000 0.000000 0.000000 0.000000 0.000000 0.165812
#
#
# Mechanical properties :
#
#
# Convention : Reuss Voigt Hill
#
# Bulk Modulus (GPa) = 11.78844 58.21342 35.00093
# Shear Modulus (GPa) = 11.56930 3003.31523 1507.44226
#
# Velocity S-wave (km/s) = 2.51545 40.52876 28.71331
# Velocity P-wave (km/s) = 3.85798 47.13752 33.44271
#
# Compressibility (1/GPa) = 0.08482885
#
# Stress axis : x y z
#
# Youngs Moduli (GPa) = 11.88696 36.75982 29.46702
#
# Poissons Ratio (x) = 0.36773 -0.17209
# Poissons Ratio (y) = 0.11891 0.76776
# Poissons Ratio (z) = -0.06942 0.95777
#
# Static dielectric constant tensor:
#      x y z
#    x 1.447700 0.000000 0.000000 
#    y 0.000000 1.662260 0.000000 
#    z 0.000000 0.000000 1.605540 
# 
# From -- ./inp_files/24800.got.cif
#   From: 2010.05.17/outbox.cif.g08.bks.cpg/sg38_13_cif.got.tgz:24800.got - 2010.06.03 18:07:57.
