data_PCOD9356387
_publ_section_title
;
Structure prediction by ZEFSAII (Michael W. Deem and Ramdas Pophale) SiO2 
 PCOD9356387
Probable space group: A M M 2
;
_chemical_formula_sum "Si O2"
_cell_formula_units_Z 64
_cell_length_a 20.470530
_cell_length_b 7.916856
_cell_length_c 20.844641
_cell_angle_alpha 90.000000
_cell_angle_beta 90.000000
_cell_angle_gamma 90.000000
_cell_volume 3378.129176
_symmetry_space_group_name_H-M "A M M 2"
_symmetry_group_IT_number 38
_symmetry_cell_setting 'orthorhombic'
loop_
_space_group_symop_operation_xyz
x,y,z
-x,-y,z
-x,y,z
x,-y,z
x,1/2+y,1/2+z
-x,1/2-y,1/2+z
-x,1/2+y,1/2+z
x,1/2-y,1/2+z
loop_
_atom_site_type_symbol
_atom_site_label
_atom_site_fract_x
_atom_site_fract_y
_atom_site_fract_z
Si Si1 0.181260 0.792158 0.942990
Si Si2 0.186982 0.803447 0.800271
Si Si3 0.324951 0.203099 0.988398
Si Si4 0.839651 0.295525 0.161367
Si Si5 0.307164 0.798544 0.630567
Si Si6 0.926540 0.702458 0.544457
Si Si7 0.331152 0.696063 0.769586
Si Si8 0.425784 0.703988 0.380780
O O1 0.170864 0.732202 0.870048
O O2 0.181937 0.000000 0.942663
O O3 0.252792 0.737019 0.967205
O O4 0.124884 0.734763 0.991318
O O5 0.156664 0.731611 0.734708
O O6 0.265361 0.793884 0.790321
O O7 0.167989 0.000000 0.802319
O O8 0.336186 0.249438 0.062225
O O9 0.324007 0.000000 0.983968
O O10 0.379691 0.265567 0.938899
O O11 0.838776 0.500000 0.162894
O O12 0.768789 0.239471 0.134129
O O13 0.896124 0.239735 0.113895
O O14 0.341522 0.728118 0.694154
O O15 0.306945 0.000000 0.636112
O O16 0.929178 0.500000 0.537174
O O17 0.000000 0.769215 0.537586
O O18 0.317025 0.500000 0.779715
O O19 0.390662 0.748703 0.814467
O O20 0.500000 0.766230 0.384683
O O21 0.427375 0.500000 0.384300
#
# Coordination Sequence:
#
# PCOD9356387 Si02
#       8
#     8   8   8   8   8   8   8   8
#     4   9  16  30  53  77 103 134 174 218 260 313
#     4   9  17  33  54  77 104 135 173 220 270 315
#     4  10  18  32  56  82 107 139 177 220 270 322
#     4   9  18  31  50  75 102 132 171 217 265 314
#     4  10  20  34  54  80 109 138 177 226 271 316
#     4  10  20  33  50  73 103 140 177 215 265 323
#     4  11  21  33  53  81 110 140 178 222 266 318
#     4  10  21  38  58  79 108 146 181 216 269 330
#
# _framework density 18.945397
#
# number of rings (size 3 to 8) (size 9 to 14) (size 15 to 20)
#    0.000    2.250    2.500    2.250    0.000    3.000 
#    0.000    1.875    0.000    4.500    0.000    0.000 
#    0.000    0.000    0.000    0.000    0.000    0.000 
#
# Total GULP energy -178536.993328 kJ/mol
# GULP energy per Si atom -5579.281041 kJ/mol
# Density = 1.890228 g / cm^3
# Si number density = 18.945397 Si / 1000 Ang^3
#
#
#
# Elastic Constant Matrix: (Units=GPa)
#
#
# Indices 1 2 3 4 5 6 
#
# 1 122.2413 4.3055 91.4775 0.0000 0.0000 0.0000
# 2 4.3055 17.6525 0.4329 0.0000 0.0000 0.0000
# 3 91.4775 0.4329 177.5741 0.0000 0.0000 0.0000
# 4 0.0000 0.0000 0.0000 20.8678 0.0000 0.0000
# 5 0.0000 0.0000 0.0000 0.0000 24.4051 0.0000
# 6 0.0000 0.0000 0.0000 0.0000 0.0000 11.3474
#
#
#
# Elastic Compliance Matrix: (Units=1/GPa)
#
#
# Indices 1 2 3 4 5 6 
#
# 1 0.013482 -0.003118 -0.006938 0.000000 0.000000 0.000000
# 2 -0.003118 0.057374 0.001466 0.000000 0.000000 0.000000
# 3 -0.006938 0.001466 0.009202 0.000000 0.000000 0.000000
# 4 0.000000 0.000000 0.000000 0.047921 0.000000 0.000000
# 5 0.000000 0.000000 0.000000 0.000000 0.040975 0.000000
# 6 0.000000 0.000000 0.000000 0.000000 0.000000 0.088126
#
#
# Mechanical properties :
#
#
# Convention : Reuss Voigt Hill
#
# Bulk Modulus (GPa) = 15.90357 56.65550 36.27954
# Shear Modulus (GPa) = 16.93663 26.07420 21.50541
#
# Velocity S-wave (km/s) = 2.99318 3.71385 3.37282
# Velocity P-wave (km/s) = 4.51200 6.95412 5.86165
#
# Compressibility (1/GPa) = 0.06287896
#
# Stress axis : x y z
#
# Youngs Moduli (GPa) = 74.17237 17.42954 108.67381
#
# Poissons Ratio (x) = 0.05435 0.75395
# Poissons Ratio (y) = 0.23128 -0.15937
# Poissons Ratio (z) = 0.51459 -0.02556
#
# Static dielectric constant tensor:
#      x y z
#    x 1.635920 0.000000 0.000000 
#    y 0.000000 1.700090 0.000000 
#    z 0.000000 0.000000 1.668160 
# 
# From -- ./inp_files/21346.got.cif
#   From: 2010.05.17/outbox.cif.g08.bks.cpg/sg38_11_cif.got.tgz:21346.got - 2010.06.03 18:07:57.
