data_PCOD9356174
_publ_section_title
;
Structure prediction by ZEFSAII (Michael W. Deem and Ramdas Pophale) SiO2 
 PCOD9356174
Probable space group: A M M 2
;
_chemical_formula_sum "Si O2"
_cell_formula_units_Z 64
_cell_length_a 20.401552
_cell_length_b 7.376028
_cell_length_c 21.139076
_cell_angle_alpha 90.000000
_cell_angle_beta 90.000000
_cell_angle_gamma 90.000000
_cell_volume 3181.059288
_symmetry_space_group_name_H-M "A M M 2"
_symmetry_group_IT_number 38
_symmetry_cell_setting 'orthorhombic'
loop_
_space_group_symop_operation_xyz
x,y,z
-x,-y,z
-x,y,z
x,-y,z
x,1/2+y,1/2+z
-x,1/2-y,1/2+z
-x,1/2+y,1/2+z
x,1/2-y,1/2+z
loop_
_atom_site_type_symbol
_atom_site_label
_atom_site_fract_x
_atom_site_fract_y
_atom_site_fract_z
Si Si1 0.570229 0.218127 0.892500
Si Si2 0.713407 0.777785 0.892795
Si Si3 0.286585 0.718050 0.245840
Si Si4 0.842849 0.709768 0.458195
Si Si5 0.570714 0.781743 0.741086
Si Si6 0.856171 0.286639 0.705692
Si Si7 0.924215 0.280404 0.833440
Si Si8 0.924261 0.277576 0.577586
O O1 0.500000 0.286461 0.917273
O O2 0.641194 0.280848 0.915639
O O3 0.570863 0.251354 0.816826
O O4 0.569631 0.000000 0.900089
O O5 0.722142 0.721755 0.819183
O O6 0.714363 0.000000 0.892091
O O7 0.773353 0.712640 0.935399
O O8 0.289999 0.500000 0.248003
O O9 0.357344 0.783024 0.220044
O O10 0.222086 0.766333 0.207034
O O11 0.829667 0.500000 0.473920
O O12 0.889570 0.716730 0.397133
O O13 0.881226 0.786161 0.518171
O O14 0.500000 0.713903 0.716529
O O15 0.569870 0.000000 0.732703
O O16 0.870947 0.500000 0.706541
O O17 0.885623 0.214092 0.771392
O O18 0.891292 0.216200 0.643031
O O19 0.921860 0.500000 0.834583
O O20 0.000000 0.226106 0.830653
O O21 0.924393 0.500000 0.576650
O O22 0.000000 0.222080 0.572952
#
# Coordination Sequence:
#
# PCOD9356174 Si02
#       8
#     8   8   8   8   8   8   8   8
#     4   7   9  14  26  48  81 115 137 156 195 249
#     4   8  13  21  36  61  89 110 132 171 217 252
#     4   9  15  25  42  65  92 115 140 181 223 257
#     4  10  18  30  49  70  89 110 141 183 227 263
#     4   7  10  17  32  56  85 115 142 169 207 252
#     4  10  19  31  46  63  85 116 151 182 215 260
#     4  10  20  32  46  64  86 112 142 178 221 268
#     4   9  18  32  48  64  83 113 153 188 215 255
#
# _framework density 20.119084999999998
#
# number of rings (size 3 to 8) (size 9 to 14) (size 15 to 20)
#    0.000    3.250    1.250    3.000    0.000    2.250 
#    0.000    0.625    0.000    2.250    0.000    0.875 
#    0.000    3.500    0.000    0.000    0.000    0.000 
#
# Total GULP energy -178316.854614 kJ/mol
# GULP energy per Si atom -5572.401707 kJ/mol
# Density = 2.007329 g / cm^3
# Si number density = 20.119085 Si / 1000 Ang^3
#
#
#
# Elastic Constant Matrix: (Units=GPa)
#
#
# Indices 1 2 3 4 5 6 
#
# 1 176.4970 -7.2193 46.3336 0.0000 0.0000 0.0000
# 2 -7.2193 66.5311 -1.0810 0.0000 0.0000 0.0000
# 3 46.3336 -1.0810 78.6409 0.0000 0.0000 0.0000
# 4 0.0000 0.0000 0.0000 -5.3462 0.0000 0.0000
# 5 0.0000 0.0000 0.0000 0.0000 20.9893 0.0000
# 6 0.0000 0.0000 0.0000 0.0000 0.0000 13.1418
#
#
#
# Elastic Compliance Matrix: (Units=1/GPa)
#
#
# Indices 1 2 3 4 5 6 
#
# 1 0.006732 0.000666 -0.003957 0.000000 0.000000 0.000000
# 2 0.000666 0.015100 -0.000185 0.000000 0.000000 0.000000
# 3 -0.003957 -0.000185 0.015045 0.000000 0.000000 0.000000
# 4 0.000000 0.000000 0.000000 -0.187050 0.000000 0.000000
# 5 0.000000 0.000000 0.000000 0.000000 0.047643 0.000000
# 6 0.000000 0.000000 0.000000 0.000000 0.000000 0.076093
#
#
# Mechanical properties :
#
#
# Convention : Reuss Voigt Hill
#
# Bulk Modulus (GPa) = 33.41696 44.19282 38.80489
# Shear Modulus (GPa) = -525.73009 24.66606 -250.53202
#
# Velocity S-wave (km/s) = -16.18260 3.50523 -11.17116
# Velocity P-wave (km/s) = 18.23521 6.19641 12.12698
#
# Compressibility (1/GPa) = 0.02992492
#
# Stress axis : x y z
#
# Youngs Moduli (GPa) = 148.54680 66.22586 66.46753
#
# Poissons Ratio (x) = -0.04412 0.26302
# Poissons Ratio (y) = -0.09896 0.01229
# Poissons Ratio (z) = 0.58782 0.01225
#
# Static dielectric constant tensor:
#      x y z
#    x 1.762650 0.000000 0.000000 
#    y 0.000000 2.199690 0.000000 
#    z 0.000000 0.000000 1.660960 
# 
# From -- ./inp_files/21483.got.cif
#   From: 2010.05.17/outbox.cif.g08.bks.cpg/sg38_11_cif.got.tgz:21483.got - 2010.06.03 18:07:57.
