data_PCOD9357003
_publ_section_title
;
Structure prediction by ZEFSAII (Michael W. Deem and Ramdas Pophale) SiO2 
 PCOD9357003
Probable space group: A M M 2
;
_chemical_formula_sum "Si O2"
_cell_formula_units_Z 40
_cell_length_a 11.936891
_cell_length_b 7.686354
_cell_length_c 21.055743
_cell_angle_alpha 90.000000
_cell_angle_beta 90.000000
_cell_angle_gamma 90.000000
_cell_volume 1931.889053
_symmetry_space_group_name_H-M "A M M 2"
_symmetry_group_IT_number 38
_symmetry_cell_setting 'orthorhombic'
loop_
_space_group_symop_operation_xyz
x,y,z
-x,-y,z
-x,y,z
x,-y,z
x,1/2+y,1/2+z
-x,1/2-y,1/2+z
-x,1/2+y,1/2+z
x,1/2-y,1/2+z
loop_
_atom_site_type_symbol
_atom_site_label
_atom_site_fract_x
_atom_site_fract_y
_atom_site_fract_z
Si Si1 0.500000 0.712813 0.659070
Si Si2 0.875615 0.793412 0.090271
Si Si3 0.261072 0.786941 0.211499
Si Si4 0.742735 0.705851 0.964247
Si Si5 0.869285 0.713120 0.838142
Si Si6 0.500000 0.706642 0.511352
O O1 0.500000 0.500000 0.657033
O O2 0.611882 0.767055 0.696260
O O3 0.500000 0.772764 0.584955
O O4 0.812541 0.724926 0.151980
O O5 0.000000 0.720441 0.082642
O O6 0.884847 0.000000 0.100464
O O7 0.804034 0.769734 0.027328
O O8 0.201671 0.732057 0.276487
O O9 0.261927 0.000000 0.212086
O O10 0.756427 0.500000 0.962217
O O11 0.804429 0.774180 0.901313
O O12 0.611661 0.742751 0.973585
O O13 0.870366 0.500000 0.838041
O O14 0.000000 0.767201 0.836563
O O15 0.500000 0.500000 0.517066
#
# Coordination Sequence:
#
# PCOD9357003 Si02
#       6
#     4   8   8   8   8   4
#     4   9  16  28  51  79 105 132 172 231 279 311
#     4  10  19  32  54  82 108 143 193 237 272 317
#     4   9  16  29  51  79 107 140 185 235 276 312
#     4  11  22  35  54  82 114 147 182 222 280 340
#     4   9  18  32  50  77 115 149 178 223 276 323
#     4  11  21  38  59  81 111 142 184 233 279 325
#
# _framework density 20.705124000000001
#
# number of rings (size 3 to 8) (size 9 to 14) (size 15 to 20)
#    0.000    2.200    2.000    2.100    0.000    4.400 
#    0.000    3.000    0.000    2.400    0.000    0.000 
#    0.000    0.000    0.000    0.000    0.000    0.000 
#
# Total GULP energy -111669.315435 kJ/mol
# GULP energy per Si atom -5583.465772 kJ/mol
# Density = 2.065800 g / cm^3
# Si number density = 20.705124 Si / 1000 Ang^3
#
#
#
# Elastic Constant Matrix: (Units=GPa)
#
#
# Indices 1 2 3 4 5 6 
#
# 1 185.2132 -7.7078 90.3848 0.0000 0.0000 0.0000
# 2 -7.7078 31.1905 -4.6888 0.0000 0.0000 0.0000
# 3 90.3848 -4.6888 181.2900 0.0000 0.0000 0.0000
# 4 0.0000 0.0000 0.0000 14.3381 0.0000 0.0000
# 5 0.0000 0.0000 0.0000 0.0000 31.3303 0.0000
# 6 0.0000 0.0000 0.0000 0.0000 0.0000 8.4204
#
#
#
# Elastic Compliance Matrix: (Units=1/GPa)
#
#
# Indices 1 2 3 4 5 6 
#
# 1 0.007183 0.001242 -0.003549 0.000000 0.000000 0.000000
# 2 0.001242 0.032401 0.000219 0.000000 0.000000 0.000000
# 3 -0.003549 0.000219 0.007291 0.000000 0.000000 0.000000
# 4 0.000000 0.000000 0.000000 0.069744 0.000000 0.000000
# 5 0.000000 0.000000 0.000000 0.000000 0.031918 0.000000
# 6 0.000000 0.000000 0.000000 0.000000 0.000000 0.118759
#
#
# Mechanical properties :
#
#
# Convention : Reuss Voigt Hill
#
# Bulk Modulus (GPa) = 23.42043 61.51890 42.46967
# Shear Modulus (GPa) = 17.50051 32.13144 24.81598
#
# Velocity S-wave (km/s) = 2.91043 3.94364 3.46575
# Velocity P-wave (km/s) = 4.75711 7.10724 6.04743
#
# Compressibility (1/GPa) = 0.04269776
#
# Stress axis : x y z
#
# Youngs Moduli (GPa) = 139.22228 30.86345 137.15392
#
# Poissons Ratio (x) = -0.03832 0.48675
# Poissons Ratio (y) = -0.17285 -0.03004
# Poissons Ratio (z) = 0.49409 -0.00676
#
# Static dielectric constant tensor:
#      x y z
#    x 1.773970 0.000000 0.000000 
#    y 0.000000 1.803980 0.000000 
#    z 0.000000 0.000000 1.711600 
# 
# From -- ./inp_files/20459.got.cif
#   From: 2010.05.17/outbox.cif.g08.bks.cpg/sg38_11_cif.got.tgz:20459.got - 2010.06.03 18:07:57.
