data_PCOD9357744
_publ_section_title
;
Structure prediction by ZEFSAII (Michael W. Deem and Ramdas Pophale) SiO2 
 PCOD9357744
Probable space group: A M M 2
;
_chemical_formula_sum "Si O2"
_cell_formula_units_Z 56
_cell_length_a 9.514875
_cell_length_b 20.374444
_cell_length_c 15.821277
_cell_angle_alpha 90.000000
_cell_angle_beta 90.000000
_cell_angle_gamma 90.000000
_cell_volume 3067.117313
_symmetry_space_group_name_H-M "A M M 2"
_symmetry_group_IT_number 38
_symmetry_cell_setting 'orthorhombic'
loop_
_space_group_symop_operation_xyz
x,y,z
-x,-y,z
-x,y,z
x,-y,z
x,1/2+y,1/2+z
-x,1/2-y,1/2+z
-x,1/2+y,1/2+z
x,1/2-y,1/2+z
loop_
_atom_site_type_symbol
_atom_site_label
_atom_site_fract_x
_atom_site_fract_y
_atom_site_fract_z
Si Si1 0.155406 0.425347 0.281390
Si Si2 0.167969 0.703519 0.878726
Si Si3 0.163353 0.315804 0.517314
Si Si4 0.336755 0.578768 0.434887
Si Si5 0.664852 0.383714 0.134850
Si Si6 0.164536 0.757153 0.689353
Si Si7 0.666223 0.576931 0.938365
O O1 0.139262 0.500000 0.308504
O O2 0.261978 0.396376 0.348973
O O3 0.231367 0.426207 0.192109
O O4 0.000000 0.395575 0.282326
O O5 0.206448 0.756046 0.953283
O O6 0.193287 0.732787 0.784656
O O7 0.247423 0.634190 0.891216
O O8 0.000000 0.692812 0.886772
O O9 0.256485 0.379746 0.504254
O O10 0.173742 0.295688 0.614817
O O11 0.000000 0.329784 0.496593
O O12 0.500000 0.594467 0.432047
O O13 0.324684 0.500000 0.444802
O O14 0.500000 0.390399 0.157219
O O15 0.726155 0.312490 0.159034
O O16 0.679714 0.404317 0.037671
O O17 0.000000 0.779134 0.685769
O O18 0.500000 0.581522 0.917332
O O19 0.708393 0.500000 0.925841
#
# Coordination Sequence:
#
# PCOD9357744 Si02
#       7
#     8   8   8   8   8   8   8
#     4  10  20  33  51  77 110 148 186 225 279 346
#     4  10  21  38  60  86 115 152 198 247 295 350
#     4  10  20  36  58  84 115 150 189 239 296 352
#     4  10  21  36  55  81 113 149 191 239 290 349
#     4  11  21  34  55  84 115 149 190 240 297 353
#     4  10  21  37  58  85 115 147 194 246 292 348
#     4  10  22  39  58  83 119 160 200 246 300 359
#
# _framework density 18.258185000000001
#
# number of rings (size 3 to 8) (size 9 to 14) (size 15 to 20)
#    0.000    1.857    1.429    2.571    0.000    6.000 
#    0.000    0.714    0.000    4.286    0.000    0.000 
#    0.000    0.000    0.000    0.000    0.000    0.000 
#
# Total GULP energy -155998.482677 kJ/mol
# GULP energy per Si atom -5571.374381 kJ/mol
# Density = 1.821663 g / cm^3
# Si number density = 18.258185 Si / 1000 Ang^3
#
#
#
# Elastic Constant Matrix: (Units=GPa)
#
#
# Indices 1 2 3 4 5 6 
#
# 1 91.0365 50.9489 27.9296 0.0000 0.0000 0.0000
# 2 50.9489 66.9153 18.5139 0.0000 0.0000 0.0000
# 3 27.9296 18.5139 70.4986 0.0000 0.0000 0.0000
# 4 0.0000 0.0000 0.0000 34.0721 0.0000 0.0000
# 5 0.0000 0.0000 0.0000 0.0000 24.3725 0.0000
# 6 0.0000 0.0000 0.0000 0.0000 0.0000 112.6877
#
#
#
# Elastic Compliance Matrix: (Units=1/GPa)
#
#
# Indices 1 2 3 4 5 6 
#
# 1 0.020277 -0.014252 -0.004290 0.000000 0.000000 0.000000
# 2 -0.014252 0.026132 -0.001216 0.000000 0.000000 0.000000
# 3 -0.004290 -0.001216 0.016204 0.000000 0.000000 0.000000
# 4 0.000000 0.000000 0.000000 0.029350 0.000000 0.000000
# 5 0.000000 0.000000 0.000000 0.000000 0.041030 0.000000
# 6 0.000000 0.000000 0.000000 0.000000 0.000000 0.008874
#
#
# Mechanical properties :
#
#
# Convention : Reuss Voigt Hill
#
# Bulk Modulus (GPa) = 43.29838 47.02613 45.16225
# Shear Modulus (GPa) = 26.44356 42.96366 34.70361
#
# Velocity S-wave (km/s) = 3.80980 4.85616 4.36445
# Velocity P-wave (km/s) = 6.56649 7.56671 7.08427
#
# Compressibility (1/GPa) = 0.02309555
#
# Stress axis : x y z
#
# Youngs Moduli (GPa) = 49.31724 38.26735 61.71341
#
# Poissons Ratio (x) = 0.54537 0.26478
# Poissons Ratio (y) = 0.70285 0.07507
# Poissons Ratio (z) = 0.21160 0.04655
#
# Static dielectric constant tensor:
#      x y z
#    x 1.628370 0.000000 0.000000 
#    y 0.000000 1.576010 0.000000 
#    z 0.000000 0.000000 1.643570 
# 
# From -- ./inp_files/12348.got.cif
#   From: 2010.05.17/outbox.cif.g08.bks.cpg/sg38_7_cif.got.tgz:12348.got - 2010.06.03 18:07:57.
