data_PCOD9357582
_publ_section_title
;
Structure prediction by ZEFSAII (Michael W. Deem and Ramdas Pophale) SiO2 
 PCOD9357582
Probable space group: A M M 2
;
_chemical_formula_sum "Si O2"
_cell_formula_units_Z 64
_cell_length_a 9.708099
_cell_length_b 19.711385
_cell_length_c 19.189221
_cell_angle_alpha 90.000000
_cell_angle_beta 90.000000
_cell_angle_gamma 90.000000
_cell_volume 3672.050808
_symmetry_space_group_name_H-M "A M M 2"
_symmetry_group_IT_number 38
_symmetry_cell_setting 'orthorhombic'
loop_
_space_group_symop_operation_xyz
x,y,z
-x,-y,z
-x,y,z
x,-y,z
x,1/2+y,1/2+z
-x,1/2-y,1/2+z
-x,1/2+y,1/2+z
x,1/2-y,1/2+z
loop_
_atom_site_type_symbol
_atom_site_label
_atom_site_fract_x
_atom_site_fract_y
_atom_site_fract_z
Si Si1 0.846920 0.420643 0.380900
Si Si2 0.257344 0.423292 0.537445
Si Si3 0.664779 0.074872 0.317525
Si Si4 0.341768 0.770557 0.035018
Si Si5 0.847569 0.892189 0.189460
Si Si6 0.839723 0.732142 0.164937
Si Si7 0.338556 0.294070 0.891312
Si Si8 0.338209 0.827776 0.785006
O O1 0.842027 0.500000 0.362314
O O2 0.824800 0.417868 0.464486
O O3 0.731141 0.381632 0.337351
O O4 0.000000 0.393480 0.364602
O O5 0.320140 0.500000 0.537007
O O6 0.342044 0.352865 0.537248
O O7 0.174485 0.416560 0.609959
O O8 0.500000 0.083827 0.309155
O O9 0.733796 0.080572 0.241963
O O10 0.721072 0.134255 0.367206
O O11 0.689628 0.000000 0.346362
O O12 0.500000 0.749295 0.047402
O O13 0.241515 0.739514 0.092586
O O14 0.288775 0.744136 0.960226
O O15 0.839289 0.810332 0.191567
O O16 0.000000 0.912906 0.212424
O O17 0.753936 0.683967 0.216626
O O18 0.000000 0.711955 0.158150
O O19 0.500000 0.305979 0.905515
O O20 0.330835 0.243010 0.826865
O O21 0.500000 0.842296 0.771271
#
# Coordination Sequence:
#
# PCOD9357582 Si02
#       8
#     8   8   8   8   8   8   8   8
#     4  10  21  36  54  78 111 150 187 226 274 326
#     4  10  20  32  48  74 108 146 186 222 261 314
#     4  10  20  34  53  76 104 139 176 216 265 321
#     4  10  20  36  55  76 104 142 180 223 274 320
#     4  10  20  33  49  72 105 143 179 215 254 306
#     4  10  21  36  54  80 107 138 180 223 268 324
#     4   9  18  34  53  77 106 136 175 222 272 317
#     4  11  20  35  58  81 107 142 181 230 276 320
#
# _framework density 17.428951999999999
#
# number of rings (size 3 to 8) (size 9 to 14) (size 15 to 20)
#    0.000    2.000    2.500    1.500    0.000    4.500 
#    0.000    1.875    0.000    0.750    0.000    1.750 
#    0.000    0.000    0.000    0.000    0.000    0.000 
#
# Total GULP energy -178226.170984 kJ/mol
# GULP energy per Si atom -5569.567843 kJ/mol
# Density = 1.738928 g / cm^3
# Si number density = 17.428952 Si / 1000 Ang^3
#
#
#
# Elastic Constant Matrix: (Units=GPa)
#
#
# Indices 1 2 3 4 5 6 
#
# 1 90.4172 29.5859 41.5442 0.0000 0.0000 0.0000
# 2 29.5859 70.2992 34.1687 0.0000 0.0000 0.0000
# 3 41.5442 34.1687 83.8867 0.0000 0.0000 0.0000
# 4 0.0000 0.0000 0.0000 24.7962 0.0000 0.0000
# 5 0.0000 0.0000 0.0000 0.0000 10.7756 0.0000
# 6 0.0000 0.0000 0.0000 0.0000 0.0000 13.7527
#
#
#
# Elastic Compliance Matrix: (Units=1/GPa)
#
#
# Indices 1 2 3 4 5 6 
#
# 1 0.014926 -0.003353 -0.006026 0.000000 0.000000 0.000000
# 2 -0.003353 0.018489 -0.005871 0.000000 0.000000 0.000000
# 3 -0.006026 -0.005871 0.017297 0.000000 0.000000 0.000000
# 4 0.000000 0.000000 0.000000 0.040329 0.000000 0.000000
# 5 0.000000 0.000000 0.000000 0.000000 0.092802 0.000000
# 6 0.000000 0.000000 0.000000 0.000000 0.000000 0.072713
#
#
# Mechanical properties :
#
#
# Convention : Reuss Voigt Hill
#
# Bulk Modulus (GPa) = 49.47437 50.57785 50.02611
# Shear Modulus (GPa) = 17.01883 19.15186 18.08534
#
# Velocity S-wave (km/s) = 3.12824 3.31849 3.22477
# Velocity P-wave (km/s) = 6.44172 6.61556 6.52922
#
# Compressibility (1/GPa) = 0.02021248
#
# Stress axis : x y z
#
# Youngs Moduli (GPa) = 66.99825 54.08539 57.81483
#
# Poissons Ratio (x) = 0.18132 0.34841
# Poissons Ratio (y) = 0.22461 0.33942
# Poissons Ratio (z) = 0.40375 0.31752
#
# Static dielectric constant tensor:
#      x y z
#    x 1.607810 0.000000 0.000000 
#    y 0.000000 1.612730 0.000000 
#    z 0.000000 0.000000 1.580060 
# 
# From -- ./inp_files/17232.got.cif
#   From: 2010.05.17/outbox.cif.g08.bks.cpg/sg38_9_cif.got.tgz:17232.got - 2010.06.03 18:07:57.
