data_PCOD9357809
_publ_section_title
;
Structure prediction by ZEFSAII (Michael W. Deem and Ramdas Pophale) SiO2 
 PCOD9357809
Probable space group: A M M 2
;
_chemical_formula_sum "Si O2"
_cell_formula_units_Z 64
_cell_length_a 18.536095
_cell_length_b 22.750121
_cell_length_c 7.922939
_cell_angle_alpha 90.000000
_cell_angle_beta 90.000000
_cell_angle_gamma 90.000000
_cell_volume 3341.090732
_symmetry_space_group_name_H-M "A M M 2"
_symmetry_group_IT_number 38
_symmetry_cell_setting 'orthorhombic'
loop_
_space_group_symop_operation_xyz
x,y,z
-x,-y,z
-x,y,z
x,-y,z
x,1/2+y,1/2+z
-x,1/2-y,1/2+z
-x,1/2+y,1/2+z
x,1/2-y,1/2+z
loop_
_atom_site_type_symbol
_atom_site_label
_atom_site_fract_x
_atom_site_fract_y
_atom_site_fract_z
Si Si1 0.917264 0.436855 0.259530
Si Si2 0.823972 0.270859 0.913632
Si Si3 0.269946 0.150402 0.894000
Si Si4 0.419109 0.307787 0.266241
Si Si5 0.731290 0.124238 0.258739
Si Si6 0.580819 0.672107 0.865735
Si Si7 0.916866 0.191131 0.722496
Si Si8 0.226400 0.564572 0.091182
O O1 0.904770 0.500000 0.353023
O O2 0.907896 0.370196 0.328201
O O3 0.860056 0.436977 0.109514
O O4 0.000000 0.438398 0.204695
O O5 0.773789 0.212064 0.920227
O O6 0.777666 0.317807 0.809841
O O7 0.898102 0.247378 0.833577
O O8 0.854125 0.302106 0.081584
O O9 0.354122 0.166460 0.874741
O O10 0.252200 0.113182 0.726134
O O11 0.255619 0.112807 0.062290
O O12 0.500000 0.327052 0.316451
O O13 0.416645 0.237662 0.289815
O O14 0.408613 0.322431 0.068374
O O15 0.647006 0.137383 0.287658
O O16 0.752731 0.077870 0.400485
O O17 0.500000 0.648516 0.835909
O O18 0.000000 0.192306 0.663417
O O19 0.253925 0.500000 0.141734
#
# Coordination Sequence:
#
# PCOD9357809 Si02
#       8
#     8   8   8   8   8   8   8   8
#     4   9  18  34  58  83 110 156 209 251 292 343
#     4  12  21  36  51  90 124 154 200 240 309 370
#     4  12  23  37  62  89 124 160 194 254 302 361
#     4  10  20  33  53  87 128 163 198 241 296 361
#     4  12  23  37  62  89 124 160 194 254 302 361
#     4  10  20  33  53  87 128 163 198 241 296 361
#     4  11  22  36  56  79 119 165 200 245 301 363
#     4  11  24  44  65  87 116 159 212 252 300 361
#
# _framework density 19.155421
#
# number of rings (size 3 to 8) (size 9 to 14) (size 15 to 20)
#    0.000    1.125    6.250    1.125    0.000    2.000 
#    0.000    0.000    0.000    1.500    0.000    5.250 
#    0.000    0.000    0.000    0.000    0.000    0.000 
#
# Total GULP energy -178139.139857 kJ/mol
# GULP energy per Si atom -5566.848121 kJ/mol
# Density = 1.911182 g / cm^3
# Si number density = 19.155421 Si / 1000 Ang^3
#
#
#
# Elastic Constant Matrix: (Units=GPa)
#
#
# Indices 1 2 3 4 5 6 
#
# 1 70.4207 10.8570 -4.8528 0.0000 0.0000 0.0000
# 2 10.8570 66.3251 -2.8833 0.0000 0.0000 0.0000
# 3 -4.8528 -2.8833 39.4608 0.0000 0.0000 0.0000
# 4 0.0000 0.0000 0.0000 16.5410 0.0000 0.0000
# 5 0.0000 0.0000 0.0000 0.0000 19.5245 0.0000
# 6 0.0000 0.0000 0.0000 0.0000 0.0000 14.5166
#
#
#
# Elastic Compliance Matrix: (Units=1/GPa)
#
#
# Indices 1 2 3 4 5 6 
#
# 1 0.014672 -0.002331 0.001634 0.000000 0.000000 0.000000
# 2 -0.002331 0.015496 0.000846 0.000000 0.000000 0.000000
# 3 0.001634 0.000846 0.025604 0.000000 0.000000 0.000000
# 4 0.000000 0.000000 0.000000 0.060456 0.000000 0.000000
# 5 0.000000 0.000000 0.000000 0.000000 0.051218 0.000000
# 6 0.000000 0.000000 0.000000 0.000000 0.000000 0.068887
#
#
# Mechanical properties :
#
#
# Convention : Reuss Voigt Hill
#
# Bulk Modulus (GPa) = 17.83484 20.27204 19.05344
# Shear Modulus (GPa) = 19.62904 21.65546 20.64225
#
# Velocity S-wave (km/s) = 3.20461 3.36596 3.28627
# Velocity P-wave (km/s) = 4.79828 5.07071 4.93638
#
# Compressibility (1/GPa) = 0.05607002
#
# Stress axis : x y z
#
# Youngs Moduli (GPa) = 68.15562 64.53471 39.05592
#
# Poissons Ratio (x) = 0.15041 -0.06382
# Poissons Ratio (y) = 0.15885 -0.03302
# Poissons Ratio (z) = -0.11137 -0.05457
#
# Static dielectric constant tensor:
#      x y z
#    x 1.687720 0.000000 0.000000 
#    y 0.000000 1.709270 0.000000 
#    z 0.000000 0.000000 1.708270 
# 
# From -- ./inp_files/6559.got.cif
#   From: 2010.05.17/outbox.cif.g08.bks.cpg/sg38_4_cif.got.tgz:6559.got - 2010.06.03 18:07:57.
