data_PCOD9357306
_publ_section_title
;
Structure prediction by ZEFSAII (Michael W. Deem and Ramdas Pophale) SiO2 
 PCOD9357306
Probable space group: A M M 2
;
_chemical_formula_sum "Si O2"
_cell_formula_units_Z 58
_cell_length_a 7.684089
_cell_length_b 22.620192
_cell_length_c 15.891651
_cell_angle_alpha 90.000000
_cell_angle_beta 90.000000
_cell_angle_gamma 90.000000
_cell_volume 2762.216353
_symmetry_space_group_name_H-M "A M M 2"
_symmetry_group_IT_number 38
_symmetry_cell_setting 'orthorhombic'
loop_
_space_group_symop_operation_xyz
x,y,z
-x,-y,z
-x,y,z
x,-y,z
x,1/2+y,1/2+z
-x,1/2-y,1/2+z
-x,1/2+y,1/2+z
x,1/2-y,1/2+z
loop_
_atom_site_type_symbol
_atom_site_label
_atom_site_fract_x
_atom_site_fract_y
_atom_site_fract_z
Si Si1 0.704659 0.314852 0.531620
Si Si2 0.299374 0.098909 0.642192
Si Si3 0.802991 0.134869 0.462072
Si Si4 0.289669 0.764351 0.686921
Si Si5 0.000000 0.000000 0.674227
Si Si6 0.794727 0.433062 0.614313
Si Si7 0.298149 0.246172 0.873934
Si Si8 0.302802 0.929356 0.302392
O O1 0.500000 0.299685 0.526198
O O2 0.777845 0.274928 0.608544
O O3 0.719015 0.383187 0.554993
O O4 0.780595 0.300708 0.439609
O O5 0.500000 0.084605 0.666260
O O6 0.289759 0.104546 0.540491
O O7 0.259312 0.165878 0.673156
O O8 0.154902 0.051953 0.670256
O O9 0.714297 0.193922 0.427711
O O10 0.803512 0.093021 0.381083
O O11 0.000000 0.148476 0.488307
O O12 0.500000 0.755307 0.685807
O O13 0.222982 0.747064 0.780115
O O14 0.724064 0.500000 0.605114
O O15 0.763149 0.412658 0.710340
O O16 0.000000 0.435577 0.600320
O O17 0.500000 0.230484 0.859145
O O18 0.500000 0.906809 0.311439
O O19 0.304211 0.000000 0.303903
#
# Coordination Sequence:
#
# PCOD9357306 Si02
#       8
#     8   8   8   8   2   8   8   8
#     4  10  19  34  60  90 118 156 203 251 308 375
#     4  11  23  43  66  90 129 172 213 273 333 384
#     4  12  23  36  54  90 128 161 207 255 310 386
#     4   9  19  38  64  91 122 160 206 263 325 384
#     4  12  26  44  64  98 120 168 230 268 320 406
#     4  10  21  37  55  80 118 159 199 250 311 372
#     4  10  20  37  62  90 120 158 206 260 321 382
#     4  10  21  35  54  80 112 156 202 245 301 366
#
# _framework density 20.997630999999998
#
# number of rings (size 3 to 8) (size 9 to 14) (size 15 to 20)
#    0.000    1.655    2.069    3.103    0.966    3.310 
#    2.483    0.000    1.517    0.000    0.000    0.000 
#    0.000    0.000    0.000    0.000    0.000    0.000 
#
# Total GULP energy -161610.422293 kJ/mol
# GULP energy per Si atom -5572.773183 kJ/mol
# Density = 2.094984 g / cm^3
# Si number density = 20.997631 Si / 1000 Ang^3
#
#
#
# Elastic Constant Matrix: (Units=GPa)
#
#
# Indices 1 2 3 4 5 6 
#
# 1 75.8714 19.4718 12.6531 0.0000 0.0000 0.0000
# 2 19.4718 52.1165 4.2791 0.0000 0.0000 0.0000
# 3 12.6531 4.2791 59.8240 0.0000 0.0000 0.0000
# 4 0.0000 0.0000 0.0000 -14.5029 0.0000 0.0000
# 5 0.0000 0.0000 0.0000 0.0000 2.5310 0.0000
# 6 0.0000 0.0000 0.0000 0.0000 0.0000 17.9318
#
#
#
# Elastic Compliance Matrix: (Units=1/GPa)
#
#
# Indices 1 2 3 4 5 6 
#
# 1 0.015028 -0.005385 -0.002793 0.000000 0.000000 0.000000
# 2 -0.005385 0.021231 -0.000380 0.000000 0.000000 0.000000
# 3 -0.002793 -0.000380 0.017334 0.000000 0.000000 0.000000
# 4 0.000000 0.000000 0.000000 -0.068952 0.000000 0.000000
# 5 0.000000 0.000000 0.000000 0.000000 0.395101 0.000000
# 6 0.000000 0.000000 0.000000 0.000000 0.000000 0.055767
#
#
# Mechanical properties :
#
#
# Convention : Reuss Voigt Hill
#
# Bulk Modulus (GPa) = 27.41516 28.95776 28.18646
# Shear Modulus (GPa) = 10.75767 11.28583 11.02175
#
# Velocity S-wave (km/s) = 2.26592 2.32088 2.29357
# Velocity P-wave (km/s) = 4.46436 4.58289 4.52401
#
# Compressibility (1/GPa) = 0.03647616
#
# Stress axis : x y z
#
# Youngs Moduli (GPa) = 66.54163 47.10075 57.69124
#
# Poissons Ratio (x) = 0.25366 0.16115
# Poissons Ratio (y) = 0.35836 0.02190
# Poissons Ratio (z) = 0.18587 0.01788
#
# Static dielectric constant tensor:
#      x y z
#    x 1.799400 0.000000 0.000000 
#    y 0.000000 2.059500 0.000000 
#    z 0.000000 0.000000 1.775160 
# 
# From -- ./inp_files/12673.got.cif
#   From: 2010.05.17/outbox.cif.g08.bks.cpg/sg38_7_cif.got.tgz:12673.got - 2010.06.03 18:07:57.
