data_PCOD9357061
_publ_section_title
;
Structure prediction by ZEFSAII (Michael W. Deem and Ramdas Pophale) SiO2 
 PCOD9357061
Probable space group: A M M 2
;
_chemical_formula_sum "Si O2"
_cell_formula_units_Z 64
_cell_length_a 19.260030
_cell_length_b 7.484722
_cell_length_c 20.592758
_cell_angle_alpha 90.000000
_cell_angle_beta 90.000000
_cell_angle_gamma 90.000000
_cell_volume 2968.569010
_symmetry_space_group_name_H-M "A M M 2"
_symmetry_group_IT_number 38
_symmetry_cell_setting 'orthorhombic'
loop_
_space_group_symop_operation_xyz
x,y,z
-x,-y,z
-x,y,z
x,-y,z
x,1/2+y,1/2+z
-x,1/2-y,1/2+z
-x,1/2+y,1/2+z
x,1/2-y,1/2+z
loop_
_atom_site_type_symbol
_atom_site_label
_atom_site_fract_x
_atom_site_fract_y
_atom_site_fract_z
Si Si1 0.079917 0.719816 0.795720
Si Si2 0.699298 0.290557 0.456796
Si Si3 0.420145 0.282426 0.708915
Si Si4 0.919828 0.284543 0.056725
Si Si5 0.306040 0.280954 0.605647
Si Si6 0.579439 0.784745 0.355152
Si Si7 0.148991 0.293269 0.927085
Si Si8 0.167936 0.703172 0.676742
O O1 0.080458 0.500000 0.793915
O O2 0.109339 0.781033 0.865017
O O3 0.133011 0.783659 0.740423
O O4 0.000000 0.773496 0.785389
O O5 0.713128 0.500000 0.462602
O O6 0.690406 0.220920 0.530627
O O7 0.632540 0.266859 0.411347
O O8 0.768085 0.212955 0.423319
O O9 0.500000 0.228189 0.698727
O O10 0.418951 0.500000 0.708854
O O11 0.369651 0.224196 0.651408
O O12 0.399309 0.226111 0.782150
O O13 0.912617 0.500000 0.063266
O O14 0.891716 0.203137 0.122683
O O15 0.000000 0.244343 0.044929
O O16 0.874527 0.217657 0.996200
O O17 0.305889 0.500000 0.604047
O O18 0.235492 0.219298 0.641196
O O19 0.500000 0.724033 0.366704
O O20 0.578066 0.000000 0.353806
O O21 0.127027 0.500000 0.929581
O O22 0.188027 0.500000 0.694135
#
# Coordination Sequence:
#
# PCOD9357061 Si02
#       8
#     8   8   8   8   8   8   8   8
#     4   9  18  32  53  80 102 128 177 232 273 311
#     4  11  22  35  52  79 114 145 174 213 259 316
#     4   8  15  30  54  81 105 132 172 218 257 297
#     4  10  20  34  53  76 104 139 175 213 263 321
#     4   9  18  31  49  76 109 139 173 215 257 305
#     4   9  19  36  59  85 109 136 175 218 257 305
#     4  10  20  35  55  76 102 138 178 223 265 309
#     4  10  19  33  53  78 105 134 172 221 268 314
#
# _framework density 21.55921
#
# number of rings (size 3 to 8) (size 9 to 14) (size 15 to 20)
#    0.000    2.500    1.250    1.875    1.750    3.000 
#    0.000    1.875    0.000    3.375    0.000    0.000 
#    0.000    0.000    0.000    0.000    0.000    0.000 
#
# Total GULP energy -178646.775822 kJ/mol
# GULP energy per Si atom -5582.711744 kJ/mol
# Density = 2.151014 g / cm^3
# Si number density = 21.559210 Si / 1000 Ang^3
#
#
#
# Elastic Constant Matrix: (Units=GPa)
#
#
# Indices 1 2 3 4 5 6 
#
# 1 84.3929 -5.2202 33.2695 0.0000 0.0000 0.0000
# 2 -5.2202 58.3297 0.4242 0.0000 0.0000 0.0000
# 3 33.2695 0.4242 98.7179 0.0000 0.0000 0.0000
# 4 0.0000 0.0000 0.0000 8.8706 0.0000 0.0000
# 5 0.0000 0.0000 0.0000 0.0000 46.3381 0.0000
# 6 0.0000 0.0000 0.0000 0.0000 0.0000 8.3894
#
#
#
# Elastic Compliance Matrix: (Units=1/GPa)
#
#
# Indices 1 2 3 4 5 6 
#
# 1 0.013758 0.001265 -0.004642 0.000000 0.000000 0.000000
# 2 0.001265 0.017261 -0.000500 0.000000 0.000000 0.000000
# 3 -0.004642 -0.000500 0.011696 0.000000 0.000000 0.000000
# 4 0.000000 0.000000 0.000000 0.112732 0.000000 0.000000
# 5 0.000000 0.000000 0.000000 0.000000 0.021581 0.000000
# 6 0.000000 0.000000 0.000000 0.000000 0.000000 0.119198
#
#
# Mechanical properties :
#
#
# Convention : Reuss Voigt Hill
#
# Bulk Modulus (GPa) = 28.60422 33.15415 30.87919
# Shear Modulus (GPa) = 15.84112 26.91741 21.37927
#
# Velocity S-wave (km/s) = 2.71361 3.53729 3.15247
# Velocity P-wave (km/s) = 4.80778 5.66523 5.25403
#
# Compressibility (1/GPa) = 0.03495987
#
# Stress axis : x y z
#
# Youngs Moduli (GPa) = 72.68739 57.93479 85.49609
#
# Poissons Ratio (x) = -0.07329 0.39687
# Poissons Ratio (y) = -0.09195 0.04279
# Poissons Ratio (z) = 0.33741 0.02900
#
# Static dielectric constant tensor:
#      x y z
#    x 1.741090 0.000000 0.000000 
#    y 0.000000 1.869970 0.000000 
#    z 0.000000 0.000000 1.756150 
# 
# From -- ./inp_files/18750.got.cif
#   From: 2010.05.17/outbox.cif.g08.bks.cpg/sg38_10_cif.got.tgz:18750.got - 2010.06.03 18:07:57.
