data_PCOD9357265
_publ_section_title
;
Structure prediction by ZEFSAII (Michael W. Deem and Ramdas Pophale) SiO2 
 PCOD9357265
Probable space group: A M M 2
;
_chemical_formula_sum "Si O2"
_cell_formula_units_Z 64
_cell_length_a 9.031216
_cell_length_b 32.774463
_cell_length_c 12.008332
_cell_angle_alpha 90.000000
_cell_angle_beta 90.000000
_cell_angle_gamma 90.000000
_cell_volume 3554.385271
_symmetry_space_group_name_H-M "A M M 2"
_symmetry_group_IT_number 38
_symmetry_cell_setting 'orthorhombic'
loop_
_space_group_symop_operation_xyz
x,y,z
-x,-y,z
-x,y,z
x,-y,z
x,1/2+y,1/2+z
-x,1/2-y,1/2+z
-x,1/2+y,1/2+z
x,1/2-y,1/2+z
loop_
_atom_site_type_symbol
_atom_site_label
_atom_site_fract_x
_atom_site_fract_y
_atom_site_fract_z
Si Si1 0.820782 0.548022 0.005050
Si Si2 0.822534 0.141542 0.872184
Si Si3 0.678526 0.878805 0.635671
Si Si4 0.824144 0.723495 0.506837
Si Si5 0.330898 0.402584 0.569174
Si Si6 0.677847 0.809846 0.456942
Si Si7 0.330214 0.681841 0.703994
Si Si8 0.831453 0.951121 0.253837
O O1 0.783990 0.500000 0.021637
O O2 0.743985 0.578530 0.090771
O O3 0.000000 0.551272 0.011602
O O4 0.777493 0.560368 0.878058
O O5 0.744707 0.133199 0.755084
O O6 0.781947 0.186035 0.924130
O O7 0.000000 0.139971 0.861420
O O8 0.766685 0.108238 0.961838
O O9 0.500000 0.880835 0.640657
O O10 0.722739 0.843691 0.546939
O O11 0.747787 0.765823 0.477506
O O12 0.772741 0.710495 0.630077
O O13 0.000000 0.727675 0.502245
O O14 0.500000 0.411337 0.536500
O O15 0.329708 0.361731 0.644175
O O16 0.265219 0.436226 0.651259
O O17 0.500000 0.806495 0.463519
O O18 0.716890 0.822580 0.331251
O O19 0.500000 0.697508 0.701261
O O20 0.000000 0.935500 0.240351
O O21 0.837130 0.000000 0.254885
#
# Coordination Sequence:
#
# PCOD9357265 Si02
#       8
#     8   8   8   8   8   8   8   8
#     4   9  19  37  60  86 118 155 191 231 285 343
#     4  10  22  40  58  78 110 151 191 234 285 341
#     4  11  23  38  58  86 115 149 193 239 287 342
#     4  10  22  37  55  80 108 140 184 234 281 328
#     4  10  19  34  57  82 109 141 182 230 276 329
#     4  10  22  37  55  80 111 146 183 225 277 337
#     4   9  19  36  55  76 104 140 178 217 270 330
#     4   9  18  33  55  84 117 150 183 223 277 339
#
# _framework density 18.005927
#
# number of rings (size 3 to 8) (size 9 to 14) (size 15 to 20)
#    0.000    2.250    0.000    3.000    1.750    5.500 
#    0.000    1.875    0.000    3.750    0.000    0.000 
#    0.000    0.000    0.000    0.000    0.000    0.000 
#
# Total GULP energy -178557.125649 kJ/mol
# GULP energy per Si atom -5579.910177 kJ/mol
# Density = 1.796494 g / cm^3
# Si number density = 18.005927 Si / 1000 Ang^3
#
#
#
# Elastic Constant Matrix: (Units=GPa)
#
#
# Indices 1 2 3 4 5 6 
#
# 1 42.8868 32.1113 49.1076 0.0000 0.0000 0.0000
# 2 32.1113 67.1236 57.0467 0.0000 0.0000 0.0000
# 3 49.1076 57.0467 154.5544 0.0000 0.0000 0.0000
# 4 0.0000 0.0000 0.0000 18.9666 0.0000 0.0000
# 5 0.0000 0.0000 0.0000 0.0000 24.8420 0.0000
# 6 0.0000 0.0000 0.0000 0.0000 0.0000 29.1671
#
#
#
# Elastic Compliance Matrix: (Units=1/GPa)
#
#
# Indices 1 2 3 4 5 6 
#
# 1 0.043407 -0.013178 -0.008928 0.000000 0.000000 0.000000
# 2 -0.013178 0.025708 -0.005302 0.000000 0.000000 0.000000
# 3 -0.008928 -0.005302 0.011264 0.000000 0.000000 0.000000
# 4 0.000000 0.000000 0.000000 0.052724 0.000000 0.000000
# 5 0.000000 0.000000 0.000000 0.000000 0.040254 0.000000
# 6 0.000000 0.000000 0.000000 0.000000 0.000000 0.034285
#
#
# Mechanical properties :
#
#
# Convention : Reuss Voigt Hill
#
# Bulk Modulus (GPa) = 39.11820 60.12175 49.61997
# Shear Modulus (GPa) = 18.45158 23.01508 20.73333
#
# Velocity S-wave (km/s) = 3.20465 3.57906 3.39702
# Velocity P-wave (km/s) = 5.95528 7.10929 6.55772
#
# Compressibility (1/GPa) = 0.02556355
#
# Stress axis : x y z
#
# Youngs Moduli (GPa) = 23.03772 38.89846 88.77920
#
# Poissons Ratio (x) = 0.51260 0.79262
# Poissons Ratio (y) = 0.30359 0.47069
# Poissons Ratio (z) = 0.20568 0.20623
#
# Static dielectric constant tensor:
#      x y z
#    x 1.617230 0.000000 0.000000 
#    y 0.000000 1.606640 0.000000 
#    z 0.000000 0.000000 1.606280 
# 
# From -- ./inp_files/8548.got.cif
#   From: 2010.05.17/outbox.cif.g08.bks.cpg/sg38_5_cif.got.tgz:8548.got - 2010.06.03 18:07:57.
