data_PCOD9357014
_publ_section_title
;
Structure prediction by ZEFSAII (Michael W. Deem and Ramdas Pophale) SiO2 
 PCOD9357014
Probable space group: A M M 2
;
_chemical_formula_sum "Si O2"
_cell_formula_units_Z 64
_cell_length_a 9.027011
_cell_length_b 17.566565
_cell_length_c 20.986361
_cell_angle_alpha 90.000000
_cell_angle_beta 90.000000
_cell_angle_gamma 90.000000
_cell_volume 3327.882300
_symmetry_space_group_name_H-M "A M M 2"
_symmetry_group_IT_number 38
_symmetry_cell_setting 'orthorhombic'
loop_
_space_group_symop_operation_xyz
x,y,z
-x,-y,z
-x,y,z
x,-y,z
x,1/2+y,1/2+z
-x,1/2-y,1/2+z
-x,1/2+y,1/2+z
x,1/2-y,1/2+z
loop_
_atom_site_type_symbol
_atom_site_label
_atom_site_fract_x
_atom_site_fract_y
_atom_site_fract_z
Si Si1 0.323261 0.198428 0.550000
Si Si2 0.825690 0.087375 0.651102
Si Si3 0.674681 0.692237 0.790283
Si Si4 0.170569 0.379085 0.411722
Si Si5 0.673186 0.124947 0.782281
Si Si6 0.674027 0.415102 0.676231
Si Si7 0.170272 0.306207 0.919898
Si Si8 0.822118 0.634832 0.550903
O O1 0.500000 0.203357 0.551986
O O2 0.263033 0.144109 0.605399
O O3 0.266814 0.170653 0.480773
O O4 0.252235 0.282138 0.557269
O O5 0.765330 0.093918 0.722997
O O6 0.000000 0.106348 0.649645
O O7 0.807234 0.000000 0.629827
O O8 0.500000 0.676891 0.799968
O O9 0.690097 0.782968 0.781111
O O10 0.723095 0.647253 0.727507
O O11 0.763427 0.667608 0.852849
O O12 0.266867 0.401637 0.350989
O O13 0.173269 0.286422 0.415800
O O14 0.220800 0.401753 0.482665
O O15 0.000000 0.402406 0.401834
O O16 0.500000 0.106717 0.775212
O O17 0.500000 0.401024 0.661364
O O18 0.685543 0.500000 0.703744
O O19 0.767019 0.410191 0.611948
O O20 0.000000 0.329121 0.928670
O O21 0.000000 0.642902 0.549719
#
# Coordination Sequence:
#
# PCOD9357014 Si02
#       8
#     8   8   8   8   8   8   8   8
#     4  11  21  35  58  84 110 140 176 220 268 321
#     4  11  24  40  56  76 107 145 182 222 267 316
#     4   9  18  33  53  79 108 140 179 222 269 318
#     4   8  16  31  51  77 107 137 171 216 268 317
#     4  10  19  32  55  83 107 135 175 222 269 320
#     4  10  21  36  53  76 110 149 187 228 272 318
#     4   9  17  31  53  81 109 137 174 220 267 316
#     4  10  20  35  57  83 110 141 180 225 270 320
#
# _framework density 19.231451
#
# number of rings (size 3 to 8) (size 9 to 14) (size 15 to 20)
#    0.000    2.250    0.000    4.125    0.000    6.750 
#    0.000    1.250    0.000    3.000    0.000    0.000 
#    0.000    0.000    0.000    0.000    0.000    0.000 
#
# Total GULP energy -178670.584762 kJ/mol
# GULP energy per Si atom -5583.455774 kJ/mol
# Density = 1.918768 g / cm^3
# Si number density = 19.231451 Si / 1000 Ang^3
#
#
#
# Elastic Constant Matrix: (Units=GPa)
#
#
# Indices 1 2 3 4 5 6 
#
# 1 85.8312 29.9768 40.8367 0.0000 0.0000 0.0000
# 2 29.9768 43.4029 33.1436 0.0000 0.0000 0.0000
# 3 40.8367 33.1436 109.2854 0.0000 0.0000 0.0000
# 4 0.0000 0.0000 0.0000 -22.8257 0.0000 0.0000
# 5 0.0000 0.0000 0.0000 0.0000 40.5177 0.0000
# 6 0.0000 0.0000 0.0000 0.0000 0.0000 12.4725
#
#
#
# Elastic Compliance Matrix: (Units=1/GPa)
#
#
# Indices 1 2 3 4 5 6 
#
# 1 0.016315 -0.008606 -0.003487 0.000000 0.000000 0.000000
# 2 -0.008606 0.034523 -0.007254 0.000000 0.000000 0.000000
# 3 -0.003487 -0.007254 0.012653 0.000000 0.000000 0.000000
# 4 0.000000 0.000000 0.000000 -0.043810 0.000000 0.000000
# 5 0.000000 0.000000 0.000000 0.000000 0.024681 0.000000
# 6 0.000000 0.000000 0.000000 0.000000 0.000000 0.080176
#
#
# Mechanical properties :
#
#
# Convention : Reuss Voigt Hill
#
# Bulk Modulus (GPa) = 40.32545 49.60373 44.96459
# Shear Modulus (GPa) = 29.15486 15.00373 22.07929
#
# Velocity S-wave (km/s) = 3.89781 2.79618 3.39201
# Velocity P-wave (km/s) = 6.42427 6.02277 6.22676
#
# Compressibility (1/GPa) = 0.02479824
#
# Stress axis : x y z
#
# Youngs Moduli (GPa) = 61.29231 28.96591 79.03127
#
# Poissons Ratio (x) = 0.24928 0.27555
# Poissons Ratio (y) = 0.52748 0.57332
# Poissons Ratio (z) = 0.21370 0.21013
#
# Static dielectric constant tensor:
#      x y z
#    x 1.645170 0.000000 0.000000 
#    y 0.000000 1.672800 0.000000 
#    z 0.000000 0.000000 1.665520 
# 
# From -- ./inp_files/20028.got.cif
#   From: 2010.05.17/outbox.cif.g08.bks.cpg/sg38_11_cif.got.tgz:20028.got - 2010.06.03 18:07:57.
