data_PCOD9357913
_publ_section_title
;
Structure prediction by ZEFSAII (Michael W. Deem and Ramdas Pophale) SiO2 
 PCOD9357913
Probable space group: A M M 2
;
_chemical_formula_sum "Si O2"
_cell_formula_units_Z 56
_cell_length_a 16.144216
_cell_length_b 30.095891
_cell_length_c 5.257140
_cell_angle_alpha 90.000000
_cell_angle_beta 90.000000
_cell_angle_gamma 90.000000
_cell_volume 2554.310611
_symmetry_space_group_name_H-M "A M M 2"
_symmetry_group_IT_number 38
_symmetry_cell_setting 'orthorhombic'
loop_
_space_group_symop_operation_xyz
x,y,z
-x,-y,z
-x,y,z
x,-y,z
x,1/2+y,1/2+z
-x,1/2-y,1/2+z
-x,1/2+y,1/2+z
x,1/2-y,1/2+z
loop_
_atom_site_type_symbol
_atom_site_label
_atom_site_fract_x
_atom_site_fract_y
_atom_site_fract_z
Si Si1 0.410696 0.951641 0.537260
Si Si2 0.856434 0.629635 0.115613
Si Si3 0.677909 0.374821 0.288072
Si Si4 0.900595 0.271695 0.145736
Si Si5 0.092814 0.418089 0.630540
Si Si6 0.599802 0.720785 0.393255
Si Si7 0.263111 0.547263 0.641336
O O1 0.500000 0.948289 0.402132
O O2 0.396130 0.906351 0.689783
O O3 0.331425 0.954240 0.358540
O O4 0.413615 0.000000 0.674449
O O5 0.756334 0.628976 0.097197
O O6 0.881153 0.678064 0.210495
O O7 0.888472 0.596851 0.339561
O O8 0.898111 0.620693 0.842722
O O9 0.646214 0.326553 0.370495
O O10 0.716902 0.406992 0.500442
O O11 0.866821 0.240923 0.369877
O O12 0.000000 0.266269 0.133994
O O13 0.167636 0.449442 0.719831
O O14 0.000000 0.435940 0.643047
O O15 0.500000 0.712715 0.390853
O O16 0.619357 0.747951 0.650461
O O17 0.269862 0.500000 0.495912
#
# Coordination Sequence:
#
# PCOD9357913 Si02
#       7
#     8   8   8   8   8   8   8
#     4  10  21  39  65  97 132 170 217 274 337 404
#     4  11  23  38  61  91 126 165 222 275 327 400
#     4  11  23  40  66  93 133 178 223 273 349 398
#     4  10  20  34  53  80 115 156 204 265 328 382
#     4  11  22  40  64  91 127 176 220 269 329 395
#     4  10  24  43  65  96 134 177 229 284 333 402
#     4  10  23  42  64  98 137 172 225 284 334 406
#
# _framework density 21.923722999999999
#
# number of rings (size 3 to 8) (size 9 to 14) (size 15 to 20)
#    0.000    1.571    1.429    3.000    2.000    3.714 
#    0.000    1.429    0.000    1.714    0.000    0.000 
#    0.000    0.000    0.000    0.000    0.000    0.000 
#
# Total GULP energy -156077.347177 kJ/mol
# GULP energy per Si atom -5574.190971 kJ/mol
# Density = 2.187382 g / cm^3
# Si number density = 21.923723 Si / 1000 Ang^3
#
#
#
# Elastic Constant Matrix: (Units=GPa)
#
#
# Indices 1 2 3 4 5 6 
#
# 1 125.2124 29.8991 31.7658 0.0000 0.0000 0.0000
# 2 29.8991 116.2878 30.7142 0.0000 0.0000 0.0000
# 3 31.7658 30.7142 50.1097 0.0000 0.0000 0.0000
# 4 0.0000 0.0000 0.0000 37.1214 0.0000 0.0000
# 5 0.0000 0.0000 0.0000 0.0000 16.9699 0.0000
# 6 0.0000 0.0000 0.0000 0.0000 0.0000 15.0638
#
#
#
# Elastic Compliance Matrix: (Units=1/GPa)
#
#
# Indices 1 2 3 4 5 6 
#
# 1 0.009619 -0.001029 -0.005467 0.000000 0.000000 0.000000
# 2 -0.001029 0.010371 -0.005704 0.000000 0.000000 0.000000
# 3 -0.005467 -0.005704 0.026918 0.000000 0.000000 0.000000
# 4 0.000000 0.000000 0.000000 0.026939 0.000000 0.000000
# 5 0.000000 0.000000 0.000000 0.000000 0.058928 0.000000
# 6 0.000000 0.000000 0.000000 0.000000 0.000000 0.066384
#
#
# Mechanical properties :
#
#
# Convention : Reuss Voigt Hill
#
# Bulk Modulus (GPa) = 44.43008 52.92978 48.67993
# Shear Modulus (GPa) = 21.63926 27.11308 24.37617
#
# Velocity S-wave (km/s) = 3.14510 3.52049 3.33808
# Velocity P-wave (km/s) = 5.78780 6.38124 6.09175
#
# Compressibility (1/GPa) = 0.02250728
#
# Stress axis : x y z
#
# Youngs Moduli (GPa) = 103.95937 96.42686 37.14979
#
# Poissons Ratio (x) = 0.09925 0.20310
# Poissons Ratio (y) = 0.10700 0.21190
# Poissons Ratio (z) = 0.56834 0.55002
#
# Static dielectric constant tensor:
#      x y z
#    x 1.843690 0.000000 0.000000 
#    y 0.000000 1.795700 0.000000 
#    z 0.000000 0.000000 1.832150 
# 
# From -- ./inp_files/1408.got.cif
#   From: 2010.05.17/outbox.cif.g08.bks.cpg/sg38_1_cif.got.tgz:1408.got - 2010.06.03 18:07:57.
