data_PCOD9357528
_publ_section_title
;
Structure prediction by ZEFSAII (Michael W. Deem and Ramdas Pophale) SiO2 
 PCOD9357528
Probable space group: A M M 2
;
_chemical_formula_sum "Si O2"
_cell_formula_units_Z 56
_cell_length_a 14.404715
_cell_length_b 26.361556
_cell_length_c 9.059936
_cell_angle_alpha 90.000000
_cell_angle_beta 90.000000
_cell_angle_gamma 90.000000
_cell_volume 3440.335850
_symmetry_space_group_name_H-M "A M M 2"
_symmetry_group_IT_number 38
_symmetry_cell_setting 'orthorhombic'
loop_
_space_group_symop_operation_xyz
x,y,z
-x,-y,z
-x,y,z
x,-y,z
x,1/2+y,1/2+z
-x,1/2-y,1/2+z
-x,1/2+y,1/2+z
x,1/2-y,1/2+z
loop_
_atom_site_type_symbol
_atom_site_label
_atom_site_fract_x
_atom_site_fract_y
_atom_site_fract_z
Si Si1 0.889156 0.559209 0.308240
Si Si2 0.772545 0.173924 0.294791
Si Si3 0.220136 0.640121 0.466459
Si Si4 0.606659 0.818766 0.823390
Si Si5 0.108473 0.364399 0.045505
Si Si6 0.606742 0.214334 0.487566
Si Si7 0.110274 0.722352 0.282877
O O1 0.867504 0.500000 0.296458
O O2 0.834185 0.588330 0.435842
O O3 0.867255 0.590926 0.159605
O O4 0.000000 0.564803 0.331492
O O5 0.756932 0.150450 0.135294
O O6 0.831659 0.137278 0.399636
O O7 0.678675 0.186195 0.382564
O O8 0.832159 0.225914 0.277898
O O9 0.313399 0.642545 0.368334
O O10 0.153620 0.685820 0.408078
O O11 0.500000 0.837192 0.824224
O O12 0.625818 0.795942 0.660165
O O13 0.614054 0.773243 0.942289
O O14 0.121582 0.311145 0.133946
O O15 0.000000 0.368612 0.010429
O O16 0.500000 0.199238 0.459004
O O17 0.000000 0.730865 0.306056
#
# Coordination Sequence:
#
# PCOD9357528 Si02
#       7
#     8   8   8   8   8   8   8
#     4   9  19  38  59  74  95 131 173 217 259 301
#     4  12  21  29  47  75 108 138 165 204 249 299
#     4  11  21  32  51  76 101 134 172 207 253 304
#     4  10  20  34  50  71 101 137 176 212 246 291
#     4   9  19  33  49  71  99 133 175 208 244 299
#     4  10  20  32  47  69 101 141 178 207 241 290
#     4  10  20  32  45  66 102 143 173 198 236 294
#
# _framework density 16.277481000000002
#
# number of rings (size 3 to 8) (size 9 to 14) (size 15 to 20)
#    0.000    1.857    1.429    5.143    0.000    5.143 
#    0.000    0.714    0.000    2.143    0.000    0.000 
#    0.000    1.143    0.000    0.000    0.000    0.000 
#
# Total GULP energy -156302.264541 kJ/mol
# GULP energy per Si atom -5582.223734 kJ/mol
# Density = 1.624043 g / cm^3
# Si number density = 16.277481 Si / 1000 Ang^3
#
#
#
# Elastic Constant Matrix: (Units=GPa)
#
#
# Indices 1 2 3 4 5 6 
#
# 1 82.2332 34.9500 45.6555 0.0000 0.0000 0.0000
# 2 34.9500 78.9337 27.2665 0.0000 0.0000 0.0000
# 3 45.6555 27.2665 83.7514 0.0000 0.0000 0.0000
# 4 0.0000 0.0000 0.0000 6.1276 0.0000 0.0000
# 5 0.0000 0.0000 0.0000 0.0000 23.8093 0.0000
# 6 0.0000 0.0000 0.0000 0.0000 0.0000 15.7811
#
#
#
# Elastic Compliance Matrix: (Units=1/GPa)
#
#
# Indices 1 2 3 4 5 6 
#
# 1 0.019385 -0.005558 -0.008758 0.000000 0.000000 0.000000
# 2 -0.005558 0.015868 -0.002136 0.000000 0.000000 0.000000
# 3 -0.008758 -0.002136 0.017410 0.000000 0.000000 0.000000
# 4 0.000000 0.000000 0.000000 0.163197 0.000000 0.000000
# 5 0.000000 0.000000 0.000000 0.000000 0.042000 0.000000
# 6 0.000000 0.000000 0.000000 0.000000 0.000000 0.063367
#
#
# Mechanical properties :
#
#
# Convention : Reuss Voigt Hill
#
# Bulk Modulus (GPa) = 50.61118 51.18468 50.89793
# Shear Modulus (GPa) = 13.86127 18.28001 16.07064
#
# Velocity S-wave (km/s) = 2.92132 3.35479 3.14553
# Velocity P-wave (km/s) = 6.52220 6.82052 6.67303
#
# Compressibility (1/GPa) = 0.01975848
#
# Stress axis : x y z
#
# Youngs Moduli (GPa) = 51.58601 63.02111 57.43906
#
# Poissons Ratio (x) = 0.35027 0.50305
# Poissons Ratio (y) = 0.28671 0.12270
# Poissons Ratio (z) = 0.45179 0.13462
#
# Static dielectric constant tensor:
#      x y z
#    x 1.570240 0.000000 0.000000 
#    y 0.000000 1.521180 0.000000 
#    z 0.000000 0.000000 1.561460 
# 
# From -- ./inp_files/5960.got.cif
#   From: 2010.05.17/outbox.cif.g08.bks.cpg/sg38_3_cif.got.tgz:5960.got - 2010.06.03 18:07:57.
