data_PCOD9357136
_publ_section_title
;
Structure prediction by ZEFSAII (Michael W. Deem and Ramdas Pophale) SiO2 
 PCOD9357136
Probable space group: A M M 2
;
_chemical_formula_sum "Si O2"
_cell_formula_units_Z 48
_cell_length_a 17.928313
_cell_length_b 7.654370
_cell_length_c 18.415925
_cell_angle_alpha 90.000000
_cell_angle_beta 90.000000
_cell_angle_gamma 90.000000
_cell_volume 2527.216304
_symmetry_space_group_name_H-M "A M M 2"
_symmetry_group_IT_number 38
_symmetry_cell_setting 'orthorhombic'
loop_
_space_group_symop_operation_xyz
x,y,z
-x,-y,z
-x,y,z
x,-y,z
x,1/2+y,1/2+z
-x,1/2-y,1/2+z
-x,1/2+y,1/2+z
x,1/2-y,1/2+z
loop_
_atom_site_type_symbol
_atom_site_label
_atom_site_fract_x
_atom_site_fract_y
_atom_site_fract_z
Si Si1 0.085131 0.500000 0.362430
Si Si2 0.649414 0.787775 0.786033
Si Si3 0.799551 0.705988 0.038532
Si Si4 0.352281 0.713006 0.118549
Si Si5 0.500000 0.209092 0.866106
Si Si6 0.915256 0.500000 0.539071
Si Si7 0.500000 0.789513 0.535875
Si Si8 0.197588 0.198190 0.365571
O O1 0.081875 0.500000 0.450717
O O2 0.134098 0.332474 0.341067
O O3 0.000000 0.500000 0.336028
O O4 0.646195 0.732369 0.702224
O O5 0.575715 0.725728 0.828416
O O6 0.725078 0.726629 0.823997
O O7 0.650186 0.000000 0.787689
O O8 0.813008 0.500000 0.052715
O O9 0.724326 0.762679 0.079171
O O10 0.868178 0.828917 0.060293
O O11 0.788388 0.726318 0.951725
O O12 0.353932 0.500000 0.117660
O O13 0.425144 0.774639 0.075328
O O14 0.500000 0.246232 0.951261
O O15 0.500000 0.000000 0.856078
O O16 0.000000 0.500000 0.565742
O O17 0.500000 0.000000 0.542226
O O18 0.172034 0.000000 0.356030
#
# Coordination Sequence:
#
# PCOD9357136 Si02
#       8
#     4   8   8   8   4   4   4   8
#     4   9  18  34  56  83 113 143 175 223 281 329
#     4  10  19  34  53  76 108 148 186 230 271 326
#     4   9  18  33  53  79 108 139 180 224 268 321
#     4   9  18  33  54  77 102 146 186 222 269 323
#     4  10  21  33  51  79 109 144 185 228 278 323
#     4   9  18  32  54  83 109 137 173 219 277 327
#     4  10  19  35  55  75 107 144 185 230 272 321
#     4  10  19  33  55  83 110 141 184 228 274 328
#
# _framework density 18.993230000000001
#
# number of rings (size 3 to 8) (size 9 to 14) (size 15 to 20)
#    0.000    2.500    0.833    1.500    0.000    4.667 
#    3.000    3.333    0.000    2.000    0.000    0.000 
#    0.000    0.000    0.000    0.000    0.000    0.000 
#
# Total GULP energy -133975.616274 kJ/mol
# GULP energy per Si atom -5582.317345 kJ/mol
# Density = 1.895000 g / cm^3
# Si number density = 18.993230 Si / 1000 Ang^3
#
#
#
# Elastic Constant Matrix: (Units=GPa)
#
#
# Indices 1 2 3 4 5 6 
#
# 1 218.3630 68.4352 83.0588 0.0000 0.0000 0.0000
# 2 68.4352 73.7154 41.9679 0.0000 0.0000 0.0000
# 3 83.0588 41.9679 86.5896 0.0000 0.0000 0.0000
# 4 0.0000 0.0000 0.0000 14.9522 0.0000 0.0000
# 5 0.0000 0.0000 0.0000 0.0000 -5.7927 0.0000
# 6 0.0000 0.0000 0.0000 0.0000 0.0000 11.7618
#
#
#
# Elastic Compliance Matrix: (Units=1/GPa)
#
#
# Indices 1 2 3 4 5 6 
#
# 1 0.008077 -0.004264 -0.005681 0.000000 0.000000 0.000000
# 2 -0.004264 0.020987 -0.006082 0.000000 0.000000 0.000000
# 3 -0.005681 -0.006082 0.019945 0.000000 0.000000 0.000000
# 4 0.000000 0.000000 0.000000 0.066880 0.000000 0.000000
# 5 0.000000 0.000000 0.000000 0.000000 -0.172632 0.000000
# 6 0.000000 0.000000 0.000000 0.000000 0.000000 0.085021
#
#
# Mechanical properties :
#
#
# Convention : Reuss Voigt Hill
#
# Bulk Modulus (GPa) = 58.97565 85.06575 72.02070
# Shear Modulus (GPa) = 75.77770 16.53132 46.15451
#
# Velocity S-wave (km/s) = 6.32328 2.95342 4.93490
# Velocity P-wave (km/s) = 9.18858 7.51764 8.39479
#
# Compressibility (1/GPa) = 0.01695615
#
# Stress axis : x y z
#
# Youngs Moduli (GPa) = 123.81433 47.64939 50.13697
#
# Poissons Ratio (x) = 0.20318 0.28481
# Poissons Ratio (y) = 0.52794 0.30491
# Poissons Ratio (z) = 0.70334 0.28979
#
# Static dielectric constant tensor:
#      x y z
#    x 1.623870 0.000000 0.000000 
#    y 0.000000 1.698650 0.000000 
#    z 0.000000 0.000000 1.628560 
# 
# From -- ./inp_files/18291.got.cif
#   From: 2010.05.17/outbox.cif.g08.bks.cpg/sg38_10_cif.got.tgz:18291.got - 2010.06.03 18:07:57.
