data_PCOD9357684
_publ_section_title
;
Structure prediction by ZEFSAII (Michael W. Deem and Ramdas Pophale) SiO2 
 PCOD9357684
Probable space group: A M M 2
;
_chemical_formula_sum "Si O2"
_cell_formula_units_Z 64
_cell_length_a 13.042563
_cell_length_b 7.434802
_cell_length_c 26.036209
_cell_angle_alpha 90.000000
_cell_angle_beta 90.000000
_cell_angle_gamma 90.000000
_cell_volume 2524.701856
_symmetry_space_group_name_H-M "A M M 2"
_symmetry_group_IT_number 38
_symmetry_cell_setting 'orthorhombic'
loop_
_space_group_symop_operation_xyz
x,y,z
-x,-y,z
-x,y,z
x,-y,z
x,1/2+y,1/2+z
-x,1/2-y,1/2+z
-x,1/2+y,1/2+z
x,1/2-y,1/2+z
loop_
_atom_site_type_symbol
_atom_site_label
_atom_site_fract_x
_atom_site_fract_y
_atom_site_fract_z
Si Si1 0.833161 0.718509 0.295730
Si Si2 0.668253 0.220787 0.544535
Si Si3 0.609645 0.219797 0.766677
Si Si4 0.111414 0.709358 0.679930
Si Si5 0.840970 0.293163 0.405871
Si Si6 0.890968 0.293913 0.019716
Si Si7 0.610772 0.282350 0.930656
Si Si8 0.659296 0.206310 0.654205
O O1 0.836925 0.500000 0.295847
O O2 0.714140 0.777324 0.293204
O O3 0.882152 0.776590 0.242125
O O4 0.875588 0.778897 0.350624
O O5 0.785785 0.285943 0.540066
O O6 0.615638 0.268589 0.491138
O O7 0.627686 0.283525 0.599379
O O8 0.668126 0.000000 0.545489
O O9 0.500000 0.277647 0.787925
O O10 0.619310 0.283232 0.707560
O O11 0.611793 0.000000 0.766768
O O12 0.115121 0.500000 0.666081
O O13 0.216238 0.793300 0.658763
O O14 0.000000 0.783008 0.663784
O O15 0.873279 0.500000 0.409889
O O16 0.878742 0.202585 0.457842
O O17 0.716327 0.287618 0.406895
O O18 0.892561 0.500000 0.037616
O O19 0.000000 0.209620 0.033050
O O20 0.500000 0.222984 0.909881
O O21 0.615356 0.500000 0.927749
O O22 0.624733 0.000000 0.654276
#
# Coordination Sequence:
#
# PCOD9357684 Si02
#       8
#     8   8   8   8   8   8   8   8
#     4   9  19  34  51  71  94 125 163 200 239 284
#     4   8  15  29  49  73  98 125 162 203 238 278
#     4   8  14  26  45  69  94 117 146 187 231 273
#     4  10  21  35  50  70  97 128 161 199 245 295
#     4  10  20  33  50  73 100 128 162 206 251 294
#     4   9  18  33  51  70  95 128 165 203 244 294
#     4   9  18  33  52  74 102 135 169 204 242 288
#     4   9  17  30  50  74  98 126 160 198 240 284
#
# _framework density 25.349526999999998
#
# number of rings (size 3 to 8) (size 9 to 14) (size 15 to 20)
#    0.000    3.000    0.000    2.250    0.000    4.500 
#    0.000   10.000    0.000    6.000    0.000    0.000 
#    0.000    0.000    0.000    0.000    0.000    0.000 
#
# Total GULP energy -178766.542467 kJ/mol
# GULP energy per Si atom -5586.454452 kJ/mol
# Density = 2.529183 g / cm^3
# Si number density = 25.349527 Si / 1000 Ang^3
#
#
#
# Elastic Constant Matrix: (Units=GPa)
#
#
# Indices 1 2 3 4 5 6 
#
# 1 146.3242 -0.9317 -5.7023 0.0000 0.0000 0.0000
# 2 -0.9317 88.5161 -8.5967 0.0000 0.0000 0.0000
# 3 -5.7023 -8.5967 126.0113 0.0000 0.0000 0.0000
# 4 0.0000 0.0000 0.0000 4.1951 0.0000 0.0000
# 5 0.0000 0.0000 0.0000 0.0000 -22.0309 0.0000
# 6 0.0000 0.0000 0.0000 0.0000 0.0000 -5.3852
#
#
#
# Elastic Compliance Matrix: (Units=1/GPa)
#
#
# Indices 1 2 3 4 5 6 
#
# 1 0.006847 0.000103 0.000317 0.000000 0.000000 0.000000
# 2 0.000103 0.011374 0.000781 0.000000 0.000000 0.000000
# 3 0.000317 0.000781 0.008003 0.000000 0.000000 0.000000
# 4 0.000000 0.000000 0.000000 0.238374 0.000000 0.000000
# 5 0.000000 0.000000 0.000000 0.000000 -0.045391 0.000000
# 6 0.000000 0.000000 0.000000 0.000000 0.000000 -0.185696
#
#
# Mechanical properties :
#
#
# Convention : Reuss Voigt Hill
#
# Bulk Modulus (GPa) = 34.93393 36.71005 35.82199
# Shear Modulus (GPa) = 122.98907 20.42796 71.70851
#
# Velocity S-wave (km/s) = 6.97299 2.84183 5.32441
# Velocity P-wave (km/s) = 8.86798 5.02802 7.20840
#
# Compressibility (1/GPa) = 0.02862546
#
# Stress axis : x y z
#
# Youngs Moduli (GPa) = 146.04633 87.91772 124.94704
#
# Poissons Ratio (x) = -0.00904 -0.03959
# Poissons Ratio (y) = -0.01502 -0.09754
# Poissons Ratio (z) = -0.04628 -0.06863
#
# Static dielectric constant tensor:
#      x y z
#    x 1.999660 0.000000 0.000000 
#    y 0.000000 1.981180 0.000000 
#    z 0.000000 0.000000 1.976260 
# 
# From -- ./inp_files/25074.got.cif
#   From: 2010.05.17/outbox.cif.g08.bks.cpg/sg38_13_cif.got.tgz:25074.got - 2010.06.03 18:07:57.
