data_PCOD9357242
_publ_section_title
;
Structure prediction by ZEFSAII (Michael W. Deem and Ramdas Pophale) SiO2 
 PCOD9357242
Probable space group: A M M 2
;
_chemical_formula_sum "Si O2"
_cell_formula_units_Z 64
_cell_length_a 24.222276
_cell_length_b 7.635503
_cell_length_c 15.896128
_cell_angle_alpha 90.000000
_cell_angle_beta 90.000000
_cell_angle_gamma 90.000000
_cell_volume 2939.977127
_symmetry_space_group_name_H-M "A M M 2"
_symmetry_group_IT_number 38
_symmetry_cell_setting 'orthorhombic'
loop_
_space_group_symop_operation_xyz
x,y,z
-x,-y,z
-x,y,z
x,-y,z
x,1/2+y,1/2+z
-x,1/2-y,1/2+z
-x,1/2+y,1/2+z
x,1/2-y,1/2+z
loop_
_atom_site_type_symbol
_atom_site_label
_atom_site_fract_x
_atom_site_fract_y
_atom_site_fract_z
Si Si1 0.628735 0.288493 0.582130
Si Si2 0.887025 0.699338 0.853691
Si Si3 0.353328 0.793032 0.387802
Si Si4 0.228856 0.703992 0.414176
Si Si5 0.562758 0.785486 0.243048
Si Si6 0.751384 0.786419 0.106232
Si Si7 0.861151 0.708495 0.681479
Si Si8 0.062547 0.212149 0.525055
O O1 0.628589 0.500000 0.581357
O O2 0.625764 0.236618 0.483907
O O3 0.583644 0.231002 0.650210
O O4 0.688497 0.229752 0.617662
O O5 0.908326 0.500000 0.849288
O O6 0.821024 0.698158 0.869713
O O7 0.892355 0.783600 0.762309
O O8 0.915907 0.778999 0.934979
O O9 0.291026 0.721610 0.379864
O O10 0.395600 0.726725 0.316848
O O11 0.348332 0.000000 0.375712
O O12 0.213851 0.500000 0.413474
O O13 0.232312 0.763951 0.511208
O O14 0.500000 0.729645 0.258341
O O15 0.563370 0.000000 0.244007
O O16 0.799129 0.721942 0.167666
O O17 0.751133 0.000000 0.108908
O O18 0.855760 0.500000 0.695679
O O19 0.895804 0.732626 0.597504
O O20 0.000000 0.269110 0.541115
O O21 0.063564 0.000000 0.523444
#
# Coordination Sequence:
#
# PCOD9357242 Si02
#       8
#     8   8   8   8   8   8   8   8
#     4   9  18  34  55  78 109 146 182 224 274 330
#     4  10  21  35  57  86 113 143 182 228 279 326
#     4  10  20  34  55  82 112 144 184 233 280 326
#     4  10  19  34  56  81 114 148 183 226 275 334
#     4   9  19  35  56  81 109 147 191 227 268 332
#     4   8  15  29  51  77 105 137 174 219 265 314
#     4  10  20  35  57  84 110 142 187 226 266 329
#     4  10  22  40  57  78 114 150 180 224 277 324
#
# _framework density 21.768875000000001
#
# number of rings (size 3 to 8) (size 9 to 14) (size 15 to 20)
#    0.000    2.500    1.250    1.500    1.750    1.750 
#    0.000    2.500    0.000    2.625    0.000    0.000 
#    0.000    0.000    0.000    0.000    0.000    0.000 
#
# Total GULP energy -178604.475796 kJ/mol
# GULP energy per Si atom -5581.389869 kJ/mol
# Density = 2.171933 g / cm^3
# Si number density = 21.768875 Si / 1000 Ang^3
#
#
#
# Elastic Constant Matrix: (Units=GPa)
#
#
# Indices 1 2 3 4 5 6 
#
# 1 50.3693 -11.7287 -1.8708 0.0000 0.0000 0.0000
# 2 -11.7287 47.6399 -10.1693 0.0000 0.0000 0.0000
# 3 -1.8708 -10.1693 41.1051 0.0000 0.0000 0.0000
# 4 0.0000 0.0000 0.0000 14.5837 0.0000 0.0000
# 5 0.0000 0.0000 0.0000 0.0000 15.7726 0.0000
# 6 0.0000 0.0000 0.0000 0.0000 0.0000 13.1322
#
#
#
# Elastic Compliance Matrix: (Units=1/GPa)
#
#
# Indices 1 2 3 4 5 6 
#
# 1 0.021281 0.005750 0.002391 0.000000 0.000000 0.000000
# 2 0.005750 0.023715 0.006129 0.000000 0.000000 0.000000
# 3 0.002391 0.006129 0.025953 0.000000 0.000000 0.000000
# 4 0.000000 0.000000 0.000000 0.068570 0.000000 0.000000
# 5 0.000000 0.000000 0.000000 0.000000 0.063401 0.000000
# 6 0.000000 0.000000 0.000000 0.000000 0.000000 0.076148
#
#
# Mechanical properties :
#
#
# Convention : Reuss Voigt Hill
#
# Bulk Modulus (GPa) = 10.05154 10.17517 10.11336
# Shear Modulus (GPa) = 17.62477 19.55658 18.59068
#
# Velocity S-wave (km/s) = 2.84849 3.00054 2.92550
# Velocity P-wave (km/s) = 3.93013 4.08517 4.00840
#
# Compressibility (1/GPa) = 0.09948720
#
# Stress axis : x y z
#
# Youngs Moduli (GPa) = 46.99023 42.16818 38.53126
#
# Poissons Ratio (x) = -0.24245 -0.09213
# Poissons Ratio (y) = -0.27018 -0.23614
# Poissons Ratio (z) = -0.11235 -0.25843
#
# Static dielectric constant tensor:
#      x y z
#    x 1.769440 0.000000 0.000000 
#    y 0.000000 1.833940 0.000000 
#    z 0.000000 0.000000 1.808190 
# 
# From -- ./inp_files/15873.got.cif
#   From: 2010.05.17/outbox.cif.g08.bks.cpg/sg38_8_cif.got.tgz:15873.got - 2010.06.03 18:07:57.
