data_PCOD9357735
_publ_section_title
;
Structure prediction by ZEFSAII (Michael W. Deem and Ramdas Pophale) SiO2 
 PCOD9357735
Probable space group: A M M 2
;
_chemical_formula_sum "Si O2"
_cell_formula_units_Z 64
_cell_length_a 8.812086
_cell_length_b 30.858279
_cell_length_c 14.510872
_cell_angle_alpha 90.000000
_cell_angle_beta 90.000000
_cell_angle_gamma 90.000000
_cell_volume 3945.880599
_symmetry_space_group_name_H-M "A M M 2"
_symmetry_group_IT_number 38
_symmetry_cell_setting 'orthorhombic'
loop_
_space_group_symop_operation_xyz
x,y,z
-x,-y,z
-x,y,z
x,-y,z
x,1/2+y,1/2+z
-x,1/2-y,1/2+z
-x,1/2+y,1/2+z
x,1/2-y,1/2+z
loop_
_atom_site_type_symbol
_atom_site_label
_atom_site_fract_x
_atom_site_fract_y
_atom_site_fract_z
Si Si1 0.320511 0.949529 0.496000
Si Si2 0.819567 0.730360 0.591249
Si Si3 0.180986 0.950138 0.700366
Si Si4 0.318759 0.701381 0.774826
Si Si5 0.673769 0.676577 0.078530
Si Si6 0.325262 0.132174 0.777255
Si Si7 0.178983 0.868786 0.407437
Si Si8 0.180144 0.786034 0.876714
O O1 0.500000 0.940078 0.500993
O O2 0.251052 0.943562 0.598240
O O3 0.242645 0.916820 0.425062
O O4 0.299696 0.000000 0.471503
O O5 0.753853 0.701393 0.673188
O O6 0.732601 0.775752 0.600127
O O7 0.794015 0.714904 0.486645
O O8 0.000000 0.736382 0.603961
O O9 0.247559 0.914669 0.769910
O O10 0.000000 0.944991 0.693681
O O11 0.214814 0.000000 0.726731
O O12 0.500000 0.703262 0.769940
O O13 0.263255 0.659312 0.830276
O O14 0.259748 0.744574 0.828606
O O15 0.500000 0.677539 0.043435
O O16 0.676191 0.649840 0.172465
O O17 0.782253 0.655867 0.002745
O O18 0.500000 0.128659 0.807051
O O19 0.240811 0.168956 0.835682
O O20 0.000000 0.869011 0.390856
O O21 0.000000 0.782007 0.859822
#
# Coordination Sequence:
#
# PCOD9357735 Si02
#       8
#     8   8   8   8   8   8   8   8
#     4  10  20  34  52  76 107 140 175 217 265 317
#     4  11  23  38  55  76 105 140 180 223 267 311
#     4  10  20  33  51  76 106 140 177 218 265 317
#     4  12  24  37  55  77 106 141 180 222 264 314
#     4  11  21  32  50  76 107 143 181 219 262 309
#     4  11  22  34  52  77 106 143 182 219 263 314
#     4  12  23  35  53  77 106 143 183 221 263 314
#     4  11  23  37  55  77 105 140 179 222 265 313
#
# _framework density 16.219446999999999
#
# number of rings (size 3 to 8) (size 9 to 14) (size 15 to 20)
#    0.000    1.000    3.750    4.500    0.000    4.000 
#    0.000    0.000    0.000    0.000    0.000    0.875 
#    0.000    1.000    0.000    0.000    0.000    0.000 
#
# Total GULP energy -178786.125784 kJ/mol
# GULP energy per Si atom -5587.066431 kJ/mol
# Density = 1.618253 g / cm^3
# Si number density = 16.219447 Si / 1000 Ang^3
#
#
#
# Elastic Constant Matrix: (Units=GPa)
#
#
# Indices 1 2 3 4 5 6 
#
# 1 93.7453 42.9389 27.1567 0.0000 0.0000 0.0000
# 2 42.9389 91.9675 18.3036 0.0000 0.0000 0.0000
# 3 27.1567 18.3036 47.7032 0.0000 0.0000 0.0000
# 4 0.0000 0.0000 0.0000 20.9636 0.0000 0.0000
# 5 0.0000 0.0000 0.0000 0.0000 154.8919 0.0000
# 6 0.0000 0.0000 0.0000 0.0000 0.0000 24.3278
#
#
#
# Elastic Compliance Matrix: (Units=1/GPa)
#
#
# Indices 1 2 3 4 5 6 
#
# 1 0.015189 -0.005815 -0.006416 0.000000 0.000000 0.000000
# 2 -0.005815 0.013998 -0.002061 0.000000 0.000000 0.000000
# 3 -0.006416 -0.002061 0.025406 0.000000 0.000000 0.000000
# 4 0.000000 0.000000 0.000000 0.047702 0.000000 0.000000
# 5 0.000000 0.000000 0.000000 0.000000 0.006456 0.000000
# 6 0.000000 0.000000 0.000000 0.000000 0.000000 0.041105
#
#
# Mechanical properties :
#
#
# Convention : Reuss Voigt Hill
#
# Bulk Modulus (GPa) = 38.44570 45.57938 42.01254
# Shear Modulus (GPa) = 26.72223 49.70444 38.21333
#
# Velocity S-wave (km/s) = 4.06340 5.54180 4.85915
# Velocity P-wave (km/s) = 6.76534 8.31332 7.57896
#
# Compressibility (1/GPa) = 0.02601071
#
# Stress axis : x y z
#
# Youngs Moduli (GPa) = 65.83630 71.43639 39.36056
#
# Poissons Ratio (x) = 0.41539 0.25253
# Poissons Ratio (y) = 0.38283 0.08112
# Poissons Ratio (z) = 0.42239 0.14722
#
# Static dielectric constant tensor:
#      x y z
#    x 1.526580 0.000000 0.000000 
#    y 0.000000 1.552750 0.000000 
#    z 0.000000 0.000000 1.529580 
# 
# From -- ./inp_files/13109.got.cif
#   From: 2010.05.17/outbox.cif.g08.bks.cpg/sg38_7_cif.got.tgz:13109.got - 2010.06.03 18:07:57.
