data_PCOD9357739
_publ_section_title
;
Structure prediction by ZEFSAII (Michael W. Deem and Ramdas Pophale) SiO2 
 PCOD9357739
Probable space group: A M M 2
;
_chemical_formula_sum "Si O2"
_cell_formula_units_Z 48
_cell_length_a 9.400093
_cell_length_b 8.168162
_cell_length_c 32.190530
_cell_angle_alpha 90.000000
_cell_angle_beta 90.000000
_cell_angle_gamma 90.000000
_cell_volume 2471.636614
_symmetry_space_group_name_H-M "A M M 2"
_symmetry_group_IT_number 38
_symmetry_cell_setting 'orthorhombic'
loop_
_space_group_symop_operation_xyz
x,y,z
-x,-y,z
-x,y,z
x,-y,z
x,1/2+y,1/2+z
-x,1/2-y,1/2+z
-x,1/2+y,1/2+z
x,1/2-y,1/2+z
loop_
_atom_site_type_symbol
_atom_site_label
_atom_site_fract_x
_atom_site_fract_y
_atom_site_fract_z
Si Si1 0.662962 0.198048 0.578130
Si Si2 0.162878 0.693053 0.839553
Si Si3 0.339071 0.196067 0.917794
Si Si4 0.837305 0.697913 0.497329
Si Si5 0.835016 0.799606 0.659001
Si Si6 0.172728 0.189570 0.749814
O O1 0.500000 0.255125 0.575463
O O2 0.752646 0.252398 0.538395
O O3 0.739204 0.253662 0.620563
O O4 0.661934 0.000000 0.578927
O O5 0.158008 0.500000 0.846543
O O6 0.262347 0.768616 0.874436
O O7 0.214100 0.724138 0.792462
O O8 0.000000 0.758161 0.842982
O O9 0.500000 0.261404 0.918855
O O10 0.346883 0.000000 0.922381
O O11 0.245102 0.258426 0.956337
O O12 0.841150 0.500000 0.495642
O O13 0.000000 0.757262 0.498327
O O14 0.782513 0.744769 0.704642
O O15 0.000000 0.750401 0.652942
O O16 0.834494 0.000000 0.660299
O O17 0.000000 0.194169 0.748083
O O18 0.216110 0.000000 0.753138
#
# Coordination Sequence:
#
# PCOD9357739 Si02
#       6
#     8   8   8   8   8   8
#     4  10  20  33  51  77 108 140 171 205 250 302
#     4  10  20  33  51  77 107 137 169 207 253 303
#     4  10  21  37  56  76  99 131 170 210 254 304
#     4  10  21  37  57  79 101 129 168 212 256 302
#     4   8  14  27  48  72  98 132 175 218 254 290
#     4   8  14  27  49  73  97 131 175 218 255 291
#
# _framework density 19.420328999999999
#
# number of rings (size 3 to 8) (size 9 to 14) (size 15 to 20)
#    0.000    2.667    0.000    3.000    0.000    4.667 
#    0.000    1.667    0.000    6.000    0.000    0.000 
#    0.000    0.000    0.000    0.000    0.000    0.000 
#
# Total GULP energy -133869.382258 kJ/mol
# GULP energy per Si atom -5577.890927 kJ/mol
# Density = 1.937613 g / cm^3
# Si number density = 19.420329 Si / 1000 Ang^3
#
#
#
# Elastic Constant Matrix: (Units=GPa)
#
#
# Indices 1 2 3 4 5 6 
#
# 1 143.1067 11.4231 104.5648 0.0000 0.0000 0.0000
# 2 11.4231 5.4124 5.3367 0.0000 0.0000 0.0000
# 3 104.5648 5.3367 189.3507 0.0000 0.0000 0.0000
# 4 0.0000 0.0000 0.0000 27.7931 0.0000 0.0000
# 5 0.0000 0.0000 0.0000 0.0000 -14.5180 0.0000
# 6 0.0000 0.0000 0.0000 0.0000 0.0000 16.3606
#
#
#
# Elastic Compliance Matrix: (Units=1/GPa)
#
#
# Indices 1 2 3 4 5 6 
#
# 1 0.013945 -0.022463 -0.007068 0.000000 0.000000 0.000000
# 2 -0.022463 0.226225 0.006029 0.000000 0.000000 0.000000
# 3 -0.007068 0.006029 0.009014 0.000000 0.000000 0.000000
# 4 0.000000 0.000000 0.000000 0.035980 0.000000 0.000000
# 5 0.000000 0.000000 0.000000 0.000000 -0.068880 0.000000
# 6 0.000000 0.000000 0.000000 0.000000 0.000000 0.061122
#
#
# Mechanical properties :
#
#
# Convention : Reuss Voigt Hill
#
# Bulk Modulus (GPa) = 4.94607 64.50211 34.72409
# Shear Modulus (GPa) = 12.76146 20.36348 16.56247
#
# Velocity S-wave (km/s) = 2.56621 3.24167 2.92351
# Velocity P-wave (km/s) = 3.36645 6.87728 5.41433
#
# Compressibility (1/GPa) = 0.20218053
#
# Stress axis : x y z
#
# Youngs Moduli (GPa) = 71.70968 4.42038 110.93447
#
# Poissons Ratio (x) = 0.09929 0.78406
# Poissons Ratio (y) = 1.61081 -0.66879
# Poissons Ratio (z) = 0.50683 -0.02665
#
# Static dielectric constant tensor:
#      x y z
#    x 1.667930 0.000000 0.000000 
#    y 0.000000 1.698230 0.000000 
#    z 0.000000 0.000000 1.667890 
# 
# From -- ./inp_files/24271.got.cif
#   From: 2010.05.17/outbox.cif.g08.bks.cpg/sg38_13_cif.got.tgz:24271.got - 2010.06.03 18:07:57.
