data_PCOD9357523
_publ_section_title
;
Structure prediction by ZEFSAII (Michael W. Deem and Ramdas Pophale) SiO2 
 PCOD9357523
Probable space group: A M M 2
;
_chemical_formula_sum "Si O2"
_cell_formula_units_Z 58
_cell_length_a 13.294704
_cell_length_b 7.492342
_cell_length_c 27.506658
_cell_angle_alpha 90.000000
_cell_angle_beta 90.000000
_cell_angle_gamma 90.000000
_cell_volume 2739.896095
_symmetry_space_group_name_H-M "A M M 2"
_symmetry_group_IT_number 38
_symmetry_cell_setting 'orthorhombic'
loop_
_space_group_symop_operation_xyz
x,y,z
-x,-y,z
-x,y,z
x,-y,z
x,1/2+y,1/2+z
-x,1/2-y,1/2+z
-x,1/2+y,1/2+z
x,1/2-y,1/2+z
loop_
_atom_site_type_symbol
_atom_site_label
_atom_site_fract_x
_atom_site_fract_y
_atom_site_fract_z
Si Si1 0.388147 0.216389 0.683660
Si Si2 0.109687 0.296216 0.325008
Si Si3 0.500000 0.000000 0.341842
Si Si4 0.610380 0.709340 0.469950
Si Si5 0.675793 0.297170 0.077510
Si Si6 0.888954 0.283616 0.613322
Si Si7 0.172851 0.292256 0.720325
Si Si8 0.321982 0.720755 0.366601
O O1 0.500000 0.272623 0.699185
O O2 0.367529 0.281751 0.628037
O O3 0.293928 0.274956 0.716060
O O4 0.385502 0.000000 0.683232
O O5 0.105978 0.500000 0.342763
O O6 0.126543 0.297833 0.267051
O O7 0.213645 0.222978 0.345908
O O8 0.000000 0.214438 0.335541
O O9 0.588732 0.159863 0.344177
O O10 0.500000 0.793834 0.464689
O O11 0.600431 0.500000 0.462078
O O12 0.645243 0.727075 0.525213
O O13 0.676620 0.766536 0.424387
O O14 0.640544 0.500000 0.077956
O O15 0.795786 0.285805 0.082644
O O16 0.883491 0.500000 0.612752
O O17 0.869446 0.224921 0.668871
O O18 0.000000 0.229960 0.597405
O O19 0.146730 0.500000 0.723870
O O20 0.334612 0.500000 0.359518
#
# Coordination Sequence:
#
# PCOD9357523 Si02
#       8
#     8   8   2   8   8   8   8   8
#     4   9  18  34  50  73 111 154 190 231 284 344
#     4  10  22  42  65  87 116 156 198 247 306 365
#     4  12  22  40  70  94 120 168 198 250 320 362
#     4  10  20  36  57  82 113 150 187 232 283 341
#     4  10  20  31  51  80 111 142 185 234 281 341
#     4   9  18  34  53  74 105 146 186 231 285 340
#     4  10  20  34  55  83 111 141 189 242 289 349
#     4  10  23  42  63  94 128 157 204 257 302 367
#
# _framework density 21.168683999999999
#
# number of rings (size 3 to 8) (size 9 to 14) (size 15 to 20)
#    0.000    2.207    0.690    1.862    1.931    3.310 
#    1.241    0.690    0.000    2.483    0.000    0.000 
#    0.000    0.000    0.000    0.000    0.000    0.000 
#
# Total GULP energy -161481.130433 kJ/mol
# GULP energy per Si atom -5568.314843 kJ/mol
# Density = 2.112050 g / cm^3
# Si number density = 21.168684 Si / 1000 Ang^3
#
#
#
# Elastic Constant Matrix: (Units=GPa)
#
#
# Indices 1 2 3 4 5 6 
#
# 1 160.0956 14.8129 35.2435 0.0000 0.0000 0.0000
# 2 14.8129 80.1092 0.8056 0.0000 0.0000 0.0000
# 3 35.2435 0.8056 50.6185 0.0000 0.0000 0.0000
# 4 0.0000 0.0000 0.0000 11.9451 0.0000 0.0000
# 5 0.0000 0.0000 0.0000 0.0000 9.6774 0.0000
# 6 0.0000 0.0000 0.0000 0.0000 0.0000 10.1973
#
#
#
# Elastic Compliance Matrix: (Units=1/GPa)
#
#
# Indices 1 2 3 4 5 6 
#
# 1 0.007518 -0.001338 -0.005213 0.000000 0.000000 0.000000
# 2 -0.001338 0.012723 0.000729 0.000000 0.000000 0.000000
# 3 -0.005213 0.000729 0.023374 0.000000 0.000000 0.000000
# 4 0.000000 0.000000 0.000000 0.083716 0.000000 0.000000
# 5 0.000000 0.000000 0.000000 0.000000 0.103333 0.000000
# 6 0.000000 0.000000 0.000000 0.000000 0.000000 0.098065
#
#
# Mechanical properties :
#
#
# Convention : Reuss Voigt Hill
#
# Bulk Modulus (GPa) = 31.27859 43.61638 37.44749
# Shear Modulus (GPa) = 14.24384 22.36139 18.30261
#
# Velocity S-wave (km/s) = 2.59679 3.25367 2.94361
# Velocity P-wave (km/s) = 4.87843 5.89611 5.41125
#
# Compressibility (1/GPa) = 0.03197075
#
# Stress axis : x y z
#
# Youngs Moduli (GPa) = 133.02111 78.59801 42.78338
#
# Poissons Ratio (x) = 0.10514 0.22303
# Poissons Ratio (y) = 0.17794 -0.03118
# Poissons Ratio (z) = 0.69343 -0.05729
#
# Static dielectric constant tensor:
#      x y z
#    x 1.780320 0.000000 0.000000 
#    y 0.000000 1.815610 0.000000 
#    z 0.000000 0.000000 1.752260 
# 
# From -- ./inp_files/23813.got.cif
#   From: 2010.05.17/outbox.cif.g08.bks.cpg/sg38_12_cif.got.tgz:23813.got - 2010.06.03 18:07:57.
