data_PCOD9357967
_publ_section_title
;
Structure prediction by ZEFSAII (Michael W. Deem and Ramdas Pophale) SiO2 
 PCOD9357967
Probable space group: A M M 2
;
_chemical_formula_sum "Si O2"
_cell_formula_units_Z 48
_cell_length_a 7.738908
_cell_length_b 9.074112
_cell_length_c 35.358255
_cell_angle_alpha 90.000000
_cell_angle_beta 90.000000
_cell_angle_gamma 90.000000
_cell_volume 2482.988126
_symmetry_space_group_name_H-M "A M M 2"
_symmetry_group_IT_number 38
_symmetry_cell_setting 'orthorhombic'
loop_
_space_group_symop_operation_xyz
x,y,z
-x,-y,z
-x,y,z
x,-y,z
x,1/2+y,1/2+z
-x,1/2-y,1/2+z
-x,1/2+y,1/2+z
x,1/2-y,1/2+z
loop_
_atom_site_type_symbol
_atom_site_label
_atom_site_fract_x
_atom_site_fract_y
_atom_site_fract_z
Si Si1 0.500000 0.320847 0.723011
Si Si2 0.500000 0.321867 0.810583
Si Si3 0.794858 0.823901 0.860410
Si Si4 0.193325 0.324824 0.668732
Si Si5 0.705540 0.331669 0.092152
Si Si6 0.210222 0.168425 0.438949
Si Si7 0.791143 0.831654 0.014525
O O1 0.500000 0.500000 0.723324
O O2 0.500000 0.276189 0.766552
O O3 0.333502 0.272895 0.699052
O O4 0.500000 0.500000 0.813215
O O5 0.330635 0.256758 0.831064
O O6 0.746874 0.763643 0.902087
O O7 0.000000 0.792492 0.854248
O O8 0.771711 0.000000 0.858806
O O9 0.219794 0.500000 0.662431
O O10 0.213824 0.245588 0.628638
O O11 0.000000 0.303075 0.683316
O O12 0.500000 0.332059 0.098165
O O13 0.766348 0.500000 0.088590
O O14 0.742560 0.245544 0.053602
O O15 0.271106 0.241987 0.477890
O O16 0.000000 0.165190 0.440575
O O17 0.270213 0.000000 0.435234
O O18 0.000000 0.834570 0.012742
O O19 0.729444 0.000000 0.013567
#
# Coordination Sequence:
#
# PCOD9357967 Si02
#       7
#     4   4   8   8   8   8   8
#     4   9  20  39  61  88 121 150 185 239 293 346
#     4  11  23  39  63  94 123 156 197 247 303 360
#     4  10  21  39  62  88 122 163 204 247 298 359
#     4  10  20  37  63  89 113 149 193 235 288 351
#     4  11  23  37  53  78 114 154 195 242 292 342
#     4   9  17  32  56  84 115 152 195 246 297 345
#     4  10  20  34  54  81 112 150 196 242 291 347
#
# _framework density 19.331544000000001
#
# number of rings (size 3 to 8) (size 9 to 14) (size 15 to 20)
#    0.000    2.000    0.833    2.750    0.000    8.000 
#    1.500    3.333    0.000    0.000    0.000    0.000 
#    0.000    0.000    0.000    0.000    0.000    0.000 
#
# Total GULP energy -134076.914023 kJ/mol
# GULP energy per Si atom -5586.538084 kJ/mol
# Density = 1.928754 g / cm^3
# Si number density = 19.331544 Si / 1000 Ang^3
#
#
#
# Elastic Constant Matrix: (Units=GPa)
#
#
# Indices 1 2 3 4 5 6 
#
# 1 78.8879 52.9678 61.6133 0.0000 0.0000 0.0000
# 2 52.9678 110.4473 69.0907 0.0000 0.0000 0.0000
# 3 61.6133 69.0907 174.8125 0.0000 0.0000 0.0000
# 4 0.0000 0.0000 0.0000 29.5709 0.0000 0.0000
# 5 0.0000 0.0000 0.0000 0.0000 30.2453 0.0000
# 6 0.0000 0.0000 0.0000 0.0000 0.0000 21.4285
#
#
#
# Elastic Compliance Matrix: (Units=1/GPa)
#
#
# Indices 1 2 3 4 5 6 
#
# 1 0.021132 -0.007273 -0.004573 0.000000 0.000000 0.000000
# 2 -0.007273 0.014531 -0.003180 0.000000 0.000000 0.000000
# 3 -0.004573 -0.003180 0.008589 0.000000 0.000000 0.000000
# 4 0.000000 0.000000 0.000000 0.033817 0.000000 0.000000
# 5 0.000000 0.000000 0.000000 0.000000 0.033063 0.000000
# 6 0.000000 0.000000 0.000000 0.000000 0.000000 0.046667
#
#
# Mechanical properties :
#
#
# Convention : Reuss Voigt Hill
#
# Bulk Modulus (GPa) = 70.42610 81.27679 75.85145
# Shear Modulus (GPa) = 25.96267 28.28068 27.12167
#
# Velocity S-wave (km/s) = 3.66870 3.82897 3.74969
# Velocity P-wave (km/s) = 7.37940 7.85385 7.62032
#
# Compressibility (1/GPa) = 0.01419928
#
# Stress axis : x y z
#
# Youngs Moduli (GPa) = 47.32243 68.81720 116.42858
#
# Poissons Ratio (x) = 0.50053 0.53246
# Poissons Ratio (y) = 0.34419 0.37020
# Poissons Ratio (z) = 0.21642 0.21881
#
# Static dielectric constant tensor:
#      x y z
#    x 1.699730 0.000000 0.000000 
#    y 0.000000 1.659310 0.000000 
#    z 0.000000 0.000000 1.624680 
# 
# From -- ./inp_files/24372.got.cif
#   From: 2010.05.17/outbox.cif.g08.bks.cpg/sg38_13_cif.got.tgz:24372.got - 2010.06.03 18:07:57.
