data_PCOD9357510
_publ_section_title
;
Structure prediction by ZEFSAII (Michael W. Deem and Ramdas Pophale) SiO2 
 PCOD9357510
Probable space group: A M M 2
;
_chemical_formula_sum "Si O2"
_cell_formula_units_Z 64
_cell_length_a 9.218642
_cell_length_b 27.961826
_cell_length_c 14.775547
_cell_angle_alpha 90.000000
_cell_angle_beta 90.000000
_cell_angle_gamma 90.000000
_cell_volume 3808.693689
_symmetry_space_group_name_H-M "A M M 2"
_symmetry_group_IT_number 38
_symmetry_cell_setting 'orthorhombic'
loop_
_space_group_symop_operation_xyz
x,y,z
-x,-y,z
-x,y,z
x,-y,z
x,1/2+y,1/2+z
-x,1/2-y,1/2+z
-x,1/2+y,1/2+z
x,1/2-y,1/2+z
loop_
_atom_site_type_symbol
_atom_site_label
_atom_site_fract_x
_atom_site_fract_y
_atom_site_fract_z
Si Si1 0.325373 0.634421 0.282860
Si Si2 0.663934 0.774335 0.422035
Si Si3 0.827978 0.943594 0.665733
Si Si4 0.171713 0.328686 0.660115
Si Si5 0.336433 0.262806 0.215230
Si Si6 0.325716 0.329178 0.482523
Si Si7 0.671273 0.443392 0.974900
Si Si8 0.172978 0.634958 0.861198
O O1 0.500000 0.627914 0.279817
O O2 0.242481 0.589657 0.241815
O O3 0.293732 0.681790 0.222453
O O4 0.285682 0.646209 0.387135
O O5 0.500000 0.788134 0.449897
O O6 0.654401 0.754698 0.319303
O O7 0.713031 0.727254 0.475195
O O8 0.767968 0.819693 0.418557
O O9 0.748656 0.933139 0.570646
O O10 0.000000 0.934948 0.657600
O O11 0.806408 0.000000 0.685043
O O12 0.227022 0.274145 0.670922
O O13 0.251189 0.349395 0.572042
O O14 0.207405 0.354421 0.755518
O O15 0.000000 0.330109 0.648217
O O16 0.500000 0.258519 0.176586
O O17 0.500000 0.331488 0.489884
O O18 0.500000 0.432879 0.980909
O O19 0.688529 0.500000 0.956981
O O20 0.746571 0.411374 0.898876
O O21 0.000000 0.630968 0.870128
#
# Coordination Sequence:
#
# PCOD9357510 Si02
#       8
#     8   8   8   8   8   8   8   8
#     4   9  18  33  53  76 100 130 170 210 247 290
#     4   8  15  29  47  67  93 127 166 203 238 280
#     4  10  21  36  54  77 103 129 157 195 249 306
#     4  10  20  31  46  72 104 137 171 204 242 291
#     4   8  15  29  47  66  92 127 165 203 241 281
#     4   9  18  32  50  72 100 136 174 209 245 284
#     4  10  21  37  57  78  97 122 160 204 249 298
#     4  10  20  33  50  74 103 133 165 203 249 298
#
# _framework density 16.803661999999999
#
# number of rings (size 3 to 8) (size 9 to 14) (size 15 to 20)
#    0.000    2.750    0.000    3.000    0.000    5.500 
#    0.000    3.750    0.000    0.750    0.000    0.000 
#    0.000    0.000    0.000    0.000    0.000    0.000 
#
# Total GULP energy -178367.880871 kJ/mol
# GULP energy per Si atom -5573.996277 kJ/mol
# Density = 1.676542 g / cm^3
# Si number density = 16.803662 Si / 1000 Ang^3
#
#
#
# Elastic Constant Matrix: (Units=GPa)
#
#
# Indices 1 2 3 4 5 6 
#
# 1 71.5764 58.3004 63.1971 0.0000 0.0000 0.0000
# 2 58.3004 75.2618 59.8737 0.0000 0.0000 0.0000
# 3 63.1971 59.8737 110.7939 0.0000 0.0000 0.0000
# 4 0.0000 0.0000 0.0000 22.7777 0.0000 0.0000
# 5 0.0000 0.0000 0.0000 0.0000 27.0399 0.0000
# 6 0.0000 0.0000 0.0000 0.0000 0.0000 23.4338
#
#
#
# Elastic Compliance Matrix: (Units=1/GPa)
#
#
# Indices 1 2 3 4 5 6 
#
# 1 0.045584 -0.025656 -0.012137 0.000000 0.000000 0.000000
# 2 -0.025656 0.037747 -0.005764 0.000000 0.000000 0.000000
# 3 -0.012137 -0.005764 0.019064 0.000000 0.000000 0.000000
# 4 0.000000 0.000000 0.000000 0.043903 0.000000 0.000000
# 5 0.000000 0.000000 0.000000 0.000000 0.036982 0.000000
# 6 0.000000 0.000000 0.000000 0.000000 0.000000 0.042673
#
#
# Mechanical properties :
#
#
# Convention : Reuss Voigt Hill
#
# Bulk Modulus (GPa) = 65.44241 68.93049 67.18645
# Shear Modulus (GPa) = 15.71532 19.73433 17.72483
#
# Velocity S-wave (km/s) = 3.06147 3.43068 3.25132
# Velocity P-wave (km/s) = 7.17821 7.53677 7.35967
#
# Compressibility (1/GPa) = 0.01528061
#
# Stress axis : x y z
#
# Youngs Moduli (GPa) = 21.93737 26.49237 52.45572
#
# Poissons Ratio (x) = 0.67969 0.63664
# Poissons Ratio (y) = 0.56282 0.30237
# Poissons Ratio (z) = 0.26625 0.15271
#
# Static dielectric constant tensor:
#      x y z
#    x 1.558710 0.000000 0.000000 
#    y 0.000000 1.555890 0.000000 
#    z 0.000000 0.000000 1.588380 
# 
# From -- ./inp_files/12725.got.cif
#   From: 2010.05.17/outbox.cif.g08.bks.cpg/sg38_7_cif.got.tgz:12725.got - 2010.06.03 18:07:57.
