data_PCOD9357708
_publ_section_title
;
Structure prediction by ZEFSAII (Michael W. Deem and Ramdas Pophale) SiO2 
 PCOD9357708
Probable space group: A M M 2
;
_chemical_formula_sum "Si O2"
_cell_formula_units_Z 64
_cell_length_a 9.054663
_cell_length_b 28.038425
_cell_length_c 13.718215
_cell_angle_alpha 90.000000
_cell_angle_beta 90.000000
_cell_angle_gamma 90.000000
_cell_volume 3482.759702
_symmetry_space_group_name_H-M "A M M 2"
_symmetry_group_IT_number 38
_symmetry_cell_setting 'orthorhombic'
loop_
_space_group_symop_operation_xyz
x,y,z
-x,-y,z
-x,y,z
x,-y,z
x,1/2+y,1/2+z
-x,1/2-y,1/2+z
-x,1/2+y,1/2+z
x,1/2-y,1/2+z
loop_
_atom_site_type_symbol
_atom_site_label
_atom_site_fract_x
_atom_site_fract_y
_atom_site_fract_z
Si Si1 0.322809 0.397401 0.132750
Si Si2 0.828475 0.557421 0.541656
Si Si3 0.676196 0.099933 0.230942
Si Si4 0.840832 0.203972 0.436929
Si Si5 0.669373 0.714033 0.112473
Si Si6 0.175412 0.442834 0.322039
Si Si7 0.168165 0.201988 0.218665
Si Si8 0.168348 0.411039 0.931634
O O1 0.500000 0.401556 0.125583
O O2 0.286144 0.340600 0.135971
O O3 0.262266 0.420187 0.232013
O O4 0.250551 0.420218 0.034631
O O5 0.826537 0.500000 0.540364
O O6 0.732436 0.574833 0.632322
O O7 0.780956 0.573042 0.432164
O O8 0.000000 0.572273 0.555585
O O9 0.500000 0.098352 0.239486
O O10 0.733031 0.154478 0.220259
O O11 0.748026 0.077730 0.330113
O O12 0.699344 0.218196 0.497571
O O13 0.835091 0.222082 0.328160
O O14 0.841251 0.146642 0.429421
O O15 0.000000 0.217698 0.482267
O O16 0.500000 0.720334 0.139585
O O17 0.766747 0.755580 0.156396
O O18 0.194265 0.500000 0.317870
O O19 0.000000 0.432985 0.311613
O O20 0.000000 0.188878 0.191698
O O21 0.000000 0.429750 0.931778
#
# Coordination Sequence:
#
# PCOD9357708 Si02
#       8
#     8   8   8   8   8   8   8   8
#     4  10  20  34  54  82 113 144 179 224 280 333
#     4   9  19  38  61  82 108 146 189 230 274 328
#     4  11  21  34  55  83 113 142 177 225 282 334
#     4   8  16  31  50  70  93 130 175 214 255 310
#     4  10  20  33  50  75 106 140 174 218 272 322
#     4   9  19  37  60  83 108 144 188 230 274 327
#     4  10  20  35  54  75 102 140 185 223 262 318
#     4   9  17  32  55  78 104 141 180 217 260 319
#
# _framework density 18.376231000000001
#
# number of rings (size 3 to 8) (size 9 to 14) (size 15 to 20)
#    0.000    2.500    0.000    4.125    0.000    6.000 
#    2.250    1.875    0.000    3.750    0.000    0.000 
#    0.000    0.000    0.000    0.000    0.000    0.000 
#
# Total GULP energy -178225.112175 kJ/mol
# GULP energy per Si atom -5569.534755 kJ/mol
# Density = 1.833441 g / cm^3
# Si number density = 18.376231 Si / 1000 Ang^3
#
#
#
# Elastic Constant Matrix: (Units=GPa)
#
#
# Indices 1 2 3 4 5 6 
#
# 1 92.0127 24.3831 62.0978 0.0000 0.0000 0.0000
# 2 24.3831 22.6170 32.8707 0.0000 0.0000 0.0000
# 3 62.0978 32.8707 137.0791 0.0000 0.0000 0.0000
# 4 0.0000 0.0000 0.0000 25.9885 0.0000 0.0000
# 5 0.0000 0.0000 0.0000 0.0000 19.3486 0.0000
# 6 0.0000 0.0000 0.0000 0.0000 0.0000 22.3161
#
#
#
# Elastic Compliance Matrix: (Units=1/GPa)
#
#
# Indices 1 2 3 4 5 6 
#
# 1 0.017311 -0.011152 -0.005168 0.000000 0.000000 0.000000
# 2 -0.011152 0.075051 -0.012945 0.000000 0.000000 0.000000
# 3 -0.005168 -0.012945 0.012740 0.000000 0.000000 0.000000
# 4 0.000000 0.000000 0.000000 0.038479 0.000000 0.000000
# 5 0.000000 0.000000 0.000000 0.000000 0.051683 0.000000
# 6 0.000000 0.000000 0.000000 0.000000 0.000000 0.044811
#
#
# Mechanical properties :
#
#
# Convention : Reuss Voigt Hill
#
# Bulk Modulus (GPa) = 21.47182 54.49022 37.98102
# Shear Modulus (GPa) = 15.91709 22.35444 19.13576
#
# Velocity S-wave (km/s) = 2.94628 3.49160 3.23047
# Velocity P-wave (km/s) = 4.82535 6.78026 5.88456
#
# Compressibility (1/GPa) = 0.04657267
#
# Stress axis : x y z
#
# Youngs Moduli (GPa) = 57.76683 13.32435 78.49175
#
# Poissons Ratio (x) = 0.14859 0.40563
# Poissons Ratio (y) = 0.64421 1.01606
# Poissons Ratio (z) = 0.29853 0.17248
#
# Static dielectric constant tensor:
#      x y z
#    x 1.664560 0.000000 0.000000 
#    y 0.000000 1.614610 0.000000 
#    z 0.000000 0.000000 1.655820 
# 
# From -- ./inp_files/8689.got.cif
#   From: 2010.05.17/outbox.cif.g08.bks.cpg/sg38_5_cif.got.tgz:8689.got - 2010.06.03 18:07:57.
