data_PCOD9357598
_publ_section_title
;
Structure prediction by ZEFSAII (Michael W. Deem and Ramdas Pophale) SiO2 
 PCOD9357598
Probable space group: A M M 2
;
_chemical_formula_sum "Si O2"
_cell_formula_units_Z 64
_cell_length_a 13.529564
_cell_length_b 13.667309
_cell_length_c 19.621482
_cell_angle_alpha 90.000000
_cell_angle_beta 90.000000
_cell_angle_gamma 90.000000
_cell_volume 3628.261839
_symmetry_space_group_name_H-M "A M M 2"
_symmetry_group_IT_number 38
_symmetry_cell_setting 'orthorhombic'
loop_
_space_group_symop_operation_xyz
x,y,z
-x,-y,z
-x,y,z
x,-y,z
x,1/2+y,1/2+z
-x,1/2-y,1/2+z
-x,1/2+y,1/2+z
x,1/2-y,1/2+z
loop_
_atom_site_type_symbol
_atom_site_label
_atom_site_fract_x
_atom_site_fract_y
_atom_site_fract_z
Si Si1 0.118594 0.382636 0.446450
Si Si2 0.116323 0.383465 0.294365
Si Si3 0.744919 0.250555 0.040741
Si Si4 0.890565 0.113077 0.235005
Si Si5 0.616585 0.116820 0.439944
Si Si6 0.315077 0.117232 0.291609
Si Si7 0.114728 0.702176 0.152531
Si Si8 0.617126 0.384380 0.641232
O O1 0.132597 0.500000 0.454722
O O2 0.151938 0.354689 0.369301
O O3 0.182258 0.319953 0.498386
O O4 0.000000 0.365155 0.452802
O O5 0.124026 0.500000 0.291404
O O6 0.155245 0.341809 0.223474
O O7 0.000000 0.357711 0.293383
O O8 0.814612 0.315680 0.089706
O O9 0.675776 0.182879 0.088423
O O10 0.680469 0.318780 0.991548
O O11 0.802150 0.136654 0.286231
O O12 0.884475 0.181766 0.169260
O O13 0.000000 0.127469 0.265009
O O14 0.880173 0.000000 0.215556
O O15 0.500000 0.127453 0.453380
O O16 0.638841 0.151355 0.362271
O O17 0.640296 0.000000 0.444650
O O18 0.359785 0.149152 0.219037
O O19 0.329751 0.000000 0.292026
O O20 0.000000 0.672252 0.141991
O O21 0.500000 0.378103 0.629700
O O22 0.645609 0.500000 0.635531
#
# Coordination Sequence:
#
# PCOD9357598 Si02
#       8
#     8   8   8   8   8   8   8   8
#     4   9  19  35  54  79 111 146 180 212 255 322
#     4   8  16  33  53  69  93 135 182 216 238 278
#     4  12  22  32  53  79 112 140 175 218 276 331
#     4   9  17  29  48  78 113 141 167 207 263 322
#     4  10  23  42  59  75 101 143 191 234 278 328
#     4   9  17  34  57  77  99 134 181 223 266 324
#     4  10  20  32  49  77 109 142 175 210 258 315
#     4  10  20  34  53  78 104 130 169 226 282 327
#
# _framework density 17.639301
#
# number of rings (size 3 to 8) (size 9 to 14) (size 15 to 20)
#    0.000    2.375    1.250    2.250    1.750    2.500 
#    0.000    1.875    0.000    1.875    0.000    0.000 
#    0.000    4.000    0.000    0.000    0.000    0.000 
#
# Total GULP energy -178329.575794 kJ/mol
# GULP energy per Si atom -5572.799244 kJ/mol
# Density = 1.759915 g / cm^3
# Si number density = 17.639301 Si / 1000 Ang^3
#
#
#
# Elastic Constant Matrix: (Units=GPa)
#
#
# Indices 1 2 3 4 5 6 
#
# 1 90.4441 40.3353 66.3004 0.0000 0.0000 0.0000
# 2 40.3353 66.1744 54.3524 0.0000 0.0000 0.0000
# 3 66.3004 54.3524 153.8689 0.0000 0.0000 0.0000
# 4 0.0000 0.0000 0.0000 27.2216 0.0000 0.0000
# 5 0.0000 0.0000 0.0000 0.0000 23.5155 0.0000
# 6 0.0000 0.0000 0.0000 0.0000 0.0000 20.1501
#
#
#
# Elastic Compliance Matrix: (Units=1/GPa)
#
#
# Indices 1 2 3 4 5 6 
#
# 1 0.017926 -0.006455 -0.005444 0.000000 0.000000 0.000000
# 2 -0.006455 0.023612 -0.005559 0.000000 0.000000 0.000000
# 3 -0.005444 -0.005559 0.010809 0.000000 0.000000 0.000000
# 4 0.000000 0.000000 0.000000 0.036736 0.000000 0.000000
# 5 0.000000 0.000000 0.000000 0.000000 0.042525 0.000000
# 6 0.000000 0.000000 0.000000 0.000000 0.000000 0.049627
#
#
# Mechanical properties :
#
#
# Convention : Reuss Voigt Hill
#
# Bulk Modulus (GPa) = 57.37184 70.27374 63.82279
# Shear Modulus (GPa) = 22.52638 24.14405 23.33522
#
# Velocity S-wave (km/s) = 3.57747 3.70370 3.64113
# Velocity P-wave (km/s) = 7.04699 7.62991 7.34424
#
# Compressibility (1/GPa) = 0.01743015
#
# Stress axis : x y z
#
# Youngs Moduli (GPa) = 55.78487 42.35077 92.51923
#
# Poissons Ratio (x) = 0.27338 0.50367
# Poissons Ratio (y) = 0.36009 0.51435
# Poissons Ratio (z) = 0.30369 0.23544
#
# Static dielectric constant tensor:
#      x y z
#    x 1.614050 0.000000 0.000000 
#    y 0.000000 1.618840 0.000000 
#    z 0.000000 0.000000 1.610270 
# 
# From -- ./inp_files/18511.got.cif
#   From: 2010.05.17/outbox.cif.g08.bks.cpg/sg38_10_cif.got.tgz:18511.got - 2010.06.03 18:07:57.
