data_PCOD9357995
_publ_section_title
;
Structure prediction by ZEFSAII (Michael W. Deem and Ramdas Pophale) SiO2 
 PCOD9357995
Probable space group: A M M 2
;
_chemical_formula_sum "Si O2"
_cell_formula_units_Z 64
_cell_length_a 25.499834
_cell_length_b 8.035615
_cell_length_c 14.786008
_cell_angle_alpha 90.000000
_cell_angle_beta 90.000000
_cell_angle_gamma 90.000000
_cell_volume 3029.754302
_symmetry_space_group_name_H-M "A M M 2"
_symmetry_group_IT_number 38
_symmetry_cell_setting 'orthorhombic'
loop_
_space_group_symop_operation_xyz
x,y,z
-x,-y,z
-x,y,z
x,-y,z
x,1/2+y,1/2+z
-x,1/2-y,1/2+z
-x,1/2+y,1/2+z
x,1/2-y,1/2+z
loop_
_atom_site_type_symbol
_atom_site_label
_atom_site_fract_x
_atom_site_fract_y
_atom_site_fract_z
Si Si1 0.645002 0.696979 0.686760
Si Si2 0.130331 0.798641 0.626851
Si Si3 0.628472 0.803195 0.984637
Si Si4 0.757999 0.306649 0.164342
Si Si5 0.058779 0.300255 0.780975
Si Si6 0.852922 0.296064 0.919496
Si Si7 0.260437 0.306156 0.946188
Si Si8 0.441643 0.699528 0.329244
O O1 0.638162 0.500000 0.685384
O O2 0.634305 0.767125 0.585606
O O3 0.706347 0.728401 0.707625
O O4 0.602210 0.766554 0.754551
O O5 0.183588 0.735143 0.676483
O O6 0.080063 0.741062 0.681611
O O7 0.131956 0.747781 0.522045
O O8 0.132773 0.000000 0.628033
O O9 0.683974 0.780349 0.933666
O O10 0.582016 0.733213 0.923460
O O11 0.620033 0.000000 0.994719
O O12 0.758001 0.500000 0.189608
O O13 0.750590 0.297106 0.054758
O O14 0.057334 0.500000 0.791056
O O15 0.102874 0.236817 0.850599
O O16 0.000000 0.236353 0.796477
O O17 0.851077 0.500000 0.917670
O O18 0.792977 0.239745 0.901388
O O19 0.266853 0.500000 0.922561
O O20 0.500000 0.763605 0.308815
O O21 0.445171 0.500000 0.337497
#
# Coordination Sequence:
#
# PCOD9357995 Si02
#       8
#     8   8   8   8   8   8   8   8
#     4  10  20  34  55  82 108 134 167 211 258 301
#     4   9  18  34  56  78 100 132 173 213 251 297
#     4   9  19  35  54  77 105 135 166 204 255 310
#     4   8  15  30  52  78 107 135 164 202 253 311
#     4  10  21  35  50  72 103 137 173 213 258 306
#     4   8  16  33  54  74  99 134 171 204 248 308
#     4   8  14  28  52  78 102 129 164 206 250 301
#     4  10  22  39  55  72 100 141 182 213 249 302
#
# _framework density 21.123825
#
# number of rings (size 3 to 8) (size 9 to 14) (size 15 to 20)
#    0.000    3.000    0.000    1.875    0.000    4.000 
#    0.000    8.125    0.000    0.000    0.000    0.000 
#    0.000    0.000    0.000    0.000    0.000    0.000 
#
# Total GULP energy -178484.757020 kJ/mol
# GULP energy per Si atom -5577.648657 kJ/mol
# Density = 2.107575 g / cm^3
# Si number density = 21.123825 Si / 1000 Ang^3
#
#
#
# Elastic Constant Matrix: (Units=GPa)
#
#
# Indices 1 2 3 4 5 6 
#
# 1 114.2195 6.3697 23.4749 0.0000 0.0000 0.0000
# 2 6.3697 11.9948 -3.1883 0.0000 0.0000 0.0000
# 3 23.4749 -3.1883 45.1197 0.0000 0.0000 0.0000
# 4 0.0000 0.0000 0.0000 3.3428 0.0000 0.0000
# 5 0.0000 0.0000 0.0000 0.0000 27.8717 0.0000
# 6 0.0000 0.0000 0.0000 0.0000 0.0000 22.1429
#
#
#
# Elastic Compliance Matrix: (Units=1/GPa)
#
#
# Indices 1 2 3 4 5 6 
#
# 1 0.010360 -0.007067 -0.005889 0.000000 0.000000 0.000000
# 2 -0.007067 0.089786 0.010021 0.000000 0.000000 0.000000
# 3 -0.005889 0.010021 0.025935 0.000000 0.000000 0.000000
# 4 0.000000 0.000000 0.000000 0.299147 0.000000 0.000000
# 5 0.000000 0.000000 0.000000 0.000000 0.035879 0.000000
# 6 0.000000 0.000000 0.000000 0.000000 0.000000 0.045161
#
#
# Mechanical properties :
#
#
# Convention : Reuss Voigt Hill
#
# Bulk Modulus (GPa) = 8.31868 24.96074 16.63971
# Shear Modulus (GPa) = 9.05457 20.31666 14.68562
#
# Velocity S-wave (km/s) = 2.07261 3.10464 2.63956
# Velocity P-wave (km/s) = 3.11035 4.96928 4.14536
#
# Compressibility (1/GPa) = 0.12021143
#
# Stress axis : x y z
#
# Youngs Moduli (GPa) = 96.52930 11.13762 38.55726
#
# Poissons Ratio (x) = 0.07871 0.22707
# Poissons Ratio (y) = 0.68215 -0.38639
# Poissons Ratio (z) = 0.56848 -0.11161
#
# Static dielectric constant tensor:
#      x y z
#    x 1.775470 0.000000 0.000000 
#    y 0.000000 1.755040 0.000000 
#    z 0.000000 0.000000 1.799920 
# 
# From -- ./inp_files/15795.got.cif
#   From: 2010.05.17/outbox.cif.g08.bks.cpg/sg38_8_cif.got.tgz:15795.got - 2010.06.03 18:07:57.
