data_PCOD9357855
_publ_section_title
;
Structure prediction by ZEFSAII (Michael W. Deem and Ramdas Pophale) SiO2 
 PCOD9357855
Probable space group: A M M 2
;
_chemical_formula_sum "Si O2"
_cell_formula_units_Z 40
_cell_length_a 8.881579
_cell_length_b 21.282643
_cell_length_c 12.810706
_cell_angle_alpha 90.000000
_cell_angle_beta 90.000000
_cell_angle_gamma 90.000000
_cell_volume 2421.524167
_symmetry_space_group_name_H-M "A M M 2"
_symmetry_group_IT_number 38
_symmetry_cell_setting 'orthorhombic'
loop_
_space_group_symop_operation_xyz
x,y,z
-x,-y,z
-x,y,z
x,-y,z
x,1/2+y,1/2+z
-x,1/2-y,1/2+z
-x,1/2+y,1/2+z
x,1/2-y,1/2+z
loop_
_atom_site_type_symbol
_atom_site_label
_atom_site_fract_x
_atom_site_fract_y
_atom_site_fract_z
Si Si1 0.321770 0.302075 0.139590
Si Si2 0.319671 0.835830 0.870591
Si Si3 0.179824 0.574030 0.537841
Si Si4 0.821039 0.200681 0.424270
Si Si5 0.320233 0.340760 0.715057
O O1 0.500000 0.307235 0.117242
O O2 0.288997 0.338969 0.246701
O O3 0.290973 0.228691 0.166473
O O4 0.228902 0.321629 0.038638
O O5 0.500000 0.831814 0.884795
O O6 0.247676 0.770649 0.910366
O O7 0.252587 0.892022 0.937852
O O8 0.211772 0.500000 0.538679
O O9 0.248354 0.608185 0.639077
O O10 0.000000 0.583248 0.536256
O O11 0.750960 0.160415 0.330079
O O12 0.000000 0.203101 0.414801
O O13 0.500000 0.348224 0.721195
#
# Coordination Sequence:
#
# PCOD9357855 Si02
#       5
#     8   8   8   8   8
#     4   9  18  32  51  76 106 137 172 217 265 314
#     4  10  20  34  52  75 105 141 180 217 259 315
#     4  11  23  37  54  78 109 141 177 222 267 314
#     4  11  20  30  51  79 110 139 169 217 271 318
#     4  10  20  34  53  75 105 141 179 217 259 315
#
# _framework density 16.518522000000001
#
# number of rings (size 3 to 8) (size 9 to 14) (size 15 to 20)
#    0.000    1.800    2.000    4.800    0.000    5.600 
#    0.000    0.000    0.000    1.200    0.000    5.600 
#    0.000    0.000    0.000    0.000    0.000    0.000 
#
# Total GULP energy -111659.782692 kJ/mol
# GULP energy per Si atom -5582.989135 kJ/mol
# Density = 1.648093 g / cm^3
# Si number density = 16.518522 Si / 1000 Ang^3
#
#
#
# Elastic Constant Matrix: (Units=GPa)
#
#
# Indices 1 2 3 4 5 6 
#
# 1 98.8905 58.7042 89.1005 0.0000 0.0000 0.0000
# 2 58.7042 82.5885 68.9509 0.0000 0.0000 0.0000
# 3 89.1005 68.9509 161.7894 0.0000 0.0000 0.0000
# 4 0.0000 0.0000 0.0000 19.5109 0.0000 0.0000
# 5 0.0000 0.0000 0.0000 0.0000 8.1444 0.0000
# 6 0.0000 0.0000 0.0000 0.0000 0.0000 16.2787
#
#
#
# Elastic Compliance Matrix: (Units=1/GPa)
#
#
# Indices 1 2 3 4 5 6 
#
# 1 0.023956 -0.009335 -0.009215 0.000000 0.000000 0.000000
# 2 -0.009335 0.022433 -0.004420 0.000000 0.000000 0.000000
# 3 -0.009215 -0.004420 0.013139 0.000000 0.000000 0.000000
# 4 0.000000 0.000000 0.000000 0.051253 0.000000 0.000000
# 5 0.000000 0.000000 0.000000 0.000000 0.122784 0.000000
# 6 0.000000 0.000000 0.000000 0.000000 0.000000 0.061430
#
#
# Mechanical properties :
#
#
# Convention : Reuss Voigt Hill
#
# Bulk Modulus (GPa) = 73.58370 86.30885 79.94627
# Shear Modulus (GPa) = 14.47325 17.22099 15.84712
#
# Velocity S-wave (km/s) = 2.96325 3.23232 3.10071
# Velocity P-wave (km/s) = 7.50671 8.14209 7.83085
#
# Compressibility (1/GPa) = 0.01358997
#
# Stress axis : x y z
#
# Youngs Moduli (GPa) = 41.74273 44.57642 76.10822
#
# Poissons Ratio (x) = 0.41612 0.70132
# Poissons Ratio (y) = 0.38967 0.33637
# Poissons Ratio (z) = 0.38465 0.19701
#
# Static dielectric constant tensor:
#      x y z
#    x 1.549110 0.000000 0.000000 
#    y 0.000000 1.519960 0.000000 
#    z 0.000000 0.000000 1.572830 
# 
# From -- ./inp_files/7768.got.cif
#   From: 2010.05.17/outbox.cif.g08.bks.cpg/sg38_4_cif.got.tgz:7768.got - 2010.06.03 18:07:57.
