data_PCOD9357986
_publ_section_title
;
Structure prediction by ZEFSAII (Michael W. Deem and Ramdas Pophale) SiO2 
 PCOD9357986
Probable space group: A M M 2
;
_chemical_formula_sum "Si O2"
_cell_formula_units_Z 64
_cell_length_a 8.100472
_cell_length_b 16.518126
_cell_length_c 23.560328
_cell_angle_alpha 90.000000
_cell_angle_beta 90.000000
_cell_angle_gamma 90.000000
_cell_volume 3152.480668
_symmetry_space_group_name_H-M "A M M 2"
_symmetry_group_IT_number 38
_symmetry_cell_setting 'orthorhombic'
loop_
_space_group_symop_operation_xyz
x,y,z
-x,-y,z
-x,y,z
x,-y,z
x,1/2+y,1/2+z
-x,1/2-y,1/2+z
-x,1/2+y,1/2+z
x,1/2-y,1/2+z
loop_
_atom_site_type_symbol
_atom_site_label
_atom_site_fract_x
_atom_site_fract_y
_atom_site_fract_z
Si Si1 0.809608 0.807611 0.741140
Si Si2 0.800495 0.408922 0.907059
Si Si3 0.305027 0.262055 0.118889
Si Si4 0.307113 0.909392 0.968627
Si Si5 0.810148 0.093749 0.842667
Si Si6 0.192713 0.622532 0.779765
Si Si7 0.299750 0.729511 0.995944
Si Si8 0.799892 0.913597 0.155174
O O1 0.748785 0.804183 0.677034
O O2 0.729755 0.862731 0.789046
O O3 0.802211 0.717934 0.767499
O O4 0.000000 0.833103 0.737646
O O5 0.750345 0.500000 0.925947
O O6 0.738585 0.397069 0.841881
O O7 0.000000 0.407253 0.905013
O O8 0.750166 0.334952 0.947905
O O9 0.500000 0.267107 0.116849
O O10 0.242162 0.296230 0.059036
O O11 0.259361 0.167164 0.124880
O O12 0.500000 0.912000 0.984658
O O13 0.288680 0.899994 0.900794
O O14 0.236054 0.000000 0.982532
O O15 0.238420 0.822939 0.989790
O O16 0.000000 0.124341 0.853020
O O17 0.822750 0.000000 0.828681
O O18 0.261443 0.587784 0.720719
O O19 0.000000 0.597204 0.781582
O O20 0.500000 0.732973 0.994085
O O21 0.000000 0.909190 0.156826
O O22 0.751833 0.000000 0.129138
#
# Coordination Sequence:
#
# PCOD9357986 Si02
#       8
#     8   8   8   8   8   8   8   8
#     4   9  17  31  51  73  99 131 162 199 252 306
#     4  10  20  34  55  81 104 131 171 215 257 304
#     4  10  21  35  50  69  95 131 175 215 248 289
#     4   9  18  33  53  77 105 137 172 208 250 306
#     4   9  17  30  50  77 104 127 157 202 256 309
#     4   8  14  27  49  75 101 128 157 192 242 304
#     4  10  22  38  53  71 101 142 179 213 258 303
#     4   9  17  31  52  77 105 134 160 192 243 305
#
# _framework density 20.301473000000001
#
# number of rings (size 3 to 8) (size 9 to 14) (size 15 to 20)
#    0.000    2.750    0.000    2.250    0.000    5.500 
#    0.000    5.625    0.000    6.750    0.000    0.000 
#    0.000    0.000    0.000    0.000    0.000    0.000 
#
# Total GULP energy -178202.154264 kJ/mol
# GULP energy per Si atom -5568.817321 kJ/mol
# Density = 2.025527 g / cm^3
# Si number density = 20.301473 Si / 1000 Ang^3
#
#
#
# Elastic Constant Matrix: (Units=GPa)
#
#
# Indices 1 2 3 4 5 6 
#
# 1 11.2922 2.0876 -0.8648 0.0000 0.0000 0.0000
# 2 2.0876 47.7816 44.9157 0.0000 0.0000 0.0000
# 3 -0.8648 44.9157 104.2122 0.0000 0.0000 0.0000
# 4 0.0000 0.0000 0.0000 33.1962 0.0000 0.0000
# 5 0.0000 0.0000 0.0000 0.0000 18.2945 0.0000
# 6 0.0000 0.0000 0.0000 0.0000 0.0000 17.2360
#
#
#
# Elastic Compliance Matrix: (Units=1/GPa)
#
#
# Indices 1 2 3 4 5 6 
#
# 1 0.090318 -0.007818 0.004119 0.000000 0.000000 0.000000
# 2 -0.007818 0.035860 -0.015520 0.000000 0.000000 0.000000
# 3 0.004119 -0.015520 0.016319 0.000000 0.000000 0.000000
# 4 0.000000 0.000000 0.000000 0.030124 0.000000 0.000000
# 5 0.000000 0.000000 0.000000 0.000000 0.054661 0.000000
# 6 0.000000 0.000000 0.000000 0.000000 0.000000 0.058018
#
#
# Mechanical properties :
#
#
# Convention : Reuss Voigt Hill
#
# Bulk Modulus (GPa) = 9.61004 28.39590 19.00297
# Shear Modulus (GPa) = 13.94994 21.55518 17.75256
#
# Velocity S-wave (km/s) = 2.62418 3.26199 2.96031
# Velocity P-wave (km/s) = 3.73171 5.31083 4.58970
#
# Compressibility (1/GPa) = 0.10405785
#
# Stress axis : x y z
#
# Youngs Moduli (GPa) = 11.07204 27.88649 61.27699
#
# Poissons Ratio (x) = 0.21801 -0.25240
# Poissons Ratio (y) = 0.08656 0.95105
# Poissons Ratio (z) = -0.04561 0.43281
#
# Static dielectric constant tensor:
#      x y z
#    x 1.744130 0.000000 0.000000 
#    y 0.000000 1.748500 0.000000 
#    z 0.000000 0.000000 1.760700 
# 
# From -- ./inp_files/22192.got.cif
#   From: 2010.05.17/outbox.cif.g08.bks.cpg/sg38_12_cif.got.tgz:22192.got - 2010.06.03 18:07:57.
