data_PCOD9357476
_publ_section_title
;
Structure prediction by ZEFSAII (Michael W. Deem and Ramdas Pophale) SiO2 
 PCOD9357476
Probable space group: A M M 2
;
_chemical_formula_sum "Si O2"
_cell_formula_units_Z 56
_cell_length_a 7.542869
_cell_length_b 22.051398
_cell_length_c 15.440860
_cell_angle_alpha 90.000000
_cell_angle_beta 90.000000
_cell_angle_gamma 90.000000
_cell_volume 2568.290695
_symmetry_space_group_name_H-M "A M M 2"
_symmetry_group_IT_number 38
_symmetry_cell_setting 'orthorhombic'
loop_
_space_group_symop_operation_xyz
x,y,z
-x,-y,z
-x,y,z
x,-y,z
x,1/2+y,1/2+z
-x,1/2-y,1/2+z
-x,1/2+y,1/2+z
x,1/2-y,1/2+z
loop_
_atom_site_type_symbol
_atom_site_label
_atom_site_fract_x
_atom_site_fract_y
_atom_site_fract_z
Si Si1 0.500000 0.426349 0.050470
Si Si2 0.785351 0.386766 0.729592
Si Si3 0.293228 0.066619 0.044580
Si Si4 0.214019 0.162008 0.795217
Si Si5 0.796890 0.301759 0.476742
Si Si6 0.215807 0.257816 0.654525
Si Si7 0.500000 0.071248 0.753988
Si Si8 0.796869 0.426606 0.919553
O O1 0.500000 0.500000 0.044636
O O2 0.500000 0.413557 0.151606
O O3 0.672240 0.405259 0.997372
O O4 0.721561 0.426733 0.648787
O O5 0.731437 0.318274 0.706519
O O6 0.729355 0.406281 0.825187
O O7 0.000000 0.390437 0.728739
O O8 0.500000 0.069501 0.020590
O O9 0.206141 0.127153 0.005594
O O10 0.223594 0.000000 0.019335
O O11 0.261818 0.199330 0.709392
O O12 0.324724 0.100694 0.794571
O O13 0.000000 0.153629 0.798705
O O14 0.273528 0.199747 0.879829
O O15 0.715431 0.265138 0.556735
O O16 0.000000 0.281422 0.469724
O O17 0.000000 0.259610 0.650593
O O18 0.500000 0.000000 0.765202
O O19 0.798515 0.500000 0.919303
O O20 0.000000 0.405670 0.930681
#
# Coordination Sequence:
#
# PCOD9357476 Si02
#       8
#     4   8   8   8   8   8   4   8
#     4   9  20  38  55  74 112 152 186 247 304 341
#     4   9  17  31  52  79 114 155 196 247 303 360
#     4  10  20  30  46  77 117 160 200 245 305 364
#     4  10  22  43  68  93 123 163 205 250 312 371
#     4   9  19  37  61  86 118 159 199 250 307 360
#     4   8  16  36  61  86 120 156 194 245 302 360
#     4  11  26  46  65  90 122 156 205 265 314 363
#     4   9  17  30  52  81 114 157 203 243 295 359
#
# _framework density 21.804385
#
# number of rings (size 3 to 8) (size 9 to 14) (size 15 to 20)
#    0.000    2.714    0.000    1.714    2.000    3.143 
#    7.714    2.857    0.000    0.000    0.000    0.000 
#    0.000    0.000    0.000    0.000    0.000    0.000 
#
# Total GULP energy -156292.736464 kJ/mol
# GULP energy per Si atom -5581.883445 kJ/mol
# Density = 2.175476 g / cm^3
# Si number density = 21.804385 Si / 1000 Ang^3
#
#
#
# Elastic Constant Matrix: (Units=GPa)
#
#
# Indices 1 2 3 4 5 6 
#
# 1 75.2726 13.3646 26.6471 0.0000 0.0000 0.0000
# 2 13.3646 64.6735 20.3056 0.0000 0.0000 0.0000
# 3 26.6471 20.3056 113.3469 0.0000 0.0000 0.0000
# 4 0.0000 0.0000 0.0000 21.3719 0.0000 0.0000
# 5 0.0000 0.0000 0.0000 0.0000 28.6007 0.0000
# 6 0.0000 0.0000 0.0000 0.0000 0.0000 16.2951
#
#
#
# Elastic Compliance Matrix: (Units=1/GPa)
#
#
# Indices 1 2 3 4 5 6 
#
# 1 0.014750 -0.002076 -0.003096 0.000000 0.000000 0.000000
# 2 -0.002076 0.016676 -0.002499 0.000000 0.000000 0.000000
# 3 -0.003096 -0.002499 0.009998 0.000000 0.000000 0.000000
# 4 0.000000 0.000000 0.000000 0.046790 0.000000 0.000000
# 5 0.000000 0.000000 0.000000 0.000000 0.034964 0.000000
# 6 0.000000 0.000000 0.000000 0.000000 0.000000 0.061368
#
#
# Mechanical properties :
#
#
# Convention : Reuss Voigt Hill
#
# Bulk Modulus (GPa) = 38.34134 41.54751 39.94443
# Shear Modulus (GPa) = 23.97138 26.11858 25.04498
#
# Velocity S-wave (km/s) = 3.31929 3.46476 3.39281
# Velocity P-wave (km/s) = 5.68442 5.92471 5.80581
#
# Compressibility (1/GPa) = 0.02608151
#
# Stress axis : x y z
#
# Youngs Moduli (GPa) = 67.79888 59.96633 100.02015
#
# Poissons Ratio (x) = 0.12449 0.30962
# Poissons Ratio (y) = 0.14075 0.24999
# Poissons Ratio (z) = 0.20988 0.14988
#
# Static dielectric constant tensor:
#      x y z
#    x 1.752610 0.000000 0.000000 
#    y 0.000000 1.776270 0.000000 
#    z 0.000000 0.000000 1.798020 
# 
# From -- ./inp_files/12519.got.cif
#   From: 2010.05.17/outbox.cif.g08.bks.cpg/sg38_7_cif.got.tgz:12519.got - 2010.06.03 18:07:57.
