data_PCOD9357698
_publ_section_title
;
Structure prediction by ZEFSAII (Michael W. Deem and Ramdas Pophale) SiO2 
 PCOD9357698
Probable space group: A M M 2
;
_chemical_formula_sum "Si O2"
_cell_formula_units_Z 48
_cell_length_a 7.503157
_cell_length_b 9.476871
_cell_length_c 31.699303
_cell_angle_alpha 90.000000
_cell_angle_beta 90.000000
_cell_angle_gamma 90.000000
_cell_volume 2254.024935
_symmetry_space_group_name_H-M "A M M 2"
_symmetry_group_IT_number 38
_symmetry_cell_setting 'orthorhombic'
loop_
_space_group_symop_operation_xyz
x,y,z
-x,-y,z
-x,y,z
x,-y,z
x,1/2+y,1/2+z
-x,1/2-y,1/2+z
-x,1/2+y,1/2+z
x,1/2-y,1/2+z
loop_
_atom_site_type_symbol
_atom_site_label
_atom_site_fract_x
_atom_site_fract_y
_atom_site_fract_z
Si Si1 0.288658 0.341133 0.143980
Si Si2 0.785959 0.340352 0.887987
Si Si3 0.281565 0.662443 0.723797
Si Si4 0.782577 0.662525 0.467396
Si Si5 0.214563 0.660415 0.562384
Si Si6 0.713184 0.339748 0.304696
O O1 0.500000 0.351999 0.151294
O O2 0.215218 0.500000 0.144921
O O3 0.220249 0.241579 0.181474
O O4 0.265133 0.267154 0.098971
O O5 0.718501 0.500000 0.882699
O O6 0.719675 0.265545 0.930651
O O7 0.747643 0.243738 0.847717
O O8 0.000000 0.348113 0.891540
O O9 0.500000 0.660724 0.723873
O O10 0.224042 0.500000 0.725151
O O11 0.221911 0.749970 0.764701
O O12 0.730707 0.500000 0.458993
O O13 0.725605 0.699306 0.515033
O O14 0.000000 0.665129 0.467155
O O15 0.276465 0.500000 0.571553
O O16 0.000000 0.656223 0.561262
O O17 0.500000 0.349024 0.299934
O O18 0.782868 0.500000 0.305835
#
# Coordination Sequence:
#
# PCOD9357698 Si02
#       6
#     8   8   8   8   8   8
#     4  10  20  33  50  74 103 133 166 203 243 291
#     4  10  20  33  51  76 103 131 165 204 246 293
#     4   9  17  31  52  74  97 129 166 202 244 294
#     4   8  15  30  51  72  96 129 167 204 244 293
#     4   9  18  33  53  76 100 128 165 207 249 294
#     4  10  20  34  53  76 101 130 165 204 246 293
#
# _framework density 21.295238999999999
#
# number of rings (size 3 to 8) (size 9 to 14) (size 15 to 20)
#    0.000    2.667    0.000    3.000    0.000    6.000 
#    0.000    3.333    0.000    6.000    0.000    0.000 
#    0.000    0.000    0.000    0.000    0.000    0.000 
#
# Total GULP energy -134044.602237 kJ/mol
# GULP energy per Si atom -5585.191760 kJ/mol
# Density = 2.124677 g / cm^3
# Si number density = 21.295239 Si / 1000 Ang^3
#
#
#
# Elastic Constant Matrix: (Units=GPa)
#
#
# Indices 1 2 3 4 5 6 
#
# 1 56.0562 7.4464 -0.6756 0.0000 0.0000 0.0000
# 2 7.4464 231.9677 152.2647 0.0000 0.0000 0.0000
# 3 -0.6756 152.2647 192.3968 0.0000 0.0000 0.0000
# 4 0.0000 0.0000 0.0000 42.3895 0.0000 0.0000
# 5 0.0000 0.0000 0.0000 0.0000 24.2211 0.0000
# 6 0.0000 0.0000 0.0000 0.0000 0.0000 12.5042
#
#
#
# Elastic Compliance Matrix: (Units=1/GPa)
#
#
# Indices 1 2 3 4 5 6 
#
# 1 0.018024 -0.001291 0.001085 0.000000 0.000000 0.000000
# 2 -0.001291 0.009064 -0.007178 0.000000 0.000000 0.000000
# 3 0.001085 -0.007178 0.010882 0.000000 0.000000 0.000000
# 4 0.000000 0.000000 0.000000 0.023591 0.000000 0.000000
# 5 0.000000 0.000000 0.000000 0.000000 0.041286 0.000000
# 6 0.000000 0.000000 0.000000 0.000000 0.000000 0.079973
#
#
# Mechanical properties :
#
#
# Convention : Reuss Voigt Hill
#
# Bulk Modulus (GPa) = 43.09928 88.72128 65.91028
# Shear Modulus (GPa) = 24.35207 37.24865 30.80036
#
# Velocity S-wave (km/s) = 3.38530 4.18683 3.80722
# Velocity P-wave (km/s) = 5.96349 8.07004 7.09538
#
# Compressibility (1/GPa) = 0.02320224
#
# Stress axis : x y z
#
# Youngs Moduli (GPa) = 55.48234 110.32759 91.89504
#
# Poissons Ratio (x) = 0.14238 -0.09967
# Poissons Ratio (y) = 0.07160 0.65960
# Poissons Ratio (z) = -0.06018 0.79191
#
# Static dielectric constant tensor:
#      x y z
#    x 1.833430 0.000000 0.000000 
#    y 0.000000 1.749430 0.000000 
#    z 0.000000 0.000000 1.725760 
# 
# From -- ./inp_files/22422.got.cif
#   From: 2010.05.17/outbox.cif.g08.bks.cpg/sg38_12_cif.got.tgz:22422.got - 2010.06.03 18:07:57.
