data_PCOD9357117
_publ_section_title
;
Structure prediction by ZEFSAII (Michael W. Deem and Ramdas Pophale) SiO2 
 PCOD9357117
Probable space group: A M M 2
;
_chemical_formula_sum "Si O2"
_cell_formula_units_Z 64
_cell_length_a 9.024289
_cell_length_b 24.937304
_cell_length_c 14.008994
_cell_angle_alpha 90.000000
_cell_angle_beta 90.000000
_cell_angle_gamma 90.000000
_cell_volume 3152.604157
_symmetry_space_group_name_H-M "A M M 2"
_symmetry_group_IT_number 38
_symmetry_cell_setting 'orthorhombic'
loop_
_space_group_symop_operation_xyz
x,y,z
-x,-y,z
-x,y,z
x,-y,z
x,1/2+y,1/2+z
-x,1/2-y,1/2+z
-x,1/2+y,1/2+z
x,1/2-y,1/2+z
loop_
_atom_site_type_symbol
_atom_site_label
_atom_site_fract_x
_atom_site_fract_y
_atom_site_fract_z
Si Si1 0.821665 0.941209 0.320390
Si Si2 0.824800 0.386712 0.200853
Si Si3 0.821210 0.058611 0.895854
Si Si4 0.172978 0.168372 0.219670
Si Si5 0.678582 0.607230 0.997175
Si Si6 0.172472 0.166632 0.989717
Si Si7 0.330437 0.276823 0.218057
Si Si8 0.330660 0.274266 0.985416
O O1 0.776829 0.889267 0.259058
O O2 0.745591 0.934264 0.422895
O O3 0.000000 0.938999 0.330364
O O4 0.784627 0.000000 0.279532
O O5 0.798258 0.429466 0.284153
O O6 0.768774 0.328821 0.238532
O O7 0.000000 0.383541 0.181433
O O8 0.738629 0.399985 0.103927
O O9 0.763485 0.110675 0.951459
O O10 0.000000 0.057667 0.911385
O O11 0.763241 0.000000 0.923210
O O12 0.266558 0.219953 0.252280
O O13 0.000000 0.176584 0.245404
O O14 0.180556 0.166227 0.104582
O O15 0.500000 0.606912 0.997594
O O16 0.731029 0.666783 0.962869
O O17 0.248566 0.220836 0.953737
O O18 0.000000 0.169262 0.961920
O O19 0.500000 0.285340 0.247760
O O20 0.330273 0.273516 0.101719
O O21 0.500000 0.272068 0.953521
#
# Coordination Sequence:
#
# PCOD9357117 Si02
#       8
#     8   8   8   8   8   8   8   8
#     4  10  22  38  54  76 106 140 181 226 271 321
#     4  10  19  33  55  80 107 140 175 217 267 316
#     4   9  19  34  51  75 105 136 174 215 255 304
#     4   9  18  33  54  80 108 138 175 220 266 314
#     4  10  21  37  56  79 106 138 175 216 267 324
#     4   9  17  31  54  80 104 134 171 211 255 304
#     4   9  17  31  52  78 108 140 174 215 264 319
#     4   8  16  31  50  74 104 133 163 205 259 315
#
# _framework density 20.300677
#
# number of rings (size 3 to 8) (size 9 to 14) (size 15 to 20)
#    0.000    2.750    0.000    1.875    0.000    6.250 
#    0.000    8.750    0.000    3.000    0.000    3.500 
#    0.000    0.000    0.000    0.000    0.000    0.000 
#
# Total GULP energy -178582.586488 kJ/mol
# GULP energy per Si atom -5580.705828 kJ/mol
# Density = 2.025447 g / cm^3
# Si number density = 20.300677 Si / 1000 Ang^3
#
#
#
# Elastic Constant Matrix: (Units=GPa)
#
#
# Indices 1 2 3 4 5 6 
#
# 1 28.1074 24.6238 3.4149 0.0000 0.0000 0.0000
# 2 24.6238 109.1879 1.5968 0.0000 0.0000 0.0000
# 3 3.4149 1.5968 15.2420 0.0000 0.0000 0.0000
# 4 0.0000 0.0000 0.0000 23.7577 0.0000 0.0000
# 5 0.0000 0.0000 0.0000 0.0000 11.4964 0.0000
# 6 0.0000 0.0000 0.0000 0.0000 0.0000 1.7854
#
#
#
# Elastic Compliance Matrix: (Units=1/GPa)
#
#
# Indices 1 2 3 4 5 6 
#
# 1 0.045577 -0.010145 -0.009149 0.000000 0.000000 0.000000
# 2 -0.010145 0.011431 0.001075 0.000000 0.000000 0.000000
# 3 -0.009149 0.001075 0.067545 0.000000 0.000000 0.000000
# 4 0.000000 0.000000 0.000000 0.042092 0.000000 0.000000
# 5 0.000000 0.000000 0.000000 0.000000 0.086984 0.000000
# 6 0.000000 0.000000 0.000000 0.000000 0.000000 0.560084
#
#
# Mechanical properties :
#
#
# Convention : Reuss Voigt Hill
#
# Bulk Modulus (GPa) = 11.34854 23.53425 17.44139
# Shear Modulus (GPa) = 5.68492 15.60136 10.64314
#
# Velocity S-wave (km/s) = 1.67524 2.77522 2.29219
# Velocity P-wave (km/s) = 3.05684 4.67837 3.95167
#
# Compressibility (1/GPa) = 0.08811708
#
# Stress axis : x y z
#
# Youngs Moduli (GPa) = 21.94107 87.48464 14.80487
#
# Poissons Ratio (x) = 0.88749 0.13544
# Poissons Ratio (y) = 0.22258 -0.01592
# Poissons Ratio (z) = 0.20073 -0.09408
#
# Static dielectric constant tensor:
#      x y z
#    x 1.691630 0.000000 0.000000 
#    y 0.000000 1.733480 0.000000 
#    z 0.000000 0.000000 1.753770 
# 
# From -- ./inp_files/12710.got.cif
#   From: 2010.05.17/outbox.cif.g08.bks.cpg/sg38_7_cif.got.tgz:12710.got - 2010.06.03 18:07:57.
