data_PCOD9357758
_publ_section_title
;
Structure prediction by ZEFSAII (Michael W. Deem and Ramdas Pophale) SiO2 
 PCOD9357758
Probable space group: A M M 2
;
_chemical_formula_sum "Si O2"
_cell_formula_units_Z 58
_cell_length_a 7.559113
_cell_length_b 16.005262
_cell_length_c 19.738775
_cell_angle_alpha 90.000000
_cell_angle_beta 90.000000
_cell_angle_gamma 90.000000
_cell_volume 2388.107222
_symmetry_space_group_name_H-M "A M M 2"
_symmetry_group_IT_number 38
_symmetry_cell_setting 'orthorhombic'
loop_
_space_group_symop_operation_xyz
x,y,z
-x,-y,z
-x,y,z
x,-y,z
x,1/2+y,1/2+z
-x,1/2-y,1/2+z
-x,1/2+y,1/2+z
x,1/2-y,1/2+z
loop_
_atom_site_type_symbol
_atom_site_label
_atom_site_fract_x
_atom_site_fract_y
_atom_site_fract_z
Si Si1 0.712146 0.406864 0.631090
Si Si2 0.788615 0.724077 0.515313
Si Si3 0.297191 0.883599 0.288809
Si Si4 0.202317 0.091683 0.504453
Si Si5 0.000000 0.500000 0.846909
Si Si6 0.709790 0.909619 0.658431
Si Si7 0.783846 0.407635 0.405224
Si Si8 0.792032 0.697685 0.281554
O O1 0.500000 0.408649 0.629798
O O2 0.775201 0.500000 0.606830
O O3 0.762044 0.325683 0.586386
O O4 0.762811 0.398998 0.710334
O O5 0.715978 0.816163 0.495341
O O6 0.723491 0.658182 0.460430
O O7 0.000000 0.734785 0.509749
O O8 0.500000 0.911615 0.296241
O O9 0.239764 0.666015 0.206033
O O10 0.295630 0.784662 0.298075
O O11 0.197220 0.091909 0.586340
O O12 0.000000 0.088546 0.477844
O O13 0.281381 0.000000 0.485710
O O14 0.842420 0.428228 0.836895
O O15 0.500000 0.906367 0.645685
O O16 0.752168 0.000000 0.690802
O O17 0.719908 0.500000 0.419436
O O18 0.730561 0.374809 0.331837
O O19 0.000000 0.409051 0.407596
O O20 0.000000 0.709622 0.291751
#
# Coordination Sequence:
#
# PCOD9357758 Si02
#       8
#     8   8   8   8   2   8   8   8
#     4  10  21  35  52  80 120 157 186 235 300 356
#     4  10  20  33  56  82 110 148 200 250 298 358
#     4  11  23  39  60  90 127 160 200 254 302 362
#     4   9  18  33  53  78 111 145 184 234 295 363
#     4  12  22  40  64  90 118 168 206 240 308 376
#     4  10  20  33  51  80 114 149 190 241 303 362
#     4   9  19  36  56  82 115 152 196 252 306 358
#     4  11  21  35  57  81 114 154 204 245 301 369
#
# _framework density 24.287016000000001
#
# number of rings (size 3 to 8) (size 9 to 14) (size 15 to 20)
#    0.000    1.931    1.379    2.690    0.966    4.966 
#    0.000    1.379    1.517    3.310    0.000    0.000 
#    0.000    0.000    0.000    0.000    0.000    0.000 
#
# Total GULP energy -161792.319433 kJ/mol
# GULP energy per Si atom -5579.045498 kJ/mol
# Density = 2.423174 g / cm^3
# Si number density = 24.287016 Si / 1000 Ang^3
#
#
#
# Elastic Constant Matrix: (Units=GPa)
#
#
# Indices 1 2 3 4 5 6 
#
# 1 89.5047 23.2149 1.1677 0.0000 0.0000 0.0000
# 2 23.2149 224.5221 30.8775 0.0000 0.0000 0.0000
# 3 1.1677 30.8775 61.7205 0.0000 0.0000 0.0000
# 4 0.0000 0.0000 0.0000 14.9643 0.0000 0.0000
# 5 0.0000 0.0000 0.0000 0.0000 94.1757 0.0000
# 6 0.0000 0.0000 0.0000 0.0000 0.0000 44.3589
#
#
#
# Elastic Compliance Matrix: (Units=1/GPa)
#
#
# Indices 1 2 3 4 5 6 
#
# 1 0.011490 -0.001244 0.000405 0.000000 0.000000 0.000000
# 2 -0.001244 0.004918 -0.002437 0.000000 0.000000 0.000000
# 3 0.000405 -0.002437 0.017413 0.000000 0.000000 0.000000
# 4 0.000000 0.000000 0.000000 0.066826 0.000000 0.000000
# 5 0.000000 0.000000 0.000000 0.000000 0.010618 0.000000
# 6 0.000000 0.000000 0.000000 0.000000 0.000000 0.022543
#
#
# Mechanical properties :
#
#
# Convention : Reuss Voigt Hill
#
# Bulk Modulus (GPa) = 36.67053 54.02972 45.35013
# Shear Modulus (GPa) = 33.45617 52.06561 42.76089
#
# Velocity S-wave (km/s) = 3.71554 4.63510 4.20056
# Velocity P-wave (km/s) = 5.79125 7.13724 6.49918
#
# Compressibility (1/GPa) = 0.02726985
#
# Stress axis : x y z
#
# Youngs Moduli (GPa) = 87.03303 203.35132 57.42699
#
# Poissons Ratio (x) = 0.25291 -0.02325
# Poissons Ratio (y) = 0.10824 0.13993
# Poissons Ratio (z) = -0.03523 0.49549
#
# Static dielectric constant tensor:
#      x y z
#    x 1.900400 0.000000 0.000000 
#    y 0.000000 1.949960 0.000000 
#    z 0.000000 0.000000 1.957100 
# 
# From -- ./inp_files/22035.got.cif
#   From: 2010.05.17/outbox.cif.g08.bks.cpg/sg38_12_cif.got.tgz:22035.got - 2010.06.03 18:07:57.
