data_PCOD9357926
_publ_section_title
;
Structure prediction by ZEFSAII (Michael W. Deem and Ramdas Pophale) SiO2 
 PCOD9357926
Probable space group: A M M 2
;
_chemical_formula_sum "Si O2"
_cell_formula_units_Z 40
_cell_length_a 7.594442
_cell_length_b 7.758971
_cell_length_c 31.182991
_cell_angle_alpha 90.000000
_cell_angle_beta 90.000000
_cell_angle_gamma 90.000000
_cell_volume 1837.459467
_symmetry_space_group_name_H-M "A M M 2"
_symmetry_group_IT_number 38
_symmetry_cell_setting 'orthorhombic'
loop_
_space_group_symop_operation_xyz
x,y,z
-x,-y,z
-x,y,z
x,-y,z
x,1/2+y,1/2+z
-x,1/2-y,1/2+z
-x,1/2+y,1/2+z
x,1/2-y,1/2+z
loop_
_atom_site_type_symbol
_atom_site_label
_atom_site_fract_x
_atom_site_fract_y
_atom_site_fract_z
Si Si1 0.701445 0.706846 0.808220
Si Si2 0.705359 0.500000 0.460898
Si Si3 0.205212 0.000000 0.059001
Si Si4 0.711922 0.696528 0.123978
Si Si5 0.283588 0.302282 0.901660
Si Si6 0.298372 0.793207 0.716628
O O1 0.500000 0.775824 0.806372
O O2 0.693739 0.500000 0.810716
O O3 0.775342 0.760675 0.854311
O O4 0.785633 0.750254 0.762430
O O5 0.500000 0.500000 0.449192
O O6 0.713708 0.500000 0.511893
O O7 0.776993 0.327898 0.438365
O O8 0.250266 0.831680 0.086899
O O9 0.000000 0.000000 0.051480
O O10 0.500000 0.687908 0.128341
O O11 0.773574 0.500000 0.115583
O O12 0.779534 0.759760 0.170701
O O13 0.500000 0.306624 0.900209
O O14 0.227649 0.500000 0.908602
O O15 0.500000 0.723549 0.718363
O O16 0.306690 0.000000 0.713949
#
# Coordination Sequence:
#
# PCOD9357926 Si02
#       6
#     8   4   4   8   8   8
#     4   8  13  20  34  64 105 140 162 194 253 317
#     4  10  20  34  54  76  98 136 182 226 275 324
#     4  12  26  40  56  80 108 144 190 240 287 334
#     4   9  19  37  59  83 112 145 183 228 277 332
#     4   8  15  27  43  69 106 137 165 206 260 320
#     4   8  14  23  40  70 105 137 168 204 255 316
#
# _framework density 21.769186000000001
#
# number of rings (size 3 to 8) (size 9 to 14) (size 15 to 20)
#    0.000    3.200    0.000    3.300    2.800    1.200 
#    0.000    2.000    0.000    0.000    0.000    1.400 
#    0.000    0.000    0.000    0.000    0.000    0.000 
#
# Total GULP energy -111465.006548 kJ/mol
# GULP energy per Si atom -5573.250327 kJ/mol
# Density = 2.171964 g / cm^3
# Si number density = 21.769186 Si / 1000 Ang^3
#
#
#
# Elastic Constant Matrix: (Units=GPa)
#
#
# Indices 1 2 3 4 5 6 
#
# 1 42.6445 -0.7262 -15.2873 0.0000 0.0000 0.0000
# 2 -0.7262 99.6645 83.8131 0.0000 0.0000 0.0000
# 3 -15.2873 83.8131 181.9943 0.0000 0.0000 0.0000
# 4 0.0000 0.0000 0.0000 37.1999 0.0000 0.0000
# 5 0.0000 0.0000 0.0000 0.0000 -47.0833 0.0000
# 6 0.0000 0.0000 0.0000 0.0000 0.0000 203.7973
#
#
#
# Elastic Compliance Matrix: (Units=1/GPa)
#
#
# Indices 1 2 3 4 5 6 
#
# 1 0.024565 -0.002540 0.003233 0.000000 0.000000 0.000000
# 2 -0.002540 0.016638 -0.007876 0.000000 0.000000 0.000000
# 3 0.003233 -0.007876 0.009393 0.000000 0.000000 0.000000
# 4 0.000000 0.000000 0.000000 0.026882 0.000000 0.000000
# 5 0.000000 0.000000 0.000000 0.000000 -0.021239 0.000000
# 6 0.000000 0.000000 0.000000 0.000000 0.000000 0.004907
#
#
# Mechanical properties :
#
#
# Convention : Reuss Voigt Hill
#
# Bulk Modulus (GPa) = 27.59989 51.10026 39.35007
# Shear Modulus (GPa) = 57.08478 55.88301 56.48390
#
# Velocity S-wave (km/s) = 5.12637 5.07212 5.09932
# Velocity P-wave (km/s) = 6.90981 7.60438 7.26540
#
# Compressibility (1/GPa) = 0.03623203
#
# Stress axis : x y z
#
# Youngs Moduli (GPa) = 40.70751 60.10242 106.45958
#
# Poissons Ratio (x) = 0.15266 -0.34420
# Poissons Ratio (y) = 0.10340 0.83845
# Poissons Ratio (z) = -0.13162 0.47335
#
# Static dielectric constant tensor:
#      x y z
#    x 1.826280 0.000000 0.000000 
#    y 0.000000 1.810360 0.000000 
#    z 0.000000 0.000000 1.865530 
# 
# From -- ./inp_files/23197.got.cif
#   From: 2010.05.17/outbox.cif.g08.bks.cpg/sg38_12_cif.got.tgz:23197.got - 2010.06.03 18:07:57.
