data_PCOD9357088
_publ_section_title
;
Structure prediction by ZEFSAII (Michael W. Deem and Ramdas Pophale) SiO2 
 PCOD9357088
Probable space group: A M M 2
;
_chemical_formula_sum "Si O2"
_cell_formula_units_Z 64
_cell_length_a 8.765850
_cell_length_b 21.266333
_cell_length_c 20.042781
_cell_angle_alpha 90.000000
_cell_angle_beta 90.000000
_cell_angle_gamma 90.000000
_cell_volume 3736.324829
_symmetry_space_group_name_H-M "A M M 2"
_symmetry_group_IT_number 38
_symmetry_cell_setting 'orthorhombic'
loop_
_space_group_symop_operation_xyz
x,y,z
-x,-y,z
-x,y,z
x,-y,z
x,1/2+y,1/2+z
-x,1/2-y,1/2+z
-x,1/2+y,1/2+z
x,1/2-y,1/2+z
loop_
_atom_site_type_symbol
_atom_site_label
_atom_site_fract_x
_atom_site_fract_y
_atom_site_fract_z
Si Si1 0.816071 0.569440 0.419350
Si Si2 0.183480 0.192845 0.840081
Si Si3 0.817862 0.255746 0.199449
Si Si4 0.181950 0.763053 0.549059
Si Si5 0.318615 0.382738 0.702090
Si Si6 0.318519 0.812875 0.417546
Si Si7 0.317079 0.377375 0.551401
Si Si8 0.181979 0.070766 0.336921
O O1 0.774793 0.500000 0.394209
O O2 0.766591 0.627259 0.372647
O O3 0.745937 0.580263 0.492234
O O4 0.000000 0.572463 0.424596
O O5 0.217481 0.199642 0.761632
O O6 0.256557 0.251824 0.878040
O O7 0.000000 0.197744 0.847996
O O8 0.785367 0.281876 0.125684
O O9 0.727860 0.190587 0.208295
O O10 0.000000 0.241323 0.201541
O O11 0.257715 0.805657 0.492820
O O12 0.245178 0.691982 0.542193
O O13 0.000000 0.762027 0.539034
O O14 0.500000 0.389710 0.710572
O O15 0.277901 0.400734 0.626010
O O16 0.233927 0.419173 0.760554
O O17 0.500000 0.812188 0.416524
O O18 0.257925 0.875091 0.381147
O O19 0.500000 0.372241 0.547609
O O20 0.000000 0.077804 0.340774
O O21 0.223563 0.000000 0.358076
#
# Coordination Sequence:
#
# PCOD9357088 Si02
#       8
#     8   8   8   8   8   8   8   8
#     4  10  21  35  52  76 108 147 186 225 272 323
#     4  10  19  34  56  80 107 141 182 228 271 319
#     4   9  18  32  54  80 107 140 180 223 270 319
#     4  10  19  33  54  80 109 142 179 224 270 322
#     4  10  20  33  51  77 110 144 179 222 270 321
#     4  12  23  35  56  84 110 141 180 225 275 327
#     4  10  20  33  50  76 110 146 184 224 269 320
#     4  11  24  40  57  78 107 145 186 227 272 326
#
# _framework density 17.129131000000001
#
# number of rings (size 3 to 8) (size 9 to 14) (size 15 to 20)
#    0.000    1.750    2.500    2.625    0.000    3.750 
#    0.000    2.500    0.000    0.750    0.000    3.500 
#    0.000    0.000    0.000    0.000    0.000    0.000 
#
# Total GULP energy -178655.922818 kJ/mol
# GULP energy per Si atom -5582.997588 kJ/mol
# Density = 1.709014 g / cm^3
# Si number density = 17.129131 Si / 1000 Ang^3
#
#
#
# Elastic Constant Matrix: (Units=GPa)
#
#
# Indices 1 2 3 4 5 6 
#
# 1 41.9625 41.2583 37.9918 0.0000 0.0000 0.0000
# 2 41.2583 116.1896 68.8582 0.0000 0.0000 0.0000
# 3 37.9918 68.8582 111.9013 0.0000 0.0000 0.0000
# 4 0.0000 0.0000 0.0000 21.4084 0.0000 0.0000
# 5 0.0000 0.0000 0.0000 0.0000 22.7132 0.0000
# 6 0.0000 0.0000 0.0000 0.0000 0.0000 -30.6401
#
#
#
# Elastic Compliance Matrix: (Units=1/GPa)
#
#
# Indices 1 2 3 4 5 6 
#
# 1 0.040432 -0.009793 -0.007701 0.000000 0.000000 0.000000
# 2 -0.009793 0.015919 -0.006471 0.000000 0.000000 0.000000
# 3 -0.007701 -0.006471 0.015533 0.000000 0.000000 0.000000
# 4 0.000000 0.000000 0.000000 0.046711 0.000000 0.000000
# 5 0.000000 0.000000 0.000000 0.000000 0.044027 0.000000
# 6 0.000000 0.000000 0.000000 0.000000 0.000000 -0.032637
#
#
# Mechanical properties :
#
#
# Convention : Reuss Voigt Hill
#
# Bulk Modulus (GPa) = 41.74699 62.91888 52.33293
# Shear Modulus (GPa) = 26.89632 10.82597 18.86114
#
# Velocity S-wave (km/s) = 3.96689 2.51673 3.32191
# Velocity P-wave (km/s) = 6.73843 6.72734 6.73288
#
# Compressibility (1/GPa) = 0.02395382
#
# Stress axis : x y z
#
# Youngs Moduli (GPa) = 24.73292 62.81795 64.38035
#
# Poissons Ratio (x) = 0.61520 0.49578
# Poissons Ratio (y) = 0.24222 0.41659
# Poissons Ratio (z) = 0.19046 0.40648
#
# Static dielectric constant tensor:
#      x y z
#    x 1.571540 0.000000 0.000000 
#    y 0.000000 1.563430 0.000000 
#    z 0.000000 0.000000 1.595620 
# 
# From -- ./inp_files/20033.got.cif
#   From: 2010.05.17/outbox.cif.g08.bks.cpg/sg38_11_cif.got.tgz:20033.got - 2010.06.03 18:07:57.
