data_PCOD9357494
_publ_section_title
;
Structure prediction by ZEFSAII (Michael W. Deem and Ramdas Pophale) SiO2 
 PCOD9357494
Probable space group: A M M 2
;
_chemical_formula_sum "Si O2"
_cell_formula_units_Z 64
_cell_length_a 14.412541
_cell_length_b 8.273398
_cell_length_c 28.941754
_cell_angle_alpha 90.000000
_cell_angle_beta 90.000000
_cell_angle_gamma 90.000000
_cell_volume 3451.034656
_symmetry_space_group_name_H-M "A M M 2"
_symmetry_group_IT_number 38
_symmetry_cell_setting 'orthorhombic'
loop_
_space_group_symop_operation_xyz
x,y,z
-x,-y,z
-x,y,z
x,-y,z
x,1/2+y,1/2+z
-x,1/2-y,1/2+z
-x,1/2+y,1/2+z
x,1/2-y,1/2+z
loop_
_atom_site_type_symbol
_atom_site_label
_atom_site_fract_x
_atom_site_fract_y
_atom_site_fract_z
Si Si1 0.253826 0.817380 0.250000
Si Si2 0.395661 0.804115 0.324517
Si Si3 0.106525 0.192328 0.678192
Si Si4 0.604432 0.303962 0.430392
Si Si5 0.610134 0.320516 0.183521
Si Si6 0.606178 0.316419 0.588983
Si Si7 0.746618 0.812016 0.004762
Si Si8 0.107233 0.195355 0.076867
O O1 0.308125 0.744589 0.294248
O O2 0.169201 0.737717 0.222176
O O3 0.336301 0.810721 0.212570
O O4 0.226192 0.000000 0.261213
O O5 0.500000 0.751917 0.308369
O O6 0.386749 0.749154 0.377364
O O7 0.394660 0.000000 0.322177
O O8 0.141489 0.257468 0.628342
O O9 0.000000 0.251308 0.683819
O O10 0.105263 0.000000 0.674450
O O11 0.500000 0.253115 0.446156
O O12 0.605643 0.500000 0.433229
O O13 0.691226 0.242164 0.460864
O O14 0.500000 0.301663 0.187303
O O15 0.636780 0.500000 0.199863
O O16 0.633735 0.301811 0.129835
O O17 0.500000 0.284560 0.576014
O O18 0.610927 0.500000 0.607722
O O19 0.669355 0.310532 0.544695
O O20 0.834593 0.741974 0.032738
O O21 0.769490 0.000000 0.993398
O O22 0.000000 0.246754 0.074034
O O23 0.111740 0.000000 0.075131
#
# Coordination Sequence:
#
# PCOD9357494 Si02
#       8
#     8   8   8   8   8   8   8   8
#     4  11  21  33  52  73  94 126 167 206 244 293
#     4   9  19  35  52  72  99 128 160 201 248 296
#     4  10  21  36  53  75 104 133 162 203 253 299
#     4   9  17  30  49  71  94 123 161 203 246 291
#     4  10  20  31  43  65  99 132 161 197 241 290
#     4   9  16  26  41  61  88 123 159 192 230 282
#     4   9  16  27  45  68  92 120 157 200 241 281
#     4   9  17  30  49  72  98 130 167 201 235 284
#
# _framework density 18.545162999999999
#
# number of rings (size 3 to 8) (size 9 to 14) (size 15 to 20)
#    0.000    2.500    0.000    2.625    0.000    5.500 
#    0.000    2.500    0.000    3.750    0.000    1.750 
#    0.000    0.000    0.000    0.000    0.000    0.000 
#
# Total GULP energy -178226.790291 kJ/mol
# GULP energy per Si atom -5569.587197 kJ/mol
# Density = 1.850295 g / cm^3
# Si number density = 18.545163 Si / 1000 Ang^3
#
#
#
# Elastic Constant Matrix: (Units=GPa)
#
#
# Indices 1 2 3 4 5 6 
#
# 1 99.6832 9.8325 51.5968 0.0000 0.0000 0.0000
# 2 9.8325 13.7297 4.8913 0.0000 0.0000 0.0000
# 3 51.5968 4.8913 81.9482 0.0000 0.0000 0.0000
# 4 0.0000 0.0000 0.0000 19.5498 0.0000 0.0000
# 5 0.0000 0.0000 0.0000 0.0000 36.3421 0.0000
# 6 0.0000 0.0000 0.0000 0.0000 0.0000 1.0177
#
#
#
# Elastic Compliance Matrix: (Units=1/GPa)
#
#
# Indices 1 2 3 4 5 6 
#
# 1 0.015673 -0.007876 -0.009398 0.000000 0.000000 0.000000
# 2 -0.007876 0.078375 0.000281 0.000000 0.000000 0.000000
# 3 -0.009398 0.000281 0.018103 0.000000 0.000000 0.000000
# 4 0.000000 0.000000 0.000000 0.051151 0.000000 0.000000
# 5 0.000000 0.000000 0.000000 0.000000 0.027516 0.000000
# 6 0.000000 0.000000 0.000000 0.000000 0.000000 0.982580
#
#
# Mechanical properties :
#
#
# Convention : Reuss Voigt Hill
#
# Bulk Modulus (GPa) = 12.79340 36.44471 24.61905
# Shear Modulus (GPa) = 4.05370 19.98462 12.01916
#
# Velocity S-wave (km/s) = 1.48007 3.28627 2.54855
# Velocity P-wave (km/s) = 3.13597 5.83900 4.68659
#
# Compressibility (1/GPa) = 0.07816532
#
# Stress axis : x y z
#
# Youngs Moduli (GPa) = 63.80286 12.75910 55.23813
#
# Poissons Ratio (x) = 0.10049 0.51914
# Poissons Ratio (y) = 0.50253 -0.01553
# Poissons Ratio (z) = 0.59963 -0.00359
#
# Static dielectric constant tensor:
#      x y z
#    x 1.681090 0.000000 0.000000 
#    y 0.000000 1.667780 0.000000 
#    z 0.000000 0.000000 1.638440 
# 
# From -- ./inp_files/25040.got.cif
#   From: 2010.05.17/outbox.cif.g08.bks.cpg/sg38_13_cif.got.tgz:25040.got - 2010.06.03 18:07:57.
