data_PCOD9357205
_publ_section_title
;
Structure prediction by ZEFSAII (Michael W. Deem and Ramdas Pophale) SiO2 
 PCOD9357205
Probable space group: A M M 2
;
_chemical_formula_sum "Si O2"
_cell_formula_units_Z 46
_cell_length_a 8.379922
_cell_length_b 9.630486
_cell_length_c 28.119025
_cell_angle_alpha 90.000000
_cell_angle_beta 90.000000
_cell_angle_gamma 90.000000
_cell_volume 2269.281843
_symmetry_space_group_name_H-M "A M M 2"
_symmetry_group_IT_number 38
_symmetry_cell_setting 'orthorhombic'
loop_
_space_group_symop_operation_xyz
x,y,z
-x,-y,z
-x,y,z
x,-y,z
x,1/2+y,1/2+z
-x,1/2-y,1/2+z
-x,1/2+y,1/2+z
x,1/2-y,1/2+z
loop_
_atom_site_type_symbol
_atom_site_label
_atom_site_fract_x
_atom_site_fract_y
_atom_site_fract_z
Si Si1 0.686513 0.166027 0.672560
Si Si2 0.174062 0.724802 0.267578
Si Si3 0.810631 0.339874 0.069999
Si Si4 0.500000 0.335457 0.419117
Si Si5 0.166424 0.500000 0.832407
Si Si6 0.500000 0.198705 0.806391
Si Si7 0.500000 0.000000 0.330725
Si Si8 0.816092 0.831841 0.974510
O O1 0.500000 0.188339 0.682875
O O2 0.792505 0.243361 0.711684
O O3 0.723598 0.204393 0.618289
O O4 0.719931 0.000000 0.676686
O O5 0.332941 0.647660 0.285806
O O6 0.000000 0.658614 0.273942
O O7 0.167521 0.865689 0.298379
O O8 0.763766 0.500000 0.058959
O O9 0.000000 0.340256 0.079990
O O10 0.785323 0.240015 0.025319
O O11 0.500000 0.500000 0.428339
O O12 0.500000 0.315551 0.362836
O O13 0.668961 0.285481 0.440909
O O14 0.334838 0.500000 0.859336
O O15 0.000000 0.500000 0.860265
O O16 0.500000 0.364614 0.797951
O O17 0.000000 0.795577 0.959522
O O18 0.812605 0.000000 0.978269
#
# Coordination Sequence:
#
# PCOD9357205 Si02
#       8
#     8   8   8   4   4   4   2   8
#     4  10  20  33  50  77 113 145 177 217 263 314
#     4  10  19  34  55  77 107 145 181 218 262 312
#     4   9  18  34  56  81 110 143 182 224 267 319
#     4  10  22  38  57  79 109 139 175 223 275 321
#     4   8  16  30  50  72  96 136 178 214 256 302
#     4  10  20  36  53  78 106 139 180 226 264 316
#     4   8  16  32  52  66 102 132 170 214 270 306
#     4   9  19  38  60  80 109 145 178 220 275 329
#
# _framework density 20.270727999999998
#
# number of rings (size 3 to 8) (size 9 to 14) (size 15 to 20)
#    0.000    2.609    0.870    0.522    1.217    2.435 
#    3.130    0.000    0.000    0.000    0.000    0.000 
#    0.000    0.000    0.000    0.000    0.000    0.000 
#
# Total GULP energy -128099.649534 kJ/mol
# GULP energy per Si atom -5569.549980 kJ/mol
# Density = 2.022459 g / cm^3
# Si number density = 20.270728 Si / 1000 Ang^3
#
#
#
# Elastic Constant Matrix: (Units=GPa)
#
#
# Indices 1 2 3 4 5 6 
#
# 1 196.1926 15.7699 68.5037 0.0000 0.0000 0.0000
# 2 15.7699 36.7114 -3.4553 0.0000 0.0000 0.0000
# 3 68.5037 -3.4553 85.2151 0.0000 0.0000 0.0000
# 4 0.0000 0.0000 0.0000 9.4776 0.0000 0.0000
# 5 0.0000 0.0000 0.0000 0.0000 12.4029 0.0000
# 6 0.0000 0.0000 0.0000 0.0000 0.0000 -3.8018
#
#
#
# Elastic Compliance Matrix: (Units=1/GPa)
#
#
# Indices 1 2 3 4 5 6 
#
# 1 0.007592 -0.003850 -0.006259 0.000000 0.000000 0.000000
# 2 -0.003850 0.029297 0.004283 0.000000 0.000000 0.000000
# 3 -0.006259 0.004283 0.016940 0.000000 0.000000 0.000000
# 4 0.000000 0.000000 0.000000 0.105512 0.000000 0.000000
# 5 0.000000 0.000000 0.000000 0.000000 0.080626 0.000000
# 6 0.000000 0.000000 0.000000 0.000000 0.000000 -0.263030
#
#
# Mechanical properties :
#
#
# Convention : Reuss Voigt Hill
#
# Bulk Modulus (GPa) = 23.71004 53.30619 38.50811
# Shear Modulus (GPa) = 1887.16062 19.43578 953.29820
#
# Velocity S-wave (km/s) = 30.54504 3.09982 21.70954
# Velocity P-wave (km/s) = 35.43616 6.25828 25.44491
#
# Compressibility (1/GPa) = 0.04217622
#
# Stress axis : x y z
#
# Youngs Moduli (GPa) = 131.71645 34.13358 59.03014
#
# Poissons Ratio (x) = 0.13143 0.36949
# Poissons Ratio (y) = 0.50716 -0.25284
# Poissons Ratio (z) = 0.82446 -0.14620
#
# Static dielectric constant tensor:
#      x y z
#    x 1.797510 0.000000 0.000000 
#    y 0.000000 1.722870 0.000000 
#    z 0.000000 0.000000 1.675850 
# 
# From -- ./inp_files/23375.got.cif
#   From: 2010.05.17/outbox.cif.g08.bks.cpg/sg38_12_cif.got.tgz:23375.got - 2010.06.03 18:07:57.
