data_PCOD9357867
_publ_section_title
;
Structure prediction by ZEFSAII (Michael W. Deem and Ramdas Pophale) SiO2 
 PCOD9357867
Probable space group: A M M 2
;
_chemical_formula_sum "Si O2"
_cell_formula_units_Z 64
_cell_length_a 29.867574
_cell_length_b 13.076640
_cell_length_c 8.999400
_cell_angle_alpha 90.000000
_cell_angle_beta 90.000000
_cell_angle_gamma 90.000000
_cell_volume 3514.873275
_symmetry_space_group_name_H-M "A M M 2"
_symmetry_group_IT_number 38
_symmetry_cell_setting 'orthorhombic'
loop_
_space_group_symop_operation_xyz
x,y,z
-x,-y,z
-x,y,z
x,-y,z
x,1/2+y,1/2+z
-x,1/2-y,1/2+z
-x,1/2+y,1/2+z
x,1/2-y,1/2+z
loop_
_atom_site_type_symbol
_atom_site_label
_atom_site_fract_x
_atom_site_fract_y
_atom_site_fract_z
Si Si1 0.123653 0.791531 0.905230
Si Si2 0.446353 0.379229 0.391528
Si Si3 0.396182 0.249904 0.641332
Si Si4 0.946316 0.878764 0.440467
Si Si5 0.047557 0.118024 0.776587
Si Si6 0.189704 0.763191 0.658855
Si Si7 0.238745 0.620050 0.896315
Si Si8 0.654027 0.379161 0.891104
O O1 0.093863 0.688629 0.868093
O O2 0.083999 0.870943 0.901798
O O3 0.158608 0.821388 0.776552
O O4 0.153312 0.786005 0.049817
O O5 0.500000 0.370400 0.391376
O O6 0.434758 0.500000 0.391539
O O7 0.425992 0.321855 0.534851
O O8 0.425913 0.321831 0.248346
O O9 0.366279 0.321686 0.747805
O O10 0.366540 0.177997 0.534286
O O11 0.942407 0.839874 0.612457
O O12 0.000000 0.869909 0.401954
O O13 0.936065 0.000000 0.426767
O O14 0.000000 0.158446 0.828885
O O15 0.043432 0.000000 0.743139
O O16 0.217431 0.683010 0.758855
O O17 0.219973 0.831809 0.549917
O O18 0.227051 0.500000 0.887675
O O19 0.292322 0.629907 0.892059
O O20 0.642554 0.500000 0.890776
#
# Coordination Sequence:
#
# PCOD9357867 Si02
#       8
#     8   8   8   8   8   8   8   8
#     4  11  19  35  54  78 106 134 171 215 256 312
#     4  10  20  34  52  79 120 163 198 234 281 336
#     4  10  20  34  56  85 114 147 195 246 283 330
#     4   9  18  33  54  77 101 136 177 213 258 311
#     4   9  18  32  50  73 101 133 168 205 250 303
#     4  10  23  36  56  83 107 139 182 215 267 341
#     4  10  22  42  61  81 113 145 177 231 289 336
#     4  10  20  36  60  83 107 143 186 237 293 338
#
# _framework density 18.208338000000001
#
# number of rings (size 3 to 8) (size 9 to 14) (size 15 to 20)
#    0.000    2.125    1.250    3.000    0.000    3.000 
#    0.000    1.875    0.000   18.000    0.000    0.000 
#    0.000    0.000    0.000    0.000    0.000    0.000 
#
# Total GULP energy -178147.860305 kJ/mol
# GULP energy per Si atom -5567.120635 kJ/mol
# Density = 1.816690 g / cm^3
# Si number density = 18.208338 Si / 1000 Ang^3
#
#
#
# Elastic Constant Matrix: (Units=GPa)
#
#
# Indices 1 2 3 4 5 6 
#
# 1 104.9108 60.0019 51.5891 0.0000 0.0000 0.0000
# 2 60.0019 121.9920 52.7609 0.0000 0.0000 0.0000
# 3 51.5891 52.7609 101.2476 0.0000 0.0000 0.0000
# 4 0.0000 0.0000 0.0000 20.2084 0.0000 0.0000
# 5 0.0000 0.0000 0.0000 0.0000 19.8607 0.0000
# 6 0.0000 0.0000 0.0000 0.0000 0.0000 24.7829
#
#
#
# Elastic Compliance Matrix: (Units=1/GPa)
#
#
# Indices 1 2 3 4 5 6 
#
# 1 0.014921 -0.005229 -0.004878 0.000000 0.000000 0.000000
# 2 -0.005229 0.012415 -0.003805 0.000000 0.000000 0.000000
# 3 -0.004878 -0.003805 0.014345 0.000000 0.000000 0.000000
# 4 0.000000 0.000000 0.000000 0.049484 0.000000 0.000000
# 5 0.000000 0.000000 0.000000 0.000000 0.050351 0.000000
# 6 0.000000 0.000000 0.000000 0.000000 0.000000 0.040350
#
#
# Mechanical properties :
#
#
# Convention : Reuss Voigt Hill
#
# Bulk Modulus (GPa) = 72.16639 72.98379 72.57509
# Shear Modulus (GPa) = 23.33065 23.89032 23.61049
#
# Velocity S-wave (km/s) = 3.58343 3.62616 3.60486
# Velocity P-wave (km/s) = 7.53930 7.59616 7.56778
#
# Compressibility (1/GPa) = 0.01385687
#
# Stress axis : x y z
#
# Youngs Moduli (GPa) = 67.01755 80.54769 69.71069
#
# Poissons Ratio (x) = 0.42122 0.34004
# Poissons Ratio (y) = 0.35047 0.26525
# Poissons Ratio (z) = 0.32690 0.30648
#
# Static dielectric constant tensor:
#      x y z
#    x 1.629780 0.000000 0.000000 
#    y 0.000000 1.647450 0.000000 
#    z 0.000000 0.000000 1.635960 
# 
# From -- ./inp_files/6977.got.cif
#   From: 2010.05.17/outbox.cif.g08.bks.cpg/sg38_4_cif.got.tgz:6977.got - 2010.06.03 18:07:57.
