data_PCOD9357339
_publ_section_title
;
Structure prediction by ZEFSAII (Michael W. Deem and Ramdas Pophale) SiO2 
 PCOD9357339
Probable space group: A M M 2
;
_chemical_formula_sum "Si O2"
_cell_formula_units_Z 30
_cell_length_a 19.977408
_cell_length_b 13.824708
_cell_length_c 5.094694
_cell_angle_alpha 90.000000
_cell_angle_beta 90.000000
_cell_angle_gamma 90.000000
_cell_volume 1407.061923
_symmetry_space_group_name_H-M "A M M 2"
_symmetry_group_IT_number 38
_symmetry_cell_setting 'orthorhombic'
loop_
_space_group_symop_operation_xyz
x,y,z
-x,-y,z
-x,y,z
x,-y,z
x,1/2+y,1/2+z
-x,1/2-y,1/2+z
-x,1/2+y,1/2+z
x,1/2-y,1/2+z
loop_
_atom_site_type_symbol
_atom_site_label
_atom_site_fract_x
_atom_site_fract_y
_atom_site_fract_z
Si Si1 0.601892 0.000000 0.243430
Si Si2 0.840395 0.383698 0.766891
Si Si3 0.075074 0.882883 0.759722
Si Si4 0.500000 0.000000 0.743014
Si Si5 0.691533 0.688652 0.669303
O O1 0.648029 0.095149 0.235867
O O2 0.557793 0.000000 0.507716
O O3 0.557495 0.000000 0.978778
O O4 0.830038 0.500000 0.774193
O O5 0.895848 0.364131 0.546172
O O6 0.769675 0.337178 0.699291
O O7 0.871308 0.351578 0.043134
O O8 0.000000 0.845075 0.720449
O O9 0.071354 0.000000 0.733024
O O10 0.676729 0.727317 0.379240
#
# Coordination Sequence:
#
# PCOD9357339 Si02
#       5
#     4   8   8   2   8
#     4  11  24  50  70 106 137 172 212 262 311 386
#     4  10  19  35  57  86 122 164 213 274 323 378
#     4   9  17  29  52  83 117 162 217 268 330 391
#     4  10  24  46  80  98 140 176 206 258 316 370
#     4  12  25  42  69 100 134 175 218 268 322 380
#
# _framework density 21.321023
#
# number of rings (size 3 to 8) (size 9 to 14) (size 15 to 20)
#    0.000    1.600    1.333    4.000    0.000    3.200 
#    0.000   13.333    0.000   16.000    0.000    0.000 
#    0.000    0.000    0.000    0.000    0.000    0.000 
#
# Total GULP energy -83682.939400 kJ/mol
# GULP energy per Si atom -5578.862627 kJ/mol
# Density = 2.127250 g / cm^3
# Si number density = 21.321023 Si / 1000 Ang^3
#
#
#
# Elastic Constant Matrix: (Units=GPa)
#
#
# Indices 1 2 3 4 5 6 
#
# 1 125.2036 20.5191 14.7705 0.0000 0.0000 0.0000
# 2 20.5191 78.0734 -18.2635 0.0000 0.0000 0.0000
# 3 14.7705 -18.2635 100.5261 0.0000 0.0000 0.0000
# 4 0.0000 0.0000 0.0000 1.9414 0.0000 0.0000
# 5 0.0000 0.0000 0.0000 0.0000 161.8702 0.0000
# 6 0.0000 0.0000 0.0000 0.0000 0.0000 -89.6299
#
#
#
# Elastic Compliance Matrix: (Units=1/GPa)
#
#
# Indices 1 2 3 4 5 6 
#
# 1 0.008633 -0.002680 -0.001755 0.000000 0.000000 0.000000
# 2 -0.002680 0.014209 0.002975 0.000000 0.000000 0.000000
# 3 -0.001755 0.002975 0.010746 0.000000 0.000000 0.000000
# 4 0.000000 0.000000 0.000000 0.515099 0.000000 0.000000
# 5 0.000000 0.000000 0.000000 0.000000 0.006178 0.000000
# 6 0.000000 0.000000 0.000000 0.000000 0.000000 -0.011157
#
#
# Mechanical properties :
#
#
# Convention : Reuss Voigt Hill
#
# Bulk Modulus (GPa) = 32.60681 37.53949 35.07315
# Shear Modulus (GPa) = 8.97908 33.95480 21.46694
#
# Velocity S-wave (km/s) = 2.05439 3.99501 3.17652
# Velocity P-wave (km/s) = 4.57753 6.23900 5.47170
#
# Compressibility (1/GPa) = 0.03066844
#
# Stress axis : x y z
#
# Youngs Moduli (GPa) = 115.83164 70.37953 93.05705
#
# Poissons Ratio (x) = 0.18859 0.16334
# Poissons Ratio (y) = 0.31038 -0.27686
# Poissons Ratio (z) = 0.20332 -0.20939
#
# Static dielectric constant tensor:
#      x y z
#    x 1.697100 0.000000 0.000000 
#    y 0.000000 1.812260 0.000000 
#    z 0.000000 0.000000 1.730320 
# 
# From -- ./inp_files/1471.got.cif
#   From: 2010.05.17/outbox.cif.g08.bks.cpg/sg38_1_cif.got.tgz:1471.got - 2010.06.03 18:07:57.
