data_PCOD9357428
_publ_section_title
;
Structure prediction by ZEFSAII (Michael W. Deem and Ramdas Pophale) SiO2 
 PCOD9357428
Probable space group: A M M 2
;
_chemical_formula_sum "Si O2"
_cell_formula_units_Z 64
_cell_length_a 15.149268
_cell_length_b 8.552969
_cell_length_c 25.590159
_cell_angle_alpha 90.000000
_cell_angle_beta 90.000000
_cell_angle_gamma 90.000000
_cell_volume 3315.748111
_symmetry_space_group_name_H-M "A M M 2"
_symmetry_group_IT_number 38
_symmetry_cell_setting 'orthorhombic'
loop_
_space_group_symop_operation_xyz
x,y,z
-x,-y,z
-x,y,z
x,-y,z
x,1/2+y,1/2+z
-x,1/2-y,1/2+z
-x,1/2+y,1/2+z
x,1/2-y,1/2+z
loop_
_atom_site_type_symbol
_atom_site_label
_atom_site_fract_x
_atom_site_fract_y
_atom_site_fract_z
Si Si1 0.602612 0.308911 0.600610
Si Si2 0.903461 0.188997 0.731460
Si Si3 0.901549 0.313753 0.961376
Si Si4 0.284300 0.185457 0.200312
Si Si5 0.338328 0.180156 0.808885
Si Si6 0.404914 0.309457 0.414505
Si Si7 0.275300 0.188887 0.003175
Si Si8 0.862389 0.180251 0.847514
O O1 0.500000 0.257616 0.597564
O O2 0.600129 0.500000 0.600367
O O3 0.653730 0.258205 0.653081
O O4 0.664893 0.261471 0.552166
O O5 0.815355 0.247047 0.702778
O O6 0.899777 0.242101 0.792375
O O7 0.000000 0.233164 0.709769
O O8 0.898149 0.000000 0.732968
O O9 0.899089 0.500000 0.965241
O O10 0.884740 0.267635 0.900718
O O11 0.000000 0.258108 0.975472
O O12 0.824485 0.245712 0.997660
O O13 0.329641 0.228628 0.255265
O O14 0.276282 0.000000 0.195686
O O15 0.398683 0.245469 0.854933
O O16 0.242121 0.178428 0.836320
O O17 0.362108 0.000000 0.796913
O O18 0.500000 0.270461 0.437831
O O19 0.399161 0.500000 0.412053
O O20 0.326668 0.255221 0.451321
O O21 0.274277 0.000000 0.002949
O O22 0.891188 0.000000 0.854066
#
# Coordination Sequence:
#
# PCOD9357428 Si02
#       8
#     8   8   8   8   8   8   8   8
#     4   9  19  37  61  85 106 134 179 230 274 319
#     4   9  18  33  53  77 107 145 186 224 264 312
#     4  11  23  35  49  75 112 148 177 212 267 328
#     4  10  20  33  52  80 111 142 177 220 269 320
#     4   9  17  31  49  75 111 145 177 216 261 313
#     4   9  16  28  51  81 106 130 169 220 268 313
#     4  10  19  36  60  81 101 134 182 230 270 310
#     4   9  16  30  51  75 103 140 186 226 257 302
#
# _framework density 19.301828
#
# number of rings (size 3 to 8) (size 9 to 14) (size 15 to 20)
#    0.000    2.500    1.250    2.250    0.000    5.750 
#    0.000    1.875    0.000    8.625    0.000    0.000 
#    0.000    0.000    0.000    0.000    0.000    0.000 
#
# Total GULP energy -178365.005102 kJ/mol
# GULP energy per Si atom -5573.906409 kJ/mol
# Density = 1.925790 g / cm^3
# Si number density = 19.301828 Si / 1000 Ang^3
#
#
#
# Elastic Constant Matrix: (Units=GPa)
#
#
# Indices 1 2 3 4 5 6 
#
# 1 158.5683 21.7274 81.8656 0.0000 0.0000 0.0000
# 2 21.7274 14.8757 18.0816 0.0000 0.0000 0.0000
# 3 81.8656 18.0816 109.3062 0.0000 0.0000 0.0000
# 4 0.0000 0.0000 0.0000 19.4389 0.0000 0.0000
# 5 0.0000 0.0000 0.0000 0.0000 18.6709 0.0000
# 6 0.0000 0.0000 0.0000 0.0000 0.0000 15.0203
#
#
#
# Elastic Compliance Matrix: (Units=1/GPa)
#
#
# Indices 1 2 3 4 5 6 
#
# 1 0.010915 -0.007517 -0.006931 0.000000 0.000000 0.000000
# 2 -0.007517 0.089320 -0.009145 0.000000 0.000000 0.000000
# 3 -0.006931 -0.009145 0.015853 0.000000 0.000000 0.000000
# 4 0.000000 0.000000 0.000000 0.051443 0.000000 0.000000
# 5 0.000000 0.000000 0.000000 0.000000 0.053559 0.000000
# 6 0.000000 0.000000 0.000000 0.000000 0.000000 0.066577
#
#
# Mechanical properties :
#
#
# Convention : Reuss Voigt Hill
#
# Bulk Modulus (GPa) = 14.51390 58.45549 36.48469
# Shear Modulus (GPa) = 13.97349 21.36440 17.66895
#
# Velocity S-wave (km/s) = 2.69354 3.33056 3.02884
# Velocity P-wave (km/s) = 4.14841 6.71869 5.58347
#
# Compressibility (1/GPa) = 0.06889947
#
# Stress axis : x y z
#
# Youngs Moduli (GPa) = 91.61750 11.19576 63.08082
#
# Poissons Ratio (x) = 0.08416 0.43723
# Poissons Ratio (y) = 0.68871 0.57689
# Poissons Ratio (z) = 0.63503 0.10239
#
# Static dielectric constant tensor:
#      x y z
#    x 1.727530 0.000000 0.000000 
#    y 0.000000 1.668150 0.000000 
#    z 0.000000 0.000000 1.670420 
# 
# From -- ./inp_files/22925.got.cif
#   From: 2010.05.17/outbox.cif.g08.bks.cpg/sg38_12_cif.got.tgz:22925.got - 2010.06.03 18:07:57.
