data_PCOD9357111
_publ_section_title
;
Structure prediction by ZEFSAII (Michael W. Deem and Ramdas Pophale) SiO2 
 PCOD9357111
Probable space group: A M M 2
;
_chemical_formula_sum "Si O2"
_cell_formula_units_Z 64
_cell_length_a 24.610786
_cell_length_b 7.818893
_cell_length_c 15.795980
_cell_angle_alpha 90.000000
_cell_angle_beta 90.000000
_cell_angle_gamma 90.000000
_cell_volume 3039.606253
_symmetry_space_group_name_H-M "A M M 2"
_symmetry_group_IT_number 38
_symmetry_cell_setting 'orthorhombic'
loop_
_space_group_symop_operation_xyz
x,y,z
-x,-y,z
-x,y,z
x,-y,z
x,1/2+y,1/2+z
-x,1/2-y,1/2+z
-x,1/2+y,1/2+z
x,1/2-y,1/2+z
loop_
_atom_site_type_symbol
_atom_site_label
_atom_site_fract_x
_atom_site_fract_y
_atom_site_fract_z
Si Si1 0.061410 0.799986 0.917750
Si Si2 0.755454 0.291627 0.805826
Si Si3 0.126133 0.300441 0.755233
Si Si4 0.638164 0.794727 0.249549
Si Si5 0.437710 0.790299 0.403317
Si Si6 0.633261 0.794490 0.561520
Si Si7 0.135084 0.699481 0.073311
Si Si8 0.248574 0.291115 0.003698
O O1 0.087433 0.782015 0.824888
O O2 0.000000 0.731145 0.918731
O O3 0.059658 0.000000 0.938708
O O4 0.099264 0.717384 0.989120
O O5 0.754898 0.500000 0.801514
O O6 0.812028 0.232816 0.765396
O O7 0.699881 0.229684 0.762747
O O8 0.754650 0.244315 0.904852
O O9 0.127206 0.500000 0.777539
O O10 0.110187 0.280907 0.657523
O O11 0.598644 0.733249 0.323908
O O12 0.640501 0.000000 0.257497
O O13 0.617723 0.751831 0.156433
O O14 0.500000 0.734533 0.398200
O O15 0.408048 0.734332 0.489420
O O16 0.437841 0.000000 0.402917
O O17 0.694418 0.731562 0.542087
O O18 0.635140 0.000000 0.555037
O O19 0.140838 0.500000 0.092608
O O20 0.195109 0.771183 0.052356
O O21 0.247737 0.500000 0.006182
#
# Coordination Sequence:
#
# PCOD9357111 Si02
#       8
#     8   8   8   8   8   8   8   8
#     4  11  25  44  63  85 115 151 194 239 280 328
#     4   9  16  31  56  83 110 144 182 222 275 334
#     4  11  22  38  62  89 118 150 187 232 284 342
#     4  10  19  33  55  79 108 142 180 226 274 329
#     4   9  18  33  53  75 101 143 192 227 264 324
#     4  10  19  33  55  79 108 142 180 226 274 329
#     4  11  22  38  62  89 118 150 187 232 284 342
#     4   9  16  31  56  83 110 144 182 222 275 334
#
# _framework density 21.055357999999998
#
# number of rings (size 3 to 8) (size 9 to 14) (size 15 to 20)
#    0.000    2.000    2.500    1.875    0.000    2.000 
#    0.000    1.875    0.000    0.750    0.000    0.000 
#    0.000    0.000    0.000    0.000    0.000    0.000 
#
# Total GULP energy -178784.416233 kJ/mol
# GULP energy per Si atom -5587.013007 kJ/mol
# Density = 2.100743 g / cm^3
# Si number density = 21.055358 Si / 1000 Ang^3
#
#
#
# Elastic Constant Matrix: (Units=GPa)
#
#
# Indices 1 2 3 4 5 6 
#
# 1 116.1301 2.2688 33.6329 0.0000 0.0000 0.0000
# 2 2.2688 27.6839 -10.4316 0.0000 0.0000 0.0000
# 3 33.6329 -10.4316 122.6624 0.0000 0.0000 0.0000
# 4 0.0000 0.0000 0.0000 22.2654 0.0000 0.0000
# 5 0.0000 0.0000 0.0000 0.0000 2.1019 0.0000
# 6 0.0000 0.0000 0.0000 0.0000 0.0000 49.3347
#
#
#
# Elastic Compliance Matrix: (Units=1/GPa)
#
#
# Indices 1 2 3 4 5 6 
#
# 1 0.009441 -0.001807 -0.002742 0.000000 0.000000 0.000000
# 2 -0.001807 0.037664 0.003698 0.000000 0.000000 0.000000
# 3 -0.002742 0.003698 0.009219 0.000000 0.000000 0.000000
# 4 0.000000 0.000000 0.000000 0.044913 0.000000 0.000000
# 5 0.000000 0.000000 0.000000 0.000000 0.475766 0.000000
# 6 0.000000 0.000000 0.000000 0.000000 0.000000 0.020270
#
#
# Mechanical properties :
#
#
# Convention : Reuss Voigt Hill
#
# Bulk Modulus (GPa) = 18.30767 35.26852 26.78810
# Shear Modulus (GPa) = 8.10136 30.80747 19.45441
#
# Velocity S-wave (km/s) = 1.96367 3.82928 3.04298
# Velocity P-wave (km/s) = 3.72226 6.02810 5.00965
#
# Compressibility (1/GPa) = 0.05462191
#
# Stress axis : x y z
#
# Youngs Moduli (GPa) = 105.92652 26.55066 108.47325
#
# Poissons Ratio (x) = 0.04798 0.29745
# Poissons Ratio (y) = 0.19141 -0.40119
# Poissons Ratio (z) = 0.29047 -0.09820
#
# Static dielectric constant tensor:
#      x y z
#    x 1.751280 0.000000 0.000000 
#    y 0.000000 1.769900 0.000000 
#    z 0.000000 0.000000 1.720450 
# 
# From -- ./inp_files/15845.got.cif
#   From: 2010.05.17/outbox.cif.g08.bks.cpg/sg38_8_cif.got.tgz:15845.got - 2010.06.03 18:07:57.
