data_PCOD9357689
_publ_section_title
;
Structure prediction by ZEFSAII (Michael W. Deem and Ramdas Pophale) SiO2 
 PCOD9357689
Probable space group: A M M 2
;
_chemical_formula_sum "Si O2"
_cell_formula_units_Z 64
_cell_length_a 13.354804
_cell_length_b 28.035687
_cell_length_c 8.862822
_cell_angle_alpha 90.000000
_cell_angle_beta 90.000000
_cell_angle_gamma 90.000000
_cell_volume 3318.338977
_symmetry_space_group_name_H-M "A M M 2"
_symmetry_group_IT_number 38
_symmetry_cell_setting 'orthorhombic'
loop_
_space_group_symop_operation_xyz
x,y,z
-x,-y,z
-x,y,z
x,-y,z
x,1/2+y,1/2+z
-x,1/2-y,1/2+z
-x,1/2+y,1/2+z
x,1/2-y,1/2+z
loop_
_atom_site_type_symbol
_atom_site_label
_atom_site_fract_x
_atom_site_fract_y
_atom_site_fract_z
Si Si1 0.815223 0.945040 0.173640
Si Si2 0.611995 0.197571 0.256268
Si Si3 0.878057 0.113512 0.877403
Si Si4 0.891413 0.640680 0.860286
Si Si5 0.271444 0.370832 0.107788
Si Si6 0.382080 0.588450 0.830482
Si Si7 0.112097 0.792299 0.068221
Si Si8 0.700461 0.729727 0.054658
O O1 0.876746 0.911657 0.288414
O O2 0.700207 0.941261 0.236042
O O3 0.845028 0.000000 0.173419
O O4 0.839441 0.921241 0.011479
O O5 0.500000 0.204491 0.311905
O O6 0.627498 0.141003 0.254023
O O7 0.631123 0.226403 0.105686
O O8 0.682768 0.220331 0.379989
O O9 0.797905 0.108283 0.740725
O O10 0.000000 0.106144 0.850278
O O11 0.867819 0.167897 0.939647
O O12 0.882205 0.677453 0.722883
O O13 0.000000 0.645534 0.929640
O O14 0.808967 0.645991 0.984624
O O15 0.323138 0.319705 0.143215
O O16 0.345022 0.404134 0.005718
O O17 0.500000 0.574397 0.825077
O O18 0.188885 0.749688 0.076679
O O19 0.000000 0.774290 0.047365
#
# Coordination Sequence:
#
# PCOD9357689 Si02
#       8
#     8   8   8   8   8   8   8   8
#     4  10  20  36  60  83 100 128 173 219 267 324
#     4  10  20  33  50  73 102 137 176 218 265 308
#     4  10  20  34  51  77 115 146 169 210 268 321
#     4   9  18  34  53  74 104 140 179 220 260 308
#     4  10  20  33  51  76 109 147 180 212 262 316
#     4   9  20  39  59  78 105 140 178 224 271 313
#     4   9  18  31  47  70 103 145 186 221 257 297
#     4  11  19  31  49  72 103 138 182 226 254 292
#
# _framework density 19.286757999999999
#
# number of rings (size 3 to 8) (size 9 to 14) (size 15 to 20)
#    0.000    2.250    0.000    5.625    0.000    2.750 
#    0.000    6.250    0.000    3.000    0.000    0.000 
#    0.000    0.000    0.000    0.000    0.000    0.000 
#
# Total GULP energy -178286.570239 kJ/mol
# GULP energy per Si atom -5571.455320 kJ/mol
# Density = 1.924286 g / cm^3
# Si number density = 19.286758 Si / 1000 Ang^3
#
#
#
# Elastic Constant Matrix: (Units=GPa)
#
#
# Indices 1 2 3 4 5 6 
#
# 1 67.2895 4.0814 5.2248 0.0000 0.0000 0.0000
# 2 4.0814 63.8725 11.7568 0.0000 0.0000 0.0000
# 3 5.2248 11.7568 35.4979 0.0000 0.0000 0.0000
# 4 0.0000 0.0000 0.0000 8.6921 0.0000 0.0000
# 5 0.0000 0.0000 0.0000 0.0000 18.4598 0.0000
# 6 0.0000 0.0000 0.0000 0.0000 0.0000 6.6027
#
#
#
# Elastic Compliance Matrix: (Units=1/GPa)
#
#
# Indices 1 2 3 4 5 6 
#
# 1 0.015054 -0.000590 -0.002020 0.000000 0.000000 0.000000
# 2 -0.000590 0.016696 -0.005443 0.000000 0.000000 0.000000
# 3 -0.002020 -0.005443 0.030271 0.000000 0.000000 0.000000
# 4 0.000000 0.000000 0.000000 0.115047 0.000000 0.000000
# 5 0.000000 0.000000 0.000000 0.000000 0.054172 0.000000
# 6 0.000000 0.000000 0.000000 0.000000 0.000000 0.151453
#
#
# Mechanical properties :
#
#
# Convention : Reuss Voigt Hill
#
# Bulk Modulus (GPa) = 21.77983 23.19844 22.48914
# Shear Modulus (GPa) = 12.07428 16.45738 14.26583
#
# Velocity S-wave (km/s) = 2.50479 2.92430 2.72264
# Velocity P-wave (km/s) = 4.43649 4.84317 4.64429
#
# Compressibility (1/GPa) = 0.04591403
#
# Stress axis : x y z
#
# Youngs Moduli (GPa) = 66.42837 59.89557 33.03532
#
# Poissons Ratio (x) = 0.03534 0.06674
# Poissons Ratio (y) = 0.03920 0.17980
# Poissons Ratio (z) = 0.13420 0.32599
#
# Static dielectric constant tensor:
#      x y z
#    x 1.728140 0.000000 0.000000 
#    y 0.000000 1.680960 0.000000 
#    z 0.000000 0.000000 1.689940 
# 
# From -- ./inp_files/5900.got.cif
#   From: 2010.05.17/outbox.cif.g08.bks.cpg/sg38_3_cif.got.tgz:5900.got - 2010.06.03 18:07:57.
