data_PCOD9357647
_publ_section_title
;
Structure prediction by ZEFSAII (Michael W. Deem and Ramdas Pophale) SiO2 
 PCOD9357647
Probable space group: A M M 2
;
_chemical_formula_sum "Si O2"
_cell_formula_units_Z 64
_cell_length_a 22.777490
_cell_length_b 13.436574
_cell_length_c 12.667308
_cell_angle_alpha 90.000000
_cell_angle_beta 90.000000
_cell_angle_gamma 90.000000
_cell_volume 3876.847727
_symmetry_space_group_name_H-M "A M M 2"
_symmetry_group_IT_number 38
_symmetry_cell_setting 'orthorhombic'
loop_
_space_group_symop_operation_xyz
x,y,z
-x,-y,z
-x,y,z
x,-y,z
x,1/2+y,1/2+z
-x,1/2-y,1/2+z
-x,1/2+y,1/2+z
x,1/2-y,1/2+z
loop_
_atom_site_type_symbol
_atom_site_label
_atom_site_fract_x
_atom_site_fract_y
_atom_site_fract_z
Si Si1 0.157256 0.262359 0.403110
Si Si2 0.734123 0.213763 0.550466
Si Si3 0.751879 0.383208 0.270560
Si Si4 0.431397 0.886323 0.975863
Si Si5 0.067484 0.881085 0.290150
Si Si6 0.652065 0.255480 0.866100
Si Si7 0.066029 0.119022 0.042235
Si Si8 0.335165 0.884455 0.158989
O O1 0.207571 0.221226 0.480778
O O2 0.190854 0.325321 0.313034
O O3 0.116721 0.177047 0.353914
O O4 0.114798 0.332059 0.470691
O O5 0.741853 0.138299 0.646889
O O6 0.680932 0.193169 0.469090
O O7 0.716553 0.319505 0.604886
O O8 0.755244 0.500000 0.292691
O O9 0.697874 0.331327 0.332063
O O10 0.500000 0.872793 0.999014
O O11 0.406948 0.802140 0.897448
O O12 0.423608 0.000000 0.934657
O O13 0.390549 0.879228 0.079684
O O14 0.074234 0.857174 0.165880
O O15 0.000000 0.855396 0.320067
O O16 0.073626 0.000000 0.302260
O O17 0.649275 0.331488 0.769179
O O18 0.000000 0.150905 0.011968
O O19 0.068625 0.000000 0.033007
O O20 0.319027 0.000000 0.172455
#
# Coordination Sequence:
#
# PCOD9357647 Si02
#       8
#     8   8   8   8   8   8   8   8
#     4  11  19  31  50  73  94 122 159 197 239 288
#     4   9  20  33  46  69  98 127 159 197 244 291
#     4  10  20  33  48  69  98 128 158 197 243 290
#     4   9  17  30  50  75 101 130 165 206 249 291
#     4   9  19  35  52  70  95 127 161 198 241 290
#     4   9  18  33  51  72  97 131 169 201 241 289
#     4   9  18  32  49  69  92 119 153 194 238 283
#     4   9  18  33  51  72  99 130 167 207 245 289
#
# _framework density 16.508255999999999
#
# number of rings (size 3 to 8) (size 9 to 14) (size 15 to 20)
#    0.000    2.625    0.000    2.625    0.000    5.000 
#    0.000    7.500    0.000    0.000    0.000    5.250 
#    0.000    0.000    0.000    0.000    0.000    0.000 
#
# Total GULP energy -178355.053212 kJ/mol
# GULP energy per Si atom -5573.595413 kJ/mol
# Density = 1.647068 g / cm^3
# Si number density = 16.508256 Si / 1000 Ang^3
#
#
#
# Elastic Constant Matrix: (Units=GPa)
#
#
# Indices 1 2 3 4 5 6 
#
# 1 79.8038 25.1174 15.2833 0.0000 0.0000 0.0000
# 2 25.1174 60.6263 21.1729 0.0000 0.0000 0.0000
# 3 15.2833 21.1729 56.7598 0.0000 0.0000 0.0000
# 4 0.0000 0.0000 0.0000 23.2861 0.0000 0.0000
# 5 0.0000 0.0000 0.0000 0.0000 14.4275 0.0000
# 6 0.0000 0.0000 0.0000 0.0000 0.0000 17.8233
#
#
#
# Elastic Compliance Matrix: (Units=1/GPa)
#
#
# Indices 1 2 3 4 5 6 
#
# 1 0.014590 -0.005373 -0.001924 0.000000 0.000000 0.000000
# 2 -0.005373 0.020944 -0.006366 0.000000 0.000000 0.000000
# 3 -0.001924 -0.006366 0.020511 0.000000 0.000000 0.000000
# 4 0.000000 0.000000 0.000000 0.042944 0.000000 0.000000
# 5 0.000000 0.000000 0.000000 0.000000 0.069312 0.000000
# 6 0.000000 0.000000 0.000000 0.000000 0.000000 0.056106
#
#
# Mechanical properties :
#
#
# Convention : Reuss Voigt Hill
#
# Bulk Modulus (GPa) = 34.82035 35.59299 35.20667
# Shear Modulus (GPa) = 19.13465 20.14847 19.64156
#
# Velocity S-wave (km/s) = 3.40824 3.49737 3.45309
# Velocity P-wave (km/s) = 6.05199 6.15762 6.10504
#
# Compressibility (1/GPa) = 0.02871884
#
# Stress axis : x y z
#
# Youngs Moduli (GPa) = 68.53882 47.74742 48.75456
#
# Poissons Ratio (x) = 0.25653 0.09383
# Poissons Ratio (y) = 0.36823 0.31036
# Poissons Ratio (z) = 0.13190 0.30395
#
# Static dielectric constant tensor:
#      x y z
#    x 1.548800 0.000000 0.000000 
#    y 0.000000 1.542540 0.000000 
#    z 0.000000 0.000000 1.555090 
# 
# From -- ./inp_files/10870.got.cif
#   From: 2010.05.17/outbox.cif.g08.bks.cpg/sg38_6_cif.got.tgz:10870.got - 2010.06.03 18:07:57.
