data_PCOD9357377
_publ_section_title
;
Structure prediction by ZEFSAII (Michael W. Deem and Ramdas Pophale) SiO2 
 PCOD9357377
Probable space group: A M M 2
;
_chemical_formula_sum "Si O2"
_cell_formula_units_Z 48
_cell_length_a 7.964349
_cell_length_b 14.360173
_cell_length_c 19.346613
_cell_angle_alpha 90.000000
_cell_angle_beta 90.000000
_cell_angle_gamma 90.000000
_cell_volume 2212.661091
_symmetry_space_group_name_H-M "A M M 2"
_symmetry_group_IT_number 38
_symmetry_cell_setting 'orthorhombic'
loop_
_space_group_symop_operation_xyz
x,y,z
-x,-y,z
-x,y,z
x,-y,z
x,1/2+y,1/2+z
-x,1/2-y,1/2+z
-x,1/2+y,1/2+z
x,1/2-y,1/2+z
loop_
_atom_site_type_symbol
_atom_site_label
_atom_site_fract_x
_atom_site_fract_y
_atom_site_fract_z
Si Si1 0.306638 0.604373 0.141230
Si Si2 0.700979 0.101733 0.847734
Si Si3 0.796921 0.606863 0.630532
Si Si4 0.187067 0.752561 0.238440
Si Si5 0.703592 0.804483 0.984175
Si Si6 0.697179 0.899199 0.475110
O O1 0.500000 0.627535 0.160368
O O2 0.272021 0.500000 0.165770
O O3 0.187823 0.678634 0.175381
O O4 0.298635 0.602124 0.058745
O O5 0.500000 0.095556 0.848817
O O6 0.738460 0.190333 0.799622
O O7 0.757839 0.122892 0.925789
O O8 0.766598 0.000000 0.825103
O O9 0.739163 0.500000 0.625115
O O10 0.732136 0.658347 0.700222
O O11 0.752019 0.663255 0.560879
O O12 0.000000 0.606988 0.635054
O O13 0.000000 0.778598 0.260088
O O14 0.500000 0.798555 0.984342
O O15 0.768487 0.702679 0.959460
O O16 0.500000 0.899847 0.454477
O O17 0.769400 0.000000 0.452731
#
# Coordination Sequence:
#
# PCOD9357377 Si02
#       6
#     8   8   8   8   8   8
#     4   9  16  28  49  76 106 138 169 209 266 319
#     4  10  22  38  55  80 115 150 181 221 277 330
#     4  10  22  39  57  79 109 144 181 227 283 333
#     4  11  22  35  53  78 106 141 185 227 267 321
#     4  10  19  35  60  86 112 143 184 228 268 323
#     4   8  14  26  48  79 110 138 168 208 265 320
#
# _framework density 21.693337
#
# number of rings (size 3 to 8) (size 9 to 14) (size 15 to 20)
#    0.000    2.333    1.667    2.500    0.000    5.000 
#    0.000    0.833    0.000    1.500    0.000    0.000 
#    0.000    0.000    0.000    0.000    0.000    0.000 
#
# Total GULP energy -133709.359160 kJ/mol
# GULP energy per Si atom -5571.223298 kJ/mol
# Density = 2.164396 g / cm^3
# Si number density = 21.693337 Si / 1000 Ang^3
#
#
#
# Elastic Constant Matrix: (Units=GPa)
#
#
# Indices 1 2 3 4 5 6 
#
# 1 13.2714 14.4775 2.6031 0.0000 0.0000 0.0000
# 2 14.4775 145.0491 39.3494 0.0000 0.0000 0.0000
# 3 2.6031 39.3494 78.5984 0.0000 0.0000 0.0000
# 4 0.0000 0.0000 0.0000 16.1238 0.0000 0.0000
# 5 0.0000 0.0000 0.0000 0.0000 27.5751 0.0000
# 6 0.0000 0.0000 0.0000 0.0000 0.0000 14.3023
#
#
#
# Elastic Compliance Matrix: (Units=1/GPa)
#
#
# Indices 1 2 3 4 5 6 
#
# 1 0.084742 -0.008906 0.001652 0.000000 0.000000 0.000000
# 2 -0.008906 0.008914 -0.004168 0.000000 0.000000 0.000000
# 3 0.001652 -0.004168 0.014755 0.000000 0.000000 0.000000
# 4 0.000000 0.000000 0.000000 0.062020 0.000000 0.000000
# 5 0.000000 0.000000 0.000000 0.000000 0.036265 0.000000
# 6 0.000000 0.000000 0.000000 0.000000 0.000000 0.069919
#
#
# Mechanical properties :
#
#
# Convention : Reuss Voigt Hill
#
# Bulk Modulus (GPa) = 11.68675 38.86431 25.27553
# Shear Modulus (GPa) = 15.24485 23.63283 19.43884
#
# Velocity S-wave (km/s) = 2.65381 3.30419 2.99670
# Velocity P-wave (km/s) = 3.84567 5.70185 4.86314
#
# Compressibility (1/GPa) = 0.08556702
#
# Stress axis : x y z
#
# Youngs Moduli (GPa) = 11.80053 112.18573 67.77527
#
# Poissons Ratio (x) = 0.99918 -0.11199
# Poissons Ratio (y) = 0.10510 0.28246
# Poissons Ratio (z) = -0.01950 0.46755
#
# Static dielectric constant tensor:
#      x y z
#    x 1.749620 0.000000 0.000000 
#    y 0.000000 1.873820 0.000000 
#    z 0.000000 0.000000 1.785770 
# 
# From -- ./inp_files/19637.got.cif
#   From: 2010.05.17/outbox.cif.g08.bks.cpg/sg38_10_cif.got.tgz:19637.got - 2010.06.03 18:07:57.
