data_PCOD9357515
_publ_section_title
;
Structure prediction by ZEFSAII (Michael W. Deem and Ramdas Pophale) SiO2 
 PCOD9357515
Probable space group: A M M 2
;
_chemical_formula_sum "Si O2"
_cell_formula_units_Z 48
_cell_length_a 9.390059
_cell_length_b 7.525094
_cell_length_c 35.708118
_cell_angle_alpha 90.000000
_cell_angle_beta 90.000000
_cell_angle_gamma 90.000000
_cell_volume 2523.174063
_symmetry_space_group_name_H-M "A M M 2"
_symmetry_group_IT_number 38
_symmetry_cell_setting 'orthorhombic'
loop_
_space_group_symop_operation_xyz
x,y,z
-x,-y,z
-x,y,z
x,-y,z
x,1/2+y,1/2+z
-x,1/2-y,1/2+z
-x,1/2+y,1/2+z
x,1/2-y,1/2+z
loop_
_atom_site_type_symbol
_atom_site_label
_atom_site_fract_x
_atom_site_fract_y
_atom_site_fract_z
Si Si1 0.326975 0.702990 0.630370
Si Si2 0.159363 0.712688 0.974891
Si Si3 0.669970 0.712457 0.818834
Si Si4 0.337698 0.716475 0.904370
Si Si5 0.171491 0.500000 0.269594
Si Si6 0.672327 0.500000 0.190339
Si Si7 0.338573 0.213338 0.048701
O O1 0.500000 0.700114 0.628000
O O2 0.278600 0.500000 0.635971
O O3 0.281121 0.772512 0.589330
O O4 0.291569 0.830139 0.664579
O O5 0.151621 0.500000 0.970455
O O6 0.239315 0.781017 0.937949
O O7 0.000000 0.783460 0.977745
O O8 0.245330 0.744910 0.012828
O O9 0.500000 0.745485 0.813090
O O10 0.691872 0.500000 0.814510
O O11 0.703412 0.763672 0.861975
O O12 0.764855 0.829036 0.791359
O O13 0.500000 0.774239 0.910891
O O14 0.338341 0.500000 0.904968
O O15 0.239866 0.500000 0.228342
O O16 0.000000 0.500000 0.269101
O O17 0.500000 0.500000 0.197288
O O18 0.500000 0.280735 0.043241
O O19 0.346312 0.000000 0.051926
#
# Coordination Sequence:
#
# PCOD9357515 Si02
#       7
#     8   8   8   8   4   4   8
#     4   8  16  32  55  83 108 133 178 238 287 330
#     4  10  20  31  46  74 110 146 182 221 267 327
#     4   9  19  39  66  89 111 147 196 248 295 339
#     4   8  15  31  55  80 104 136 183 234 281 327
#     4  12  26  40  56  88 128 158 188 230 288 364
#     4  10  20  36  60  84 108 144 188 236 290 338
#     4   9  18  33  52  75 103 136 180 230 277 322
#
# _framework density 19.023655999999999
#
# number of rings (size 3 to 8) (size 9 to 14) (size 15 to 20)
#    0.000    2.833    0.000    3.250    1.167    3.000 
#    1.500    4.167    0.000    1.000    0.000    0.000 
#    0.000    0.000    0.000    0.000    0.000    0.000 
#
# Total GULP energy -133870.514339 kJ/mol
# GULP energy per Si atom -5577.938097 kJ/mol
# Density = 1.898036 g / cm^3
# Si number density = 19.023656 Si / 1000 Ang^3
#
#
#
# Elastic Constant Matrix: (Units=GPa)
#
#
# Indices 1 2 3 4 5 6 
#
# 1 101.6676 40.3622 111.5050 0.0000 0.0000 0.0000
# 2 40.3622 78.7418 59.1004 0.0000 0.0000 0.0000
# 3 111.5050 59.1004 206.4234 0.0000 0.0000 0.0000
# 4 0.0000 0.0000 0.0000 39.3370 0.0000 0.0000
# 5 0.0000 0.0000 0.0000 0.0000 -11.8966 0.0000
# 6 0.0000 0.0000 0.0000 0.0000 0.0000 12.9841
#
#
#
# Elastic Compliance Matrix: (Units=1/GPa)
#
#
# Indices 1 2 3 4 5 6 
#
# 1 0.024824 -0.003388 -0.012439 0.000000 0.000000 0.000000
# 2 -0.003388 0.016638 -0.002933 0.000000 0.000000 0.000000
# 3 -0.012439 -0.002933 0.012404 0.000000 0.000000 0.000000
# 4 0.000000 0.000000 0.000000 0.025421 0.000000 0.000000
# 5 0.000000 0.000000 0.000000 0.000000 -0.084058 0.000000
# 6 0.000000 0.000000 0.000000 0.000000 0.000000 0.077017
#
#
# Mechanical properties :
#
#
# Convention : Reuss Voigt Hill
#
# Bulk Modulus (GPa) = 61.18389 89.86309 75.52349
# Shear Modulus (GPa) = 43.39646 19.80924 31.60285
#
# Velocity S-wave (km/s) = 4.78136 3.23041 4.08025
# Velocity P-wave (km/s) = 7.91919 7.82650 7.87299
#
# Compressibility (1/GPa) = 0.01634417
#
# Stress axis : x y z
#
# Youngs Moduli (GPa) = 40.28366 60.10277 80.62126
#
# Poissons Ratio (x) = 0.20363 1.00287
# Poissons Ratio (y) = 0.13648 0.23650
# Poissons Ratio (z) = 0.50110 0.17631
#
# Static dielectric constant tensor:
#      x y z
#    x 1.637850 0.000000 0.000000 
#    y 0.000000 1.701010 0.000000 
#    z 0.000000 0.000000 1.654090 
# 
# From -- ./inp_files/24384.got.cif
#   From: 2010.05.17/outbox.cif.g08.bks.cpg/sg38_13_cif.got.tgz:24384.got - 2010.06.03 18:07:57.
