data_PCOD9357082
_publ_section_title
;
Structure prediction by ZEFSAII (Michael W. Deem and Ramdas Pophale) SiO2 
 PCOD9357082
Probable space group: A M M 2
;
_chemical_formula_sum "Si O2"
_cell_formula_units_Z 48
_cell_length_a 7.393399
_cell_length_b 18.737340
_cell_length_c 15.830450
_cell_angle_alpha 90.000000
_cell_angle_beta 90.000000
_cell_angle_gamma 90.000000
_cell_volume 2193.033886
_symmetry_space_group_name_H-M "A M M 2"
_symmetry_group_IT_number 38
_symmetry_cell_setting 'orthorhombic'
loop_
_space_group_symop_operation_xyz
x,y,z
-x,-y,z
-x,y,z
x,-y,z
x,1/2+y,1/2+z
-x,1/2-y,1/2+z
-x,1/2+y,1/2+z
x,1/2-y,1/2+z
loop_
_atom_site_type_symbol
_atom_site_label
_atom_site_fract_x
_atom_site_fract_y
_atom_site_fract_z
Si Si1 0.722772 0.343631 0.965810
Si Si2 0.781186 0.381898 0.590905
Si Si3 0.218555 0.422027 0.402842
Si Si4 0.705835 0.776264 0.636589
Si Si5 0.290740 0.769431 0.824173
Si Si6 0.781067 0.000000 0.222700
Si Si7 0.706129 0.000000 0.417071
O O1 0.500000 0.341021 0.965829
O O2 0.782535 0.286042 0.894412
O O3 0.783373 0.423760 0.944724
O O4 0.784616 0.321981 0.059694
O O5 0.730223 0.415407 0.501292
O O6 0.704517 0.303548 0.600418
O O7 0.725836 0.431329 0.668598
O O8 0.000000 0.377262 0.591865
O O9 0.277845 0.500000 0.370347
O O10 0.283357 0.350231 0.358137
O O11 0.000000 0.420581 0.398508
O O12 0.500000 0.802640 0.648978
O O13 0.790645 0.770760 0.729848
O O14 0.500000 0.747431 0.813472
O O15 0.707014 0.000000 0.315966
O O16 0.000000 0.000000 0.227712
O O17 0.500000 0.000000 0.448973
#
# Coordination Sequence:
#
# PCOD9357082 Si02
#       7
#     8   8   8   8   8   4   4
#     4   9  18  34  54  77 109 142 176 222 266 311
#     4  10  19  33  54  79 107 140 176 216 269 329
#     4  10  20  36  56  78 108 144 178 217 269 323
#     4  10  20  35  55  80 109 142 178 222 270 315
#     4  10  20  35  55  80 108 141 183 225 267 319
#     4  10  20  34  52  79 112 136 170 227 276 317
#     4  10  20  36  56  77 106 146 184 215 262 323
#
# _framework density 21.887488000000001
#
# number of rings (size 3 to 8) (size 9 to 14) (size 15 to 20)
#    0.000    2.167    2.500    1.000    0.000    3.000 
#    1.500    1.667    0.000    0.000    0.000    0.000 
#    0.000    0.000    0.000    0.000    0.000    0.000 
#
# Total GULP energy -133995.685347 kJ/mol
# GULP energy per Si atom -5583.153556 kJ/mol
# Density = 2.183767 g / cm^3
# Si number density = 21.887488 Si / 1000 Ang^3
#
#
#
# Elastic Constant Matrix: (Units=GPa)
#
#
# Indices 1 2 3 4 5 6 
#
# 1 72.5818 -2.8825 8.6476 0.0000 0.0000 0.0000
# 2 -2.8825 148.4581 58.2962 0.0000 0.0000 0.0000
# 3 8.6476 58.2962 136.3918 0.0000 0.0000 0.0000
# 4 0.0000 0.0000 0.0000 -45.9537 0.0000 0.0000
# 5 0.0000 0.0000 0.0000 0.0000 1.7674 0.0000
# 6 0.0000 0.0000 0.0000 0.0000 0.0000 22.9360
#
#
#
# Elastic Compliance Matrix: (Units=1/GPa)
#
#
# Indices 1 2 3 4 5 6 
#
# 1 0.013950 0.000743 -0.001202 0.000000 0.000000 0.000000
# 2 0.000743 0.008134 -0.003524 0.000000 0.000000 0.000000
# 3 -0.001202 -0.003524 0.008914 0.000000 0.000000 0.000000
# 4 0.000000 0.000000 0.000000 -0.021761 0.000000 0.000000
# 5 0.000000 0.000000 0.000000 0.000000 0.565791 0.000000
# 6 0.000000 0.000000 0.000000 0.000000 0.000000 0.043600
#
#
# Mechanical properties :
#
#
# Convention : Reuss Voigt Hill
#
# Bulk Modulus (GPa) = 43.41651 53.95047 48.68349
# Shear Modulus (GPa) = 7.88307 15.30797 11.59552
#
# Velocity S-wave (km/s) = 1.89986 2.64747 2.30419
# Velocity P-wave (km/s) = 4.96909 5.83507 5.41940
#
# Compressibility (1/GPa) = 0.02303271
#
# Stress axis : x y z
#
# Youngs Moduli (GPa) = 71.68317 122.94044 112.18151
#
# Poissons Ratio (x) = -0.09133 0.13484
# Poissons Ratio (y) = -0.05325 0.39530
# Poissons Ratio (z) = 0.08616 0.43321
#
# Static dielectric constant tensor:
#      x y z
#    x 1.862280 0.000000 0.000000 
#    y 0.000000 1.803150 0.000000 
#    z 0.000000 0.000000 1.779390 
# 
# From -- ./inp_files/12101.got.cif
#   From: 2010.05.17/outbox.cif.g08.bks.cpg/sg38_7_cif.got.tgz:12101.got - 2010.06.03 18:07:57.
