data_PCOD9357856
_publ_section_title
;
Structure prediction by ZEFSAII (Michael W. Deem and Ramdas Pophale) SiO2 
 PCOD9357856
Probable space group: A M M 2
;
_chemical_formula_sum "Si O2"
_cell_formula_units_Z 64
_cell_length_a 8.788122
_cell_length_b 14.702791
_cell_length_c 28.759136
_cell_angle_alpha 90.000000
_cell_angle_beta 90.000000
_cell_angle_gamma 90.000000
_cell_volume 3715.965692
_symmetry_space_group_name_H-M "A M M 2"
_symmetry_group_IT_number 38
_symmetry_cell_setting 'orthorhombic'
loop_
_space_group_symop_operation_xyz
x,y,z
-x,-y,z
-x,y,z
x,-y,z
x,1/2+y,1/2+z
-x,1/2-y,1/2+z
-x,1/2+y,1/2+z
x,1/2-y,1/2+z
loop_
_atom_site_type_symbol
_atom_site_label
_atom_site_fract_x
_atom_site_fract_y
_atom_site_fract_z
Si Si1 0.184774 0.396329 0.480440
Si Si2 0.820989 0.891358 0.540410
Si Si3 0.816789 0.606228 0.586534
Si Si4 0.681527 0.106010 0.439143
Si Si5 0.680872 0.218570 0.626225
Si Si6 0.818112 0.105636 0.710478
Si Si7 0.182883 0.226400 0.893980
Si Si8 0.317661 0.394777 0.312535
O O1 0.233444 0.500000 0.470779
O O2 0.230447 0.372678 0.533053
O O3 0.234702 0.329552 0.439916
O O4 0.000000 0.395971 0.480504
O O5 0.751878 0.871737 0.489752
O O6 0.739804 0.836678 0.581173
O O7 0.000000 0.868309 0.540204
O O8 0.805745 0.000000 0.548448
O O9 0.781679 0.500000 0.595253
O O10 0.737973 0.678325 0.619751
O O11 0.000000 0.616244 0.589271
O O12 0.500000 0.116961 0.441019
O O13 0.752843 0.172939 0.401345
O O14 0.715890 0.000000 0.429907
O O15 0.500000 0.214866 0.628424
O O16 0.751800 0.171050 0.671355
O O17 0.745388 0.122755 0.760883
O O18 0.000000 0.115351 0.713191
O O19 0.784691 0.000000 0.698066
O O20 0.245676 0.173637 0.849471
O O21 0.000000 0.227674 0.892832
O O22 0.500000 0.387197 0.312753
O O23 0.277352 0.500000 0.324431
#
# Coordination Sequence:
#
# PCOD9357856 Si02
#       8
#     8   8   8   8   8   8   8   8
#     4   8  15  28  47  73 103 134 170 211 252 294
#     4  10  20  34  52  75 105 141 181 221 259 307
#     4   9  18  34  54  74 101 140 183 223 259 298
#     4  10  21  36  52  73 105 142 179 222 269 312
#     4  12  23  33  51  78 108 141 175 214 263 318
#     4  10  21  38  59  81 105 134 171 215 261 312
#     4  11  20  31  53  80 106 140 180 217 255 308
#     4  10  21  37  56  80 111 141 169 208 260 315
#
# _framework density 17.222978999999999
#
# number of rings (size 3 to 8) (size 9 to 14) (size 15 to 20)
#    0.000    2.000    0.000    5.250    0.000    6.250 
#    0.000    0.625    0.000    2.250    0.000    0.000 
#    0.000    0.000    0.000    0.000    0.000    0.000 
#
# Total GULP energy -178739.650009 kJ/mol
# GULP energy per Si atom -5585.614063 kJ/mol
# Density = 1.718378 g / cm^3
# Si number density = 17.222979 Si / 1000 Ang^3
#
#
#
# Elastic Constant Matrix: (Units=GPa)
#
#
# Indices 1 2 3 4 5 6 
#
# 1 73.6629 57.1126 50.8675 0.0000 0.0000 0.0000
# 2 57.1126 103.7166 85.9441 0.0000 0.0000 0.0000
# 3 50.8675 85.9441 102.7102 0.0000 0.0000 0.0000
# 4 0.0000 0.0000 0.0000 34.2796 0.0000 0.0000
# 5 0.0000 0.0000 0.0000 0.0000 27.5011 0.0000
# 6 0.0000 0.0000 0.0000 0.0000 0.0000 22.8630
#
#
#
# Elastic Compliance Matrix: (Units=1/GPa)
#
#
# Indices 1 2 3 4 5 6 
#
# 1 0.023915 -0.010941 -0.002689 0.000000 0.000000 0.000000
# 2 -0.010941 0.036450 -0.025081 0.000000 0.000000 0.000000
# 3 -0.002689 -0.025081 0.032055 0.000000 0.000000 0.000000
# 4 0.000000 0.000000 0.000000 0.029172 0.000000 0.000000
# 5 0.000000 0.000000 0.000000 0.000000 0.036362 0.000000
# 6 0.000000 0.000000 0.000000 0.000000 0.000000 0.043739
#
#
# Mechanical properties :
#
#
# Convention : Reuss Voigt Hill
#
# Bulk Modulus (GPa) = 66.67854 74.21533 70.44693
# Shear Modulus (GPa) = 17.59855 22.67312 20.13583
#
# Velocity S-wave (km/s) = 3.20004 3.63222 3.42296
# Velocity P-wave (km/s) = 7.24241 7.79584 7.52422
#
# Compressibility (1/GPa) = 0.01499733
#
# Stress axis : x y z
#
# Youngs Moduli (GPa) = 41.81497 27.43502 31.19612
#
# Poissons Ratio (x) = 0.30015 0.08390
# Poissons Ratio (y) = 0.45748 0.78245
# Poissons Ratio (z) = 0.11245 0.68811
#
# Static dielectric constant tensor:
#      x y z
#    x 1.570320 0.000000 0.000000 
#    y 0.000000 1.595620 0.000000 
#    z 0.000000 0.000000 1.552730 
# 
# From -- ./inp_files/22136.got.cif
#   From: 2010.05.17/outbox.cif.g08.bks.cpg/sg38_12_cif.got.tgz:22136.got - 2010.06.03 18:07:57.
