data_PCOD9357412
_publ_section_title
;
Structure prediction by ZEFSAII (Michael W. Deem and Ramdas Pophale) SiO2 
 PCOD9357412
Probable space group: A M M 2
;
_chemical_formula_sum "Si O2"
_cell_formula_units_Z 40
_cell_length_a 7.627076
_cell_length_b 27.207483
_cell_length_c 10.433950
_cell_angle_alpha 90.000000
_cell_angle_beta 90.000000
_cell_angle_gamma 90.000000
_cell_volume 2165.185907
_symmetry_space_group_name_H-M "A M M 2"
_symmetry_group_IT_number 38
_symmetry_cell_setting 'orthorhombic'
loop_
_space_group_symop_operation_xyz
x,y,z
-x,-y,z
-x,y,z
x,-y,z
x,1/2+y,1/2+z
-x,1/2-y,1/2+z
-x,1/2+y,1/2+z
x,1/2-y,1/2+z
loop_
_atom_site_type_symbol
_atom_site_label
_atom_site_fract_x
_atom_site_fract_y
_atom_site_fract_z
Si Si1 0.500000 0.057056 0.282550
Si Si2 0.204504 0.314039 0.122520
Si Si3 0.500000 0.057437 0.973991
Si Si4 0.301568 0.647584 0.395599
Si Si5 0.203188 0.795010 0.146656
Si Si6 0.214005 0.868730 0.368719
O O1 0.673916 0.083354 0.335972
O O2 0.500000 0.000000 0.315214
O O3 0.500000 0.061782 0.127766
O O4 0.282849 0.259182 0.130967
O O5 0.269868 0.347510 0.006665
O O6 0.000000 0.307260 0.089725
O O7 0.219089 0.340130 0.259621
O O8 0.334725 0.089622 0.922475
O O9 0.500000 0.000000 0.939033
O O10 0.500000 0.667977 0.391493
O O11 0.213290 0.674497 0.515061
O O12 0.000000 0.787171 0.181165
O O13 0.270673 0.828599 0.261826
O O14 0.000000 0.875917 0.362792
#
# Coordination Sequence:
#
# PCOD9357412 Si02
#       6
#     4   8   4   8   8   8
#     4  11  22  41  64  84 111 146 191 249 298 332
#     4  10  21  36  55  81 119 155 181 223 281 340
#     4   9  20  39  58  80 107 140 185 239 292 330
#     4  10  20  34  54  85 108 146 184 230 275 333
#     4  10  19  36  57  79 114 155 189 224 274 333
#     4  10  21  38  59  87 117 150 194 234 279 342
#
# _framework density 18.474163999999998
#
# number of rings (size 3 to 8) (size 9 to 14) (size 15 to 20)
#    0.600    1.400    2.000    1.800    1.400    4.400 
#    3.600    2.000    0.000    3.600    0.000    0.000 
#    0.000    0.000    0.000    0.000    0.000    0.000 
#
# Total GULP energy -111412.790359 kJ/mol
# GULP energy per Si atom -5570.639518 kJ/mol
# Density = 1.843212 g / cm^3
# Si number density = 18.474164 Si / 1000 Ang^3
#
#
#
# Elastic Constant Matrix: (Units=GPa)
#
#
# Indices 1 2 3 4 5 6 
#
# 1 52.1179 24.5685 -4.3896 0.0000 0.0000 0.0000
# 2 24.5685 173.6974 67.5678 0.0000 0.0000 0.0000
# 3 -4.3896 67.5678 125.2099 0.0000 0.0000 0.0000
# 4 0.0000 0.0000 0.0000 3.2557 0.0000 0.0000
# 5 0.0000 0.0000 0.0000 0.0000 42.1726 0.0000
# 6 0.0000 0.0000 0.0000 0.0000 0.0000 36.4360
#
#
#
# Elastic Compliance Matrix: (Units=1/GPa)
#
#
# Indices 1 2 3 4 5 6 
#
# 1 0.021424 -0.004205 0.003020 0.000000 0.000000 0.000000
# 2 -0.004205 0.008112 -0.004525 0.000000 0.000000 0.000000
# 3 0.003020 -0.004525 0.010534 0.000000 0.000000 0.000000
# 4 0.000000 0.000000 0.000000 0.307149 0.000000 0.000000
# 5 0.000000 0.000000 0.000000 0.000000 0.023712 0.000000
# 6 0.000000 0.000000 0.000000 0.000000 0.000000 0.027445
#
#
# Mechanical properties :
#
#
# Convention : Reuss Voigt Hill
#
# Bulk Modulus (GPa) = 34.90310 58.50207 46.70258
# Shear Modulus (GPa) = 11.92330 33.92478 22.92404
#
# Velocity S-wave (km/s) = 2.54324 4.28990 3.52642
# Velocity P-wave (km/s) = 5.24957 7.50156 6.47423
#
# Compressibility (1/GPa) = 0.02865075
#
# Stress axis : x y z
#
# Youngs Moduli (GPa) = 46.67657 123.27154 94.92746
#
# Poissons Ratio (x) = 0.51838 -0.28672
# Poissons Ratio (y) = 0.19629 0.42955
# Poissons Ratio (z) = -0.14098 0.55781
#
# Static dielectric constant tensor:
#      x y z
#    x 1.672000 0.000000 0.000000 
#    y 0.000000 1.648900 0.000000 
#    z 0.000000 0.000000 1.633580 
# 
# From -- ./inp_files/3538.got.cif
#   From: 2010.05.17/outbox.cif.g08.bks.cpg/sg38_2_cif.got.tgz:3538.got - 2010.06.03 18:07:57.
