data_PCOD9357890
_publ_section_title
;
Structure prediction by ZEFSAII (Michael W. Deem and Ramdas Pophale) SiO2 
 PCOD9357890
Probable space group: A M M 2
;
_chemical_formula_sum "Si O2"
_cell_formula_units_Z 48
_cell_length_a 8.742754
_cell_length_b 31.165823
_cell_length_c 10.175482
_cell_angle_alpha 90.000000
_cell_angle_beta 90.000000
_cell_angle_gamma 90.000000
_cell_volume 2772.565717
_symmetry_space_group_name_H-M "A M M 2"
_symmetry_group_IT_number 38
_symmetry_cell_setting 'orthorhombic'
loop_
_space_group_symop_operation_xyz
x,y,z
-x,-y,z
-x,y,z
x,-y,z
x,1/2+y,1/2+z
-x,1/2-y,1/2+z
-x,1/2+y,1/2+z
x,1/2-y,1/2+z
loop_
_atom_site_type_symbol
_atom_site_label
_atom_site_fract_x
_atom_site_fract_y
_atom_site_fract_z
Si Si1 0.684301 0.213152 0.390050
Si Si2 0.316934 0.549528 0.389147
Si Si3 0.184713 0.549259 0.101676
Si Si4 0.816745 0.381644 0.588819
Si Si5 0.184434 0.120266 0.392148
Si Si6 0.315229 0.711512 0.585922
O O1 0.500000 0.210837 0.395899
O O2 0.750776 0.166900 0.428121
O O3 0.734298 0.251050 0.487016
O O4 0.726966 0.221398 0.237612
O O5 0.500000 0.552342 0.388550
O O6 0.273351 0.500000 0.418272
O O7 0.254189 0.559518 0.243770
O O8 0.249546 0.582123 0.494607
O O9 0.226740 0.500000 0.068464
O O10 0.000000 0.551033 0.111006
O O11 0.234577 0.583144 0.991701
O O12 0.770326 0.388924 0.741157
O O13 0.755085 0.334568 0.551481
O O14 0.000000 0.381889 0.581888
O O15 0.000000 0.122249 0.395530
O O16 0.500000 0.708264 0.579765
#
# Coordination Sequence:
#
# PCOD9357890 Si02
#       6
#     8   8   8   8   8   8
#     4   9  18  32  50  71  98 133 169 206 249 296
#     4  10  21  36  53  75 103 134 169 209 251 297
#     4   9  18  34  54  75 101 133 169 210 255 301
#     4  10  20  34  53  77 104 135 169 206 251 300
#     4   9  19  34  52  76 104 133 168 210 253 299
#     4   9  18  33  50  70  98 131 168 208 249 295
#
# _framework density 17.312484999999999
#
# number of rings (size 3 to 8) (size 9 to 14) (size 15 to 20)
#    0.000    2.667    0.000    1.000    0.000    5.000 
#    0.000    3.333    0.000    2.000    0.000    0.000 
#    0.000    0.000    0.000    0.000    0.000    0.000 
#
# Total GULP energy -133864.567147 kJ/mol
# GULP energy per Si atom -5577.690298 kJ/mol
# Density = 1.727308 g / cm^3
# Si number density = 17.312485 Si / 1000 Ang^3
#
#
#
# Elastic Constant Matrix: (Units=GPa)
#
#
# Indices 1 2 3 4 5 6 
#
# 1 16.8326 40.7260 34.9455 0.0000 0.0000 0.0000
# 2 40.7260 171.8216 133.2100 0.0000 0.0000 0.0000
# 3 34.9455 133.2100 123.4938 0.0000 0.0000 0.0000
# 4 0.0000 0.0000 0.0000 44.5882 0.0000 0.0000
# 5 0.0000 0.0000 0.0000 0.0000 18.7238 0.0000
# 6 0.0000 0.0000 0.0000 0.0000 0.0000 30.3241
#
#
#
# Elastic Compliance Matrix: (Units=1/GPa)
#
#
# Indices 1 2 3 4 5 6 
#
# 1 0.151119 -0.016282 -0.025199 0.000000 0.000000 0.000000
# 2 -0.016282 0.037302 -0.035630 0.000000 0.000000 0.000000
# 3 -0.025199 -0.035630 0.053661 0.000000 0.000000 0.000000
# 4 0.000000 0.000000 0.000000 0.022427 0.000000 0.000000
# 5 0.000000 0.000000 0.000000 0.000000 0.053408 0.000000
# 6 0.000000 0.000000 0.000000 0.000000 0.000000 0.032977
#
#
# Mechanical properties :
#
#
# Convention : Reuss Voigt Hill
#
# Bulk Modulus (GPa) = 11.38176 81.10123 46.24149
# Shear Modulus (GPa) = 9.35620 25.61165 17.48392
#
# Velocity S-wave (km/s) = 2.32724 3.85044 3.18134
# Velocity P-wave (km/s) = 3.71618 8.16793 6.34527
#
# Compressibility (1/GPa) = 0.08785987
#
# Stress axis : x y z
#
# Youngs Moduli (GPa) = 6.61730 26.80790 18.63536
#
# Poissons Ratio (x) = 0.43650 0.46960
# Poissons Ratio (y) = 0.10775 0.66397
# Poissons Ratio (z) = 0.16675 0.95516
#
# Static dielectric constant tensor:
#      x y z
#    x 1.582620 0.000000 0.000000 
#    y 0.000000 1.561920 0.000000 
#    z 0.000000 0.000000 1.574840 
# 
# From -- ./inp_files/3719.got.cif
#   From: 2010.05.17/outbox.cif.g08.bks.cpg/sg38_2_cif.got.tgz:3719.got - 2010.06.03 18:07:57.
