data_PCOD9357769
_publ_section_title
;
Structure prediction by ZEFSAII (Michael W. Deem and Ramdas Pophale) SiO2 
 PCOD9357769
Probable space group: A M M 2
;
_chemical_formula_sum "Si O2"
_cell_formula_units_Z 64
_cell_length_a 15.533797
_cell_length_b 7.639112
_cell_length_c 24.947633
_cell_angle_alpha 90.000000
_cell_angle_beta 90.000000
_cell_angle_gamma 90.000000
_cell_volume 2960.396277
_symmetry_space_group_name_H-M "A M M 2"
_symmetry_group_IT_number 38
_symmetry_cell_setting 'orthorhombic'
loop_
_space_group_symop_operation_xyz
x,y,z
-x,-y,z
-x,y,z
x,-y,z
x,1/2+y,1/2+z
-x,1/2-y,1/2+z
-x,1/2+y,1/2+z
x,1/2-y,1/2+z
loop_
_atom_site_type_symbol
_atom_site_label
_atom_site_fract_x
_atom_site_fract_y
_atom_site_fract_z
Si Si1 0.638888 0.211472 0.938960
Si Si2 0.594044 0.213407 0.059608
Si Si3 0.225022 0.293417 0.789835
Si Si4 0.090224 0.706869 0.869836
Si Si5 0.784625 0.788005 0.090665
Si Si6 0.827690 0.710553 0.473083
Si Si7 0.407429 0.794087 0.318105
Si Si8 0.900588 0.206026 0.693161
O O1 0.737869 0.266318 0.946122
O O2 0.603822 0.279484 0.882693
O O3 0.633282 0.000000 0.936453
O O4 0.598505 0.262983 0.996369
O O5 0.500000 0.269108 0.080917
O O6 0.683475 0.269724 0.088320
O O7 0.595762 0.000000 0.060819
O O8 0.237518 0.500000 0.799938
O O9 0.170896 0.214663 0.838966
O O10 0.321708 0.219607 0.789907
O O11 0.162286 0.278751 0.739202
O O12 0.089401 0.500000 0.858309
O O13 0.099517 0.728504 0.933090
O O14 0.000000 0.782222 0.850352
O O15 0.846694 0.732704 0.138549
O O16 0.782135 0.000000 0.091443
O O17 0.825844 0.729741 0.034182
O O18 0.828428 0.500000 0.474177
O O19 0.500000 0.714965 0.303702
O O20 0.411904 0.000000 0.304851
O O21 0.000000 0.275066 0.691992
O O22 0.907034 0.000000 0.702930
#
# Coordination Sequence:
#
# PCOD9357769 Si02
#       8
#     8   8   8   8   8   8   8   8
#     4   9  16  28  49  77 111 151 188 220 257 308
#     4   8  14  27  50  81 114 147 185 223 259 309
#     4  10  21  39  60  80 108 145 184 226 271 326
#     4  10  20  33  52  79 108 142 182 221 272 334
#     4   9  19  36  58  83 110 144 185 226 270 323
#     4   9  18  32  51  79 114 148 182 220 265 320
#     4  10  20  33  52  81 114 146 182 222 265 317
#     4  11  25  43  62  83 104 133 180 237 290 334
#
# _framework density 21.618728000000001
#
# number of rings (size 3 to 8) (size 9 to 14) (size 15 to 20)
#    0.000    2.500    1.250    2.625    0.000    4.500 
#    0.000    5.000    0.000    4.875    0.000    0.000 
#    0.000    0.000    0.000    0.000    0.000    0.000 
#
# Total GULP energy -178375.360169 kJ/mol
# GULP energy per Si atom -5574.230005 kJ/mol
# Density = 2.156952 g / cm^3
# Si number density = 21.618728 Si / 1000 Ang^3
#
#
#
# Elastic Constant Matrix: (Units=GPa)
#
#
# Indices 1 2 3 4 5 6 
#
# 1 214.4347 7.7994 69.5804 0.0000 0.0000 0.0000
# 2 7.7994 40.4042 -14.5997 0.0000 0.0000 0.0000
# 3 69.5804 -14.5997 76.9119 0.0000 0.0000 0.0000
# 4 0.0000 0.0000 0.0000 23.1172 0.0000 0.0000
# 5 0.0000 0.0000 0.0000 0.0000 19.2418 0.0000
# 6 0.0000 0.0000 0.0000 0.0000 0.0000 9.1716
#
#
#
# Elastic Compliance Matrix: (Units=1/GPa)
#
#
# Indices 1 2 3 4 5 6 
#
# 1 0.007155 -0.003994 -0.007231 0.000000 0.000000 0.000000
# 2 -0.003994 0.028802 0.009081 0.000000 0.000000 0.000000
# 3 -0.007231 0.009081 0.021268 0.000000 0.000000 0.000000
# 4 0.000000 0.000000 0.000000 0.043258 0.000000 0.000000
# 5 0.000000 0.000000 0.000000 0.000000 0.051970 0.000000
# 6 0.000000 0.000000 0.000000 0.000000 0.000000 0.109032
#
#
# Mechanical properties :
#
#
# Convention : Reuss Voigt Hill
#
# Bulk Modulus (GPa) = 18.89087 50.81231 34.85159
# Shear Modulus (GPa) = 17.64172 28.23751 22.93962
#
# Velocity S-wave (km/s) = 2.85974 3.61800 3.26099
# Velocity P-wave (km/s) = 4.43411 6.40376 5.50770
#
# Compressibility (1/GPa) = 0.05293563
#
# Stress axis : x y z
#
# Youngs Moduli (GPa) = 139.76012 34.71957 47.01993
#
# Poissons Ratio (x) = 0.13867 0.34001
# Poissons Ratio (y) = 0.55822 -0.42698
# Poissons Ratio (z) = 1.01064 -0.31528
#
# Static dielectric constant tensor:
#      x y z
#    x 1.863980 0.000000 0.000000 
#    y 0.000000 1.810080 0.000000 
#    z 0.000000 0.000000 1.770700 
# 
# From -- ./inp_files/22888.got.cif
#   From: 2010.05.17/outbox.cif.g08.bks.cpg/sg38_12_cif.got.tgz:22888.got - 2010.06.03 18:07:57.
