data_PCOD9357930
_publ_section_title
;
Structure prediction by ZEFSAII (Michael W. Deem and Ramdas Pophale) SiO2 
 PCOD9357930
Probable space group: A M M 2
;
_chemical_formula_sum "Si O2"
_cell_formula_units_Z 64
_cell_length_a 19.100224
_cell_length_b 8.275810
_cell_length_c 21.656061
_cell_angle_alpha 90.000000
_cell_angle_beta 90.000000
_cell_angle_gamma 90.000000
_cell_volume 3423.169768
_symmetry_space_group_name_H-M "A M M 2"
_symmetry_group_IT_number 38
_symmetry_cell_setting 'orthorhombic'
loop_
_space_group_symop_operation_xyz
x,y,z
-x,-y,z
-x,y,z
x,-y,z
x,1/2+y,1/2+z
-x,1/2-y,1/2+z
-x,1/2+y,1/2+z
x,1/2-y,1/2+z
loop_
_atom_site_type_symbol
_atom_site_label
_atom_site_fract_x
_atom_site_fract_y
_atom_site_fract_z
Si Si1 0.085158 0.186575 0.516120
Si Si2 0.585041 0.187293 0.523465
Si Si3 0.918907 0.698137 0.150589
Si Si4 0.331332 0.191949 0.772079
Si Si5 0.419276 0.191212 0.156488
Si Si6 0.919054 0.696044 0.881688
Si Si7 0.580321 0.805163 0.388691
Si Si8 0.827802 0.195221 0.766619
O O1 0.104639 0.257280 0.582641
O O2 0.104613 0.257217 0.449601
O O3 0.000000 0.183104 0.516153
O O4 0.109387 0.000000 0.516155
O O5 0.500000 0.191724 0.520881
O O6 0.605668 0.274277 0.586604
O O7 0.607038 0.252466 0.456161
O O8 0.606389 0.000000 0.528955
O O9 0.918329 0.500000 0.148578
O O10 0.869528 0.751965 0.205939
O O11 0.000000 0.744817 0.161185
O O12 0.372214 0.231445 0.709204
O O13 0.372452 0.259621 0.831048
O O14 0.251874 0.254701 0.768666
O O15 0.328583 0.000000 0.779199
O O16 0.500000 0.250807 0.161357
O O17 0.420054 0.000000 0.166632
O O18 0.918698 0.500000 0.883845
O O19 0.870104 0.754033 0.827128
O O20 0.000000 0.745925 0.871280
O O21 0.500000 0.748499 0.379136
O O22 0.577791 0.000000 0.393117
O O23 0.826603 0.000000 0.763907
#
# Coordination Sequence:
#
# PCOD9357930 Si02
#       8
#     8   8   8   8   8   8   8   8
#     4   7  11  22  43  71  95 113 145 195 240 278
#     4   8  15  30  53  79 103 124 152 199 255 304
#     4   8  13  25  48  72  91 117 156 199 238 276
#     4  11  23  35  47  68 102 140 174 211 253 295
#     4  10  20  34  54  78 101 128 165 206 248 301
#     4   9  17  30  50  75  99 123 155 198 247 297
#     4   9  18  34  56  79 100 125 163 210 256 304
#     4  10  21  34  47  68  99 132 166 203 241 286
#
# _framework density 18.696121999999999
#
# number of rings (size 3 to 8) (size 9 to 14) (size 15 to 20)
#    0.000    3.000    0.000    3.750    0.000    4.750 
#    0.000    2.500    0.000    3.750    0.000    1.750 
#    0.000    0.000    0.000    0.000    0.000    0.000 
#
# Total GULP energy -178281.753528 kJ/mol
# GULP energy per Si atom -5571.304798 kJ/mol
# Density = 1.865357 g / cm^3
# Si number density = 18.696122 Si / 1000 Ang^3
#
#
#
# Elastic Constant Matrix: (Units=GPa)
#
#
# Indices 1 2 3 4 5 6 
#
# 1 88.4174 7.5875 84.6165 0.0000 0.0000 0.0000
# 2 7.5875 4.7700 5.4026 0.0000 0.0000 0.0000
# 3 84.6165 5.4026 192.6435 0.0000 0.0000 0.0000
# 4 0.0000 0.0000 0.0000 29.1473 0.0000 0.0000
# 5 0.0000 0.0000 0.0000 0.0000 -7.6469 0.0000
# 6 0.0000 0.0000 0.0000 0.0000 0.0000 12.1915
#
#
#
# Elastic Compliance Matrix: (Units=1/GPa)
#
#
# Indices 1 2 3 4 5 6 
#
# 1 0.022044 -0.024889 -0.008985 0.000000 0.000000 0.000000
# 2 -0.024889 0.244622 0.004072 0.000000 0.000000 0.000000
# 3 -0.008985 0.004072 0.009023 0.000000 0.000000 0.000000
# 4 0.000000 0.000000 0.000000 0.034309 0.000000 0.000000
# 5 0.000000 0.000000 0.000000 0.000000 -0.130771 0.000000
# 6 0.000000 0.000000 0.000000 0.000000 0.000000 0.082024
#
#
# Mechanical properties :
#
#
# Convention : Reuss Voigt Hill
#
# Bulk Modulus (GPa) = 4.62779 53.44934 29.03857
# Shear Modulus (GPa) = 12.72643 19.28666 16.00654
#
# Velocity S-wave (km/s) = 2.61185 3.21532 2.92917
# Velocity P-wave (km/s) = 3.40240 6.51420 5.19669
#
# Compressibility (1/GPa) = 0.21608569
#
# Stress axis : x y z
#
# Youngs Moduli (GPa) = 45.36310 4.08794 110.82566
#
# Poissons Ratio (x) = 0.10175 0.99574
# Poissons Ratio (y) = 1.12905 -0.45128
# Poissons Ratio (z) = 0.40758 -0.01665
#
# Static dielectric constant tensor:
#      x y z
#    x 1.625580 0.000000 0.000000 
#    y 0.000000 1.659030 0.000000 
#    z 0.000000 0.000000 1.670510 
# 
# From -- ./inp_files/21400.got.cif
#   From: 2010.05.17/outbox.cif.g08.bks.cpg/sg38_11_cif.got.tgz:21400.got - 2010.06.03 18:07:57.
