data_PCOD9357443
_publ_section_title
;
Structure prediction by ZEFSAII (Michael W. Deem and Ramdas Pophale) SiO2 
 PCOD9357443
Probable space group: A M M 2
;
_chemical_formula_sum "Si O2"
_cell_formula_units_Z 34
_cell_length_a 7.832876
_cell_length_b 14.115593
_cell_length_c 12.544434
_cell_angle_alpha 90.000000
_cell_angle_beta 90.000000
_cell_angle_gamma 90.000000
_cell_volume 1386.983996
_symmetry_space_group_name_H-M "A M M 2"
_symmetry_group_IT_number 38
_symmetry_cell_setting 'orthorhombic'
loop_
_space_group_symop_operation_xyz
x,y,z
-x,-y,z
-x,y,z
x,-y,z
x,1/2+y,1/2+z
-x,1/2-y,1/2+z
-x,1/2+y,1/2+z
x,1/2-y,1/2+z
loop_
_atom_site_type_symbol
_atom_site_label
_atom_site_fract_x
_atom_site_fract_y
_atom_site_fract_z
Si Si1 0.701416 0.179419 0.677070
Si Si2 0.197045 0.335801 0.953423
Si Si3 0.794705 0.897376 0.222647
Si Si4 0.303885 0.631715 0.414558
Si Si5 0.000000 0.000000 0.987265
O O1 0.500000 0.168849 0.668544
O O2 0.783153 0.130475 0.574080
O O3 0.738828 0.293307 0.682758
O O4 0.750646 0.132761 0.789708
O O5 0.242538 0.395925 0.849808
O O6 0.305882 0.241044 0.946853
O O7 0.000000 0.309723 0.936701
O O8 0.000000 0.901030 0.206681
O O9 0.727383 0.000000 0.182856
O O10 0.500000 0.598344 0.425314
O O11 0.153445 0.580646 0.477466
#
# Coordination Sequence:
#
# PCOD9357443 Si02
#       5
#     8   8   8   8   2
#     4  10  21  37  59  85 117 157 195 241 300 357
#     4  10  19  36  62  86 116 159 198 239 304 362
#     4   9  19  37  59  87 115 148 196 249 294 352
#     4  10  22  40  60  86 120 156 198 246 298 357
#     4  12  22  40  60  86 114 162 198 248 296 346
#
# _framework density 24.513622000000002
#
# number of rings (size 3 to 8) (size 9 to 14) (size 15 to 20)
#    0.000    2.118    1.176    1.765    3.294    1.412 
#    4.235    0.000    0.000    0.000    0.000    0.000 
#    0.000    0.000    0.000    0.000    0.000    0.000 
#
# Total GULP energy -94709.516776 kJ/mol
# GULP energy per Si atom -5571.148046 kJ/mol
# Density = 2.445783 g / cm^3
# Si number density = 24.513622 Si / 1000 Ang^3
#
#
#
# Elastic Constant Matrix: (Units=GPa)
#
#
# Indices 1 2 3 4 5 6 
#
# 1 96.7956 27.7751 9.2209 0.0000 0.0000 0.0000
# 2 27.7751 86.6329 3.7393 0.0000 0.0000 0.0000
# 3 9.2209 3.7393 145.4160 0.0000 0.0000 0.0000
# 4 0.0000 0.0000 0.0000 2.7437 0.0000 0.0000
# 5 0.0000 0.0000 0.0000 0.0000 26.0083 0.0000
# 6 0.0000 0.0000 0.0000 0.0000 0.0000 -70.7243
#
#
#
# Elastic Compliance Matrix: (Units=1/GPa)
#
#
# Indices 1 2 3 4 5 6 
#
# 1 0.011435 -0.003639 -0.000632 0.000000 0.000000 0.000000
# 2 -0.003639 0.012714 -0.000096 0.000000 0.000000 0.000000
# 3 -0.000632 -0.000096 0.006919 0.000000 0.000000 0.000000
# 4 0.000000 0.000000 0.000000 0.364474 0.000000 0.000000
# 5 0.000000 0.000000 0.000000 0.000000 0.038449 0.000000
# 6 0.000000 0.000000 0.000000 0.000000 0.000000 -0.014139
#
#
# Mechanical properties :
#
#
# Convention : Reuss Voigt Hill
#
# Bulk Modulus (GPa) = 44.77261 45.59056 45.18158
# Shear Modulus (GPa) = 11.46707 10.81280 11.13994
#
# Velocity S-wave (km/s) = 2.16518 2.10250 2.13407
# Velocity P-wave (km/s) = 4.95527 4.95302 4.95415
#
# Compressibility (1/GPa) = 0.02233508
#
# Stress axis : x y z
#
# Youngs Moduli (GPa) = 87.44766 78.65467 144.52239
#
# Poissons Ratio (x) = 0.28622 0.09127
# Poissons Ratio (y) = 0.31822 0.01390
# Poissons Ratio (z) = 0.05523 0.00756
#
# Static dielectric constant tensor:
#      x y z
#    x 1.863420 0.000000 0.000000 
#    y 0.000000 2.006010 0.000000 
#    z 0.000000 0.000000 2.096710 
# 
# From -- ./inp_files/11493.got.cif
#   From: 2010.05.17/outbox.cif.g08.bks.cpg/sg38_6_cif.got.tgz:11493.got - 2010.06.03 18:07:57.
