data_PCOD9357669
_publ_section_title
;
Structure prediction by ZEFSAII (Michael W. Deem and Ramdas Pophale) SiO2 
 PCOD9357669
Probable space group: A M M 2
;
_chemical_formula_sum "Si O2"
_cell_formula_units_Z 64
_cell_length_a 8.044495
_cell_length_b 16.721716
_cell_length_c 23.350100
_cell_angle_alpha 90.000000
_cell_angle_beta 90.000000
_cell_angle_gamma 90.000000
_cell_volume 3141.003165
_symmetry_space_group_name_H-M "A M M 2"
_symmetry_group_IT_number 38
_symmetry_cell_setting 'orthorhombic'
loop_
_space_group_symop_operation_xyz
x,y,z
-x,-y,z
-x,y,z
x,-y,z
x,1/2+y,1/2+z
-x,1/2-y,1/2+z
-x,1/2+y,1/2+z
x,1/2-y,1/2+z
loop_
_atom_site_type_symbol
_atom_site_label
_atom_site_fract_x
_atom_site_fract_y
_atom_site_fract_z
Si Si1 0.302386 0.089141 0.116760
Si Si2 0.306462 0.589228 0.058520
Si Si3 0.704432 0.731558 0.533534
Si Si4 0.304012 0.241556 0.909060
Si Si5 0.192178 0.408187 0.186117
Si Si6 0.201108 0.414905 0.871245
Si Si7 0.806165 0.377976 0.744933
Si Si8 0.192500 0.195937 0.785392
O O1 0.500000 0.087098 0.106448
O O2 0.275609 0.101280 0.184784
O O3 0.235929 0.000000 0.101531
O O4 0.238748 0.166033 0.080512
O O5 0.500000 0.587210 0.041305
O O6 0.234345 0.500000 0.043735
O O7 0.290732 0.596099 0.127172
O O8 0.237359 0.675719 0.039283
O O9 0.500000 0.734202 0.537311
O O10 0.758091 0.707320 0.469340
O O11 0.500000 0.237175 0.911851
O O12 0.258145 0.335198 0.902431
O O13 0.252089 0.199741 0.850257
O O14 0.182676 0.500000 0.203088
O O15 0.272307 0.360777 0.238358
O O16 0.000000 0.380552 0.174713
O O17 0.251877 0.500000 0.897297
O O18 0.259710 0.413084 0.804902
O O19 0.000000 0.411394 0.869376
O O20 0.797059 0.283848 0.757951
O O21 0.000000 0.400994 0.739899
O O22 0.000000 0.172380 0.788742
#
# Coordination Sequence:
#
# PCOD9357669 Si02
#       8
#     8   8   8   8   8   8   8   8
#     4  10  20  33  50  71  95 126 163 201 241 285
#     4   9  17  30  50  74  99 127 156 189 236 294
#     4   9  19  35  50  67  96 130 162 200 245 285
#     4  10  20  33  50  70  92 124 168 209 238 274
#     4   9  17  30  49  73  99 124 153 194 243 294
#     4   9  18  33  51  72 102 134 156 184 237 297
#     4   9  17  30  49  72  98 126 153 186 235 292
#     4   9  18  33  50  69  97 130 158 191 245 301
#
# _framework density 20.375655999999999
#
# number of rings (size 3 to 8) (size 9 to 14) (size 15 to 20)
#    0.000    2.750    0.000    2.250    0.000    4.000 
#    0.000    4.375    0.000    2.250    0.000    0.000 
#    0.000    0.000    0.000    0.000    0.000    0.000 
#
# Total GULP energy -178219.998717 kJ/mol
# GULP energy per Si atom -5569.374960 kJ/mol
# Density = 2.032928 g / cm^3
# Si number density = 20.375656 Si / 1000 Ang^3
#
#
#
# Elastic Constant Matrix: (Units=GPa)
#
#
# Indices 1 2 3 4 5 6 
#
# 1 10.5586 3.0818 -3.8826 0.0000 0.0000 0.0000
# 2 3.0818 51.8160 46.5858 0.0000 0.0000 0.0000
# 3 -3.8826 46.5858 94.6816 0.0000 0.0000 0.0000
# 4 0.0000 0.0000 0.0000 12.4575 0.0000 0.0000
# 5 0.0000 0.0000 0.0000 0.0000 31.5552 0.0000
# 6 0.0000 0.0000 0.0000 0.0000 0.0000 7.5949
#
#
#
# Elastic Compliance Matrix: (Units=1/GPa)
#
#
# Indices 1 2 3 4 5 6 
#
# 1 0.104856 -0.018116 0.013213 0.000000 0.000000 0.000000
# 2 -0.018116 0.037739 -0.019311 0.000000 0.000000 0.000000
# 3 0.013213 -0.019311 0.020605 0.000000 0.000000 0.000000
# 4 0.000000 0.000000 0.000000 0.080273 0.000000 0.000000
# 5 0.000000 0.000000 0.000000 0.000000 0.031691 0.000000
# 6 0.000000 0.000000 0.000000 0.000000 0.000000 0.131667
#
#
# Mechanical properties :
#
#
# Convention : Reuss Voigt Hill
#
# Bulk Modulus (GPa) = 8.71291 27.62514 18.16903
# Shear Modulus (GPa) = 10.13139 17.73960 13.93550
#
# Velocity S-wave (km/s) = 2.23229 2.95384 2.61804
# Velocity P-wave (km/s) = 3.30599 5.02204 4.25150
#
# Compressibility (1/GPa) = 0.11477217
#
# Stress axis : x y z
#
# Youngs Moduli (GPa) = 9.53687 26.49811 48.53145
#
# Poissons Ratio (x) = 0.48004 -0.64127
# Poissons Ratio (y) = 0.17277 0.93720
# Poissons Ratio (z) = -0.12602 0.51171
#
# Static dielectric constant tensor:
#      x y z
#    x 1.742460 0.000000 0.000000 
#    y 0.000000 1.788490 0.000000 
#    z 0.000000 0.000000 1.751090 
# 
# From -- ./inp_files/20077.got.cif
#   From: 2010.05.17/outbox.cif.g08.bks.cpg/sg38_11_cif.got.tgz:20077.got - 2010.06.03 18:07:57.
