data_PCOD9357023
_publ_section_title
;
Structure prediction by ZEFSAII (Michael W. Deem and Ramdas Pophale) SiO2 
 PCOD9357023
Probable space group: A M M 2
;
_chemical_formula_sum "Si O2"
_cell_formula_units_Z 64
_cell_length_a 18.379773
_cell_length_b 15.009314
_cell_length_c 12.123653
_cell_angle_alpha 90.000000
_cell_angle_beta 90.000000
_cell_angle_gamma 90.000000
_cell_volume 3344.525290
_symmetry_space_group_name_H-M "A M M 2"
_symmetry_group_IT_number 38
_symmetry_cell_setting 'orthorhombic'
loop_
_space_group_symop_operation_xyz
x,y,z
-x,-y,z
-x,y,z
x,-y,z
x,1/2+y,1/2+z
-x,1/2-y,1/2+z
-x,1/2+y,1/2+z
x,1/2-y,1/2+z
loop_
_atom_site_type_symbol
_atom_site_label
_atom_site_fract_x
_atom_site_fract_y
_atom_site_fract_z
Si Si1 0.582655 0.366264 0.036820
Si Si2 0.086219 0.602162 0.950519
Si Si3 0.718334 0.906487 0.668653
Si Si4 0.653509 0.351038 0.805798
Si Si5 0.183930 0.600076 0.733525
Si Si6 0.699795 0.335863 0.395626
Si Si7 0.582420 0.848290 0.070412
Si Si8 0.187301 0.245900 0.557969
O O1 0.500000 0.396466 0.042188
O O2 0.634909 0.402922 0.130708
O O3 0.582407 0.259027 0.053440
O O4 0.617799 0.387913 0.917631
O O5 0.097725 0.500000 0.992486
O O6 0.126893 0.606386 0.832988
O O7 0.000000 0.614694 0.939702
O O8 0.121913 0.682038 0.020550
O O9 0.724820 0.900048 0.799296
O O10 0.756169 0.821802 0.614740
O O11 0.749711 0.000000 0.627212
O O12 0.735056 0.385266 0.783314
O O13 0.660066 0.245396 0.830849
O O14 0.607306 0.367595 0.695409
O O15 0.180843 0.500000 0.686317
O O16 0.169306 0.676249 0.643944
O O17 0.644283 0.378000 0.483989
O O18 0.767897 0.291738 0.458748
O O19 0.500000 0.880113 0.050105
#
# Coordination Sequence:
#
# PCOD9357023 Si02
#       8
#     8   8   8   8   8   8   8   8
#     4  10  20  32  50  78 111 150 199 256 312 369
#     4  10  22  40  64  96 128 159 196 242 300 361
#     4  12  23  36  57  85 117 157 201 253 307 365
#     4  11  17  36  57  83 111 151 205 253 307 358
#     4  11  22  37  64  91 121 157 199 253 301 357
#     4  11  19  36  56  83 114 156 201 254 300 369
#     4  10  19  32  56  81 111 157 208 257 311 367
#     4  12  20  41  62  89 121 157 204 244 298 359
#
# _framework density 19.135750000000002
#
# number of rings (size 3 to 8) (size 9 to 14) (size 15 to 20)
#    0.000    1.125    7.500    0.750    0.000    3.750 
#    0.000    0.000    0.000    1.875    0.000    0.000 
#    0.000    0.000    0.000    0.000    0.000    0.000 
#
# Total GULP energy -178676.131471 kJ/mol
# GULP energy per Si atom -5583.629108 kJ/mol
# Density = 1.909220 g / cm^3
# Si number density = 19.135750 Si / 1000 Ang^3
#
#
#
# Elastic Constant Matrix: (Units=GPa)
#
#
# Indices 1 2 3 4 5 6 
#
# 1 133.8556 43.2581 55.6822 0.0000 0.0000 0.0000
# 2 43.2581 108.2751 39.9699 0.0000 0.0000 0.0000
# 3 55.6822 39.9699 91.6932 0.0000 0.0000 0.0000
# 4 0.0000 0.0000 0.0000 -7.0204 0.0000 0.0000
# 5 0.0000 0.0000 0.0000 0.0000 18.7082 0.0000
# 6 0.0000 0.0000 0.0000 0.0000 0.0000 -44.3224
#
#
#
# Elastic Compliance Matrix: (Units=1/GPa)
#
#
# Indices 1 2 3 4 5 6 
#
# 1 0.010409 -0.002175 -0.005373 0.000000 0.000000 0.000000
# 2 -0.002175 0.011461 -0.003675 0.000000 0.000000 0.000000
# 3 -0.005373 -0.003675 0.015771 0.000000 0.000000 0.000000
# 4 0.000000 0.000000 0.000000 -0.142442 0.000000 0.000000
# 5 0.000000 0.000000 0.000000 0.000000 0.053452 0.000000
# 6 0.000000 0.000000 0.000000 0.000000 0.000000 -0.022562
#
#
# Mechanical properties :
#
#
# Convention : Reuss Voigt Hill
#
# Bulk Modulus (GPa) = 65.81271 67.96049 66.88660
# Shear Modulus (GPa) = -107.75936 6.46734 -50.64601
#
# Velocity S-wave (km/s) = -7.51235 1.84039 -5.15016
# Velocity P-wave (km/s) = 6.38592 6.33310 0.57958
#
# Compressibility (1/GPa) = 0.01519463
#
# Stress axis : x y z
#
# Youngs Moduli (GPa) = 96.07414 87.24883 63.40894
#
# Poissons Ratio (x) = 0.18978 0.34067
# Poissons Ratio (y) = 0.20897 0.23304
# Poissons Ratio (z) = 0.51617 0.32066
#
# Static dielectric constant tensor:
#      x y z
#    x 1.647990 0.000000 0.000000 
#    y 0.000000 1.717640 0.000000 
#    z 0.000000 0.000000 1.661820 
# 
# From -- ./inp_files/10613.got.cif
#   From: 2010.05.17/outbox.cif.g08.bks.cpg/sg38_6_cif.got.tgz:10613.got - 2010.06.03 18:07:57.
