data_PCOD9357517
_publ_section_title
;
Structure prediction by ZEFSAII (Michael W. Deem and Ramdas Pophale) SiO2 
 PCOD9357517
Probable space group: A M M 2
;
_chemical_formula_sum "Si O2"
_cell_formula_units_Z 64
_cell_length_a 11.883077
_cell_length_b 13.665183
_cell_length_c 20.001457
_cell_angle_alpha 90.000000
_cell_angle_beta 90.000000
_cell_angle_gamma 90.000000
_cell_volume 3247.925030
_symmetry_space_group_name_H-M "A M M 2"
_symmetry_group_IT_number 38
_symmetry_cell_setting 'orthorhombic'
loop_
_space_group_symop_operation_xyz
x,y,z
-x,-y,z
-x,y,z
x,-y,z
x,1/2+y,1/2+z
-x,1/2-y,1/2+z
-x,1/2+y,1/2+z
x,1/2-y,1/2+z
loop_
_atom_site_type_symbol
_atom_site_label
_atom_site_fract_x
_atom_site_fract_y
_atom_site_fract_z
Si Si1 0.626932 0.117428 0.793110
Si Si2 0.155181 0.112301 0.582420
Si Si3 0.867115 0.116803 0.157794
Si Si4 0.876394 0.617993 0.234987
Si Si5 0.374952 0.110130 0.514240
Si Si6 0.874542 0.692327 0.517292
Si Si7 0.720868 0.256038 0.405976
Si Si8 0.864176 0.883778 0.309159
O O1 0.500000 0.139178 0.764327
O O2 0.749103 0.142672 0.758916
O O3 0.639840 0.178626 0.861154
O O4 0.629478 0.000000 0.802502
O O5 0.120261 0.141842 0.656256
O O6 0.289188 0.116220 0.575259
O O7 0.116229 0.190229 0.527908
O O8 0.121860 0.000000 0.569862
O O9 0.820983 0.157942 0.087831
O O10 0.830600 0.145306 0.232666
O O11 0.000000 0.140163 0.155716
O O12 0.855486 0.000000 0.155266
O O13 0.880001 0.500000 0.240722
O O14 0.000000 0.652945 0.263522
O O15 0.500000 0.123645 0.538530
O O16 0.345240 0.187333 0.457596
O O17 0.362952 0.000000 0.485994
O O18 0.800698 0.676206 0.452148
O O19 0.000000 0.650631 0.510304
O O20 0.798959 0.185296 0.360532
O O21 0.000000 0.875072 0.315328
O O22 0.838534 0.000000 0.318337
#
# Coordination Sequence:
#
# PCOD9357517 Si02
#       8
#     8   8   8   8   8   8   8   8
#     4  10  23  41  57  76 108 153 199 237 284 348
#     4   9  18  31  49  76 109 144 177 213 271 343
#     4   8  16  32  51  70  98 141 188 228 273 334
#     4   9  18  33  54  80 108 139 180 230 281 330
#     4   9  18  33  52  74 102 138 181 229 280 337
#     4  10  20  31  47  76 111 144 178 221 280 341
#     4  11  21  33  52  79 108 140 191 240 290 336
#     4   9  18  33  54  81 114 152 191 236 296 359
#
# _framework density 19.704889000000001
#
# number of rings (size 3 to 8) (size 9 to 14) (size 15 to 20)
#    0.000    2.625    0.000    2.250    1.750    3.250 
#    0.000    2.500    0.000    0.000    0.000    0.000 
#    0.000    0.000    0.000    0.000    0.000    0.000 
#
# Total GULP energy -178142.182793 kJ/mol
# GULP energy per Si atom -5566.943212 kJ/mol
# Density = 1.966004 g / cm^3
# Si number density = 19.704889 Si / 1000 Ang^3
#
#
#
# Elastic Constant Matrix: (Units=GPa)
#
#
# Indices 1 2 3 4 5 6 
#
# 1 142.3498 17.3512 37.0057 0.0000 0.0000 0.0000
# 2 17.3512 48.0052 12.1416 0.0000 0.0000 0.0000
# 3 37.0057 12.1416 59.6016 0.0000 0.0000 0.0000
# 4 0.0000 0.0000 0.0000 29.7995 0.0000 0.0000
# 5 0.0000 0.0000 0.0000 0.0000 17.6149 0.0000
# 6 0.0000 0.0000 0.0000 0.0000 0.0000 16.3946
#
#
#
# Elastic Compliance Matrix: (Units=1/GPa)
#
#
# Indices 1 2 3 4 5 6 
#
# 1 0.008528 -0.001838 -0.004921 0.000000 0.000000 0.000000
# 2 -0.001838 0.022359 -0.003414 0.000000 0.000000 0.000000
# 3 -0.004921 -0.003414 0.020529 0.000000 0.000000 0.000000
# 4 0.000000 0.000000 0.000000 0.033558 0.000000 0.000000
# 5 0.000000 0.000000 0.000000 0.000000 0.056770 0.000000
# 6 0.000000 0.000000 0.000000 0.000000 0.000000 0.060996
#
#
# Mechanical properties :
#
#
# Convention : Reuss Voigt Hill
#
# Bulk Modulus (GPa) = 32.18409 42.55039 37.36724
# Shear Modulus (GPa) = 21.41877 24.99235 23.20556
#
# Velocity S-wave (km/s) = 3.30051 3.56523 3.43542
# Velocity P-wave (km/s) = 5.55815 6.21197 5.89413
#
# Compressibility (1/GPa) = 0.03107126
#
# Stress axis : x y z
#
# Youngs Moduli (GPa) = 117.25887 44.72515 48.71259
#
# Poissons Ratio (x) = 0.08220 0.23969
# Poissons Ratio (y) = 0.21551 0.16629
# Poissons Ratio (z) = 0.57698 0.15267
#
# Static dielectric constant tensor:
#      x y z
#    x 1.746700 0.000000 0.000000 
#    y 0.000000 1.733740 0.000000 
#    z 0.000000 0.000000 1.697590 
# 
# From -- ./inp_files/17858.got.cif
#   From: 2010.05.17/outbox.cif.g08.bks.cpg/sg38_9_cif.got.tgz:17858.got - 2010.06.03 18:07:57.
