data_PCOD9357666
_publ_section_title
;
Structure prediction by ZEFSAII (Michael W. Deem and Ramdas Pophale) SiO2 
 PCOD9357666
Probable space group: A M M 2
;
_chemical_formula_sum "Si O2"
_cell_formula_units_Z 64
_cell_length_a 19.772136
_cell_length_b 7.685574
_cell_length_c 21.398196
_cell_angle_alpha 90.000000
_cell_angle_beta 90.000000
_cell_angle_gamma 90.000000
_cell_volume 3251.674451
_symmetry_space_group_name_H-M "A M M 2"
_symmetry_group_IT_number 38
_symmetry_cell_setting 'orthorhombic'
loop_
_space_group_symop_operation_xyz
x,y,z
-x,-y,z
-x,y,z
x,-y,z
x,1/2+y,1/2+z
-x,1/2-y,1/2+z
-x,1/2+y,1/2+z
x,1/2-y,1/2+z
loop_
_atom_site_type_symbol
_atom_site_label
_atom_site_fract_x
_atom_site_fract_y
_atom_site_fract_z
Si Si1 0.924440 0.789889 0.622630
Si Si2 0.781900 0.795064 0.078663
Si Si3 0.576882 0.710399 0.146336
Si Si4 0.789102 0.796414 0.829071
Si Si5 0.714443 0.796639 0.204925
Si Si6 0.924158 0.712697 0.267448
Si Si7 0.284111 0.708304 0.451923
Si Si8 0.575784 0.709365 0.003194
O O1 0.862386 0.725121 0.581740
O O2 0.913690 0.735247 0.694978
O O3 0.000000 0.733694 0.603888
O O4 0.923273 0.000000 0.621709
O O5 0.751123 0.720813 0.143031
O O6 0.765126 0.000000 0.079625
O O7 0.749585 0.721004 0.015656
O O8 0.500000 0.763184 0.161648
O O9 0.578974 0.500000 0.146947
O O10 0.634981 0.776600 0.191742
O O11 0.590954 0.768224 0.074610
O O12 0.741470 0.785562 0.768309
O O13 0.862203 0.722621 0.809256
O O14 0.751796 0.721475 0.889758
O O15 0.801146 0.000000 0.842001
O O16 0.731528 0.000000 0.209682
O O17 0.923123 0.500000 0.267520
O O18 0.000000 0.765836 0.286328
O O19 0.274876 0.500000 0.451841
O O20 0.364060 0.739191 0.457645
O O21 0.500000 0.770111 0.986892
O O22 0.573970 0.500000 0.005209
#
# Coordination Sequence:
#
# PCOD9357666 Si02
#       8
#     8   8   8   8   8   8   8   8
#     4   9  17  30  51  78 102 130 175 222 260 303
#     4  10  20  33  49  75 109 138 166 206 262 318
#     4   9  18  33  54  80 106 133 173 220 262 308
#     4  10  20  35  55  76 104 140 179 220 258 306
#     4  11  21  33  52  78 108 137 169 212 261 315
#     4   8  14  27  49  75  98 124 168 220 259 296
#     4  10  21  36  52  77 109 141 176 213 259 315
#     4   9  18  33  54  79 104 134 174 217 261 311
#
# _framework density 19.682168000000001
#
# number of rings (size 3 to 8) (size 9 to 14) (size 15 to 20)
#    0.000    2.500    2.500    1.875    0.000    2.250 
#    0.000    2.500    0.000    3.375    0.000    0.000 
#    0.000    0.000    0.000    0.000    0.000    0.000 
#
# Total GULP energy -178514.544710 kJ/mol
# GULP energy per Si atom -5578.579522 kJ/mol
# Density = 1.963737 g / cm^3
# Si number density = 19.682168 Si / 1000 Ang^3
#
#
#
# Elastic Constant Matrix: (Units=GPa)
#
#
# Indices 1 2 3 4 5 6 
#
# 1 148.5444 -9.8074 68.4070 0.0000 0.0000 0.0000
# 2 -9.8074 32.2536 0.7813 0.0000 0.0000 0.0000
# 3 68.4070 0.7813 99.4935 0.0000 0.0000 0.0000
# 4 0.0000 0.0000 0.0000 8.7944 0.0000 0.0000
# 5 0.0000 0.0000 0.0000 0.0000 29.2862 0.0000
# 6 0.0000 0.0000 0.0000 0.0000 0.0000 20.5846
#
#
#
# Elastic Compliance Matrix: (Units=1/GPa)
#
#
# Indices 1 2 3 4 5 6 
#
# 1 0.010184 0.003267 -0.007028 0.000000 0.000000 0.000000
# 2 0.003267 0.032058 -0.002498 0.000000 0.000000 0.000000
# 3 -0.007028 -0.002498 0.014902 0.000000 0.000000 0.000000
# 4 0.000000 0.000000 0.000000 0.113708 0.000000 0.000000
# 5 0.000000 0.000000 0.000000 0.000000 0.034146 0.000000
# 6 0.000000 0.000000 0.000000 0.000000 0.000000 0.048580
#
#
# Mechanical properties :
#
#
# Convention : Reuss Voigt Hill
#
# Bulk Modulus (GPa) = 22.40785 44.33925 33.37355
# Shear Modulus (GPa) = 17.79536 26.46043 22.12789
#
# Velocity S-wave (km/s) = 3.01015 3.67056 3.35664
# Velocity P-wave (km/s) = 4.84674 6.36715 5.65825
#
# Compressibility (1/GPa) = 0.04462721
#
# Stress axis : x y z
#
# Youngs Moduli (GPa) = 98.19259 31.19331 67.10306
#
# Poissons Ratio (x) = -0.10191 0.47158
# Poissons Ratio (y) = -0.32079 0.16762
# Poissons Ratio (z) = 0.69007 0.07792
#
# Static dielectric constant tensor:
#      x y z
#    x 1.706850 0.000000 0.000000 
#    y 0.000000 1.735420 0.000000 
#    z 0.000000 0.000000 1.677650 
# 
# From -- ./inp_files/19000.got.cif
#   From: 2010.05.17/outbox.cif.g08.bks.cpg/sg38_10_cif.got.tgz:19000.got - 2010.06.03 18:07:57.
