data_PCOD9357676
_publ_section_title
;
Structure prediction by ZEFSAII (Michael W. Deem and Ramdas Pophale) SiO2 
 PCOD9357676
Probable space group: A M M 2
;
_chemical_formula_sum "Si O2"
_cell_formula_units_Z 64
_cell_length_a 14.015507
_cell_length_b 19.694542
_cell_length_c 14.446856
_cell_angle_alpha 90.000000
_cell_angle_beta 90.000000
_cell_angle_gamma 90.000000
_cell_volume 3987.751089
_symmetry_space_group_name_H-M "A M M 2"
_symmetry_group_IT_number 38
_symmetry_cell_setting 'orthorhombic'
loop_
_space_group_symop_operation_xyz
x,y,z
-x,-y,z
-x,y,z
x,-y,z
x,1/2+y,1/2+z
-x,1/2-y,1/2+z
-x,1/2+y,1/2+z
x,1/2-y,1/2+z
loop_
_atom_site_type_symbol
_atom_site_label
_atom_site_fract_x
_atom_site_fract_y
_atom_site_fract_z
Si Si1 0.886521 0.775578 0.893500
Si Si2 0.113495 0.283773 0.614444
Si Si3 0.388204 0.919954 0.676593
Si Si4 0.107230 0.919586 0.569293
Si Si5 0.113103 0.574527 0.712033
Si Si6 0.204683 0.658810 0.225170
Si Si7 0.610838 0.078627 0.454215
Si Si8 0.792633 0.132191 0.386350
O O1 0.836238 0.830534 0.827768
O O2 0.837944 0.704741 0.865319
O O3 0.000000 0.774110 0.875207
O O4 0.872868 0.782487 0.003745
O O5 0.134925 0.359679 0.650298
O O6 0.177637 0.227409 0.666792
O O7 0.000000 0.269970 0.633058
O O8 0.500000 0.908477 0.699767
O O9 0.313676 0.867438 0.721520
O O10 0.378941 0.912129 0.565015
O O11 0.366687 0.000000 0.696863
O O12 0.147777 0.898038 0.667704
O O13 0.168544 0.889766 0.486331
O O14 0.000000 0.892874 0.558636
O O15 0.107164 0.000000 0.560724
O O16 0.132126 0.500000 0.670265
O O17 0.169777 0.582525 0.807327
O O18 0.000000 0.577713 0.733015
O O19 0.500000 0.087265 0.431690
O O20 0.679475 0.127749 0.397555
O O21 0.638036 0.000000 0.435246
#
# Coordination Sequence:
#
# PCOD9357676 Si02
#       8
#     8   8   8   8   8   8   8   8
#     4  11  22  34  51  76 106 144 180 212 262 322
#     4  10  20  35  52  72 105 144 181 216 259 315
#     4   9  18  34  55  78 105 139 178 220 270 325
#     4  11  21  30  46  77 111 136 165 213 268 318
#     4  10  20  33  50  72 100 139 186 224 253 301
#     4  12  20  33  54  76 106 139 176 216 261 322
#     4   9  17  30  49  75 106 136 167 211 271 329
#     4  12  19  30  51  77 105 137 173 219 264 320
#
# _framework density 16.049146
#
# number of rings (size 3 to 8) (size 9 to 14) (size 15 to 20)
#    0.000    1.500    3.750    4.500    0.000    1.000 
#    0.000    1.875    0.000    3.750    0.000    0.000 
#    0.000    2.000    0.000    0.000    0.000    0.000 
#
# Total GULP energy -178449.960928 kJ/mol
# GULP energy per Si atom -5576.561279 kJ/mol
# Density = 1.601262 g / cm^3
# Si number density = 16.049146 Si / 1000 Ang^3
#
#
#
# Elastic Constant Matrix: (Units=GPa)
#
#
# Indices 1 2 3 4 5 6 
#
# 1 96.7951 41.7932 30.2709 0.0000 0.0000 0.0000
# 2 41.7932 64.4978 22.0988 0.0000 0.0000 0.0000
# 3 30.2709 22.0988 58.2621 0.0000 0.0000 0.0000
# 4 0.0000 0.0000 0.0000 22.7001 0.0000 0.0000
# 5 0.0000 0.0000 0.0000 0.0000 21.6925 0.0000
# 6 0.0000 0.0000 0.0000 0.0000 0.0000 40.7251
#
#
#
# Elastic Compliance Matrix: (Units=1/GPa)
#
#
# Indices 1 2 3 4 5 6 
#
# 1 0.015457 -0.008349 -0.004864 0.000000 0.000000 0.000000
# 2 -0.008349 0.022330 -0.004132 0.000000 0.000000 0.000000
# 3 -0.004864 -0.004132 0.021258 0.000000 0.000000 0.000000
# 4 0.000000 0.000000 0.000000 0.044053 0.000000 0.000000
# 5 0.000000 0.000000 0.000000 0.000000 0.046099 0.000000
# 6 0.000000 0.000000 0.000000 0.000000 0.000000 0.024555
#
#
# Mechanical properties :
#
#
# Convention : Reuss Voigt Hill
#
# Bulk Modulus (GPa) = 41.05912 45.32010 43.18961
# Shear Modulus (GPa) = 23.08813 25.38300 24.23556
#
# Velocity S-wave (km/s) = 3.79699 3.98122 3.89020
# Velocity P-wave (km/s) = 6.69789 7.03087 6.86640
#
# Compressibility (1/GPa) = 0.02435513
#
# Stress axis : x y z
#
# Youngs Moduli (GPa) = 64.69445 44.78214 47.04050
#
# Poissons Ratio (x) = 0.37390 0.22881
# Poissons Ratio (y) = 0.54016 0.19436
# Poissons Ratio (z) = 0.31468 0.18503
#
# Static dielectric constant tensor:
#      x y z
#    x 1.557500 0.000000 0.000000 
#    y 0.000000 1.561130 0.000000 
#    z 0.000000 0.000000 1.524940 
# 
# From -- ./inp_files/14789.got.cif
#   From: 2010.05.17/outbox.cif.g08.bks.cpg/sg38_8_cif.got.tgz:14789.got - 2010.06.03 18:07:57.
