data_PCOD9357338
_publ_section_title
;
Structure prediction by ZEFSAII (Michael W. Deem and Ramdas Pophale) SiO2 
 PCOD9357338
Probable space group: A M M 2
;
_chemical_formula_sum "Si O2"
_cell_formula_units_Z 64
_cell_length_a 17.945160
_cell_length_b 14.459864
_cell_length_c 12.659475
_cell_angle_alpha 90.000000
_cell_angle_beta 90.000000
_cell_angle_gamma 90.000000
_cell_volume 3284.938466
_symmetry_space_group_name_H-M "A M M 2"
_symmetry_group_IT_number 38
_symmetry_cell_setting 'orthorhombic'
loop_
_space_group_symop_operation_xyz
x,y,z
-x,-y,z
-x,y,z
x,-y,z
x,1/2+y,1/2+z
-x,1/2-y,1/2+z
-x,1/2+y,1/2+z
x,1/2-y,1/2+z
loop_
_atom_site_type_symbol
_atom_site_label
_atom_site_fract_x
_atom_site_fract_y
_atom_site_fract_z
Si Si1 0.840301 0.107696 0.108510
Si Si2 0.301758 0.102649 0.234831
Si Si3 0.414839 0.647730 0.143834
Si Si4 0.192101 0.755542 0.937353
Si Si5 0.584319 0.858395 0.063676
Si Si6 0.914169 0.606775 0.825801
Si Si7 0.299100 0.396201 0.974859
Si Si8 0.682357 0.109926 0.853225
O O1 0.764087 0.145241 0.164943
O O2 0.901544 0.109848 0.199735
O O3 0.829328 0.000000 0.074803
O O4 0.853659 0.175006 0.011288
O O5 0.318031 0.133173 0.353708
O O6 0.270851 0.000000 0.251062
O O7 0.374048 0.098010 0.163267
O O8 0.500000 0.883678 0.660946
O O9 0.366486 0.637203 0.250542
O O10 0.417629 0.752153 0.100533
O O11 0.370411 0.599943 0.049234
O O12 0.140535 0.683567 0.874128
O O13 0.243585 0.685733 0.006872
O O14 0.246156 0.823187 0.868910
O O15 0.500000 0.890107 0.047035
O O16 0.632507 0.875023 0.958710
O O17 0.896551 0.500000 0.857657
O O18 0.000000 0.624743 0.852685
O O19 0.266503 0.500000 0.976938
O O20 0.700891 0.000000 0.846435
#
# Coordination Sequence:
#
# PCOD9357338 Si02
#       8
#     8   8   8   8   8   8   8   8
#     4  10  20  38  64  94 129 166 205 256 314 378
#     4  10  19  35  57  86 120 159 208 265 322 375
#     4  11  25  42  58  84 126 174 223 276 331 385
#     4  12  22  37  67  97 129 156 211 263 311 366
#     4  11  23  38  60  87 120 163 218 277 328 375
#     4  10  23  44  70  99 131 166 202 246 313 391
#     4  11  22  37  61  89 122 165 216 272 332 382
#     4  12  25  42  64  92 129 176 221 264 324 391
#
# _framework density 19.482862000000001
#
# number of rings (size 3 to 8) (size 9 to 14) (size 15 to 20)
#    0.000    1.125    3.750    2.625    1.750    3.500 
#    0.000    1.250    0.000    1.125    0.000    0.000 
#    0.000    0.000    0.000    0.000    0.000    0.000 
#
# Total GULP energy -178424.422368 kJ/mol
# GULP energy per Si atom -5575.763199 kJ/mol
# Density = 1.943852 g / cm^3
# Si number density = 19.482862 Si / 1000 Ang^3
#
#
#
# Elastic Constant Matrix: (Units=GPa)
#
#
# Indices 1 2 3 4 5 6 
#
# 1 103.5078 49.1130 25.6295 0.0000 0.0000 0.0000
# 2 49.1130 147.1616 45.3976 0.0000 0.0000 0.0000
# 3 25.6295 45.3976 86.7334 0.0000 0.0000 0.0000
# 4 0.0000 0.0000 0.0000 197.9281 0.0000 0.0000
# 5 0.0000 0.0000 0.0000 0.0000 21.1409 0.0000
# 6 0.0000 0.0000 0.0000 0.0000 0.0000 18.1498
#
#
#
# Elastic Compliance Matrix: (Units=1/GPa)
#
#
# Indices 1 2 3 4 5 6 
#
# 1 0.011681 -0.003379 -0.001683 0.000000 0.000000 0.000000
# 2 -0.003379 0.009081 -0.003755 0.000000 0.000000 0.000000
# 3 -0.001683 -0.003755 0.013992 0.000000 0.000000 0.000000
# 4 0.000000 0.000000 0.000000 0.005052 0.000000 0.000000
# 5 0.000000 0.000000 0.000000 0.000000 0.047302 0.000000
# 6 0.000000 0.000000 0.000000 0.000000 0.000000 0.055097
#
#
# Mechanical properties :
#
#
# Convention : Reuss Voigt Hill
#
# Bulk Modulus (GPa) = 58.40872 64.18700 61.29786
# Shear Modulus (GPa) = 30.20291 61.92792 46.06541
#
# Velocity S-wave (km/s) = 3.94157 5.64401 4.86779
# Velocity P-wave (km/s) = 7.12455 8.68850 7.94510
#
# Compressibility (1/GPa) = 0.01712073
#
# Stress axis : x y z
#
# Youngs Moduli (GPa) = 85.60731 110.11616 71.46833
#
# Poissons Ratio (x) = 0.37211 0.12028
# Poissons Ratio (y) = 0.28929 0.26835
# Poissons Ratio (z) = 0.14408 0.41346
#
# Static dielectric constant tensor:
#      x y z
#    x 1.688430 0.000000 0.000000 
#    y 0.000000 -5.061690 0.000000 
#    z 0.000000 0.000000 1.689750 
# 
# From -- ./inp_files/10626.got.cif
#   From: 2010.05.17/outbox.cif.g08.bks.cpg/sg38_6_cif.got.tgz:10626.got - 2010.06.03 18:07:57.
