data_PCOD9357141
_publ_section_title
;
Structure prediction by ZEFSAII (Michael W. Deem and Ramdas Pophale) SiO2 
 PCOD9357141
Probable space group: A M M 2
;
_chemical_formula_sum "Si O2"
_cell_formula_units_Z 40
_cell_length_a 8.793208
_cell_length_b 7.995736
_cell_length_c 29.439455
_cell_angle_alpha 90.000000
_cell_angle_beta 90.000000
_cell_angle_gamma 90.000000
_cell_volume 2069.834200
_symmetry_space_group_name_H-M "A M M 2"
_symmetry_group_IT_number 38
_symmetry_cell_setting 'orthorhombic'
loop_
_space_group_symop_operation_xyz
x,y,z
-x,-y,z
-x,y,z
x,-y,z
x,1/2+y,1/2+z
-x,1/2-y,1/2+z
-x,1/2+y,1/2+z
x,1/2-y,1/2+z
loop_
_atom_site_type_symbol
_atom_site_label
_atom_site_fract_x
_atom_site_fract_y
_atom_site_fract_z
Si Si1 0.319022 0.000000 0.090370
Si Si2 0.180899 0.312241 0.036632
Si Si3 0.184750 0.500000 0.690973
Si Si4 0.323430 0.800773 0.945573
Si Si5 0.177783 0.799765 0.351161
Si Si6 0.814765 0.814266 0.751921
O O1 0.261621 0.835049 0.064129
O O2 0.500000 0.000000 0.091223
O O3 0.251496 0.000000 0.140854
O O4 0.224963 0.500000 0.051256
O O5 0.000000 0.294887 0.042052
O O6 0.224465 0.289274 0.983865
O O7 0.233113 0.335280 0.718992
O O8 0.000000 0.500000 0.688504
O O9 0.500000 0.755494 0.951732
O O10 0.269570 0.755670 0.895178
O O11 0.308205 0.000000 0.952076
O O12 0.232390 0.720477 0.303871
O O13 0.000000 0.753236 0.357615
O O14 0.184907 0.000000 0.346285
O O15 0.000000 0.810063 0.752420
O O16 0.767123 0.000000 0.737548
#
# Coordination Sequence:
#
# PCOD9357141 Si02
#       6
#     4   8   4   8   8   8
#     4  12  26  44  66  94 128 168 206 254 323 388
#     4  11  24  43  68  95 122 159 210 264 313 367
#     4  10  20  38  62  88 118 156 208 264 309 366
#     4  11  23  37  55  85 125 167 205 249 310 373
#     4  10  19  33  55  85 119 158 205 255 304 359
#     4   9  17  32  57  87 118 153 198 256 312 355
#
# _framework density 19.325219000000001
#
# number of rings (size 3 to 8) (size 9 to 14) (size 15 to 20)
#    0.000    1.600    2.000    3.300    0.000    7.200 
#    0.000    3.000    0.000    1.200    0.000    0.000 
#    0.000    0.000    0.000    0.000    0.000    0.000 
#
# Total GULP energy -111778.530437 kJ/mol
# GULP energy per Si atom -5588.926522 kJ/mol
# Density = 1.928123 g / cm^3
# Si number density = 19.325219 Si / 1000 Ang^3
#
#
#
# Elastic Constant Matrix: (Units=GPa)
#
#
# Indices 1 2 3 4 5 6 
#
# 1 45.0943 44.3626 24.1876 0.0000 0.0000 0.0000
# 2 44.3626 146.1379 71.8920 0.0000 0.0000 0.0000
# 3 24.1876 71.8920 128.8259 0.0000 0.0000 0.0000
# 4 0.0000 0.0000 0.0000 23.5182 0.0000 0.0000
# 5 0.0000 0.0000 0.0000 0.0000 -54.8016 0.0000
# 6 0.0000 0.0000 0.0000 0.0000 0.0000 -0.2055
#
#
#
# Elastic Compliance Matrix: (Units=1/GPa)
#
#
# Indices 1 2 3 4 5 6 
#
# 1 0.031678 -0.009222 -0.000801 0.000000 0.000000 0.000000
# 2 -0.009222 0.012117 -0.005031 0.000000 0.000000 0.000000
# 3 -0.000801 -0.005031 0.010720 0.000000 0.000000 0.000000
# 4 0.000000 0.000000 0.000000 0.042520 0.000000 0.000000
# 5 0.000000 0.000000 0.000000 0.000000 -0.018248 0.000000
# 6 0.000000 0.000000 0.000000 0.000000 0.000000 -4.866758
#
#
# Mechanical properties :
#
#
# Convention : Reuss Voigt Hill
#
# Bulk Modulus (GPa) = 40.97103 66.77139 53.87121
# Shear Modulus (GPa) = -1.05269 5.67661 2.31196
#
# Velocity S-wave (km/s) = -0.73886 1.71575 1.09496
# Velocity P-wave (km/s) = 4.52979 6.20898 5.43463
#
# Compressibility (1/GPa) = 0.02440749
#
# Stress axis : x y z
#
# Youngs Moduli (GPa) = 31.56752 82.52743 93.28228
#
# Poissons Ratio (x) = 0.76109 0.07473
# Poissons Ratio (y) = 0.29113 0.46926
# Poissons Ratio (z) = 0.02529 0.41516
#
# Static dielectric constant tensor:
#      x y z
#    x 1.647480 0.000000 0.000000 
#    y 0.000000 1.685930 0.000000 
#    z 0.000000 0.000000 1.638800 
# 
# From -- ./inp_files/23204.got.cif
#   From: 2010.05.17/outbox.cif.g08.bks.cpg/sg38_12_cif.got.tgz:23204.got - 2010.06.03 18:07:57.
