data_PCOD9357998
_publ_section_title
;
Structure prediction by ZEFSAII (Michael W. Deem and Ramdas Pophale) SiO2 
 PCOD9357998
Probable space group: A M M 2
;
_chemical_formula_sum "Si O2"
_cell_formula_units_Z 56
_cell_length_a 20.899710
_cell_length_b 9.385407
_cell_length_c 14.421516
_cell_angle_alpha 90.000000
_cell_angle_beta 90.000000
_cell_angle_gamma 90.000000
_cell_volume 2828.813310
_symmetry_space_group_name_H-M "A M M 2"
_symmetry_group_IT_number 38
_symmetry_cell_setting 'orthorhombic'
loop_
_space_group_symop_operation_xyz
x,y,z
-x,-y,z
-x,y,z
x,-y,z
x,1/2+y,1/2+z
-x,1/2-y,1/2+z
-x,1/2+y,1/2+z
x,1/2-y,1/2+z
loop_
_atom_site_type_symbol
_atom_site_label
_atom_site_fract_x
_atom_site_fract_y
_atom_site_fract_z
Si Si1 0.208607 0.838077 0.210210
Si Si2 0.928936 0.830474 0.915334
Si Si3 0.333690 0.166902 0.725473
Si Si4 0.194547 0.836852 0.436208
Si Si5 0.320149 0.833273 0.945571
Si Si6 0.069724 0.669724 0.719607
Si Si7 0.573935 0.670552 0.595210
O O1 0.267061 0.734490 0.189999
O O2 0.200223 0.836388 0.322870
O O3 0.137983 0.800851 0.172172
O O4 0.225003 0.000000 0.182738
O O5 0.869589 0.748845 0.959778
O O6 0.931342 0.768007 0.810743
O O7 0.000000 0.804118 0.954776
O O8 0.917858 0.000000 0.914910
O O9 0.334217 0.185140 0.836572
O O10 0.392368 0.249006 0.679542
O O11 0.336197 0.000000 0.704155
O O12 0.258335 0.759399 0.470272
O O13 0.190925 0.000000 0.466412
O O14 0.304903 0.000000 0.960312
O O15 0.381878 0.796668 0.006350
O O16 0.073175 0.500000 0.745077
O O17 0.000000 0.688577 0.673116
O O18 0.500000 0.710626 0.582833
O O19 0.576726 0.500000 0.609873
#
# Coordination Sequence:
#
# PCOD9357998 Si02
#       7
#     8   8   8   8   8   8   8
#     4   8  14  25  42  65  96 135 175 213 257 312
#     4   9  15  21  32  55  90 131 173 217 263 310
#     4  10  20  34  55  82 110 140 176 220 264 307
#     4   9  16  26  43  67  96 132 174 219 264 310
#     4   9  19  36  57  80 108 142 177 215 262 315
#     4   8  13  21  34  56  89 128 170 217 265 309
#     4  10  22  40  60  82 109 141 175 210 256 319
#
# _framework density 19.796287
#
# number of rings (size 3 to 8) (size 9 to 14) (size 15 to 20)
#    0.000    3.000    0.000    2.143    0.000    6.286 
#    0.000    1.429    0.000    0.000    0.000    1.000 
#    0.000    3.429    0.000    0.000    0.000    0.000 
#
# Total GULP energy -156165.662044 kJ/mol
# GULP energy per Si atom -5577.345073 kJ/mol
# Density = 1.975123 g / cm^3
# Si number density = 19.796287 Si / 1000 Ang^3
#
#
#
# Elastic Constant Matrix: (Units=GPa)
#
#
# Indices 1 2 3 4 5 6 
#
# 1 212.8124 104.3029 36.6418 0.0000 0.0000 0.0000
# 2 104.3029 87.8768 37.6758 0.0000 0.0000 0.0000
# 3 36.6418 37.6758 57.9306 0.0000 0.0000 0.0000
# 4 0.0000 0.0000 0.0000 8.1793 0.0000 0.0000
# 5 0.0000 0.0000 0.0000 0.0000 76.8396 0.0000
# 6 0.0000 0.0000 0.0000 0.0000 0.0000 34.6638
#
#
#
# Elastic Compliance Matrix: (Units=1/GPa)
#
#
# Indices 1 2 3 4 5 6 
#
# 1 0.011435 -0.014520 0.002211 0.000000 0.000000 0.000000
# 2 -0.014520 0.034217 -0.013069 0.000000 0.000000 0.000000
# 3 0.002211 -0.013069 0.024364 0.000000 0.000000 0.000000
# 4 0.000000 0.000000 0.000000 0.122260 0.000000 0.000000
# 5 0.000000 0.000000 0.000000 0.000000 0.013014 0.000000
# 6 0.000000 0.000000 0.000000 0.000000 0.000000 0.028849
#
#
# Mechanical properties :
#
#
# Convention : Reuss Voigt Hill
#
# Bulk Modulus (GPa) = 51.92670 79.54007 65.73338
# Shear Modulus (GPa) = 17.16357 35.93650 26.55004
#
# Velocity S-wave (km/s) = 2.94770 4.26527 3.66616
# Velocity P-wave (km/s) = 6.15408 8.03264 7.15528
#
# Compressibility (1/GPa) = 0.01925792
#
# Stress axis : x y z
#
# Youngs Moduli (GPa) = 87.45171 29.22525 41.04494
#
# Poissons Ratio (x) = 0.42435 -0.09073
# Poissons Ratio (y) = 1.26980 0.53643
# Poissons Ratio (z) = -0.19332 0.38195
#
# Static dielectric constant tensor:
#      x y z
#    x 1.700210 0.000000 0.000000 
#    y 0.000000 1.658880 0.000000 
#    z 0.000000 0.000000 1.757790 
# 
# From -- ./inp_files/18829.got.cif
#   From: 2010.05.17/outbox.cif.g08.bks.cpg/sg38_10_cif.got.tgz:18829.got - 2010.06.03 18:07:57.
