data_PCOD9357696
_publ_section_title
;
Structure prediction by ZEFSAII (Michael W. Deem and Ramdas Pophale) SiO2 
 PCOD9357696
Probable space group: A M M 2
;
_chemical_formula_sum "Si O2"
_cell_formula_units_Z 40
_cell_length_a 8.514742
_cell_length_b 14.030719
_cell_length_c 19.089087
_cell_angle_alpha 90.000000
_cell_angle_beta 90.000000
_cell_angle_gamma 90.000000
_cell_volume 2280.534136
_symmetry_space_group_name_H-M "A M M 2"
_symmetry_group_IT_number 38
_symmetry_cell_setting 'orthorhombic'
loop_
_space_group_symop_operation_xyz
x,y,z
-x,-y,z
-x,y,z
x,-y,z
x,1/2+y,1/2+z
-x,1/2-y,1/2+z
-x,1/2+y,1/2+z
x,1/2-y,1/2+z
loop_
_atom_site_type_symbol
_atom_site_label
_atom_site_fract_x
_atom_site_fract_y
_atom_site_fract_z
Si Si1 0.189479 0.890310 0.454990
Si Si2 0.689262 0.797214 0.596450
Si Si3 0.310182 0.607117 0.670079
Si Si4 0.310260 0.608018 0.243271
Si Si5 0.811804 0.204254 0.310117
O O1 0.243005 0.837654 0.525091
O O2 0.242918 0.836425 0.384663
O O3 0.000000 0.891607 0.453728
O O4 0.244682 0.000000 0.454992
O O5 0.500000 0.798933 0.591969
O O6 0.739747 0.689490 0.615884
O O7 0.734239 0.861014 0.664053
O O8 0.500000 0.607807 0.670950
O O9 0.256600 0.500000 0.654102
O O10 0.253158 0.640270 0.746473
O O11 0.500000 0.612005 0.246716
O O12 0.259857 0.500000 0.257765
O O13 0.243280 0.688275 0.294527
O O14 0.000000 0.200633 0.308030
#
# Coordination Sequence:
#
# PCOD9357696 Si02
#       5
#     8   8   8   8   8
#     4  10  21  35  49  69 100 133 162 197 243 292
#     4   9  18  32  51  75  99 124 160 203 244 288
#     4   9  18  34  54  74  98 129 165 205 247 292
#     4   9  18  34  54  75 100 129 163 204 246 290
#     4  10  20  33  50  74 103 131 163 204 246 291
#
# _framework density 17.539752
#
# number of rings (size 3 to 8) (size 9 to 14) (size 15 to 20)
#    0.000    2.600    0.000    3.000    0.000    7.600 
#    0.000    1.000    0.000    3.600    0.000    0.000 
#    0.000    0.000    0.000    0.000    0.000    0.000 
#
# Total GULP energy -111552.790374 kJ/mol
# GULP energy per Si atom -5577.639519 kJ/mol
# Density = 1.749983 g / cm^3
# Si number density = 17.539752 Si / 1000 Ang^3
#
#
#
# Elastic Constant Matrix: (Units=GPa)
#
#
# Indices 1 2 3 4 5 6 
#
# 1 3.9015 24.4178 18.1859 0.0000 0.0000 0.0000
# 2 24.4178 187.6834 99.2190 0.0000 0.0000 0.0000
# 3 18.1859 99.2190 148.0163 0.0000 0.0000 0.0000
# 4 0.0000 0.0000 0.0000 15.6994 0.0000 0.0000
# 5 0.0000 0.0000 0.0000 0.0000 31.2250 0.0000
# 6 0.0000 0.0000 0.0000 0.0000 0.0000 22.4086
#
#
#
# Elastic Compliance Matrix: (Units=1/GPa)
#
#
# Indices 1 2 3 4 5 6 
#
# 1 2.307744 -0.232868 -0.127441 0.000000 0.000000 0.000000
# 2 -0.232868 0.031751 0.007328 0.000000 0.000000 0.000000
# 3 -0.127441 0.007328 0.017502 0.000000 0.000000 0.000000
# 4 0.000000 0.000000 0.000000 0.063697 0.000000 0.000000
# 5 0.000000 0.000000 0.000000 0.000000 0.032026 0.000000
# 6 0.000000 0.000000 0.000000 0.000000 0.000000 0.044626
#
#
# Mechanical properties :
#
#
# Convention : Reuss Voigt Hill
#
# Bulk Modulus (GPa) = 0.60568 69.24963 34.92765
# Shear Modulus (GPa) = 1.33204 27.05184 14.19194
#
# Velocity S-wave (km/s) = 0.87240 3.93149 2.84761
# Velocity P-wave (km/s) = 1.16656 7.75733 5.54693
#
# Compressibility (1/GPa) = 1.65103273
#
# Stress axis : x y z
#
# Youngs Moduli (GPa) = 0.43332 31.49540 57.13659
#
# Poissons Ratio (x) = 7.33428 7.28157
# Poissons Ratio (y) = 0.10091 -0.41869
# Poissons Ratio (z) = 0.05522 -0.23079
#
# Static dielectric constant tensor:
#      x y z
#    x 1.603300 0.000000 0.000000 
#    y 0.000000 1.609320 0.000000 
#    z 0.000000 0.000000 1.561340 
# 
# From -- ./inp_files/11660.got.cif
#   From: 2010.05.17/outbox.cif.g08.bks.cpg/sg38_6_cif.got.tgz:11660.got - 2010.06.03 18:07:57.
