data_PCOD9357609
_publ_section_title
;
Structure prediction by ZEFSAII (Michael W. Deem and Ramdas Pophale) SiO2 
 PCOD9357609
Probable space group: A M M 2
;
_chemical_formula_sum "Si O2"
_cell_formula_units_Z 56
_cell_length_a 14.609020
_cell_length_b 13.723701
_cell_length_c 12.978707
_cell_angle_alpha 90.000000
_cell_angle_beta 90.000000
_cell_angle_gamma 90.000000
_cell_volume 2602.098661
_symmetry_space_group_name_H-M "A M M 2"
_symmetry_group_IT_number 38
_symmetry_cell_setting 'orthorhombic'
loop_
_space_group_symop_operation_xyz
x,y,z
-x,-y,z
-x,y,z
x,-y,z
x,1/2+y,1/2+z
-x,1/2-y,1/2+z
-x,1/2+y,1/2+z
x,1/2-y,1/2+z
loop_
_atom_site_type_symbol
_atom_site_label
_atom_site_fract_x
_atom_site_fract_y
_atom_site_fract_z
Si Si1 0.891197 0.606397 0.017320
Si Si2 0.390973 0.112194 0.564804
Si Si3 0.361501 0.890517 0.214975
Si Si4 0.897544 0.799675 0.091594
Si Si5 0.398633 0.821359 0.795874
Si Si6 0.844648 0.110044 0.298442
Si Si7 0.297494 0.811452 0.001750
O O1 0.850691 0.500000 0.035631
O O2 0.876833 0.684815 0.105121
O O3 0.000000 0.597138 0.006045
O O4 0.856533 0.653885 0.910977
O O5 0.500000 0.130401 0.543930
O O6 0.378315 0.124990 0.688067
O O7 0.329019 0.197408 0.515435
O O8 0.371358 0.000000 0.533385
O O9 0.402468 0.794171 0.267330
O O10 0.259618 0.891335 0.262511
O O11 0.352775 0.867001 0.093111
O O12 0.398578 0.000000 0.231469
O O13 0.897275 0.844476 0.204147
O O14 0.808779 0.834544 0.028094
O O15 0.000000 0.812321 0.046177
O O16 0.500000 0.851013 0.831125
O O17 0.327641 0.839345 0.887267
O O18 0.877957 0.000000 0.313085
#
# Coordination Sequence:
#
# PCOD9357609 Si02
#       7
#     8   8   8   8   8   8   8
#     4   9  17  29  46  68  93 124 165 210 253 299
#     4   9  19  36  56  78 104 134 169 209 256 313
#     4   9  19  34  51  75 105 133 166 211 259 306
#     4  10  20  32  50  77 106 137 176 219 259 299
#     4  10  20  34  53  77 105 137 172 211 257 310
#     4   9  17  32  54  75  97 131 173 214 258 307
#     4  10  20  34  53  77 106 139 174 214 257 303
#
# _framework density 21.521090999999998
#
# number of rings (size 3 to 8) (size 9 to 14) (size 15 to 20)
#    0.000    2.571    0.000    1.714    0.000    3.429 
#    0.000    0.000    0.000    0.857    0.000    2.000 
#    0.000    0.000    0.000    0.000    0.000    0.000 
#
# Total GULP energy -156118.177894 kJ/mol
# GULP energy per Si atom -5575.649211 kJ/mol
# Density = 2.147211 g / cm^3
# Si number density = 21.521091 Si / 1000 Ang^3
#
#
#
# Elastic Constant Matrix: (Units=GPa)
#
#
# Indices 1 2 3 4 5 6 
#
# 1 100.4924 -6.3729 8.8447 0.0000 0.0000 0.0000
# 2 -6.3729 31.1459 -1.9726 0.0000 0.0000 0.0000
# 3 8.8447 -1.9726 35.8119 0.0000 0.0000 0.0000
# 4 0.0000 0.0000 0.0000 20.7407 0.0000 0.0000
# 5 0.0000 0.0000 0.0000 0.0000 16.8725 0.0000
# 6 0.0000 0.0000 0.0000 0.0000 0.0000 3.4538
#
#
#
# Elastic Compliance Matrix: (Units=1/GPa)
#
#
# Indices 1 2 3 4 5 6 
#
# 1 0.010289 0.001951 -0.002434 0.000000 0.000000 0.000000
# 2 0.001951 0.032589 0.001313 0.000000 0.000000 0.000000
# 3 -0.002434 0.001313 0.028597 0.000000 0.000000 0.000000
# 4 0.000000 0.000000 0.000000 0.048214 0.000000 0.000000
# 5 0.000000 0.000000 0.000000 0.000000 0.059268 0.000000
# 6 0.000000 0.000000 0.000000 0.000000 0.000000 0.289538
#
#
# Mechanical properties :
#
#
# Convention : Reuss Voigt Hill
#
# Bulk Modulus (GPa) = 13.67302 18.71652 16.19477
# Shear Modulus (GPa) = 10.17888 19.34347 14.76117
#
# Velocity S-wave (km/s) = 2.17715 3.00128 2.62180
# Velocity P-wave (km/s) = 3.56189 4.55257 4.08736
#
# Compressibility (1/GPa) = 0.07313675
#
# Stress axis : x y z
#
# Youngs Moduli (GPa) = 97.19186 30.68484 34.96857
#
# Poissons Ratio (x) = -0.05987 0.08510
# Poissons Ratio (y) = -0.18963 -0.04592
# Poissons Ratio (z) = 0.23653 -0.04030
#
# Static dielectric constant tensor:
#      x y z
#    x 1.819370 0.000000 0.000000 
#    y 0.000000 1.834050 0.000000 
#    z 0.000000 0.000000 1.733950 
# 
# From -- ./inp_files/10078.got.cif
#   From: 2010.05.17/outbox.cif.g08.bks.cpg/sg38_6_cif.got.tgz:10078.got - 2010.06.03 18:07:57.
