data_PCOD9357677
_publ_section_title
;
Structure prediction by ZEFSAII (Michael W. Deem and Ramdas Pophale) SiO2 
 PCOD9357677
Probable space group: A M M 2
;
_chemical_formula_sum "Si O2"
_cell_formula_units_Z 64
_cell_length_a 20.049167
_cell_length_b 7.587927
_cell_length_c 21.164777
_cell_angle_alpha 90.000000
_cell_angle_beta 90.000000
_cell_angle_gamma 90.000000
_cell_volume 3219.831719
_symmetry_space_group_name_H-M "A M M 2"
_symmetry_group_IT_number 38
_symmetry_cell_setting 'orthorhombic'
loop_
_space_group_symop_operation_xyz
x,y,z
-x,-y,z
-x,y,z
x,-y,z
x,1/2+y,1/2+z
-x,1/2-y,1/2+z
-x,1/2+y,1/2+z
x,1/2-y,1/2+z
loop_
_atom_site_type_symbol
_atom_site_label
_atom_site_fract_x
_atom_site_fract_y
_atom_site_fract_z
Si Si1 0.926581 0.710675 0.082880
Si Si2 0.925369 0.712825 0.434643
Si Si3 0.574206 0.289381 0.203609
Si Si4 0.711324 0.216432 0.756047
Si Si5 0.286544 0.294706 0.002420
Si Si6 0.787076 0.784341 0.629223
Si Si7 0.789566 0.295683 0.377607
Si Si8 0.575120 0.789391 0.056291
O O1 0.928752 0.500000 0.091547
O O2 0.863240 0.775933 0.121672
O O3 0.000000 0.782196 0.098672
O O4 0.914732 0.742992 0.008431
O O5 0.925692 0.500000 0.430361
O O6 0.862230 0.780748 0.395088
O O7 0.000000 0.775178 0.417037
O O8 0.500000 0.217299 0.216074
O O9 0.571255 0.500000 0.212128
O O10 0.635209 0.223220 0.245798
O O11 0.589402 0.259301 0.129372
O O12 0.752035 0.269699 0.693672
O O13 0.748512 0.279761 0.818823
O O14 0.709459 0.000000 0.757347
O O15 0.269122 0.500000 0.997515
O O16 0.255710 0.209520 0.940332
O O17 0.252881 0.225383 0.066884
O O18 0.365666 0.277300 0.012130
O O19 0.785929 0.000000 0.628719
O O20 0.801923 0.500000 0.361291
O O21 0.500000 0.725000 0.041832
O O22 0.574778 0.000000 0.052126
#
# Coordination Sequence:
#
# PCOD9357677 Si02
#       8
#     8   8   8   8   8   8   8   8
#     4   9  16  27  46  72  98 125 163 210 254 294
#     4   9  17  29  45  68  97 129 167 208 254 307
#     4   9  16  29  51  75  97 128 171 209 248 304
#     4   9  17  31  49  71 100 133 168 208 253 304
#     4  11  20  33  54  76 101 132 168 210 251 300
#     4   9  16  28  48  73  97 125 163 207 250 293
#     4  10  20  33  50  72 102 137 172 212 256 304
#     4  10  20  33  51  78 108 133 163 208 257 301
#
# _framework density 19.876815000000001
#
# number of rings (size 3 to 8) (size 9 to 14) (size 15 to 20)
#    0.000    2.500    2.500    0.750    0.000    0.750 
#    0.000    1.875    0.000    6.000    0.000    0.000 
#    0.000    4.000    0.000    0.000    0.000    0.000 
#
# Total GULP energy -178505.424596 kJ/mol
# GULP energy per Si atom -5578.294519 kJ/mol
# Density = 1.983157 g / cm^3
# Si number density = 19.876815 Si / 1000 Ang^3
#
#
#
# Elastic Constant Matrix: (Units=GPa)
#
#
# Indices 1 2 3 4 5 6 
#
# 1 183.6396 -1.1027 77.9179 0.0000 0.0000 0.0000
# 2 -1.1027 45.1915 -3.8143 0.0000 0.0000 0.0000
# 3 77.9179 -3.8143 101.7540 0.0000 0.0000 0.0000
# 4 0.0000 0.0000 0.0000 9.6444 0.0000 0.0000
# 5 0.0000 0.0000 0.0000 0.0000 28.5844 0.0000
# 6 0.0000 0.0000 0.0000 0.0000 0.0000 6.6062
#
#
#
# Elastic Compliance Matrix: (Units=1/GPa)
#
#
# Indices 1 2 3 4 5 6 
#
# 1 0.008071 -0.000326 -0.006193 0.000000 0.000000 0.000000
# 2 -0.000326 0.022211 0.001082 0.000000 0.000000 0.000000
# 3 -0.006193 0.001082 0.014610 0.000000 0.000000 0.000000
# 4 0.000000 0.000000 0.000000 0.103687 0.000000 0.000000
# 5 0.000000 0.000000 0.000000 0.000000 0.034984 0.000000
# 6 0.000000 0.000000 0.000000 0.000000 0.000000 0.151373
#
#
# Mechanical properties :
#
#
# Convention : Reuss Voigt Hill
#
# Bulk Modulus (GPa) = 29.39441 52.95408 41.17424
# Shear Modulus (GPa) = 13.99976 26.13930 20.06953
#
# Velocity S-wave (km/s) = 2.65679 3.63032 3.18102
# Velocity P-wave (km/s) = 4.92258 6.65366 5.85248
#
# Compressibility (1/GPa) = 0.03402008
#
# Stress axis : x y z
#
# Youngs Moduli (GPa) = 123.90084 45.02183 68.44576
#
# Poissons Ratio (x) = 0.01466 0.42385
# Poissons Ratio (y) = 0.04036 -0.07406
# Poissons Ratio (z) = 0.76726 -0.04872
#
# Static dielectric constant tensor:
#      x y z
#    x 1.736850 0.000000 0.000000 
#    y 0.000000 1.764140 0.000000 
#    z 0.000000 0.000000 1.647400 
# 
# From -- ./inp_files/18960.got.cif
#   From: 2010.05.17/outbox.cif.g08.bks.cpg/sg38_10_cif.got.tgz:18960.got - 2010.06.03 18:07:57.
