data_PCOD9357000
_publ_section_title
;
Structure prediction by ZEFSAII (Michael W. Deem and Ramdas Pophale) SiO2 
 PCOD9357000
Probable space group: A M M 2
;
_chemical_formula_sum "Si O2"
_cell_formula_units_Z 64
_cell_length_a 8.005238
_cell_length_b 29.212361
_cell_length_c 12.880583
_cell_angle_alpha 90.000000
_cell_angle_beta 90.000000
_cell_angle_gamma 90.000000
_cell_volume 3012.148838
_symmetry_space_group_name_H-M "A M M 2"
_symmetry_group_IT_number 38
_symmetry_cell_setting 'orthorhombic'
loop_
_space_group_symop_operation_xyz
x,y,z
-x,-y,z
-x,y,z
x,-y,z
x,1/2+y,1/2+z
-x,1/2-y,1/2+z
-x,1/2+y,1/2+z
x,1/2-y,1/2+z
loop_
_atom_site_type_symbol
_atom_site_label
_atom_site_fract_x
_atom_site_fract_y
_atom_site_fract_z
Si Si1 0.696644 0.690988 0.029730
Si Si2 0.199222 0.587526 0.987536
Si Si3 0.806503 0.623072 0.588447
Si Si4 0.204968 0.052339 0.263058
Si Si5 0.695011 0.950986 0.933831
Si Si6 0.299942 0.210684 0.972632
Si Si7 0.302451 0.166365 0.758531
Si Si8 0.191417 0.432423 0.210346
O O1 0.500000 0.687694 0.003773
O O2 0.708039 0.695769 0.154368
O O3 0.770233 0.642197 0.994877
O O4 0.769142 0.738213 0.986361
O O5 0.259061 0.566634 0.879175
O O6 0.000000 0.580511 0.990862
O O7 0.264152 0.563908 0.093948
O O8 0.736584 0.590819 0.680742
O O9 0.786434 0.591401 0.486190
O O10 0.733974 0.672759 0.560987
O O11 0.000000 0.630359 0.611349
O O12 0.000000 0.052673 0.260528
O O13 0.256839 0.000000 0.239607
O O14 0.500000 0.946666 0.959354
O O15 0.714147 0.951466 0.809834
O O16 0.759469 0.000000 0.973827
O O17 0.500000 0.215302 0.967397
O O18 0.243892 0.190262 0.862718
O O19 0.500000 0.153316 0.771732
O O20 0.198103 0.121596 0.733108
O O21 0.000000 0.448369 0.212334
#
# Coordination Sequence:
#
# PCOD9357000 Si02
#       8
#     8   8   8   8   8   8   8   8
#     4   9  19  34  53  80 111 149 193 233 278 336
#     4   9  19  36  58  83 112 146 187 233 283 334
#     4  11  22  36  57  83 110 144 191 239 282 333
#     4   9  19  37  59  82 113 153 191 233 291 349
#     4  11  23  37  54  78 110 145 178 220 279 339
#     4  10  20  34  54  79 110 150 192 231 282 341
#     4   9  17  32  52  72 105 147 180 221 279 332
#     4  10  19  32  54  82 107 136 179 227 273 326
#
# _framework density 21.24729
#
# number of rings (size 3 to 8) (size 9 to 14) (size 15 to 20)
#    0.000    2.250    1.250    1.500    0.000    4.000 
#    0.000    3.750    0.000    1.875    0.000    0.000 
#    0.000    0.000    0.000    0.000    0.000    0.000 
#
# Total GULP energy -178477.809306 kJ/mol
# GULP energy per Si atom -5577.431541 kJ/mol
# Density = 2.119893 g / cm^3
# Si number density = 21.247290 Si / 1000 Ang^3
#
#
#
# Elastic Constant Matrix: (Units=GPa)
#
#
# Indices 1 2 3 4 5 6 
#
# 1 14.5905 -5.4784 -0.5681 0.0000 0.0000 0.0000
# 2 -5.4784 65.6892 14.2961 0.0000 0.0000 0.0000
# 3 -0.5681 14.2961 96.2425 0.0000 0.0000 0.0000
# 4 0.0000 0.0000 0.0000 0.7490 0.0000 0.0000
# 5 0.0000 0.0000 0.0000 0.0000 13.7291 0.0000
# 6 0.0000 0.0000 0.0000 0.0000 0.0000 -6.3289
#
#
#
# Elastic Compliance Matrix: (Units=1/GPa)
#
#
# Indices 1 2 3 4 5 6 
#
# 1 0.070774 0.006006 -0.000474 0.000000 0.000000 0.000000
# 2 0.006006 0.016241 -0.002377 0.000000 0.000000 0.000000
# 3 -0.000474 -0.002377 0.010741 0.000000 0.000000 0.000000
# 4 0.000000 0.000000 0.000000 1.335083 0.000000 0.000000
# 5 0.000000 0.000000 0.000000 0.000000 0.072838 0.000000
# 6 0.000000 0.000000 0.000000 0.000000 0.000000 -0.158006
#
#
# Mechanical properties :
#
#
# Convention : Reuss Voigt Hill
#
# Bulk Modulus (GPa) = 9.60936 21.44682 15.52809
# Shear Modulus (GPa) = 3.63359 12.84802 8.24080
#
# Velocity S-wave (km/s) = 1.30914 2.46171 1.97153
# Velocity P-wave (km/s) = 2.61105 4.26566 3.53648
#
# Compressibility (1/GPa) = 0.10406520
#
# Stress axis : x y z
#
# Youngs Moduli (GPa) = 14.12939 61.57103 93.10362
#
# Poissons Ratio (x) = -0.36978 0.04416
# Poissons Ratio (y) = -0.08486 0.22132
# Poissons Ratio (z) = 0.00670 0.14636
#
# Static dielectric constant tensor:
#      x y z
#    x 1.757090 0.000000 0.000000 
#    y 0.000000 1.802690 0.000000 
#    z 0.000000 0.000000 1.794200 
# 
# From -- ./inp_files/8608.got.cif
#   From: 2010.05.17/outbox.cif.g08.bks.cpg/sg38_5_cif.got.tgz:8608.got - 2010.06.03 18:07:57.
