data_PCOD9357784
_publ_section_title
;
Structure prediction by ZEFSAII (Michael W. Deem and Ramdas Pophale) SiO2 
 PCOD9357784
Probable space group: A M M 2
;
_chemical_formula_sum "Si O2"
_cell_formula_units_Z 40
_cell_length_a 7.921475
_cell_length_b 9.147179
_cell_length_c 29.959807
_cell_angle_alpha 90.000000
_cell_angle_beta 90.000000
_cell_angle_gamma 90.000000
_cell_volume 2170.862142
_symmetry_space_group_name_H-M "A M M 2"
_symmetry_group_IT_number 38
_symmetry_cell_setting 'orthorhombic'
loop_
_space_group_symop_operation_xyz
x,y,z
-x,-y,z
-x,y,z
x,-y,z
x,1/2+y,1/2+z
-x,1/2-y,1/2+z
-x,1/2+y,1/2+z
x,1/2-y,1/2+z
loop_
_atom_site_type_symbol
_atom_site_label
_atom_site_fract_x
_atom_site_fract_y
_atom_site_fract_z
Si Si1 0.812667 0.822091 0.739980
Si Si2 0.295943 0.329174 0.337916
Si Si3 0.500000 0.323374 0.582068
Si Si4 0.810810 0.675149 0.518854
Si Si5 0.295693 0.170347 0.428449
Si Si6 0.500000 0.322582 0.178404
O O1 0.777410 0.775411 0.790915
O O2 0.664687 0.776813 0.706705
O O3 0.000000 0.776763 0.725909
O O4 0.807509 0.000000 0.741038
O O5 0.500000 0.321336 0.334380
O O6 0.250881 0.500000 0.343568
O O7 0.242069 0.241399 0.381604
O O8 0.500000 0.500000 0.587040
O O9 0.334862 0.280978 0.553409
O O10 0.500000 0.247551 0.629843
O O11 0.798199 0.500000 0.513241
O O12 0.779307 0.748524 0.471115
O O13 0.000000 0.710174 0.534721
O O14 0.500000 0.184380 0.430958
O O15 0.252500 0.000000 0.429562
O O16 0.500000 0.500000 0.175114
#
# Coordination Sequence:
#
# PCOD9357784 Si02
#       6
#     8   8   4   8   8   4
#     4   9  17  31  53  80 107 137 178 223 262 307
#     4   9  16  29  51  76 105 144 186 222 257 307
#     4  10  22  40  59  80 107 137 172 223 277 324
#     4  10  21  38  60  82 105 140 185 225 265 320
#     4  10  20  33  52  81 116 149 180 219 269 321
#     4  10  20  36  57  80 105 135 174 221 271 322
#
# _framework density 18.42586
#
# number of rings (size 3 to 8) (size 9 to 14) (size 15 to 20)
#    0.000    2.400    2.000    0.600    0.000    3.600 
#    0.000    3.000    0.000    1.200    0.000    0.000 
#    0.000    0.000    0.000    0.000    0.000    0.000 
#
# Total GULP energy -111619.950769 kJ/mol
# GULP energy per Si atom -5580.997538 kJ/mol
# Density = 1.838392 g / cm^3
# Si number density = 18.425860 Si / 1000 Ang^3
#
#
#
# Elastic Constant Matrix: (Units=GPa)
#
#
# Indices 1 2 3 4 5 6 
#
# 1 136.3681 40.5094 99.6607 0.0000 0.0000 0.0000
# 2 40.5094 19.5851 39.9066 0.0000 0.0000 0.0000
# 3 99.6607 39.9066 169.9946 0.0000 0.0000 0.0000
# 4 0.0000 0.0000 0.0000 33.8148 0.0000 0.0000
# 5 0.0000 0.0000 0.0000 0.0000 -2.0021 0.0000
# 6 0.0000 0.0000 0.0000 0.0000 0.0000 10.2090
#
#
#
# Elastic Compliance Matrix: (Units=1/GPa)
#
#
# Indices 1 2 3 4 5 6 
#
# 1 0.020294 -0.033994 -0.003918 0.000000 0.000000 0.000000
# 2 -0.033994 0.154817 -0.016415 0.000000 0.000000 0.000000
# 3 -0.003918 -0.016415 0.012033 0.000000 0.000000 0.000000
# 4 0.000000 0.000000 0.000000 0.029573 0.000000 0.000000
# 5 0.000000 0.000000 0.000000 0.000000 -0.499467 0.000000
# 6 0.000000 0.000000 0.000000 0.000000 0.000000 0.097952
#
#
# Mechanical properties :
#
#
# Convention : Reuss Voigt Hill
#
# Bulk Modulus (GPa) = 12.74011 76.23349 44.48680
# Shear Modulus (GPa) = -100.03600 18.12908 -40.95346
#
# Velocity S-wave (km/s) = -7.37624 3.14011 -4.71957
# Velocity P-wave (km/s) = 8.10037 7.38986 2.34585
#
# Compressibility (1/GPa) = 0.07849228
#
# Stress axis : x y z
#
# Youngs Moduli (GPa) = 49.27485 6.45923 83.10748
#
# Poissons Ratio (x) = 0.21957 0.32558
# Poissons Ratio (y) = 1.67504 1.36417
# Poissons Ratio (z) = 0.19304 0.10603
#
# Static dielectric constant tensor:
#      x y z
#    x 1.667940 0.000000 0.000000 
#    y 0.000000 1.613610 0.000000 
#    z 0.000000 0.000000 1.589600 
# 
# From -- ./inp_files/23188.got.cif
#   From: 2010.05.17/outbox.cif.g08.bks.cpg/sg38_12_cif.got.tgz:23188.got - 2010.06.03 18:07:57.
