data_PCOD9357533
_publ_section_title
;
Structure prediction by ZEFSAII (Michael W. Deem and Ramdas Pophale) SiO2 
 PCOD9357533
Probable space group: A M M 2
;
_chemical_formula_sum "Si O2"
_cell_formula_units_Z 48
_cell_length_a 9.413727
_cell_length_b 7.355120
_cell_length_c 32.501056
_cell_angle_alpha 90.000000
_cell_angle_beta 90.000000
_cell_angle_gamma 90.000000
_cell_volume 2250.343598
_symmetry_space_group_name_H-M "A M M 2"
_symmetry_group_IT_number 38
_symmetry_cell_setting 'orthorhombic'
loop_
_space_group_symop_operation_xyz
x,y,z
-x,-y,z
-x,y,z
x,-y,z
x,1/2+y,1/2+z
-x,1/2-y,1/2+z
-x,1/2+y,1/2+z
x,1/2-y,1/2+z
loop_
_atom_site_type_symbol
_atom_site_label
_atom_site_fract_x
_atom_site_fract_y
_atom_site_fract_z
Si Si1 0.327229 0.711592 0.115920
Si Si2 0.660770 0.283159 0.364990
Si Si3 0.836700 0.222198 0.785947
Si Si4 0.160608 0.717514 0.947175
Si Si5 0.335232 0.722264 0.205707
Si Si6 0.335118 0.722607 0.026051
O O1 0.500000 0.716750 0.115924
O O2 0.284131 0.500000 0.115924
O O3 0.285156 0.786239 0.160502
O O4 0.285101 0.785845 0.071318
O O5 0.500000 0.211921 0.367236
O O6 0.650766 0.500000 0.359754
O O7 0.747758 0.215513 0.325526
O O8 0.746474 0.252397 0.406828
O O9 0.760903 0.279060 0.743755
O O10 0.000000 0.279607 0.788231
O O11 0.836161 0.000000 0.786141
O O12 0.152297 0.500000 0.951392
O O13 0.000000 0.786936 0.942811
O O14 0.239475 0.784219 0.988199
O O15 0.500000 0.775166 0.211849
O O16 0.334493 0.500000 0.204581
O O17 0.500000 0.774970 0.020010
O O18 0.333949 0.500000 0.026960
#
# Coordination Sequence:
#
# PCOD9357533 Si02
#       6
#     8   8   8   8   8   8
#     4   7  10  17  31  51  74 103 139 175 209 246
#     4  10  20  33  49  67  86 113 151 190 225 262
#     4   9  16  25  37  55  81 111 140 173 217 264
#     4  10  20  32  46  66  92 120 148 180 222 269
#     4   8  12  19  32  50  74 105 140 174 207 249
#     4   8  13  23  39  57  79 110 146 180 214 253
#
# _framework density 21.330076999999999
#
# number of rings (size 3 to 8) (size 9 to 14) (size 15 to 20)
#    0.000    3.333    0.000    3.500    0.000    4.000 
#    0.000    0.833    0.000    5.000    0.000    0.000 
#    0.000    1.333    0.000    7.667    0.000   11.667 
#
# Total GULP energy -133890.881153 kJ/mol
# GULP energy per Si atom -5578.786715 kJ/mol
# Density = 2.128153 g / cm^3
# Si number density = 21.330077 Si / 1000 Ang^3
#
#
#
# Elastic Constant Matrix: (Units=GPa)
#
#
# Indices 1 2 3 4 5 6 
#
# 1 164.0545 6.7021 139.1774 0.0000 0.0000 0.0000
# 2 6.7021 78.8073 7.1158 0.0000 0.0000 0.0000
# 3 139.1774 7.1158 267.9811 0.0000 0.0000 0.0000
# 4 0.0000 0.0000 0.0000 4.9103 0.0000 0.0000
# 5 0.0000 0.0000 0.0000 0.0000 40.0945 0.0000
# 6 0.0000 0.0000 0.0000 0.0000 0.0000 -2.7239
#
#
#
# Elastic Compliance Matrix: (Units=1/GPa)
#
#
# Indices 1 2 3 4 5 6 
#
# 1 0.010910 -0.000417 -0.005655 0.000000 0.000000 0.000000
# 2 -0.000417 0.012736 -0.000121 0.000000 0.000000 0.000000
# 3 -0.005655 -0.000121 0.006672 0.000000 0.000000 0.000000
# 4 0.000000 0.000000 0.000000 0.203655 0.000000 0.000000
# 5 0.000000 0.000000 0.000000 0.000000 0.024941 0.000000
# 6 0.000000 0.000000 0.000000 0.000000 0.000000 -0.367124
#
#
# Mechanical properties :
#
#
# Convention : Reuss Voigt Hill
#
# Bulk Modulus (GPa) = 55.77268 90.75928 73.26598
# Shear Modulus (GPa) = -55.65126 32.31269 -11.66929
#
# Velocity S-wave (km/s) = -5.11343 3.89638 -2.34151
# Velocity P-wave (km/s) = 2.94256 7.92998 5.20701
#
# Compressibility (1/GPa) = 0.01792993
#
# Stress axis : x y z
#
# Youngs Moduli (GPa) = 91.65697 78.51988 149.88236
#
# Poissons Ratio (x) = 0.03276 0.84762
# Poissons Ratio (y) = 0.03824 0.01821
# Poissons Ratio (z) = 0.51834 0.00954
#
# Static dielectric constant tensor:
#      x y z
#    x 1.702440 0.000000 0.000000 
#    y 0.000000 1.953560 0.000000 
#    z 0.000000 0.000000 1.762680 
# 
# From -- ./inp_files/24505.got.cif
#   From: 2010.05.17/outbox.cif.g08.bks.cpg/sg38_13_cif.got.tgz:24505.got - 2010.06.03 18:07:57.
