data_PCOD9357908
_publ_section_title
;
Structure prediction by ZEFSAII (Michael W. Deem and Ramdas Pophale) SiO2 
 PCOD9357908
Probable space group: A M M 2
;
_chemical_formula_sum "Si O2"
_cell_formula_units_Z 56
_cell_length_a 14.746153
_cell_length_b 10.223025
_cell_length_c 21.076808
_cell_angle_alpha 90.000000
_cell_angle_beta 90.000000
_cell_angle_gamma 90.000000
_cell_volume 3177.334935
_symmetry_space_group_name_H-M "A M M 2"
_symmetry_group_IT_number 38
_symmetry_cell_setting 'orthorhombic'
loop_
_space_group_symop_operation_xyz
x,y,z
-x,-y,z
-x,y,z
x,-y,z
x,1/2+y,1/2+z
-x,1/2-y,1/2+z
-x,1/2+y,1/2+z
x,1/2-y,1/2+z
loop_
_atom_site_type_symbol
_atom_site_label
_atom_site_fract_x
_atom_site_fract_y
_atom_site_fract_z
Si Si1 0.740256 0.155291 0.514530
Si Si2 0.898709 0.262524 0.179723
Si Si3 0.289526 0.658173 0.877350
Si Si4 0.900474 0.342782 0.822239
Si Si5 0.701421 0.146519 0.656239
Si Si6 0.391921 0.153976 0.251442
Si Si7 0.895841 0.646712 0.544041
O O1 0.688665 0.192475 0.449902
O O2 0.689906 0.175522 0.581349
O O3 0.830628 0.242048 0.517585
O O4 0.762325 0.000000 0.511869
O O5 0.891107 0.195936 0.248401
O O6 0.809888 0.349875 0.169513
O O7 0.894462 0.162345 0.120720
O O8 0.000000 0.324108 0.176280
O O9 0.288812 0.500000 0.875404
O O10 0.187710 0.704578 0.859913
O O11 0.355940 0.697581 0.820715
O O12 0.900586 0.500000 0.826307
O O13 0.000000 0.295781 0.844264
O O14 0.655179 0.255747 0.699166
O O15 0.667576 0.000000 0.669714
O O16 0.500000 0.164582 0.248216
O O17 0.367507 0.000000 0.242604
O O18 0.866528 0.500000 0.527082
O O19 0.000000 0.665322 0.524084
#
# Coordination Sequence:
#
# PCOD9357908 Si02
#       7
#     8   8   8   8   8   8   8
#     4   9  19  33  50  74 105 140 174 210 257 314
#     4   9  16  27  46  73 105 140 178 215 253 299
#     4   9  17  32  52  76 105 134 171 216 258 306
#     4   9  15  23  42  73 103 131 168 215 260 296
#     4  10  20  34  53  80 112 142 172 208 258 316
#     4  10  21  38  61  84 102 127 170 223 272 315
#     4   9  17  28  44  69 103 142 182 220 257 300
#
# _framework density 17.624834
#
# number of rings (size 3 to 8) (size 9 to 14) (size 15 to 20)
#    0.000    2.714    1.429    0.429    0.000    5.429 
#    0.000    5.714    0.000    2.571    0.000    0.000 
#    0.000    0.000    0.000    0.000    0.000    0.000 
#
# Total GULP energy -155881.210636 kJ/mol
# GULP energy per Si atom -5567.186094 kJ/mol
# Density = 1.758472 g / cm^3
# Si number density = 17.624834 Si / 1000 Ang^3
#
#
#
# Elastic Constant Matrix: (Units=GPa)
#
#
# Indices 1 2 3 4 5 6 
#
# 1 56.0019 33.8725 48.8300 0.0000 0.0000 0.0000
# 2 33.8725 63.9380 46.2936 0.0000 0.0000 0.0000
# 3 48.8300 46.2936 123.1188 0.0000 0.0000 0.0000
# 4 0.0000 0.0000 0.0000 17.6260 0.0000 0.0000
# 5 0.0000 0.0000 0.0000 0.0000 7.9467 0.0000
# 6 0.0000 0.0000 0.0000 0.0000 0.0000 12.2059
#
#
#
# Elastic Compliance Matrix: (Units=1/GPa)
#
#
# Indices 1 2 3 4 5 6 
#
# 1 0.031782 -0.010595 -0.008621 0.000000 0.000000 0.000000
# 2 -0.010595 0.025023 -0.005207 0.000000 0.000000 0.000000
# 3 -0.008621 -0.005207 0.013499 0.000000 0.000000 0.000000
# 4 0.000000 0.000000 0.000000 0.056734 0.000000 0.000000
# 5 0.000000 0.000000 0.000000 0.000000 0.125838 0.000000
# 6 0.000000 0.000000 0.000000 0.000000 0.000000 0.081927
#
#
# Mechanical properties :
#
#
# Convention : Reuss Voigt Hill
#
# Bulk Modulus (GPa) = 46.60217 55.67232 51.13725
# Shear Modulus (GPa) = 12.79416 15.15990 13.97703
#
# Velocity S-wave (km/s) = 2.69721 2.93600 2.81913
# Velocity P-wave (km/s) = 6.01652 6.56883 6.29873
#
# Compressibility (1/GPa) = 0.02145823
#
# Stress axis : x y z
#
# Youngs Moduli (GPa) = 31.46424 39.96320 74.07819
#
# Poissons Ratio (x) = 0.42342 0.63864
# Poissons Ratio (y) = 0.33337 0.38570
# Poissons Ratio (z) = 0.27126 0.20808
#
# Static dielectric constant tensor:
#      x y z
#    x 1.611000 0.000000 0.000000 
#    y 0.000000 1.584950 0.000000 
#    z 0.000000 0.000000 1.620250 
# 
# From -- ./inp_files/21074.got.cif
#   From: 2010.05.17/outbox.cif.g08.bks.cpg/sg38_11_cif.got.tgz:21074.got - 2010.06.03 18:07:57.
