data_PCOD9357729
_publ_section_title
;
Structure prediction by ZEFSAII (Michael W. Deem and Ramdas Pophale) SiO2 
 PCOD9357729
Probable space group: A M M 2
;
_chemical_formula_sum "Si O2"
_cell_formula_units_Z 64
_cell_length_a 7.848291
_cell_length_b 20.278630
_cell_length_c 21.431125
_cell_angle_alpha 90.000000
_cell_angle_beta 90.000000
_cell_angle_gamma 90.000000
_cell_volume 3410.819036
_symmetry_space_group_name_H-M "A M M 2"
_symmetry_group_IT_number 38
_symmetry_cell_setting 'orthorhombic'
loop_
_space_group_symop_operation_xyz
x,y,z
-x,-y,z
-x,y,z
x,-y,z
x,1/2+y,1/2+z
-x,1/2-y,1/2+z
-x,1/2+y,1/2+z
x,1/2-y,1/2+z
loop_
_atom_site_type_symbol
_atom_site_label
_atom_site_fract_x
_atom_site_fract_y
_atom_site_fract_z
Si Si1 0.704538 0.426646 0.793410
Si Si2 0.706778 0.073360 0.809541
Si Si3 0.202609 0.710555 0.987903
Si Si4 0.798739 0.287617 0.747506
Si Si5 0.208839 0.714351 0.123454
Si Si6 0.797395 0.927799 0.664224
Si Si7 0.203934 0.072639 0.438855
Si Si8 0.698720 0.793581 0.868733
O O1 0.500000 0.424520 0.793974
O O2 0.758788 0.500000 0.772632
O O3 0.769548 0.365534 0.753438
O O4 0.765677 0.418663 0.864861
O O5 0.500000 0.076029 0.807608
O O6 0.769064 0.080516 0.738377
O O7 0.770148 0.134568 0.850404
O O8 0.756508 0.000000 0.831282
O O9 0.273650 0.637533 0.972594
O O10 0.228082 0.757618 0.929011
O O11 0.000000 0.702107 0.994611
O O12 0.264651 0.736620 0.054736
O O13 0.733292 0.256800 0.682803
O O14 0.718696 0.252121 0.807630
O O15 0.000000 0.274397 0.751719
O O16 0.266171 0.638475 0.132014
O O17 0.000000 0.715605 0.126015
O O18 0.000000 0.929887 0.652525
O O19 0.726764 0.000000 0.646380
O O20 0.000000 0.070903 0.448869
O O21 0.271663 0.000000 0.456711
O O22 0.500000 0.801974 0.881567
#
# Coordination Sequence:
#
# PCOD9357729 Si02
#       8
#     8   8   8   8   8   8   8   8
#     4  10  20  33  51  76 105 132 165 215 263 302
#     4   9  18  32  50  73 101 131 165 207 254 301
#     4  10  20  34  51  72 103 140 172 210 254 303
#     4  11  20  33  54  77 103 136 172 212 254 305
#     4   9  19  33  49  74 105 136 172 210 254 299
#     4   9  16  28  48  73 102 134 168 204 241 288
#     4   9  17  29  47  72 101 136 175 206 242 299
#     4  11  21  33  52  77 102 132 172 215 257 303
#
# _framework density 18.763822000000001
#
# number of rings (size 3 to 8) (size 9 to 14) (size 15 to 20)
#    0.000    2.250    2.500    1.125    0.000    1.750 
#    0.000    4.375    0.000    0.750    0.000    7.000 
#    0.000    0.000    0.000    0.000    0.000    0.000 
#
# Total GULP energy -178481.605994 kJ/mol
# GULP energy per Si atom -5577.550187 kJ/mol
# Density = 1.872111 g / cm^3
# Si number density = 18.763822 Si / 1000 Ang^3
#
#
#
# Elastic Constant Matrix: (Units=GPa)
#
#
# Indices 1 2 3 4 5 6 
#
# 1 17.5565 -9.5265 -7.4252 0.0000 0.0000 0.0000
# 2 -9.5265 104.9995 55.8465 0.0000 0.0000 0.0000
# 3 -7.4252 55.8465 110.2167 0.0000 0.0000 0.0000
# 4 0.0000 0.0000 0.0000 21.4765 0.0000 0.0000
# 5 0.0000 0.0000 0.0000 0.0000 136.8377 0.0000
# 6 0.0000 0.0000 0.0000 0.0000 0.0000 15.1645
#
#
#
# Elastic Compliance Matrix: (Units=1/GPa)
#
#
# Indices 1 2 3 4 5 6 
#
# 1 0.060157 0.004521 0.001762 0.000000 0.000000 0.000000
# 2 0.004521 0.013377 -0.006474 0.000000 0.000000 0.000000
# 3 0.001762 -0.006474 0.012472 0.000000 0.000000 0.000000
# 4 0.000000 0.000000 0.000000 0.046563 0.000000 0.000000
# 5 0.000000 0.000000 0.000000 0.000000 0.007308 0.000000
# 6 0.000000 0.000000 0.000000 0.000000 0.000000 0.065944
#
#
# Mechanical properties :
#
#
# Convention : Reuss Voigt Hill
#
# Bulk Modulus (GPa) = 11.67887 34.50692 23.09290
# Shear Modulus (GPa) = 21.29985 47.62093 34.46039
#
# Velocity S-wave (km/s) = 3.37286 5.04323 4.29013
# Velocity P-wave (km/s) = 4.62665 7.23480 6.07241
#
# Compressibility (1/GPa) = 0.08562473
#
# Stress axis : x y z
#
# Youngs Moduli (GPa) = 16.62313 74.75424 80.18025
#
# Poissons Ratio (x) = -0.33795 -0.14128
# Poissons Ratio (y) = -0.07515 0.51906
# Poissons Ratio (z) = -0.02929 0.48393
#
# Static dielectric constant tensor:
#      x y z
#    x 1.686940 0.000000 0.000000 
#    y 0.000000 1.684790 0.000000 
#    z 0.000000 0.000000 1.635410 
# 
# From -- ./inp_files/20235.got.cif
#   From: 2010.05.17/outbox.cif.g08.bks.cpg/sg38_11_cif.got.tgz:20235.got - 2010.06.03 18:07:57.
