data_PCOD9357058
_publ_section_title
;
Structure prediction by ZEFSAII (Michael W. Deem and Ramdas Pophale) SiO2 
 PCOD9357058
Probable space group: A M M 2
;
_chemical_formula_sum "Si O2"
_cell_formula_units_Z 48
_cell_length_a 8.725912
_cell_length_b 16.924017
_cell_length_c 18.911420
_cell_angle_alpha 90.000000
_cell_angle_beta 90.000000
_cell_angle_gamma 90.000000
_cell_volume 2792.790906
_symmetry_space_group_name_H-M "A M M 2"
_symmetry_group_IT_number 38
_symmetry_cell_setting 'orthorhombic'
loop_
_space_group_symop_operation_xyz
x,y,z
-x,-y,z
-x,y,z
x,-y,z
x,1/2+y,1/2+z
-x,1/2-y,1/2+z
-x,1/2+y,1/2+z
x,1/2-y,1/2+z
loop_
_atom_site_type_symbol
_atom_site_label
_atom_site_fract_x
_atom_site_fract_y
_atom_site_fract_z
Si Si1 0.315240 0.589132 0.132690
Si Si2 0.183188 0.833872 0.084058
Si Si3 0.816105 0.821988 0.499621
Si Si4 0.683811 0.500000 0.765377
Si Si5 0.683238 0.000000 0.098551
Si Si6 0.184109 0.656921 0.837628
Si Si7 0.683997 0.757708 0.717416
O O1 0.500000 0.589309 0.131482
O O2 0.262426 0.500000 0.147356
O O3 0.257141 0.619192 0.056676
O O4 0.268254 0.655453 0.189875
O O5 0.219358 0.766808 0.026066
O O6 0.258836 0.802537 0.156652
O O7 0.000000 0.837324 0.093194
O O8 0.248076 0.919838 0.067015
O O9 0.767260 0.836617 0.419351
O O10 0.000000 0.831433 0.503186
O O11 0.500000 0.500000 0.770526
O O12 0.724182 0.500000 0.682255
O O13 0.750088 0.422406 0.802675
O O14 0.500000 0.000000 0.092625
O O15 0.244429 0.729581 0.790706
O O16 0.000000 0.654952 0.834905
O O17 0.500000 0.753906 0.721311
#
# Coordination Sequence:
#
# PCOD9357058 Si02
#       7
#     8   8   8   4   4   8   8
#     4   9  19  35  55  79 104 135 173 216 260 306
#     4  10  19  34  55  77 102 138 177 213 260 308
#     4   9  21  37  53  77 107 138 171 214 259 308
#     4  11  23  35  51  79 112 139 170 211 258 308
#     4  11  21  33  53  81 110 133 170 219 258 304
#     4  11  22  36  54  77 109 141 173 211 259 311
#     4  10  19  33  53  77 105 137 175 217 258 304
#
# _framework density 17.187109
#
# number of rings (size 3 to 8) (size 9 to 14) (size 15 to 20)
#    0.000    2.000    1.667    2.000    1.167    3.667 
#    0.000    0.000    1.833    0.000    0.000    0.000 
#    0.000    0.000    0.000    0.000    0.000    0.000 
#
# Total GULP energy -133961.341602 kJ/mol
# GULP energy per Si atom -5581.722567 kJ/mol
# Density = 1.714799 g / cm^3
# Si number density = 17.187109 Si / 1000 Ang^3
#
#
#
# Elastic Constant Matrix: (Units=GPa)
#
#
# Indices 1 2 3 4 5 6 
#
# 1 31.6367 23.7817 18.4234 0.0000 0.0000 0.0000
# 2 23.7817 134.9123 35.3946 0.0000 0.0000 0.0000
# 3 18.4234 35.3946 75.2482 0.0000 0.0000 0.0000
# 4 0.0000 0.0000 0.0000 17.0155 0.0000 0.0000
# 5 0.0000 0.0000 0.0000 0.0000 15.3583 0.0000
# 6 0.0000 0.0000 0.0000 0.0000 0.0000 24.3459
#
#
#
# Elastic Compliance Matrix: (Units=1/GPa)
#
#
# Indices 1 2 3 4 5 6 
#
# 1 0.039692 -0.005073 -0.007332 0.000000 0.000000 0.000000
# 2 -0.005073 0.009104 -0.003040 0.000000 0.000000 0.000000
# 3 -0.007332 -0.003040 0.016514 0.000000 0.000000 0.000000
# 4 0.000000 0.000000 0.000000 0.058770 0.000000 0.000000
# 5 0.000000 0.000000 0.000000 0.000000 0.065111 0.000000
# 6 0.000000 0.000000 0.000000 0.000000 0.000000 0.041075
#
#
# Mechanical properties :
#
#
# Convention : Reuss Voigt Hill
#
# Bulk Modulus (GPa) = 29.05259 44.11071 36.58165
# Shear Modulus (GPa) = 18.33985 22.29044 20.31514
#
# Velocity S-wave (km/s) = 3.27015 3.60519 3.44175
# Velocity P-wave (km/s) = 5.58560 6.56130 6.09301
#
# Compressibility (1/GPa) = 0.03442033
#
# Stress axis : x y z
#
# Youngs Moduli (GPa) = 25.19396 109.84039 60.55309
#
# Poissons Ratio (x) = 0.55725 0.44396
# Poissons Ratio (y) = 0.12782 0.18409
# Poissons Ratio (z) = 0.18471 0.33394
#
# Static dielectric constant tensor:
#      x y z
#    x 1.577930 0.000000 0.000000 
#    y 0.000000 1.591460 0.000000 
#    z 0.000000 0.000000 1.559350 
# 
# From -- ./inp_files/16690.got.cif
#   From: 2010.05.17/outbox.cif.g08.bks.cpg/sg38_9_cif.got.tgz:16690.got - 2010.06.03 18:07:57.
