data_PCOD9357504
_publ_section_title
;
Structure prediction by ZEFSAII (Michael W. Deem and Ramdas Pophale) SiO2 
 PCOD9357504
Probable space group: A M M 2
;
_chemical_formula_sum "Si O2"
_cell_formula_units_Z 48
_cell_length_a 7.616088
_cell_length_b 9.824937
_cell_length_c 32.340094
_cell_angle_alpha 90.000000
_cell_angle_beta 90.000000
_cell_angle_gamma 90.000000
_cell_volume 2419.931126
_symmetry_space_group_name_H-M "A M M 2"
_symmetry_group_IT_number 38
_symmetry_cell_setting 'orthorhombic'
loop_
_space_group_symop_operation_xyz
x,y,z
-x,-y,z
-x,y,z
x,-y,z
x,1/2+y,1/2+z
-x,1/2-y,1/2+z
-x,1/2+y,1/2+z
x,1/2-y,1/2+z
loop_
_atom_site_type_symbol
_atom_site_label
_atom_site_fract_x
_atom_site_fract_y
_atom_site_fract_z
Si Si1 0.711745 0.344467 0.909330
Si Si2 0.210463 0.153947 0.740258
Si Si3 0.215705 0.342519 0.060556
Si Si4 0.791011 0.346144 0.486001
Si Si5 0.203139 0.334280 0.151307
Si Si6 0.288968 0.346292 0.816593
O O1 0.500000 0.347628 0.908949
O O2 0.771293 0.500000 0.918314
O O3 0.764712 0.237961 0.944012
O O4 0.771875 0.307273 0.862829
O O5 0.279926 0.207166 0.695774
O O6 0.243324 0.246643 0.779605
O O7 0.000000 0.145527 0.735231
O O8 0.276342 0.000000 0.747077
O O9 0.266804 0.500000 0.053109
O O10 0.277959 0.298667 0.106393
O O11 0.000000 0.342293 0.061377
O O12 0.277079 0.243534 0.024329
O O13 0.720470 0.500000 0.484014
O O14 0.000000 0.356171 0.492284
O O15 0.202975 0.500000 0.152273
O O16 0.000000 0.288390 0.150441
O O17 0.500000 0.350721 0.818522
O O18 0.225896 0.500000 0.808341
#
# Coordination Sequence:
#
# PCOD9357504 Si02
#       6
#     8   8   8   8   8   8
#     4   9  19  36  54  68  85 117 161 200 232 272
#     4   9  17  29  47  73 101 124 150 189 233 273
#     4   8  13  24  44  66  89 122 160 191 221 262
#     4  10  20  31  45  71 103 126 147 184 234 281
#     4   7  11  22  41  65  92 121 153 188 223 261
#     4   9  19  35  51  67  90 121 157 195 233 275
#
# _framework density 19.835273999999998
#
# number of rings (size 3 to 8) (size 9 to 14) (size 15 to 20)
#    0.000    3.333    0.000    3.500    0.000    3.333 
#    0.000    5.833    0.000    4.000    0.000    2.333 
#    0.000    0.000    0.000    0.000    0.000    0.000 
#
# Total GULP energy -133700.673102 kJ/mol
# GULP energy per Si atom -5570.861379 kJ/mol
# Density = 1.979013 g / cm^3
# Si number density = 19.835274 Si / 1000 Ang^3
#
#
#
# Elastic Constant Matrix: (Units=GPa)
#
#
# Indices 1 2 3 4 5 6 
#
# 1 38.2465 5.3961 4.1636 0.0000 0.0000 0.0000
# 2 5.3961 118.1493 129.7247 0.0000 0.0000 0.0000
# 3 4.1636 129.7247 229.3109 0.0000 0.0000 0.0000
# 4 0.0000 0.0000 0.0000 32.4795 0.0000 0.0000
# 5 0.0000 0.0000 0.0000 0.0000 49.1689 0.0000
# 6 0.0000 0.0000 0.0000 0.0000 0.0000 18.7939
#
#
#
# Elastic Compliance Matrix: (Units=1/GPa)
#
#
# Indices 1 2 3 4 5 6 
#
# 1 0.026341 -0.001789 0.000534 0.000000 0.000000 0.000000
# 2 -0.001789 0.022462 -0.012675 0.000000 0.000000 0.000000
# 3 0.000534 -0.012675 0.011521 0.000000 0.000000 0.000000
# 4 0.000000 0.000000 0.000000 0.030789 0.000000 0.000000
# 5 0.000000 0.000000 0.000000 0.000000 0.020338 0.000000
# 6 0.000000 0.000000 0.000000 0.000000 0.000000 0.053209
#
#
# Mechanical properties :
#
#
# Convention : Reuss Voigt Hill
#
# Bulk Modulus (GPa) = 30.80332 73.80838 52.30585
# Shear Modulus (GPa) = 24.58932 36.51661 30.55296
#
# Velocity S-wave (km/s) = 3.52472 4.29533 3.92897
# Velocity P-wave (km/s) = 5.66817 7.86710 6.85637
#
# Compressibility (1/GPa) = 0.03246404
#
# Stress axis : x y z
#
# Youngs Moduli (GPa) = 37.96431 44.51982 86.79509
#
# Poissons Ratio (x) = 0.07966 -0.04635
# Poissons Ratio (y) = 0.06793 1.10009
# Poissons Ratio (z) = -0.02027 0.56427
#
# Static dielectric constant tensor:
#      x y z
#    x 1.759220 0.000000 0.000000 
#    y 0.000000 1.672640 0.000000 
#    z 0.000000 0.000000 1.726710 
# 
# From -- ./inp_files/23679.got.cif
#   From: 2010.05.17/outbox.cif.g08.bks.cpg/sg38_12_cif.got.tgz:23679.got - 2010.06.03 18:07:57.
