data_PCOD9357600
_publ_section_title
;
Structure prediction by ZEFSAII (Michael W. Deem and Ramdas Pophale) SiO2 
 PCOD9357600
Probable space group: A M M 2
;
_chemical_formula_sum "Si O2"
_cell_formula_units_Z 48
_cell_length_a 9.395470
_cell_length_b 7.512645
_cell_length_c 35.633614
_cell_angle_alpha 90.000000
_cell_angle_beta 90.000000
_cell_angle_gamma 90.000000
_cell_volume 2515.192612
_symmetry_space_group_name_H-M "A M M 2"
_symmetry_group_IT_number 38
_symmetry_cell_setting 'orthorhombic'
loop_
_space_group_symop_operation_xyz
x,y,z
-x,-y,z
-x,y,z
x,-y,z
x,1/2+y,1/2+z
-x,1/2-y,1/2+z
-x,1/2+y,1/2+z
x,1/2-y,1/2+z
loop_
_atom_site_type_symbol
_atom_site_label
_atom_site_fract_x
_atom_site_fract_y
_atom_site_fract_z
Si Si1 0.672029 0.500000 0.957770
Si Si2 0.830062 0.711975 0.408838
Si Si3 0.327779 0.500000 0.044389
Si Si4 0.340239 0.211651 0.250511
Si Si5 0.163044 0.717402 0.679207
Si Si6 0.160466 0.286126 0.323558
Si Si7 0.669856 0.209871 0.104196
O O1 0.500000 0.500000 0.955564
O O2 0.737842 0.328831 0.936941
O O3 0.718127 0.500000 0.001374
O O4 0.803527 0.500000 0.412568
O O5 0.798625 0.768429 0.365734
O O6 0.000000 0.740078 0.414417
O O7 0.500000 0.500000 0.043275
O O8 0.285532 0.672126 0.068705
O O9 0.500000 0.284804 0.249836
O O10 0.243444 0.280977 0.216537
O O11 0.266367 0.236894 0.290556
O O12 0.350254 0.000000 0.244466
O O13 0.161875 0.500000 0.679974
O O14 0.247612 0.766817 0.641642
O O15 0.000000 0.776683 0.678465
O O16 0.153858 0.500000 0.324754
O O17 0.000000 0.220449 0.315435
O O18 0.500000 0.233378 0.110139
O O19 0.695216 0.000000 0.097821
#
# Coordination Sequence:
#
# PCOD9357600 Si02
#       7
#     4   8   4   8   8   8   8
#     4  11  23  37  59  91 123 151 189 241 295 353
#     4   9  20  40  62  83 112 154 198 238 288 351
#     4   9  20  37  55  83 115 143 181 227 279 347
#     4  10  20  32  49  77 110 142 180 224 270 326
#     4   9  17  31  51  75 104 139 181 224 269 322
#     4   9  19  36  55  75 102 139 185 231 275 327
#     4   9  17  33  57  78 102 141 183 225 275 330
#
# _framework density 19.084025
#
# number of rings (size 3 to 8) (size 9 to 14) (size 15 to 20)
#    0.000    2.667    0.000    2.250    1.167    5.000 
#    1.500    5.417    0.000    2.000    0.000    0.000 
#    0.000    0.000    0.000    0.000    0.000    0.000 
#
# Total GULP energy -133941.794313 kJ/mol
# GULP energy per Si atom -5580.908096 kJ/mol
# Density = 1.904059 g / cm^3
# Si number density = 19.084025 Si / 1000 Ang^3
#
#
#
# Elastic Constant Matrix: (Units=GPa)
#
#
# Indices 1 2 3 4 5 6 
#
# 1 105.3049 44.4194 104.2653 0.0000 0.0000 0.0000
# 2 44.4194 74.0506 55.8493 0.0000 0.0000 0.0000
# 3 104.2653 55.8493 189.9101 0.0000 0.0000 0.0000
# 4 0.0000 0.0000 0.0000 42.8897 0.0000 0.0000
# 5 0.0000 0.0000 0.0000 0.0000 54.7678 0.0000
# 6 0.0000 0.0000 0.0000 0.0000 0.0000 12.5583
#
#
#
# Elastic Compliance Matrix: (Units=1/GPa)
#
#
# Indices 1 2 3 4 5 6 
#
# 1 0.022333 -0.005331 -0.010694 0.000000 0.000000 0.000000
# 2 -0.005331 0.018626 -0.002550 0.000000 0.000000 0.000000
# 3 -0.010694 -0.002550 0.011887 0.000000 0.000000 0.000000
# 4 0.000000 0.000000 0.000000 0.023316 0.000000 0.000000
# 5 0.000000 0.000000 0.000000 0.000000 0.018259 0.000000
# 6 0.000000 0.000000 0.000000 0.000000 0.000000 0.079629
#
#
# Mechanical properties :
#
#
# Convention : Reuss Voigt Hill
#
# Bulk Modulus (GPa) = 63.71518 86.48152 75.09835
# Shear Modulus (GPa) = 23.10201 33.02527 28.06364
#
# Velocity S-wave (km/s) = 3.48306 4.16446 3.83891
# Velocity P-wave (km/s) = 7.04519 8.27878 7.68677
#
# Compressibility (1/GPa) = 0.01569485
#
# Stress axis : x y z
#
# Youngs Moduli (GPa) = 44.77657 53.68863 84.12749
#
# Poissons Ratio (x) = 0.28624 0.89962
# Poissons Ratio (y) = 0.23872 0.21457
# Poissons Ratio (z) = 0.47882 0.13693
#
# Static dielectric constant tensor:
#      x y z
#    x 1.650090 0.000000 0.000000 
#    y 0.000000 1.696940 0.000000 
#    z 0.000000 0.000000 1.634210 
# 
# From -- ./inp_files/24383.got.cif
#   From: 2010.05.17/outbox.cif.g08.bks.cpg/sg38_13_cif.got.tgz:24383.got - 2010.06.03 18:07:57.
