data_PCOD9357670
_publ_section_title
;
Structure prediction by ZEFSAII (Michael W. Deem and Ramdas Pophale) SiO2 
 PCOD9357670
Probable space group: A M M 2
;
_chemical_formula_sum "Si O2"
_cell_formula_units_Z 64
_cell_length_a 13.139821
_cell_length_b 7.405405
_cell_length_c 26.063508
_cell_angle_alpha 90.000000
_cell_angle_beta 90.000000
_cell_angle_gamma 90.000000
_cell_volume 2536.127790
_symmetry_space_group_name_H-M "A M M 2"
_symmetry_group_IT_number 38
_symmetry_cell_setting 'orthorhombic'
loop_
_space_group_symop_operation_xyz
x,y,z
-x,-y,z
-x,y,z
x,-y,z
x,1/2+y,1/2+z
-x,1/2-y,1/2+z
-x,1/2+y,1/2+z
x,1/2-y,1/2+z
loop_
_atom_site_type_symbol
_atom_site_label
_atom_site_fract_x
_atom_site_fract_y
_atom_site_fract_z
Si Si1 0.839731 0.206735 0.307710
Si Si2 0.890847 0.719911 0.030588
Si Si3 0.608219 0.219902 0.449722
Si Si4 0.668207 0.711430 0.673260
Si Si5 0.670624 0.216835 0.562218
Si Si6 0.171054 0.279217 0.917169
Si Si7 0.109207 0.779342 0.195052
Si Si8 0.610483 0.793828 0.785366
O O1 0.869438 0.285904 0.362592
O O2 0.880442 0.282214 0.254368
O O3 0.716075 0.206711 0.303612
O O4 0.874597 0.000000 0.307858
O O5 0.889333 0.500000 0.032432
O O6 0.787750 0.783069 0.057569
O O7 0.000000 0.781685 0.050892
O O8 0.881492 0.770991 0.970447
O O9 0.500000 0.280617 0.428457
O O10 0.617469 0.274230 0.509540
O O11 0.711104 0.277813 0.422391
O O12 0.609521 0.000000 0.448510
O O13 0.670744 0.500000 0.685500
O O14 0.623891 0.732658 0.616675
O O15 0.785122 0.780454 0.670043
O O16 0.616931 0.795224 0.723079
O O17 0.671845 0.000000 0.560628
O O18 0.168521 0.500000 0.915873
O O19 0.000000 0.719178 0.174233
O O20 0.109691 0.000000 0.193853
O O21 0.500000 0.714512 0.799694
O O22 0.613616 0.000000 0.803178
#
# Coordination Sequence:
#
# PCOD9357670 Si02
#       8
#     8   8   8   8   8   8   8   8
#     4   9  17  29  48  74  99 123 155 197 239 275
#     4   8  14  25  42  67  99 130 160 197 236 274
#     4   8  14  25  41  62  89 119 149 182 220 264
#     4  10  20  33  50  71  94 121 155 197 241 281
#     4   9  17  29  45  66  92 121 156 194 231 277
#     4   8  14  24  40  66  95 121 153 190 227 268
#     4   8  15  28  44  64  92 122 150 183 226 275
#     4  10  21  36  52  69  92 124 158 191 234 291
#
# _framework density 25.235320999999999
#
# number of rings (size 3 to 8) (size 9 to 14) (size 15 to 20)
#    0.000    3.250    0.000    3.000    0.000    3.000 
#    0.000    5.000    0.000   12.000    0.000    0.000 
#    0.000    0.000    0.000    0.000    0.000    0.000 
#
# Total GULP energy -178707.178363 kJ/mol
# GULP energy per Si atom -5584.599324 kJ/mol
# Density = 2.517788 g / cm^3
# Si number density = 25.235321 Si / 1000 Ang^3
#
#
#
# Elastic Constant Matrix: (Units=GPa)
#
#
# Indices 1 2 3 4 5 6 
#
# 1 132.0795 -0.5215 -7.1596 0.0000 0.0000 0.0000
# 2 -0.5215 89.8750 -10.9049 0.0000 0.0000 0.0000
# 3 -7.1596 -10.9049 124.4677 0.0000 0.0000 0.0000
# 4 0.0000 0.0000 0.0000 2.2319 0.0000 0.0000
# 5 0.0000 0.0000 0.0000 0.0000 -18.0850 0.0000
# 6 0.0000 0.0000 0.0000 0.0000 0.0000 3.8711
#
#
#
# Elastic Compliance Matrix: (Units=1/GPa)
#
#
# Indices 1 2 3 4 5 6 
#
# 1 0.007596 0.000098 0.000446 0.000000 0.000000 0.000000
# 2 0.000098 0.011247 0.000991 0.000000 0.000000 0.000000
# 3 0.000446 0.000991 0.008147 0.000000 0.000000 0.000000
# 4 0.000000 0.000000 0.000000 0.448055 0.000000 0.000000
# 5 0.000000 0.000000 0.000000 0.000000 -0.055294 0.000000
# 6 0.000000 0.000000 0.000000 0.000000 0.000000 0.258322
#
#
# Mechanical properties :
#
#
# Convention : Reuss Voigt Hill
#
# Bulk Modulus (GPa) = 33.26769 34.36112 33.81440
# Shear Modulus (GPa) = 7.29903 21.93748 14.61825
#
# Velocity S-wave (km/s) = 1.70255 2.95162 2.40943
# Velocity P-wave (km/s) = 4.13237 5.02612 4.60100
#
# Compressibility (1/GPa) = 0.03005920
#
# Stress axis : x y z
#
# Youngs Moduli (GPa) = 131.65283 88.90961 122.74954
#
# Poissons Ratio (x) = -0.00872 -0.05469
# Poissons Ratio (y) = -0.01292 -0.12165
# Poissons Ratio (z) = -0.05865 -0.08811
#
# Static dielectric constant tensor:
#      x y z
#    x 1.984030 0.000000 0.000000 
#    y 0.000000 1.980340 0.000000 
#    z 0.000000 0.000000 1.961340 
# 
# From -- ./inp_files/25081.got.cif
#   From: 2010.05.17/outbox.cif.g08.bks.cpg/sg38_13_cif.got.tgz:25081.got - 2010.06.03 18:07:57.
