data_PCOD9357719
_publ_section_title
;
Structure prediction by ZEFSAII (Michael W. Deem and Ramdas Pophale) SiO2 
 PCOD9357719
Probable space group: A M M 2
;
_chemical_formula_sum "Si O2"
_cell_formula_units_Z 40
_cell_length_a 7.609411
_cell_length_b 9.425659
_cell_length_c 27.133904
_cell_angle_alpha 90.000000
_cell_angle_beta 90.000000
_cell_angle_gamma 90.000000
_cell_volume 1946.144351
_symmetry_space_group_name_H-M "A M M 2"
_symmetry_group_IT_number 38
_symmetry_cell_setting 'orthorhombic'
loop_
_space_group_symop_operation_xyz
x,y,z
-x,-y,z
-x,y,z
x,-y,z
x,1/2+y,1/2+z
-x,1/2-y,1/2+z
-x,1/2+y,1/2+z
x,1/2-y,1/2+z
loop_
_atom_site_type_symbol
_atom_site_label
_atom_site_fract_x
_atom_site_fract_y
_atom_site_fract_z
Si Si1 0.209111 0.661980 0.841170
Si Si2 0.711449 0.661046 0.031494
Si Si3 0.714699 0.834371 0.126123
Si Si4 0.211185 0.160622 0.933857
Si Si5 0.288862 0.835500 0.233814
O O1 0.280631 0.500000 0.842558
O O2 0.279361 0.756931 0.885640
O O3 0.236434 0.725811 0.786585
O O4 0.000000 0.651051 0.848020
O O5 0.500000 0.654560 0.035560
O O6 0.777646 0.500000 0.027732
O O7 0.776820 0.741460 0.080368
O O8 0.751743 0.750478 0.982856
O O9 0.500000 0.833206 0.125539
O O10 0.769922 0.779763 0.180434
O O11 0.766008 0.000000 0.120971
O O12 0.000000 0.152272 0.929157
O O13 0.278973 0.000000 0.937551
O O14 0.500000 0.835506 0.233021
O O15 0.228668 0.000000 0.235009
#
# Coordination Sequence:
#
# PCOD9357719 Si02
#       5
#     8   8   8   8   8
#     4   9  17  30  48  69  94 124 157 196 241 284
#     4  10  20  33  51  75 100 127 161 201 244 290
#     4   8  14  27  47  69  95 127 159 193 235 280
#     4  10  21  36  52  70  95 129 166 203 245 291
#     4   8  14  26  46  70  94 123 159 194 229 276
#
# _framework density 20.553457999999999
#
# number of rings (size 3 to 8) (size 9 to 14) (size 15 to 20)
#    0.000    3.000    0.000    2.400    0.000    3.200 
#    0.000    4.000    0.000    4.800    0.000    0.000 
#    0.000    0.000    0.000    0.000    0.000    0.000 
#
# Total GULP energy -111503.610981 kJ/mol
# GULP energy per Si atom -5575.180549 kJ/mol
# Density = 2.050668 g / cm^3
# Si number density = 20.553458 Si / 1000 Ang^3
#
#
#
# Elastic Constant Matrix: (Units=GPa)
#
#
# Indices 1 2 3 4 5 6 
#
# 1 40.0340 6.2630 1.5390 0.0000 0.0000 0.0000
# 2 6.2630 127.4010 114.9320 0.0000 0.0000 0.0000
# 3 1.5390 114.9320 250.9421 0.0000 0.0000 0.0000
# 4 0.0000 0.0000 0.0000 35.4455 0.0000 0.0000
# 5 0.0000 0.0000 0.0000 0.0000 31.1335 0.0000
# 6 0.0000 0.0000 0.0000 0.0000 0.0000 10.0871
#
#
#
# Elastic Compliance Matrix: (Units=1/GPa)
#
#
# Indices 1 2 3 4 5 6 
#
# 1 0.025245 -0.001877 0.000705 0.000000 0.000000 0.000000
# 2 -0.001877 0.013515 -0.006179 0.000000 0.000000 0.000000
# 3 0.000705 -0.006179 0.006810 0.000000 0.000000 0.000000
# 4 0.000000 0.000000 0.000000 0.028212 0.000000 0.000000
# 5 0.000000 0.000000 0.000000 0.000000 0.032120 0.000000
# 6 0.000000 0.000000 0.000000 0.000000 0.000000 0.099137
#
#
# Mechanical properties :
#
#
# Convention : Reuss Voigt Hill
#
# Bulk Modulus (GPa) = 32.39409 73.76058 53.07733
# Shear Modulus (GPa) = 21.73618 35.04275 28.38947
#
# Velocity S-wave (km/s) = 3.25552 4.13359 3.72055
# Velocity P-wave (km/s) = 5.47049 7.66467 6.65858
#
# Compressibility (1/GPa) = 0.03086983
#
# Stress axis : x y z
#
# Youngs Moduli (GPa) = 39.61138 73.99007 146.83330
#
# Poissons Ratio (x) = 0.13887 -0.10348
# Poissons Ratio (y) = 0.07434 0.90722
# Poissons Ratio (z) = -0.02792 0.45715
#
# Static dielectric constant tensor:
#      x y z
#    x 1.777960 0.000000 0.000000 
#    y 0.000000 1.722020 0.000000 
#    z 0.000000 0.000000 1.743600 
# 
# From -- ./inp_files/17459.got.cif
#   From: 2010.05.17/outbox.cif.g08.bks.cpg/sg38_9_cif.got.tgz:17459.got - 2010.06.03 18:07:57.
