data_PCOD9357608
_publ_section_title
;
Structure prediction by ZEFSAII (Michael W. Deem and Ramdas Pophale) SiO2 
 PCOD9357608
Probable space group: A M M 2
;
_chemical_formula_sum "Si O2"
_cell_formula_units_Z 64
_cell_length_a 8.910385
_cell_length_b 28.344942
_cell_length_c 14.796798
_cell_angle_alpha 90.000000
_cell_angle_beta 90.000000
_cell_angle_gamma 90.000000
_cell_volume 3737.143610
_symmetry_space_group_name_H-M "A M M 2"
_symmetry_group_IT_number 38
_symmetry_cell_setting 'orthorhombic'
loop_
_space_group_symop_operation_xyz
x,y,z
-x,-y,z
-x,y,z
x,-y,z
x,1/2+y,1/2+z
-x,1/2-y,1/2+z
-x,1/2+y,1/2+z
x,1/2-y,1/2+z
loop_
_atom_site_type_symbol
_atom_site_label
_atom_site_fract_x
_atom_site_fract_y
_atom_site_fract_z
Si Si1 0.179271 0.639637 0.300050
Si Si2 0.668764 0.770872 0.435466
Si Si3 0.679543 0.944554 0.692367
Si Si4 0.179504 0.327215 0.673482
Si Si5 0.329198 0.267711 0.230356
Si Si6 0.319147 0.331223 0.490088
Si Si7 0.680482 0.446102 0.982485
Si Si8 0.821738 0.637821 0.872927
O O1 0.231501 0.590559 0.256764
O O2 0.249257 0.681894 0.239058
O O3 0.246752 0.645831 0.401028
O O4 0.000000 0.644071 0.303042
O O5 0.500000 0.783605 0.464616
O O6 0.660601 0.751270 0.333150
O O7 0.722268 0.724581 0.487483
O O8 0.769367 0.817010 0.431590
O O9 0.500000 0.936646 0.702345
O O10 0.719430 0.935606 0.587187
O O11 0.707580 0.000000 0.710411
O O12 0.235687 0.273182 0.682300
O O13 0.257254 0.349429 0.585424
O O14 0.222601 0.352106 0.768473
O O15 0.000000 0.328550 0.664830
O O16 0.500000 0.271606 0.195185
O O17 0.500000 0.334261 0.484634
O O18 0.500000 0.444210 0.976801
O O19 0.727211 0.500000 0.963153
O O20 0.749747 0.408542 0.914968
O O21 0.000000 0.634555 0.875464
#
# Coordination Sequence:
#
# PCOD9357608 Si02
#       8
#     8   8   8   8   8   8   8   8
#     4  11  21  33  52  78 107 137 170 213 262 309
#     4   8  16  30  47  67  93 127 168 209 243 283
#     4   9  19  37  58  78 101 130 166 209 257 312
#     4  10  20  33  49  74 107 140 175 215 259 303
#     4   9  17  31  49  69  96 133 175 211 246 294
#     4  10  20  34  52  74 102 141 182 215 252 300
#     4   9  19  36  57  78  99 127 165 208 253 302
#     4  10  20  32  50  76 105 136 167 204 254 307
#
# _framework density 17.125378000000001
#
# number of rings (size 3 to 8) (size 9 to 14) (size 15 to 20)
#    0.000    2.500    0.000    4.125    0.000    7.000 
#    0.000    2.500    0.000    0.750    0.000    3.500 
#    0.000    0.000    0.000    0.000    0.000    0.000 
#
# Total GULP energy -178425.976690 kJ/mol
# GULP energy per Si atom -5575.811772 kJ/mol
# Density = 1.708640 g / cm^3
# Si number density = 17.125378 Si / 1000 Ang^3
#
#
#
# Elastic Constant Matrix: (Units=GPa)
#
#
# Indices 1 2 3 4 5 6 
#
# 1 73.3186 53.4251 48.2575 0.0000 0.0000 0.0000
# 2 53.4251 95.0336 64.0326 0.0000 0.0000 0.0000
# 3 48.2575 64.0326 99.9619 0.0000 0.0000 0.0000
# 4 0.0000 0.0000 0.0000 22.8428 0.0000 0.0000
# 5 0.0000 0.0000 0.0000 0.0000 23.8837 0.0000
# 6 0.0000 0.0000 0.0000 0.0000 0.0000 -9.8961
#
#
#
# Elastic Compliance Matrix: (Units=1/GPa)
#
#
# Indices 1 2 3 4 5 6 
#
# 1 0.024607 -0.010256 -0.005310 0.000000 0.000000 0.000000
# 2 -0.010256 0.022787 -0.009646 0.000000 0.000000 0.000000
# 3 -0.005310 -0.009646 0.018746 0.000000 0.000000 0.000000
# 4 0.000000 0.000000 0.000000 0.043778 0.000000 0.000000
# 5 0.000000 0.000000 0.000000 0.000000 0.041870 0.000000
# 6 0.000000 0.000000 0.000000 0.000000 0.000000 -0.101050
#
#
# Mechanical properties :
#
#
# Convention : Reuss Voigt Hill
#
# Bulk Modulus (GPa) = 63.62252 66.63827 65.13039
# Shear Modulus (GPa) = 46.99293 14.20600 30.59946
#
# Velocity S-wave (km/s) = 5.24405 2.88328 4.23163
# Velocity P-wave (km/s) = 8.59642 7.07678 7.87335
#
# Compressibility (1/GPa) = 0.01571771
#
# Stress axis : x y z
#
# Youngs Moduli (GPa) = 40.63903 43.88410 53.34473
#
# Poissons Ratio (x) = 0.45006 0.28325
# Poissons Ratio (y) = 0.41678 0.51456
# Poissons Ratio (z) = 0.21578 0.42330
#
# Static dielectric constant tensor:
#      x y z
#    x 1.575710 0.000000 0.000000 
#    y 0.000000 1.561210 0.000000 
#    z 0.000000 0.000000 1.604230 
# 
# From -- ./inp_files/12727.got.cif
#   From: 2010.05.17/outbox.cif.g08.bks.cpg/sg38_7_cif.got.tgz:12727.got - 2010.06.03 18:07:57.
