data_PCOD9357540
_publ_section_title
;
Structure prediction by ZEFSAII (Michael W. Deem and Ramdas Pophale) SiO2 
 PCOD9357540
Probable space group: A M M 2
;
_chemical_formula_sum "Si O2"
_cell_formula_units_Z 40
_cell_length_a 9.511403
_cell_length_b 7.359544
_cell_length_c 26.507598
_cell_angle_alpha 90.000000
_cell_angle_beta 90.000000
_cell_angle_gamma 90.000000
_cell_volume 1855.520962
_symmetry_space_group_name_H-M "A M M 2"
_symmetry_group_IT_number 38
_symmetry_cell_setting 'orthorhombic'
loop_
_space_group_symop_operation_xyz
x,y,z
-x,-y,z
-x,y,z
x,-y,z
x,1/2+y,1/2+z
-x,1/2-y,1/2+z
-x,1/2+y,1/2+z
x,1/2-y,1/2+z
loop_
_atom_site_type_symbol
_atom_site_label
_atom_site_fract_x
_atom_site_fract_y
_atom_site_fract_z
Si Si1 0.661896 0.221437 0.341010
Si Si2 0.340654 0.716657 0.535227
Si Si3 0.841035 0.717536 0.935566
Si Si4 0.661778 0.278892 0.727250
Si Si5 0.161581 0.222224 0.131071
O O1 0.500000 0.275167 0.350745
O O2 0.764403 0.285202 0.385018
O O3 0.700159 0.277897 0.284105
O O4 0.663500 0.000000 0.341319
O O5 0.500000 0.787777 0.532491
O O6 0.350887 0.500000 0.541721
O O7 0.254575 0.747315 0.484154
O O8 0.253070 0.784113 0.583319
O O9 0.849725 0.500000 0.930619
O O10 0.000000 0.786604 0.941763
O O11 0.500000 0.224632 0.717441
O O12 0.662862 0.500000 0.727117
O O13 0.764769 0.219630 0.683008
O O14 0.000000 0.279665 0.127353
O O15 0.161648 0.000000 0.130833
#
# Coordination Sequence:
#
# PCOD9357540 Si02
#       5
#     8   8   8   8   8
#     4   8  14  25  41  61  87 119 152 186 224 266
#     4  10  20  33  49  68  91 122 159 195 230 271
#     4  10  20  32  47  69  96 124 154 190 232 276
#     4   8  13  22  37  58  85 116 148 182 222 268
#     4   9  16  25  39  61  89 118 147 184 230 274
#
# _framework density 21.557286999999999
#
# number of rings (size 3 to 8) (size 9 to 14) (size 15 to 20)
#    0.000    3.000    0.000    3.000    0.000    5.600 
#    0.000    4.000    0.000    0.000    0.000    1.400 
#    0.000    1.600    0.000    0.000    0.000    0.000 
#
# Total GULP energy -111705.150948 kJ/mol
# GULP energy per Si atom -5585.257547 kJ/mol
# Density = 2.150822 g / cm^3
# Si number density = 21.557287 Si / 1000 Ang^3
#
#
#
# Elastic Constant Matrix: (Units=GPa)
#
#
# Indices 1 2 3 4 5 6 
#
# 1 226.8121 8.0613 167.0467 0.0000 0.0000 0.0000
# 2 8.0613 79.8806 2.8647 0.0000 0.0000 0.0000
# 3 167.0467 2.8647 217.6273 0.0000 0.0000 0.0000
# 4 0.0000 0.0000 0.0000 11.1937 0.0000 0.0000
# 5 0.0000 0.0000 0.0000 0.0000 39.9824 0.0000
# 6 0.0000 0.0000 0.0000 0.0000 0.0000 0.7382
#
#
#
# Elastic Compliance Matrix: (Units=1/GPa)
#
#
# Indices 1 2 3 4 5 6 
#
# 1 0.010187 -0.000748 -0.007810 0.000000 0.000000 0.000000
# 2 -0.000748 0.012580 0.000409 0.000000 0.000000 0.000000
# 3 -0.007810 0.000409 0.010584 0.000000 0.000000 0.000000
# 4 0.000000 0.000000 0.000000 0.089336 0.000000 0.000000
# 5 0.000000 0.000000 0.000000 0.000000 0.025011 0.000000
# 6 0.000000 0.000000 0.000000 0.000000 0.000000 1.354673
#
#
# Mechanical properties :
#
#
# Convention : Reuss Voigt Hill
#
# Bulk Modulus (GPa) = 58.64167 97.80726 78.22447
# Shear Modulus (GPa) = 3.28008 33.47267 18.37637
#
# Velocity S-wave (km/s) = 1.23485 3.94475 2.92283
# Velocity P-wave (km/s) = 5.41248 8.13741 6.91058
#
# Compressibility (1/GPa) = 0.01705272
#
# Stress axis : x y z
#
# Youngs Moduli (GPa) = 98.15978 79.49429 94.47917
#
# Poissons Ratio (x) = 0.05946 0.73787
# Poissons Ratio (y) = 0.07343 -0.03860
# Poissons Ratio (z) = 0.76661 -0.03248
#
# Static dielectric constant tensor:
#      x y z
#    x 1.733980 0.000000 0.000000 
#    y 0.000000 1.905420 0.000000 
#    z 0.000000 0.000000 1.734750 
# 
# From -- ./inp_files/19458.got.cif
#   From: 2010.05.17/outbox.cif.g08.bks.cpg/sg38_10_cif.got.tgz:19458.got - 2010.06.03 18:07:57.
