data_PCOD9357446
_publ_section_title
;
Structure prediction by ZEFSAII (Michael W. Deem and Ramdas Pophale) SiO2 
 PCOD9357446
Probable space group: A M M 2
;
_chemical_formula_sum "Si O2"
_cell_formula_units_Z 64
_cell_length_a 14.994908
_cell_length_b 22.523305
_cell_length_c 9.660083
_cell_angle_alpha 90.000000
_cell_angle_beta 90.000000
_cell_angle_gamma 90.000000
_cell_volume 3262.547034
_symmetry_space_group_name_H-M "A M M 2"
_symmetry_group_IT_number 38
_symmetry_cell_setting 'orthorhombic'
loop_
_space_group_symop_operation_xyz
x,y,z
-x,-y,z
-x,y,z
x,-y,z
x,1/2+y,1/2+z
-x,1/2-y,1/2+z
-x,1/2+y,1/2+z
x,1/2-y,1/2+z
loop_
_atom_site_type_symbol
_atom_site_label
_atom_site_fract_x
_atom_site_fract_y
_atom_site_fract_z
Si Si1 0.833102 0.067568 0.856790
Si Si2 0.799839 0.639500 0.786147
Si Si3 0.676266 0.066520 0.083700
Si Si4 0.899541 0.821346 0.028398
Si Si5 0.733135 0.741386 0.962279
Si Si6 0.603511 0.143371 0.588209
Si Si7 0.593674 0.341471 0.408582
Si Si8 0.768084 0.068953 0.542358
O O1 0.803005 0.078552 0.698760
O O2 0.873628 0.000000 0.863501
O O3 0.746861 0.064529 0.956403
O O4 0.885146 0.124551 0.918284
O O5 0.727841 0.598812 0.707377
O O6 0.878848 0.650308 0.678767
O O7 0.754687 0.701494 0.828720
O O8 0.821652 0.607863 0.930799
O O9 0.599703 0.107510 0.022446
O O10 0.649843 0.000000 0.119764
O O11 0.827001 0.768575 0.013378
O O12 0.000000 0.799325 0.017513
O O13 0.667863 0.700118 0.056013
O O14 0.675989 0.798817 0.929123
O O15 0.500000 0.148266 0.538221
O O16 0.664899 0.089988 0.531994
O O17 0.597752 0.134763 0.752986
O O18 0.500000 0.307940 0.423352
O O19 0.776407 0.000000 0.510062
#
# Coordination Sequence:
#
# PCOD9357446 Si02
#       8
#     8   8   8   8   8   8   8   8
#     4   9  18  36  61  88 122 162 205 253 310 373
#     4  10  22  39  62  88 124 163 204 251 320 375
#     4  10  19  37  59  86 121 161 204 252 304 362
#     4  11  23  41  66  92 119 159 210 262 322 383
#     4  11  21  40  58  84 125 165 204 261 311 383
#     4  10  21  35  56  88 123 166 214 256 303 365
#     4  11  21  34  57  87 118 163 214 257 299 361
#     4  10  19  36  62  89 121 168 210 255 312 364
#
# _framework density 19.616574
#
# number of rings (size 3 to 8) (size 9 to 14) (size 15 to 20)
#    0.000    1.750    3.750    1.500    0.000    2.750 
#    0.000    4.375    0.000    3.750    0.000    0.000 
#    0.000    0.000    0.000    0.000    0.000    0.000 
#
# Total GULP energy -178317.057594 kJ/mol
# GULP energy per Si atom -5572.408050 kJ/mol
# Density = 1.957193 g / cm^3
# Si number density = 19.616574 Si / 1000 Ang^3
#
#
#
# Elastic Constant Matrix: (Units=GPa)
#
#
# Indices 1 2 3 4 5 6 
#
# 1 94.5874 25.4165 18.5992 0.0000 0.0000 0.0000
# 2 25.4165 88.5155 24.7231 0.0000 0.0000 0.0000
# 3 18.5992 24.7231 82.1454 0.0000 0.0000 0.0000
# 4 0.0000 0.0000 0.0000 28.9159 0.0000 0.0000
# 5 0.0000 0.0000 0.0000 0.0000 11.9186 0.0000
# 6 0.0000 0.0000 0.0000 0.0000 0.0000 9.4324
#
#
#
# Elastic Compliance Matrix: (Units=1/GPa)
#
#
# Indices 1 2 3 4 5 6 
#
# 1 0.011692 -0.002858 -0.001787 0.000000 0.000000 0.000000
# 2 -0.002858 0.013033 -0.003275 0.000000 0.000000 0.000000
# 3 -0.001787 -0.003275 0.013564 0.000000 0.000000 0.000000
# 4 0.000000 0.000000 0.000000 0.034583 0.000000 0.000000
# 5 0.000000 0.000000 0.000000 0.000000 0.083902 0.000000
# 6 0.000000 0.000000 0.000000 0.000000 0.000000 0.106018
#
#
# Mechanical properties :
#
#
# Convention : Reuss Voigt Hill
#
# Bulk Modulus (GPa) = 44.54812 44.74732 44.64772
# Shear Modulus (GPa) = 17.47550 23.15402 20.31476
#
# Velocity S-wave (km/s) = 2.98796 3.43932 3.22155
# Velocity P-wave (km/s) = 5.88749 6.21550 6.05372
#
# Compressibility (1/GPa) = 0.02244764
#
# Stress axis : x y z
#
# Youngs Moduli (GPa) = 85.53149 76.72852 73.72490
#
# Poissons Ratio (x) = 0.21929 0.13175
# Poissons Ratio (y) = 0.24445 0.24148
# Poissons Ratio (z) = 0.15285 0.25132
#
# Static dielectric constant tensor:
#      x y z
#    x 1.693170 0.000000 0.000000 
#    y 0.000000 1.718760 0.000000 
#    z 0.000000 0.000000 1.700330 
# 
# From -- ./inp_files/5912.got.cif
#   From: 2010.05.17/outbox.cif.g08.bks.cpg/sg38_3_cif.got.tgz:5912.got - 2010.06.03 18:07:57.
