data_PCOD9357283
_publ_section_title
;
Structure prediction by ZEFSAII (Michael W. Deem and Ramdas Pophale) SiO2 
 PCOD9357283
Probable space group: A M M 2
;
_chemical_formula_sum "Si O2"
_cell_formula_units_Z 56
_cell_length_a 16.993120
_cell_length_b 8.914489
_cell_length_c 20.638071
_cell_angle_alpha 90.000000
_cell_angle_beta 90.000000
_cell_angle_gamma 90.000000
_cell_volume 3126.357800
_symmetry_space_group_name_H-M "A M M 2"
_symmetry_group_IT_number 38
_symmetry_cell_setting 'orthorhombic'
loop_
_space_group_symop_operation_xyz
x,y,z
-x,-y,z
-x,y,z
x,-y,z
x,1/2+y,1/2+z
-x,1/2-y,1/2+z
-x,1/2+y,1/2+z
x,1/2-y,1/2+z
loop_
_atom_site_type_symbol
_atom_site_label
_atom_site_fract_x
_atom_site_fract_y
_atom_site_fract_z
Si Si1 0.410050 0.321663 0.023980
Si Si2 0.155489 0.176322 0.580695
Si Si3 0.410575 0.820639 0.165358
Si Si4 0.000000 0.177433 0.030673
Si Si5 0.746436 0.819727 0.707827
Si Si6 0.000000 0.320794 0.886929
Si Si7 0.258326 0.823964 0.450138
Si Si8 0.840044 0.178576 0.837678
O O1 0.500000 0.298557 0.003107
O O2 0.398423 0.500000 0.036779
O O3 0.398342 0.236790 0.091688
O O4 0.346281 0.278611 0.970484
O O5 0.077136 0.270339 0.569197
O O6 0.206745 0.223697 0.642533
O O7 0.207631 0.188582 0.515915
O O8 0.134984 0.000000 0.588925
O O9 0.500000 0.774732 0.184095
O O10 0.339773 0.752969 0.207039
O O11 0.406846 0.000000 0.166759
O O12 0.000000 0.000000 0.020556
O O13 0.000000 0.257396 0.960369
O O14 0.798800 0.780219 0.770001
O O15 0.736997 0.000000 0.706461
O O16 0.077983 0.261598 0.851319
O O17 0.000000 0.500000 0.889998
O O18 0.218808 0.725727 0.395043
O O19 0.257481 0.000000 0.430786
O O20 0.853652 0.000000 0.838458
#
# Coordination Sequence:
#
# PCOD9357283 Si02
#       8
#     8   8   8   4   8   4   8   8
#     4   9  17  32  56  84 114 151 195 238 281 337
#     4  10  20  37  60  84 112 147 189 234 282 337
#     4  10  20  33  54  86 119 150 187 237 291 336
#     4  12  24  37  58  89 117 145 189 241 288 334
#     4  10  22  41  61  84 115 155 195 232 280 343
#     4  12  24  41  62  83 113 153 191 229 282 348
#     4  10  19  34  58  85 114 150 191 232 282 340
#     4  11  24  40  61  86 115 151 192 237 285 336
#
# _framework density 17.912217999999999
#
# number of rings (size 3 to 8) (size 9 to 14) (size 15 to 20)
#    0.000    1.714    2.857    2.143    0.000    3.714 
#    0.000    3.571    0.000    2.571    0.000    0.000 
#    0.000    0.000    0.000    0.000    0.000    0.000 
#
# Total GULP energy -156368.117007 kJ/mol
# GULP energy per Si atom -5584.575607 kJ/mol
# Density = 1.787145 g / cm^3
# Si number density = 17.912218 Si / 1000 Ang^3
#
#
#
# Elastic Constant Matrix: (Units=GPa)
#
#
# Indices 1 2 3 4 5 6 
#
# 1 146.9876 59.4104 51.8921 0.0000 0.0000 0.0000
# 2 59.4104 64.5234 39.8584 0.0000 0.0000 0.0000
# 3 51.8921 39.8584 86.2894 0.0000 0.0000 0.0000
# 4 0.0000 0.0000 0.0000 24.3571 0.0000 0.0000
# 5 0.0000 0.0000 0.0000 0.0000 16.0748 0.0000
# 6 0.0000 0.0000 0.0000 0.0000 0.0000 29.4027
#
#
#
# Elastic Compliance Matrix: (Units=1/GPa)
#
#
# Indices 1 2 3 4 5 6 
#
# 1 0.011294 -0.008680 -0.002782 0.000000 0.000000 0.000000
# 2 -0.008680 0.028358 -0.007879 0.000000 0.000000 0.000000
# 3 -0.002782 -0.007879 0.016901 0.000000 0.000000 0.000000
# 4 0.000000 0.000000 0.000000 0.041056 0.000000 0.000000
# 5 0.000000 0.000000 0.000000 0.000000 0.062209 0.000000
# 6 0.000000 0.000000 0.000000 0.000000 0.000000 0.034011
#
#
# Mechanical properties :
#
#
# Convention : Reuss Voigt Hill
#
# Bulk Modulus (GPa) = 55.95862 66.68025 61.31943
# Shear Modulus (GPa) = 20.96714 23.74287 22.35500
#
# Velocity S-wave (km/s) = 3.42504 3.64471 3.53658
# Velocity P-wave (km/s) = 6.85197 7.41747 7.14032
#
# Compressibility (1/GPa) = 0.01787035
#
# Stress axis : x y z
#
# Youngs Moduli (GPa) = 88.54240 35.26380 59.16638
#
# Poissons Ratio (x) = 0.30610 0.16462
# Poissons Ratio (y) = 0.76857 0.46616
# Poissons Ratio (z) = 0.24636 0.27784
#
# Static dielectric constant tensor:
#      x y z
#    x 1.622000 0.000000 0.000000 
#    y 0.000000 1.605440 0.000000 
#    z 0.000000 0.000000 1.583470 
# 
# From -- ./inp_files/21163.got.cif
#   From: 2010.05.17/outbox.cif.g08.bks.cpg/sg38_11_cif.got.tgz:21163.got - 2010.06.03 18:07:57.
