data_PCOD9357045
_publ_section_title
;
Structure prediction by ZEFSAII (Michael W. Deem and Ramdas Pophale) SiO2 
 PCOD9357045
Probable space group: A M M 2
;
_chemical_formula_sum "Si O2"
_cell_formula_units_Z 64
_cell_length_a 11.519913
_cell_length_b 31.589936
_cell_length_c 9.244394
_cell_angle_alpha 90.000000
_cell_angle_beta 90.000000
_cell_angle_gamma 90.000000
_cell_volume 3364.158060
_symmetry_space_group_name_H-M "A M M 2"
_symmetry_group_IT_number 38
_symmetry_cell_setting 'orthorhombic'
loop_
_space_group_symop_operation_xyz
x,y,z
-x,-y,z
-x,y,z
x,-y,z
x,1/2+y,1/2+z
-x,1/2-y,1/2+z
-x,1/2+y,1/2+z
x,1/2-y,1/2+z
loop_
_atom_site_type_symbol
_atom_site_label
_atom_site_fract_x
_atom_site_fract_y
_atom_site_fract_z
Si Si1 0.628709 0.796809 0.572230
Si Si2 0.368641 0.550563 0.384561
Si Si3 0.289075 0.611202 0.140182
Si Si4 0.134523 0.839442 0.870030
Si Si5 0.134088 0.949474 0.069876
Si Si6 0.249641 0.752400 0.818886
Si Si7 0.863391 0.672775 0.685305
Si Si8 0.134349 0.407289 0.878855
O O1 0.500000 0.787078 0.522664
O O2 0.645093 0.847484 0.577893
O O3 0.650755 0.777474 0.731562
O O4 0.712611 0.772436 0.462119
O O5 0.500000 0.558513 0.447391
O O6 0.362541 0.500000 0.356467
O O7 0.359101 0.578357 0.238785
O O8 0.251810 0.561164 0.478775
O O9 0.199175 0.633687 0.249862
O O10 0.221307 0.587670 0.011423
O O11 0.157725 0.789445 0.848624
O O12 0.000000 0.848136 0.857171
O O13 0.175175 0.848025 0.034290
O O14 0.151847 0.935909 0.236743
O O15 0.000000 0.933779 0.030434
O O16 0.126981 0.000000 0.060446
O O17 0.200841 0.715974 0.716073
O O18 0.849375 0.640187 0.816330
O O19 0.000000 0.681261 0.669758
O O20 0.000000 0.412113 0.925212
#
# Coordination Sequence:
#
# PCOD9357045 Si02
#       8
#     8   8   8   8   8   8   8   8
#     4  11  23  38  56  75 107 150 199 251 295 353
#     4  10  22  42  66  91 123 164 210 254 300 364
#     4  11  22  37  59  85 124 154 199 242 308 355
#     4  10  21  35  56  83 114 150 191 239 291 355
#     4   9  19  38  65  93 122 156 196 246 304 367
#     4  11  20  37  54  76 105 143 193 237 294 350
#     4  10  19  33  52  77 109 144 183 230 284 346
#     4  10  20  34  57  88 121 152 189 243 303 368
#
# _framework density 19.024075
#
# number of rings (size 3 to 8) (size 9 to 14) (size 15 to 20)
#    0.000    1.750    2.500    2.250    0.000    2.500 
#    0.000    1.250    0.000    1.500    0.000    0.000 
#    0.000    0.000    0.000    0.000    0.000    0.000 
#
# Total GULP energy -178315.249943 kJ/mol
# GULP energy per Si atom -5572.351561 kJ/mol
# Density = 1.898078 g / cm^3
# Si number density = 19.024075 Si / 1000 Ang^3
#
#
#
# Elastic Constant Matrix: (Units=GPa)
#
#
# Indices 1 2 3 4 5 6 
#
# 1 84.7848 35.5503 40.8470 0.0000 0.0000 0.0000
# 2 35.5503 64.8749 14.7149 0.0000 0.0000 0.0000
# 3 40.8470 14.7149 70.2582 0.0000 0.0000 0.0000
# 4 0.0000 0.0000 0.0000 33.0429 0.0000 0.0000
# 5 0.0000 0.0000 0.0000 0.0000 17.2057 0.0000
# 6 0.0000 0.0000 0.0000 0.0000 0.0000 3.8062
#
#
#
# Elastic Compliance Matrix: (Units=1/GPa)
#
#
# Indices 1 2 3 4 5 6 
#
# 1 0.020307 -0.008872 -0.009948 0.000000 0.000000 0.000000
# 2 -0.008872 0.020059 0.000957 0.000000 0.000000 0.000000
# 3 -0.009948 0.000957 0.019817 0.000000 0.000000 0.000000
# 4 0.000000 0.000000 0.000000 0.030264 0.000000 0.000000
# 5 0.000000 0.000000 0.000000 0.000000 0.058120 0.000000
# 6 0.000000 0.000000 0.000000 0.000000 0.000000 0.262731
#
#
# Mechanical properties :
#
#
# Convention : Reuss Voigt Hill
#
# Bulk Modulus (GPa) = 40.88924 44.68250 42.78587
# Shear Modulus (GPa) = 10.98477 19.39800 15.19139
#
# Velocity S-wave (km/s) = 2.40555 3.19667 2.82890
# Velocity P-wave (km/s) = 5.40885 6.09617 5.76276
#
# Compressibility (1/GPa) = 0.02445631
#
# Stress axis : x y z
#
# Youngs Moduli (GPa) = 49.24376 49.85363 50.46285
#
# Poissons Ratio (x) = 0.44228 0.50201
# Poissons Ratio (y) = 0.43687 -0.04827
# Poissons Ratio (z) = 0.48989 -0.04769
#
# Static dielectric constant tensor:
#      x y z
#    x 1.667610 0.000000 0.000000 
#    y 0.000000 1.698800 0.000000 
#    z 0.000000 0.000000 1.672370 
# 
# From -- ./inp_files/4928.got.cif
#   From: 2010.05.17/outbox.cif.g08.bks.cpg/sg38_3_cif.got.tgz:4928.got - 2010.06.03 18:07:57.
