data_PCOD9357198
_publ_section_title
;
Structure prediction by ZEFSAII (Michael W. Deem and Ramdas Pophale) SiO2 
 PCOD9357198
Probable space group: A M M 2
;
_chemical_formula_sum "Si O2"
_cell_formula_units_Z 48
_cell_length_a 13.322704
_cell_length_b 13.257239
_cell_length_c 13.526370
_cell_angle_alpha 90.000000
_cell_angle_beta 90.000000
_cell_angle_gamma 90.000000
_cell_volume 2389.058189
_symmetry_space_group_name_H-M "A M M 2"
_symmetry_group_IT_number 38
_symmetry_cell_setting 'orthorhombic'
loop_
_space_group_symop_operation_xyz
x,y,z
-x,-y,z
-x,y,z
x,-y,z
x,1/2+y,1/2+z
-x,1/2-y,1/2+z
-x,1/2+y,1/2+z
x,1/2-y,1/2+z
loop_
_atom_site_type_symbol
_atom_site_label
_atom_site_fract_x
_atom_site_fract_y
_atom_site_fract_z
Si Si1 0.885222 0.235519 0.048930
Si Si2 0.613570 0.170396 0.147983
Si Si3 0.233237 0.614224 0.945718
Si Si4 0.380498 0.111090 0.730872
Si Si5 0.177624 0.611023 0.728488
Si Si6 0.694110 0.678215 0.440921
O O1 0.871875 0.194263 0.159429
O O2 0.000000 0.231106 0.019057
O O3 0.837257 0.346115 0.033981
O O4 0.809042 0.169938 0.980172
O O5 0.500000 0.149966 0.180595
O O6 0.635749 0.290516 0.163012
O O7 0.702740 0.116779 0.206644
O O8 0.626934 0.143240 0.032648
O O9 0.267251 0.500000 0.954917
O O10 0.167551 0.623781 0.845310
O O11 0.317947 0.699936 0.932839
O O12 0.500000 0.110166 0.749589
O O13 0.327624 0.129466 0.836335
O O14 0.352727 0.000000 0.691116
O O15 0.140565 0.500000 0.699913
#
# Coordination Sequence:
#
# PCOD9357198 Si02
#       6
#     8   8   8   8   8   8
#     4   9  20  36  55  81 110 139 178 226 272 322
#     4  10  19  34  54  80 111 143 184 225 267 320
#     4   9  19  36  59  81 107 144 182 223 275 328
#     4  10  20  35  56  80 109 147 185 221 268 324
#     4  10  20  37  56  81 112 146 184 224 275 325
#     4   9  19  34  54  80 108 141 176 229 267 320
#
# _framework density 20.091598000000001
#
# number of rings (size 3 to 8) (size 9 to 14) (size 15 to 20)
#    1.000    1.500    1.667    0.500    0.000    5.000 
#    0.000    1.667    0.000    1.500    0.000    2.333 
#    0.000    0.000    0.000    0.000    0.000    0.000 
#
# Total GULP energy -133606.264271 kJ/mol
# GULP energy per Si atom -5566.927678 kJ/mol
# Density = 2.004587 g / cm^3
# Si number density = 20.091598 Si / 1000 Ang^3
#
#
#
# Elastic Constant Matrix: (Units=GPa)
#
#
# Indices 1 2 3 4 5 6 
#
# 1 61.6995 -5.1931 -11.6237 0.0000 0.0000 0.0000
# 2 -5.1931 71.2696 2.9017 0.0000 0.0000 0.0000
# 3 -11.6237 2.9017 49.1340 0.0000 0.0000 0.0000
# 4 0.0000 0.0000 0.0000 18.5964 0.0000 0.0000
# 5 0.0000 0.0000 0.0000 0.0000 10.0386 0.0000
# 6 0.0000 0.0000 0.0000 0.0000 0.0000 6.1681
#
#
#
# Elastic Compliance Matrix: (Units=1/GPa)
#
#
# Indices 1 2 3 4 5 6 
#
# 1 0.017046 0.001080 0.003969 0.000000 0.000000 0.000000
# 2 0.001080 0.014134 -0.000579 0.000000 0.000000 0.000000
# 3 0.003969 -0.000579 0.021326 0.000000 0.000000 0.000000
# 4 0.000000 0.000000 0.000000 0.053774 0.000000 0.000000
# 5 0.000000 0.000000 0.000000 0.000000 0.099615 0.000000
# 6 0.000000 0.000000 0.000000 0.000000 0.000000 0.162125
#
#
# Mechanical properties :
#
#
# Convention : Reuss Voigt Hill
#
# Bulk Modulus (GPa) = 16.27449 17.14145 16.70797
# Shear Modulus (GPa) = 13.17312 20.02849 16.60081
#
# Velocity S-wave (km/s) = 2.56335 3.16073 2.87759
# Velocity P-wave (km/s) = 4.10838 4.67659 4.40166
#
# Compressibility (1/GPa) = 0.06144585
#
# Stress axis : x y z
#
# Youngs Moduli (GPa) = 58.66404 70.75374 46.89195
#
# Poissons Ratio (x) = -0.07645 -0.18611
# Poissons Ratio (y) = -0.06339 0.02715
# Poissons Ratio (z) = -0.23283 0.04097
#
# Static dielectric constant tensor:
#      x y z
#    x 1.699850 0.000000 0.000000 
#    y 0.000000 1.752180 0.000000 
#    z 0.000000 0.000000 1.726740 
# 
# From -- ./inp_files/14603.got.cif
#   From: 2010.05.17/outbox.cif.g08.bks.cpg/sg38_8_cif.got.tgz:14603.got - 2010.06.03 18:07:57.
