data_PCOD9357932
_publ_section_title
;
Structure prediction by ZEFSAII (Michael W. Deem and Ramdas Pophale) SiO2 
 PCOD9357932
Probable space group: A M M 2
;
_chemical_formula_sum "Si O2"
_cell_formula_units_Z 64
_cell_length_a 7.668217
_cell_length_b 17.023079
_cell_length_c 23.206608
_cell_angle_alpha 90.000000
_cell_angle_beta 90.000000
_cell_angle_gamma 90.000000
_cell_volume 3029.313186
_symmetry_space_group_name_H-M "A M M 2"
_symmetry_group_IT_number 38
_symmetry_cell_setting 'orthorhombic'
loop_
_space_group_symop_operation_xyz
x,y,z
-x,-y,z
-x,y,z
x,-y,z
x,1/2+y,1/2+z
-x,1/2-y,1/2+z
-x,1/2+y,1/2+z
x,1/2-y,1/2+z
loop_
_atom_site_type_symbol
_atom_site_label
_atom_site_fract_x
_atom_site_fract_y
_atom_site_fract_z
Si Si1 0.799759 0.786948 0.471120
Si Si2 0.212819 0.375138 0.424765
Si Si3 0.208793 0.585951 0.297120
Si Si4 0.788193 0.916961 0.053533
Si Si5 0.713162 0.911270 0.249103
Si Si6 0.700254 0.409042 0.882010
Si Si7 0.211189 0.247060 0.595084
Si Si8 0.699423 0.737803 0.220794
O O1 0.727120 0.714425 0.434512
O O2 0.794813 0.861231 0.430888
O O3 0.729102 0.794433 0.535714
O O4 0.000000 0.763278 0.481359
O O5 0.275214 0.405099 0.363074
O O6 0.262051 0.413425 0.485934
O O7 0.000000 0.380934 0.422130
O O8 0.270532 0.500000 0.274468
O O9 0.240340 0.665445 0.260676
O O10 0.000000 0.581339 0.300189
O O11 0.732366 0.837955 0.085358
O O12 0.000000 0.915737 0.054946
O O13 0.727773 0.000000 0.078549
O O14 0.500000 0.914203 0.245262
O O15 0.763353 0.902857 0.316542
O O16 0.776548 0.827419 0.223503
O O17 0.771811 0.000000 0.229987
O O18 0.500000 0.381427 0.881921
O O19 0.703561 0.500000 0.896800
O O20 0.284178 0.214125 0.654154
O O21 0.000000 0.243792 0.600425
O O22 0.500000 0.748941 0.237610
#
# Coordination Sequence:
#
# PCOD9357932 Si02
#       8
#     8   8   8   8   8   8   8   8
#     4   9  17  30  49  72  98 127 156 193 243 292
#     4   8  14  26  47  76 104 126 153 191 238 297
#     4  10  20  34  54  78 103 133 167 205 252 303
#     4   8  13  24  46  75 103 128 155 192 239 292
#     4   8  16  32  52  75 104 136 167 199 245 306
#     4   9  17  30  49  72  97 124 155 194 241 295
#     4   9  19  34  49  68  97 131 166 203 244 292
#     4  11  22  35  53  74  98 134 176 216 252 286
#
# _framework density 21.126901
#
# number of rings (size 3 to 8) (size 9 to 14) (size 15 to 20)
#    0.000    3.000    0.000    3.750    0.000    3.000 
#    0.000    1.250    0.000    4.125    0.000    0.000 
#    0.000    0.000    0.000    0.000    0.000    0.000 
#
# Total GULP energy -178161.426645 kJ/mol
# GULP energy per Si atom -5567.544583 kJ/mol
# Density = 2.107882 g / cm^3
# Si number density = 21.126901 Si / 1000 Ang^3
#
#
#
# Elastic Constant Matrix: (Units=GPa)
#
#
# Indices 1 2 3 4 5 6 
#
# 1 30.9710 12.6661 -2.1074 0.0000 0.0000 0.0000
# 2 12.6661 73.6168 55.6220 0.0000 0.0000 0.0000
# 3 -2.1074 55.6220 85.5926 0.0000 0.0000 0.0000
# 4 0.0000 0.0000 0.0000 4.2567 0.0000 0.0000
# 5 0.0000 0.0000 0.0000 0.0000 10.3800 0.0000
# 6 0.0000 0.0000 0.0000 0.0000 0.0000 6.5880
#
#
#
# Elastic Compliance Matrix: (Units=1/GPa)
#
#
# Indices 1 2 3 4 5 6 
#
# 1 0.038969 -0.014597 0.010445 0.000000 0.000000 0.000000
# 2 -0.014597 0.032155 -0.021255 0.000000 0.000000 0.000000
# 3 0.010445 -0.021255 0.025753 0.000000 0.000000 0.000000
# 4 0.000000 0.000000 0.000000 0.234922 0.000000 0.000000
# 5 0.000000 0.000000 0.000000 0.000000 0.096340 0.000000
# 6 0.000000 0.000000 0.000000 0.000000 0.000000 0.151792
#
#
# Mechanical properties :
#
#
# Convention : Reuss Voigt Hill
#
# Bulk Modulus (GPa) = 21.70940 35.83797 28.77369
# Shear Modulus (GPa) = 7.73877 12.51157 10.12517
#
# Velocity S-wave (km/s) = 1.91597 2.43618 2.19156
# Velocity P-wave (km/s) = 3.89777 4.99132 4.47805
#
# Compressibility (1/GPa) = 0.04606299
#
# Stress axis : x y z
#
# Youngs Moduli (GPa) = 25.66174 31.09966 38.83060
#
# Poissons Ratio (x) = 0.45395 -0.40558
# Poissons Ratio (y) = 0.37457 0.82534
# Poissons Ratio (z) = -0.26804 0.66102
#
# Static dielectric constant tensor:
#      x y z
#    x 1.813730 0.000000 0.000000 
#    y 0.000000 1.807260 0.000000 
#    z 0.000000 0.000000 1.746970 
# 
# From -- ./inp_files/20058.got.cif
#   From: 2010.05.17/outbox.cif.g08.bks.cpg/sg38_11_cif.got.tgz:20058.got - 2010.06.03 18:07:57.
