data_PCOD9357502
_publ_section_title
;
Structure prediction by ZEFSAII (Michael W. Deem and Ramdas Pophale) SiO2 
 PCOD9357502
Probable space group: A M M 2
;
_chemical_formula_sum "Si O2"
_cell_formula_units_Z 64
_cell_length_a 14.439982
_cell_length_b 14.313517
_cell_length_c 18.313841
_cell_angle_alpha 90.000000
_cell_angle_beta 90.000000
_cell_angle_gamma 90.000000
_cell_volume 3785.231533
_symmetry_space_group_name_H-M "A M M 2"
_symmetry_group_IT_number 38
_symmetry_cell_setting 'orthorhombic'
loop_
_space_group_symop_operation_xyz
x,y,z
-x,-y,z
-x,y,z
x,-y,z
x,1/2+y,1/2+z
-x,1/2-y,1/2+z
-x,1/2+y,1/2+z
x,1/2-y,1/2+z
loop_
_atom_site_type_symbol
_atom_site_label
_atom_site_fract_x
_atom_site_fract_y
_atom_site_fract_z
Si Si1 0.393665 0.113211 0.719010
Si Si2 0.106705 0.613183 0.588927
Si Si3 0.242514 0.785362 0.981093
Si Si4 0.611443 0.610966 0.384076
Si Si5 0.111768 0.724255 0.343324
Si Si6 0.111137 0.397186 0.754322
Si Si7 0.104698 0.888694 0.699773
Si Si8 0.739773 0.612472 0.084326
O O1 0.500000 0.142960 0.709790
O O2 0.362769 0.142208 0.800826
O O3 0.334689 0.138155 0.647691
O O4 0.391789 0.000000 0.721721
O O5 0.107235 0.500000 0.585613
O O6 0.190040 0.654784 0.542740
O O7 0.125310 0.640024 0.672948
O O8 0.000000 0.641693 0.569441
O O9 0.333278 0.832043 0.945276
O O10 0.167050 0.790258 0.916544
O O11 0.262848 0.683189 0.016088
O O12 0.500000 0.620829 0.390208
O O13 0.632791 0.500000 0.390635
O O14 0.140662 0.826020 0.315119
O O15 0.136287 0.656414 0.275836
O O16 0.000000 0.718325 0.353639
O O17 0.151728 0.500000 0.761489
O O18 0.000000 0.404169 0.760700
O O19 0.164651 0.871246 0.628167
O O20 0.000000 0.855687 0.687778
O O21 0.105689 0.000000 0.710635
O O22 0.731714 0.500000 0.067882
#
# Coordination Sequence:
#
# PCOD9357502 Si02
#       8
#     8   8   8   8   8   8   8   8
#     4   8  15  32  57  76  90 116 157 204 248 288
#     4   9  18  32  49  70  96 126 162 203 243 284
#     4  12  22  30  47  74 105 134 157 189 245 303
#     4   9  19  36  56  77  99 122 153 197 248 299
#     4  10  20  31  45  69  98 128 164 203 241 285
#     4   8  15  30  49  64  85 126 175 210 229 257
#     4   9  18  33  51  68  91 129 173 213 249 282
#     4  10  21  34  48  71 102 134 169 204 237 282
#
# _framework density 16.907816
#
# number of rings (size 3 to 8) (size 9 to 14) (size 15 to 20)
#    0.000    2.625    0.000    3.750    0.000    5.000 
#    0.000    1.250    0.000    0.000    0.000    0.000 
#    0.000    2.000    0.000    0.000    0.000    0.000 
#
# Total GULP energy -178197.339222 kJ/mol
# GULP energy per Si atom -5568.666851 kJ/mol
# Density = 1.686933 g / cm^3
# Si number density = 16.907816 Si / 1000 Ang^3
#
#
#
# Elastic Constant Matrix: (Units=GPa)
#
#
# Indices 1 2 3 4 5 6 
#
# 1 55.7656 14.7171 12.4862 0.0000 0.0000 0.0000
# 2 14.7171 41.5115 19.2481 0.0000 0.0000 0.0000
# 3 12.4862 19.2481 22.7603 0.0000 0.0000 0.0000
# 4 0.0000 0.0000 0.0000 9.5987 0.0000 0.0000
# 5 0.0000 0.0000 0.0000 0.0000 2.5301 0.0000
# 6 0.0000 0.0000 0.0000 0.0000 0.0000 15.7706
#
#
#
# Elastic Compliance Matrix: (Units=1/GPa)
#
#
# Indices 1 2 3 4 5 6 
#
# 1 0.020734 -0.003416 -0.008485 0.000000 0.000000 0.000000
# 2 -0.003416 0.040193 -0.032116 0.000000 0.000000 0.000000
# 3 -0.008485 -0.032116 0.075752 0.000000 0.000000 0.000000
# 4 0.000000 0.000000 0.000000 0.104181 0.000000 0.000000
# 5 0.000000 0.000000 0.000000 0.000000 0.395239 0.000000
# 6 0.000000 0.000000 0.000000 0.000000 0.000000 0.063409
#
#
# Mechanical properties :
#
#
# Convention : Reuss Voigt Hill
#
# Bulk Modulus (GPa) = 20.55832 23.66003 22.10917
# Shear Modulus (GPa) = 6.22079 10.48562 8.35321
#
# Velocity S-wave (km/s) = 1.92021 2.49301 2.22512
# Velocity P-wave (km/s) = 4.13543 4.72342 4.43917
#
# Compressibility (1/GPa) = 0.04864211
#
# Stress axis : x y z
#
# Youngs Moduli (GPa) = 48.23071 24.88014 13.20105
#
# Poissons Ratio (x) = 0.08500 0.11201
# Poissons Ratio (y) = 0.16477 0.42397
# Poissons Ratio (z) = 0.40925 0.79906
#
# Static dielectric constant tensor:
#      x y z
#    x 1.590610 0.000000 0.000000 
#    y 0.000000 1.611230 0.000000 
#    z 0.000000 0.000000 1.557230 
# 
# From -- ./inp_files/18532.got.cif
#   From: 2010.05.17/outbox.cif.g08.bks.cpg/sg38_10_cif.got.tgz:18532.got - 2010.06.03 18:07:57.
