data_PCOD9357697
_publ_section_title
;
Structure prediction by ZEFSAII (Michael W. Deem and Ramdas Pophale) SiO2 
 PCOD9357697
Probable space group: A M M 2
;
_chemical_formula_sum "Si O2"
_cell_formula_units_Z 40
_cell_length_a 8.575050
_cell_length_b 14.023749
_cell_length_c 19.027428
_cell_angle_alpha 90.000000
_cell_angle_beta 90.000000
_cell_angle_gamma 90.000000
_cell_volume 2288.130965
_symmetry_space_group_name_H-M "A M M 2"
_symmetry_group_IT_number 38
_symmetry_cell_setting 'orthorhombic'
loop_
_space_group_symop_operation_xyz
x,y,z
-x,-y,z
-x,y,z
x,-y,z
x,1/2+y,1/2+z
-x,1/2-y,1/2+z
-x,1/2+y,1/2+z
x,1/2-y,1/2+z
loop_
_atom_site_type_symbol
_atom_site_label
_atom_site_fract_x
_atom_site_fract_y
_atom_site_fract_z
Si Si1 0.811987 0.292140 0.466040
Si Si2 0.811399 0.889802 0.821640
Si Si3 0.811521 0.608652 0.611571
Si Si4 0.686539 0.207209 0.681512
Si Si5 0.688218 0.391761 0.035776
O O1 0.758284 0.337559 0.392955
O O2 0.765033 0.356510 0.533220
O O3 0.751119 0.186209 0.481463
O O4 0.000000 0.290036 0.465299
O O5 0.753884 0.835960 0.752564
O O6 0.000000 0.889494 0.821921
O O7 0.759751 0.000000 0.820970
O O8 0.761795 0.500000 0.623894
O O9 0.744073 0.686048 0.665140
O O10 0.000000 0.611947 0.614872
O O11 0.500000 0.205651 0.684532
O O12 0.736121 0.144111 0.613677
O O13 0.500000 0.390156 0.033709
O O14 0.740728 0.500000 0.023430
#
# Coordination Sequence:
#
# PCOD9357697 Si02
#       5
#     8   8   8   8   8
#     4   9  18  32  51  76 101 125 160 204 247 291
#     4  10  20  34  52  74 101 131 162 200 247 296
#     4   9  17  32  54  76  99 129 164 203 247 293
#     4  10  20  33  50  74 103 132 165 204 244 290
#     4   9  18  33  51  71  98 131 164 200 243 289
#
# _framework density 17.481515999999999
#
# number of rings (size 3 to 8) (size 9 to 14) (size 15 to 20)
#    0.000    2.600    0.000    1.800    0.000    6.000 
#    0.000    1.000    0.000    4.800    0.000    0.000 
#    0.000    0.000    0.000    0.000    0.000    0.000 
#
# Total GULP energy -111566.466550 kJ/mol
# GULP energy per Si atom -5578.323328 kJ/mol
# Density = 1.744173 g / cm^3
# Si number density = 17.481516 Si / 1000 Ang^3
#
#
#
# Elastic Constant Matrix: (Units=GPa)
#
#
# Indices 1 2 3 4 5 6 
#
# 1 7.7429 28.4389 23.3003 0.0000 0.0000 0.0000
# 2 28.4389 198.3002 101.4453 0.0000 0.0000 0.0000
# 3 23.3003 101.4453 142.0622 0.0000 0.0000 0.0000
# 4 0.0000 0.0000 0.0000 19.0606 0.0000 0.0000
# 5 0.0000 0.0000 0.0000 0.0000 21.4275 0.0000
# 6 0.0000 0.0000 0.0000 0.0000 0.0000 19.1946
#
#
#
# Elastic Compliance Matrix: (Units=1/GPa)
#
#
# Indices 1 2 3 4 5 6 
#
# 1 0.355250 -0.033308 -0.034482 0.000000 0.000000 0.000000
# 2 -0.033308 0.011068 -0.002441 0.000000 0.000000 0.000000
# 3 -0.034482 -0.002441 0.014438 0.000000 0.000000 0.000000
# 4 0.000000 0.000000 0.000000 0.052464 0.000000 0.000000
# 5 0.000000 0.000000 0.000000 0.000000 0.046669 0.000000
# 6 0.000000 0.000000 0.000000 0.000000 0.000000 0.052098
#
#
# Mechanical properties :
#
#
# Convention : Reuss Voigt Hill
#
# Bulk Modulus (GPa) = 4.16154 72.71938 38.44046
# Shear Modulus (GPa) = 6.64411 24.93125 15.78768
#
# Velocity S-wave (km/s) = 1.95164 3.78054 3.00843
# Velocity P-wave (km/s) = 2.73208 7.79389 5.83991
#
# Compressibility (1/GPa) = 0.24029566
#
# Stress axis : x y z
#
# Youngs Moduli (GPa) = 2.81492 90.34809 69.26351
#
# Poissons Ratio (x) = 3.00930 2.38831
# Poissons Ratio (y) = 0.09376 0.16906
# Poissons Ratio (z) = 0.09706 0.22052
#
# Static dielectric constant tensor:
#      x y z
#    x 1.596120 0.000000 0.000000 
#    y 0.000000 1.583630 0.000000 
#    z 0.000000 0.000000 1.571680 
# 
# From -- ./inp_files/11661.got.cif
#   From: 2010.05.17/outbox.cif.g08.bks.cpg/sg38_6_cif.got.tgz:11661.got - 2010.06.03 18:07:57.
