data_PCOD9357634
_publ_section_title
;
Structure prediction by ZEFSAII (Michael W. Deem and Ramdas Pophale) SiO2 
 PCOD9357634
Probable space group: A M M 2
;
_chemical_formula_sum "Si O2"
_cell_formula_units_Z 48
_cell_length_a 7.502338
_cell_length_b 17.318007
_cell_length_c 17.492100
_cell_angle_alpha 90.000000
_cell_angle_beta 90.000000
_cell_angle_gamma 90.000000
_cell_volume 2272.670573
_symmetry_space_group_name_H-M "A M M 2"
_symmetry_group_IT_number 38
_symmetry_cell_setting 'orthorhombic'
loop_
_space_group_symop_operation_xyz
x,y,z
-x,-y,z
-x,y,z
x,-y,z
x,1/2+y,1/2+z
-x,1/2-y,1/2+z
-x,1/2+y,1/2+z
x,1/2-y,1/2+z
loop_
_atom_site_type_symbol
_atom_site_label
_atom_site_fract_x
_atom_site_fract_y
_atom_site_fract_z
Si Si1 0.790035 0.500000 0.280680
Si Si2 0.293794 0.669647 0.726386
Si Si3 0.207843 0.654752 0.203414
Si Si4 0.715804 0.500000 0.459421
Si Si5 0.715651 0.179064 0.529809
Si Si6 0.718279 0.410708 0.879458
Si Si7 0.718136 0.352901 0.556681
O O1 0.716062 0.420700 0.245061
O O2 0.771835 0.500000 0.371598
O O3 0.000000 0.500000 0.260389
O O4 0.500000 0.645153 0.724932
O O5 0.289092 0.762721 0.726229
O O6 0.218114 0.633441 0.803489
O O7 0.218346 0.642727 0.644647
O O8 0.225563 0.647015 0.111965
O O9 0.000000 0.661411 0.223264
O O10 0.500000 0.500000 0.460443
O O11 0.776160 0.423642 0.504447
O O12 0.500000 0.177992 0.530716
O O13 0.777631 0.130958 0.457055
O O14 0.771348 0.268763 0.525807
O O15 0.500000 0.407787 0.880438
O O16 0.770015 0.500000 0.877611
O O17 0.500000 0.353563 0.558046
#
# Coordination Sequence:
#
# PCOD9357634 Si02
#       7
#     4   8   8   4   8   8   8
#     4  10  24  40  52  73 106 138 174 223 266 310
#     4   9  18  34  57  81 108 138 173 215 261 310
#     4  10  21  38  56  74 102 140 180 217 265 316
#     4  10  20  32  54  81 106 136 174 213 258 314
#     4   9  18  34  54  79 109 136 172 218 261 307
#     4   9  18  30  52  85 113 138 170 213 262 311
#     4   8  16  30  49  77 107 134 166 212 257 300
#
# _framework density 21.120526000000002
#
# number of rings (size 3 to 8) (size 9 to 14) (size 15 to 20)
#    0.000    2.833    0.000    1.500    4.667    1.333 
#    0.000    4.167    0.000    1.500    0.000    0.000 
#    0.000    0.000    0.000    0.000    0.000    0.000 
#
# Total GULP energy -133978.164813 kJ/mol
# GULP energy per Si atom -5582.423534 kJ/mol
# Density = 2.107245 g / cm^3
# Si number density = 21.120526 Si / 1000 Ang^3
#
#
#
# Elastic Constant Matrix: (Units=GPa)
#
#
# Indices 1 2 3 4 5 6 
#
# 1 52.7422 -11.5333 -12.9445 0.0000 0.0000 0.0000
# 2 -11.5333 145.4648 131.8332 0.0000 0.0000 0.0000
# 3 -12.9445 131.8332 177.8688 0.0000 0.0000 0.0000
# 4 0.0000 0.0000 0.0000 34.5659 0.0000 0.0000
# 5 0.0000 0.0000 0.0000 0.0000 35.5385 0.0000
# 6 0.0000 0.0000 0.0000 0.0000 0.0000 -17.1359
#
#
#
# Elastic Compliance Matrix: (Units=1/GPa)
#
#
# Indices 1 2 3 4 5 6 
#
# 1 0.019334 0.000785 0.000825 0.000000 0.000000 0.000000
# 2 0.000785 0.020973 -0.015488 0.000000 0.000000 0.000000
# 3 0.000825 -0.015488 0.017161 0.000000 0.000000 0.000000
# 4 0.000000 0.000000 0.000000 0.028930 0.000000 0.000000
# 5 0.000000 0.000000 0.000000 0.000000 0.028138 0.000000
# 6 0.000000 0.000000 0.000000 0.000000 0.000000 -0.058357
#
#
# Mechanical properties :
#
#
# Convention : Reuss Voigt Hill
#
# Bulk Modulus (GPa) = 33.65427 65.64296 49.64861
# Shear Modulus (GPa) = 53.28190 28.50841 40.89516
#
# Velocity S-wave (km/s) = 5.02815 3.67794 4.40509
# Velocity P-wave (km/s) = 7.04831 7.01313 7.03074
#
# Compressibility (1/GPa) = 0.02971391
#
# Stress axis : x y z
#
# Youngs Moduli (GPa) = 51.72141 47.67981 58.26998
#
# Poissons Ratio (x) = -0.03743 -0.04808
# Poissons Ratio (y) = -0.04061 0.90248
# Poissons Ratio (z) = -0.04268 0.73846
#
# Static dielectric constant tensor:
#      x y z
#    x 1.789700 0.000000 0.000000 
#    y 0.000000 1.729030 0.000000 
#    z 0.000000 0.000000 1.720850 
# 
# From -- ./inp_files/16683.got.cif
#   From: 2010.05.17/outbox.cif.g08.bks.cpg/sg38_9_cif.got.tgz:16683.got - 2010.06.03 18:07:57.
