data_PCOD9357317
_publ_section_title
;
Structure prediction by ZEFSAII (Michael W. Deem and Ramdas Pophale) SiO2 
 PCOD9357317
Probable space group: A M M 2
;
_chemical_formula_sum "Si O2"
_cell_formula_units_Z 64
_cell_length_a 9.289142
_cell_length_b 29.050666
_cell_length_c 13.106651
_cell_angle_alpha 90.000000
_cell_angle_beta 90.000000
_cell_angle_gamma 90.000000
_cell_volume 3536.905289
_symmetry_space_group_name_H-M "A M M 2"
_symmetry_group_IT_number 38
_symmetry_cell_setting 'orthorhombic'
loop_
_space_group_symop_operation_xyz
x,y,z
-x,-y,z
-x,y,z
x,-y,z
x,1/2+y,1/2+z
-x,1/2-y,1/2+z
-x,1/2+y,1/2+z
x,1/2-y,1/2+z
loop_
_atom_site_type_symbol
_atom_site_label
_atom_site_fract_x
_atom_site_fract_y
_atom_site_fract_z
Si Si1 0.831420 0.254532 0.266750
Si Si2 0.328744 0.555081 0.696337
Si Si3 0.329291 0.614927 0.065386
Si Si4 0.659544 0.780996 0.084932
Si Si5 0.832213 0.944662 0.403831
Si Si6 0.339631 0.202389 0.422292
Si Si7 0.325289 0.352021 0.291491
Si Si8 0.669843 0.115268 0.008771
O O1 0.783013 0.239463 0.154702
O O2 0.776061 0.212409 0.336453
O O3 0.747839 0.301897 0.291358
O O4 0.000000 0.261677 0.277481
O O5 0.500000 0.564841 0.707490
O O6 0.311865 0.500000 0.686312
O O7 0.249118 0.570310 0.799942
O O8 0.272779 0.580090 0.593890
O O9 0.500000 0.604453 0.061331
O O10 0.291259 0.623537 0.183657
O O11 0.241059 0.577176 0.003207
O O12 0.306711 0.662196 0.002226
O O13 0.500000 0.776089 0.134436
O O14 0.654340 0.749714 0.985147
O O15 0.682080 0.833681 0.055704
O O16 0.000000 0.932021 0.398565
O O17 0.821245 0.000000 0.408509
O O18 0.500000 0.193076 0.379844
O O19 0.500000 0.346070 0.296020
O O20 0.277222 0.380366 0.392061
O O21 0.500000 0.104175 0.999436
#
# Coordination Sequence:
#
# PCOD9357317 Si02
#       8
#     8   8   8   8   8   8   8   8
#     4  12  24  34  48  76 114 148 183 231 282 324
#     4   9  18  35  59  87 114 138 175 227 278 327
#     4  10  21  36  59  85 108 141 188 234 275 324
#     4  10  19  35  56  75 103 147 193 228 263 321
#     4  10  22  40  60  82 112 147 179 219 277 337
#     4  10  20  36  56  76 103 146 191 227 268 322
#     4  10  19  38  59  78 108 148 192 225 269 332
#     4   9  18  33  58  84 106 141 183 224 270 323
#
# _framework density 18.094913999999999
#
# number of rings (size 3 to 8) (size 9 to 14) (size 15 to 20)
#    0.000    2.000    2.500    1.500    1.750    2.250 
#    0.000    1.250    0.000    2.250    0.000    1.750 
#    0.000    0.000    0.000    0.000    0.000    0.000 
#
# Total GULP energy -178439.647036 kJ/mol
# GULP energy per Si atom -5576.238970 kJ/mol
# Density = 1.805373 g / cm^3
# Si number density = 18.094914 Si / 1000 Ang^3
#
#
#
# Elastic Constant Matrix: (Units=GPa)
#
#
# Indices 1 2 3 4 5 6 
#
# 1 57.8667 27.7019 50.1991 0.0000 0.0000 0.0000
# 2 27.7019 29.7262 25.7274 0.0000 0.0000 0.0000
# 3 50.1991 25.7274 113.9711 0.0000 0.0000 0.0000
# 4 0.0000 0.0000 0.0000 28.5198 0.0000 0.0000
# 5 0.0000 0.0000 0.0000 0.0000 -28.8948 0.0000
# 6 0.0000 0.0000 0.0000 0.0000 0.0000 16.7105
#
#
#
# Elastic Compliance Matrix: (Units=1/GPa)
#
#
# Indices 1 2 3 4 5 6 
#
# 1 0.040729 -0.027876 -0.011647 0.000000 0.000000 0.000000
# 2 -0.027876 0.060887 -0.001466 0.000000 0.000000 0.000000
# 3 -0.011647 -0.001466 0.014235 0.000000 0.000000 0.000000
# 4 0.000000 0.000000 0.000000 0.035063 0.000000 0.000000
# 5 0.000000 0.000000 0.000000 0.000000 -0.034608 0.000000
# 6 0.000000 0.000000 0.000000 0.000000 0.000000 0.059843
#
#
# Mechanical properties :
#
#
# Convention : Reuss Voigt Hill
#
# Bulk Modulus (GPa) = 29.52165 45.42455 37.47310
# Shear Modulus (GPa) = 18.55855 9.79614 14.17735
#
# Velocity S-wave (km/s) = 3.20601 2.32927 2.80214
# Velocity P-wave (km/s) = 5.48224 5.69140 5.58780
#
# Compressibility (1/GPa) = 0.03387344
#
# Stress axis : x y z
#
# Youngs Moduli (GPa) = 24.55240 16.42391 70.24896
#
# Poissons Ratio (x) = 0.45783 0.81818
# Poissons Ratio (y) = 0.68441 0.10302
# Poissons Ratio (z) = 0.28596 0.02409
#
# Static dielectric constant tensor:
#      x y z
#    x 1.617210 0.000000 0.000000 
#    y 0.000000 1.607230 0.000000 
#    z 0.000000 0.000000 1.645610 
# 
# From -- ./inp_files/8589.got.cif
#   From: 2010.05.17/outbox.cif.g08.bks.cpg/sg38_5_cif.got.tgz:8589.got - 2010.06.03 18:07:57.
