data_PCOD9357370
_publ_section_title
;
Structure prediction by ZEFSAII (Michael W. Deem and Ramdas Pophale) SiO2 
 PCOD9357370
Probable space group: A M M 2
;
_chemical_formula_sum "Si O2"
_cell_formula_units_Z 64
_cell_length_a 7.624280
_cell_length_b 32.231338
_cell_length_c 11.971358
_cell_angle_alpha 90.000000
_cell_angle_beta 90.000000
_cell_angle_gamma 90.000000
_cell_volume 2941.850442
_symmetry_space_group_name_H-M "A M M 2"
_symmetry_group_IT_number 38
_symmetry_cell_setting 'orthorhombic'
loop_
_space_group_symop_operation_xyz
x,y,z
-x,-y,z
-x,y,z
x,-y,z
x,1/2+y,1/2+z
-x,1/2-y,1/2+z
-x,1/2+y,1/2+z
x,1/2-y,1/2+z
loop_
_atom_site_type_symbol
_atom_site_label
_atom_site_fract_x
_atom_site_fract_y
_atom_site_fract_z
Si Si1 0.288792 0.331585 0.504770
Si Si2 0.205409 0.197615 0.757381
Si Si3 0.714316 0.453534 0.261803
Si Si4 0.297265 0.378902 0.105418
Si Si5 0.205647 0.544663 0.752080
Si Si6 0.287813 0.427829 0.509975
Si Si7 0.795923 0.289947 0.733516
Si Si8 0.796777 0.370701 0.853462
O O1 0.500000 0.329729 0.507136
O O2 0.225820 0.315972 0.385239
O O3 0.237006 0.379577 0.519549
O O4 0.216265 0.304595 0.605988
O O5 0.288594 0.162487 0.679750
O O6 0.280652 0.243965 0.745023
O O7 0.000000 0.198364 0.726578
O O8 0.500000 0.451876 0.262653
O O9 0.766404 0.500000 0.228388
O O10 0.774487 0.417158 0.179105
O O11 0.769661 0.444664 0.389432
O O12 0.500000 0.388233 0.080613
O O13 0.208190 0.372308 0.986605
O O14 0.282014 0.500000 0.786394
O O15 0.219420 0.548875 0.618514
O O16 0.282805 0.586780 0.804391
O O17 0.000000 0.543929 0.783243
O O18 0.500000 0.430413 0.512688
O O19 0.718001 0.327897 0.805883
O O20 0.000000 0.285641 0.768119
O O21 0.000000 0.370237 0.814941
#
# Coordination Sequence:
#
# PCOD9357370 Si02
#       8
#     8   8   8   8   8   8   8   8
#     4  11  22  38  63  94 123 150 191 246 299 345
#     4  11  24  41  63  88 119 159 201 238 287 356
#     4   9  18  35  58  83 115 153 190 235 292 352
#     4  11  23  40  60  87 119 153 198 249 298 346
#     4  10  21  37  59  87 118 153 195 243 292 345
#     4  10  19  35  59  87 120 153 189 235 292 353
#     4  10  23  42  63  86 115 158 202 237 286 356
#     4  10  22  41  60  82 116 157 197 242 294 351
#
# _framework density 21.755015
#
# number of rings (size 3 to 8) (size 9 to 14) (size 15 to 20)
#    0.000    1.750    2.500    1.500    1.750    3.750 
#    0.000    0.000    0.000    1.875    0.000    0.000 
#    0.000    0.000    0.000    0.000    0.000    0.000 
#
# Total GULP energy -178817.855306 kJ/mol
# GULP energy per Si atom -5588.057978 kJ/mol
# Density = 2.170550 g / cm^3
# Si number density = 21.755015 Si / 1000 Ang^3
#
#
#
# Elastic Constant Matrix: (Units=GPa)
#
#
# Indices 1 2 3 4 5 6 
#
# 1 46.7552 -0.4469 -18.8552 0.0000 0.0000 0.0000
# 2 -0.4469 195.9876 55.0676 0.0000 0.0000 0.0000
# 3 -18.8552 55.0676 104.2826 0.0000 0.0000 0.0000
# 4 0.0000 0.0000 0.0000 91.3631 0.0000 0.0000
# 5 0.0000 0.0000 0.0000 0.0000 30.4874 0.0000
# 6 0.0000 0.0000 0.0000 0.0000 0.0000 7.5978
#
#
#
# Elastic Compliance Matrix: (Units=1/GPa)
#
#
# Indices 1 2 3 4 5 6 
#
# 1 0.023362 -0.001331 0.004927 0.000000 0.000000 0.000000
# 2 -0.001331 0.006067 -0.003444 0.000000 0.000000 0.000000
# 3 0.004927 -0.003444 0.012299 0.000000 0.000000 0.000000
# 4 0.000000 0.000000 0.000000 0.010945 0.000000 0.000000
# 5 0.000000 0.000000 0.000000 0.000000 0.032800 0.000000
# 6 0.000000 0.000000 0.000000 0.000000 0.000000 0.131617
#
#
# Mechanical properties :
#
#
# Convention : Reuss Voigt Hill
#
# Bulk Modulus (GPa) = 23.79186 46.50626 35.14906
# Shear Modulus (GPa) = 21.66387 46.64031 34.15209
#
# Velocity S-wave (km/s) = 3.15907 4.63524 3.96643
# Velocity P-wave (km/s) = 4.92608 7.07608 6.09661
#
# Compressibility (1/GPa) = 0.04203119
#
# Stress axis : x y z
#
# Youngs Moduli (GPa) = 42.80422 164.82213 81.30694
#
# Poissons Ratio (x) = 0.21939 -0.40060
# Poissons Ratio (y) = 0.05698 0.28006
# Poissons Ratio (z) = -0.21090 0.56773
#
# Static dielectric constant tensor:
#      x y z
#    x 1.828650 0.000000 0.000000 
#    y 0.000000 1.807100 0.000000 
#    z 0.000000 0.000000 1.722310 
# 
# From -- ./inp_files/8552.got.cif
#   From: 2010.05.17/outbox.cif.g08.bks.cpg/sg38_5_cif.got.tgz:8552.got - 2010.06.03 18:07:57.
