data_PCOD9357065
_publ_section_title
;
Structure prediction by ZEFSAII (Michael W. Deem and Ramdas Pophale) SiO2 
 PCOD9357065
Probable space group: A M M 2
;
_chemical_formula_sum "Si O2"
_cell_formula_units_Z 64
_cell_length_a 7.848468
_cell_length_b 26.151788
_cell_length_c 15.394288
_cell_angle_alpha 90.000000
_cell_angle_beta 90.000000
_cell_angle_gamma 90.000000
_cell_volume 3159.700261
_symmetry_space_group_name_H-M "A M M 2"
_symmetry_group_IT_number 38
_symmetry_cell_setting 'orthorhombic'
loop_
_space_group_symop_operation_xyz
x,y,z
-x,-y,z
-x,y,z
x,-y,z
x,1/2+y,1/2+z
-x,1/2-y,1/2+z
-x,1/2+y,1/2+z
x,1/2-y,1/2+z
loop_
_atom_site_type_symbol
_atom_site_label
_atom_site_fract_x
_atom_site_fract_y
_atom_site_fract_z
Si Si1 0.705629 0.237201 0.176580
Si Si2 0.703880 0.862909 0.080479
Si Si3 0.291441 0.441320 0.725913
Si Si4 0.293651 0.107734 0.409511
Si Si5 0.204783 0.849468 0.703763
Si Si6 0.295052 0.219948 0.375487
Si Si7 0.203614 0.942966 0.588806
Si Si8 0.798416 0.167435 0.898960
O O1 0.500000 0.236204 0.175659
O O2 0.769229 0.191979 0.115027
O O3 0.757021 0.295316 0.157984
O O4 0.762357 0.224084 0.275004
O O5 0.500000 0.861936 0.090472
O O6 0.766804 0.907388 0.144290
O O7 0.740299 0.867107 0.978825
O O8 0.500000 0.441292 0.725584
O O9 0.235732 0.500000 0.721394
O O10 0.239876 0.415312 0.816735
O O11 0.500000 0.107671 0.410471
O O12 0.234090 0.166703 0.415742
O O13 0.234126 0.074298 0.490078
O O14 0.271944 0.898162 0.651226
O O15 0.271937 0.845691 0.802992
O O16 0.000000 0.853583 0.708052
O O17 0.500000 0.217817 0.374842
O O18 0.246367 0.273427 0.418377
O O19 0.000000 0.944990 0.602154
O O20 0.272459 0.000000 0.604245
O O21 0.000000 0.163631 0.893402
#
# Coordination Sequence:
#
# PCOD9357065 Si02
#       8
#     8   8   8   8   8   8   8   8
#     4   9  17  31  52  77 105 136 170 209 256 312
#     4  10  19  33  53  79 109 141 177 216 260 313
#     4   9  17  32  55  80 108 143 179 214 257 313
#     4  10  19  33  55  83 110 138 173 214 259 313
#     4   9  20  38  55  73 101 137 179 220 263 313
#     4   9  17  32  52  77 109 141 172 207 256 315
#     4  10  22  39  56  75 103 140 180 221 267 317
#     4  10  21  35  52  76 107 141 179 222 265 312
#
# _framework density 20.255087
#
# number of rings (size 3 to 8) (size 9 to 14) (size 15 to 20)
#    0.000    2.500    1.250    0.750    1.750    2.750 
#    0.000    1.250    0.000    1.875    0.000    0.000 
#    0.000    0.000    0.000    0.000    0.000    0.000 
#
# Total GULP energy -178588.954115 kJ/mol
# GULP energy per Si atom -5580.904816 kJ/mol
# Density = 2.020899 g / cm^3
# Si number density = 20.255087 Si / 1000 Ang^3
#
#
#
# Elastic Constant Matrix: (Units=GPa)
#
#
# Indices 1 2 3 4 5 6 
#
# 1 18.5812 10.5823 -1.5681 0.0000 0.0000 0.0000
# 2 10.5823 153.2450 68.1013 0.0000 0.0000 0.0000
# 3 -1.5681 68.1013 78.6169 0.0000 0.0000 0.0000
# 4 0.0000 0.0000 0.0000 29.1600 0.0000 0.0000
# 5 0.0000 0.0000 0.0000 0.0000 18.6971 0.0000
# 6 0.0000 0.0000 0.0000 0.0000 0.0000 20.3419
#
#
#
# Elastic Compliance Matrix: (Units=1/GPa)
#
#
# Indices 1 2 3 4 5 6 
#
# 1 0.058695 -0.007436 0.007612 0.000000 0.000000 0.000000
# 2 -0.007436 0.011552 -0.010155 0.000000 0.000000 0.000000
# 3 0.007612 -0.010155 0.021668 0.000000 0.000000 0.000000
# 4 0.000000 0.000000 0.000000 0.034294 0.000000 0.000000
# 5 0.000000 0.000000 0.000000 0.000000 0.053484 0.000000
# 6 0.000000 0.000000 0.000000 0.000000 0.000000 0.049160
#
#
# Mechanical properties :
#
#
# Convention : Reuss Voigt Hill
#
# Bulk Modulus (GPa) = 13.89703 44.96377 29.43040
# Shear Modulus (GPa) = 18.32867 25.19497 21.76182
#
# Velocity S-wave (km/s) = 3.01141 3.53070 3.28134
# Velocity P-wave (km/s) = 4.35515 6.23443 5.37752
#
# Compressibility (1/GPa) = 0.07195782
#
# Stress axis : x y z
#
# Youngs Moduli (GPa) = 17.03715 86.56648 46.15011
#
# Poissons Ratio (x) = 0.64371 -0.35130
# Poissons Ratio (y) = 0.12669 0.46865
# Poissons Ratio (z) = -0.12969 0.87908
#
# Static dielectric constant tensor:
#      x y z
#    x 1.742790 0.000000 0.000000 
#    y 0.000000 1.714510 0.000000 
#    z 0.000000 0.000000 1.734600 
# 
# From -- ./inp_files/12751.got.cif
#   From: 2010.05.17/outbox.cif.g08.bks.cpg/sg38_7_cif.got.tgz:12751.got - 2010.06.03 18:07:57.
