data_PCOD9357968
_publ_section_title
;
Structure prediction by ZEFSAII (Michael W. Deem and Ramdas Pophale) SiO2 
 PCOD9357968
Probable space group: A M M 2
;
_chemical_formula_sum "Si O2"
_cell_formula_units_Z 48
_cell_length_a 8.590147
_cell_length_b 8.103264
_cell_length_c 35.060228
_cell_angle_alpha 90.000000
_cell_angle_beta 90.000000
_cell_angle_gamma 90.000000
_cell_volume 2440.480377
_symmetry_space_group_name_H-M "A M M 2"
_symmetry_group_IT_number 38
_symmetry_cell_setting 'orthorhombic'
loop_
_space_group_symop_operation_xyz
x,y,z
-x,-y,z
-x,y,z
x,-y,z
x,1/2+y,1/2+z
-x,1/2-y,1/2+z
-x,1/2+y,1/2+z
x,1/2-y,1/2+z
loop_
_atom_site_type_symbol
_atom_site_label
_atom_site_fract_x
_atom_site_fract_y
_atom_site_fract_z
Si Si1 0.689009 0.500000 0.625000
Si Si2 0.189061 0.000000 0.210696
Si Si3 0.317954 0.698799 0.418411
Si Si4 0.187112 0.180658 0.757897
Si Si5 0.684869 0.306190 0.835668
Si Si6 0.815176 0.805596 0.999036
Si Si7 0.312804 0.318603 0.077365
O O1 0.500000 0.500000 0.625251
O O2 0.750340 0.500000 0.667813
O O3 0.742893 0.335816 0.602560
O O4 0.243313 0.835675 0.233012
O O5 0.000000 0.000000 0.210611
O O6 0.500000 0.744785 0.421587
O O7 0.307801 0.500000 0.416435
O O8 0.257007 0.766626 0.378242
O O9 0.233847 0.753198 0.457005
O O10 0.235218 0.208260 0.801669
O O11 0.000000 0.181833 0.755827
O O12 0.242911 0.000000 0.744887
O O13 0.500000 0.268191 0.835272
O O14 0.705473 0.500000 0.828212
O O15 0.735525 0.711811 0.033733
O O16 0.000000 0.794024 0.003045
O O17 0.770096 0.000000 0.001848
O O18 0.500000 0.317764 0.079350
O O19 0.257189 0.500000 0.089955
#
# Coordination Sequence:
#
# PCOD9357968 Si02
#       7
#     4   4   8   8   8   8   8
#     4  10  22  40  62  88 118 148 186 236 286 340
#     4  10  22  40  60  86 118 150 188 232 284 346
#     4   9  18  32  50  74 109 153 196 238 285 337
#     4  10  21  38  60  84 113 152 192 231 281 341
#     4  10  20  34  54  81 113 149 192 239 287 337
#     4  10  20  34  54  81 114 151 192 237 286 337
#     4  10  21  38  61  86 113 150 191 231 282 342
#
# _framework density 19.668257000000001
#
# number of rings (size 3 to 8) (size 9 to 14) (size 15 to 20)
#    0.000    2.167    1.667    1.000    0.000    5.333 
#    0.000    3.333    0.000    0.000    0.000    0.000 
#    0.000    0.000    0.000    0.000    0.000    0.000 
#
# Total GULP energy -133984.743534 kJ/mol
# GULP energy per Si atom -5582.697647 kJ/mol
# Density = 1.962349 g / cm^3
# Si number density = 19.668257 Si / 1000 Ang^3
#
#
#
# Elastic Constant Matrix: (Units=GPa)
#
#
# Indices 1 2 3 4 5 6 
#
# 1 -5.1499 24.8692 2.9656 0.0000 0.0000 0.0000
# 2 24.8692 135.4776 82.1525 0.0000 0.0000 0.0000
# 3 2.9656 82.1525 129.6142 0.0000 0.0000 0.0000
# 4 0.0000 0.0000 0.0000 20.8115 0.0000 0.0000
# 5 0.0000 0.0000 0.0000 0.0000 48.6008 0.0000
# 6 0.0000 0.0000 0.0000 0.0000 0.0000 12.1442
#
#
#
# Elastic Compliance Matrix: (Units=1/GPa)
#
#
# Indices 1 2 3 4 5 6 
#
# 1 -0.086548 0.023855 -0.013140 0.000000 0.000000 0.000000
# 2 0.023855 0.005414 -0.003977 0.000000 0.000000 0.000000
# 3 -0.013140 -0.003977 0.010537 0.000000 0.000000 0.000000
# 4 0.000000 0.000000 0.000000 0.048050 0.000000 0.000000
# 5 0.000000 0.000000 0.000000 0.000000 0.020576 0.000000
# 6 0.000000 0.000000 0.000000 0.000000 0.000000 0.082344
#
#
# Mechanical properties :
#
#
# Convention : Reuss Voigt Hill
#
# Bulk Modulus (GPa) = -17.50678 53.32405 17.90864
# Shear Modulus (GPa) = 104.47761 26.30827 65.39294
#
# Velocity S-wave (km/s) = 7.29625 3.66129 5.77236
# Velocity P-wave (km/s) = 7.87781 6.71148 7.31792
#
# Compressibility (1/GPa) = -0.05712072
#
# Stress axis : x y z
#
# Youngs Moduli (GPa) = -11.55433 184.70070 94.90523
#
# Poissons Ratio (x) = -4.40605 1.24702
# Poissons Ratio (y) = 0.27563 0.37748
# Poissons Ratio (z) = -0.15182 0.73463
#
# Static dielectric constant tensor:
#      x y z
#    x 1.668210 0.000000 0.000000 
#    y 0.000000 1.729170 0.000000 
#    z 0.000000 0.000000 1.656520 
# 
# From -- ./inp_files/24336.got.cif
#   From: 2010.05.17/outbox.cif.g08.bks.cpg/sg38_13_cif.got.tgz:24336.got - 2010.06.03 18:07:57.
