data_PCOD9357728
_publ_section_title
;
Structure prediction by ZEFSAII (Michael W. Deem and Ramdas Pophale) SiO2 
 PCOD9357728
Probable space group: A M M 2
;
_chemical_formula_sum "Si O2"
_cell_formula_units_Z 48
_cell_length_a 7.966354
_cell_length_b 32.810310
_cell_length_c 9.376114
_cell_angle_alpha 90.000000
_cell_angle_beta 90.000000
_cell_angle_gamma 90.000000
_cell_volume 2450.715029
_symmetry_space_group_name_H-M "A M M 2"
_symmetry_group_IT_number 38
_symmetry_cell_setting 'orthorhombic'
loop_
_space_group_symop_operation_xyz
x,y,z
-x,-y,z
-x,y,z
x,-y,z
x,1/2+y,1/2+z
-x,1/2-y,1/2+z
-x,1/2+y,1/2+z
x,1/2-y,1/2+z
loop_
_atom_site_type_symbol
_atom_site_label
_atom_site_fract_x
_atom_site_fract_y
_atom_site_fract_z
Si Si1 0.703201 0.868174 0.895850
Si Si2 0.700028 0.868644 0.567159
Si Si3 0.799885 0.455941 0.088713
Si Si4 0.202562 0.788167 0.069529
Si Si5 0.201100 0.289609 0.892778
Si Si6 0.302770 0.043875 0.917170
O O1 0.500000 0.870291 0.891972
O O2 0.762451 0.864087 0.731263
O O3 0.765725 0.911659 0.958817
O O4 0.753837 0.829358 0.986717
O O5 0.500000 0.866645 0.570885
O O6 0.749966 0.913852 0.514891
O O7 0.763486 0.832019 0.470722
O O8 0.756607 0.500000 0.021638
O O9 0.713957 0.455330 0.244650
O O10 0.000000 0.455185 0.110869
O O11 0.266895 0.788904 0.231434
O O12 0.000000 0.785453 0.074908
O O13 0.266207 0.748573 0.984506
O O14 0.000000 0.285025 0.884914
O O15 0.500000 0.043170 0.953832
O O16 0.228850 0.000000 0.963800
#
# Coordination Sequence:
#
# PCOD9357728 Si02
#       6
#     8   8   8   8   8   8
#     4   9  18  31  49  75 104 133 167 206 248 296
#     4  10  20  33  51  76 104 136 171 207 250 297
#     4   9  16  26  44  72 103 134 168 207 249 291
#     4  10  21  36  55  76  99 130 166 207 256 306
#     4  10  21  37  55  75  98 127 166 209 255 306
#     4   8  14  26  44  68 100 135 170 209 250 292
#
# _framework density 19.586122
#
# number of rings (size 3 to 8) (size 9 to 14) (size 15 to 20)
#    0.000    2.667    0.000    3.000    0.000    7.000 
#    0.000    0.000    0.000    1.000    0.000    4.667 
#    0.000    0.000    0.000    0.000    0.000    0.000 
#
# Total GULP energy -133738.780840 kJ/mol
# GULP energy per Si atom -5572.449202 kJ/mol
# Density = 1.954154 g / cm^3
# Si number density = 19.586122 Si / 1000 Ang^3
#
#
#
# Elastic Constant Matrix: (Units=GPa)
#
#
# Indices 1 2 3 4 5 6 
#
# 1 15.9222 -1.0543 8.1365 0.0000 0.0000 0.0000
# 2 -1.0543 229.3861 86.8428 0.0000 0.0000 0.0000
# 3 8.1365 86.8428 89.5998 0.0000 0.0000 0.0000
# 4 0.0000 0.0000 0.0000 23.1835 0.0000 0.0000
# 5 0.0000 0.0000 0.0000 0.0000 8.0030 0.0000
# 6 0.0000 0.0000 0.0000 0.0000 0.0000 36.6027
#
#
#
# Elastic Compliance Matrix: (Units=1/GPa)
#
#
# Indices 1 2 3 4 5 6 
#
# 1 0.068339 0.004207 -0.010284 0.000000 0.000000 0.000000
# 2 0.004207 0.007145 -0.007308 0.000000 0.000000 0.000000
# 3 -0.010284 -0.007308 0.019177 0.000000 0.000000 0.000000
# 4 0.000000 0.000000 0.000000 0.043134 0.000000 0.000000
# 5 0.000000 0.000000 0.000000 0.000000 0.124953 0.000000
# 6 0.000000 0.000000 0.000000 0.000000 0.000000 0.027320
#
#
# Mechanical properties :
#
#
# Convention : Reuss Voigt Hill
#
# Bulk Modulus (GPa) = 14.72888 58.08424 36.40656
# Shear Modulus (GPa) = 14.72892 29.62337 22.17615
#
# Velocity S-wave (km/s) = 2.74525 3.89326 3.36852
# Velocity P-wave (km/s) = 4.19344 7.06613 5.81013
#
# Compressibility (1/GPa) = 0.06789381
#
# Stress axis : x y z
#
# Youngs Moduli (GPa) = 14.63294 139.95121 52.14504
#
# Poissons Ratio (x) = -0.58883 0.53624
# Poissons Ratio (y) = -0.06157 0.38105
# Poissons Ratio (z) = 0.15048 1.02270
#
# Static dielectric constant tensor:
#      x y z
#    x 1.766960 0.000000 0.000000 
#    y 0.000000 1.731810 0.000000 
#    z 0.000000 0.000000 1.665630 
# 
# From -- ./inp_files/3763.got.cif
#   From: 2010.05.17/outbox.cif.g08.bks.cpg/sg38_2_cif.got.tgz:3763.got - 2010.06.03 18:07:57.
