data_PCOD9357093
_publ_section_title
;
Structure prediction by ZEFSAII (Michael W. Deem and Ramdas Pophale) SiO2 
 PCOD9357093
Probable space group: A M M 2
;
_chemical_formula_sum "Si O2"
_cell_formula_units_Z 64
_cell_length_a 14.989401
_cell_length_b 8.952032
_cell_length_c 25.387106
_cell_angle_alpha 90.000000
_cell_angle_beta 90.000000
_cell_angle_gamma 90.000000
_cell_volume 3406.583985
_symmetry_space_group_name_H-M "A M M 2"
_symmetry_group_IT_number 38
_symmetry_cell_setting 'orthorhombic'
loop_
_space_group_symop_operation_xyz
x,y,z
-x,-y,z
-x,y,z
x,-y,z
x,1/2+y,1/2+z
-x,1/2-y,1/2+z
-x,1/2+y,1/2+z
x,1/2-y,1/2+z
loop_
_atom_site_type_symbol
_atom_site_label
_atom_site_fract_x
_atom_site_fract_y
_atom_site_fract_z
Si Si1 0.842199 0.670291 0.072950
Si Si2 0.363287 0.172103 0.539253
Si Si3 0.403282 0.679561 0.648747
Si Si4 0.793677 0.679070 0.680145
Si Si5 0.104300 0.180622 0.778718
Si Si6 0.399035 0.679864 0.919227
Si Si7 0.902156 0.824660 0.972059
Si Si8 0.775096 0.819673 0.878830
O O1 0.866381 0.500000 0.085762
O O2 0.742728 0.671757 0.048306
O O3 0.837927 0.767894 0.125477
O O4 0.900401 0.738288 0.026638
O O5 0.399463 0.265991 0.588239
O O6 0.385899 0.226763 0.480616
O O7 0.394317 0.000000 0.543515
O O8 0.500000 0.728229 0.670981
O O9 0.401138 0.500000 0.649409
O O10 0.311015 0.729633 0.676561
O O11 0.795365 0.500000 0.683999
O O12 0.847772 0.751074 0.727810
O O13 0.164401 0.224043 0.829103
O O14 0.000000 0.225560 0.783164
O O15 0.105663 0.000000 0.775345
O O16 0.500000 0.717373 0.903301
O O17 0.389216 0.500000 0.918389
O O18 0.323078 0.751588 0.883181
O O19 0.828020 0.771235 0.931356
O O20 0.000000 0.812182 0.946850
O O21 0.886009 0.000000 0.982896
O O22 0.769677 0.000000 0.879196
#
# Coordination Sequence:
#
# PCOD9357093 Si02
#       8
#     8   8   8   8   8   8   8   8
#     4  10  19  33  54  80 113 151 186 226 275 329
#     4   9  17  30  49  75 110 150 188 224 264 317
#     4   9  18  32  51  78 112 148 185 224 268 322
#     4  10  21  37  58  84 114 146 185 233 281 332
#     4  10  22  42  65  85 106 139 186 238 290 341
#     4  10  20  34  53  80 116 154 189 227 275 329
#     4  10  20  34  54  81 112 146 182 224 281 343
#     4  10  21  38  60  83 111 144 185 236 284 333
#
# _framework density 18.78715
#
# number of rings (size 3 to 8) (size 9 to 14) (size 15 to 20)
#    0.000    2.250    1.250    1.500    0.000    5.500 
#    0.000    0.625    0.000    4.500    0.000    0.000 
#    0.000    0.000    0.000    0.000    0.000    0.000 
#
# Total GULP energy -178481.611999 kJ/mol
# GULP energy per Si atom -5577.550375 kJ/mol
# Density = 1.874439 g / cm^3
# Si number density = 18.787150 Si / 1000 Ang^3
#
#
#
# Elastic Constant Matrix: (Units=GPa)
#
#
# Indices 1 2 3 4 5 6 
#
# 1 144.1222 34.0556 75.0458 0.0000 0.0000 0.0000
# 2 34.0556 19.0288 25.2639 0.0000 0.0000 0.0000
# 3 75.0458 25.2639 104.1495 0.0000 0.0000 0.0000
# 4 0.0000 0.0000 0.0000 27.5292 0.0000 0.0000
# 5 0.0000 0.0000 0.0000 0.0000 17.4597 0.0000
# 6 0.0000 0.0000 0.0000 0.0000 0.0000 18.8675
#
#
#
# Elastic Compliance Matrix: (Units=1/GPa)
#
#
# Indices 1 2 3 4 5 6 
#
# 1 0.014170 -0.017412 -0.005987 0.000000 0.000000 0.000000
# 2 -0.017412 0.098912 -0.011447 0.000000 0.000000 0.000000
# 3 -0.005987 -0.011447 0.016692 0.000000 0.000000 0.000000
# 4 0.000000 0.000000 0.000000 0.036325 0.000000 0.000000
# 5 0.000000 0.000000 0.000000 0.000000 0.057275 0.000000
# 6 0.000000 0.000000 0.000000 0.000000 0.000000 0.053001
#
#
# Mechanical properties :
#
#
# Convention : Reuss Voigt Hill
#
# Bulk Modulus (GPa) = 16.64379 59.55904 38.10141
# Shear Modulus (GPa) = 13.65767 21.63362 17.64565
#
# Velocity S-wave (km/s) = 2.69916 3.39707 3.06803
# Velocity P-wave (km/s) = 4.31188 6.86714 5.73367
#
# Compressibility (1/GPa) = 0.06008247
#
# Stress axis : x y z
#
# Youngs Moduli (GPa) = 70.56970 10.11003 59.90795
#
# Poissons Ratio (x) = 0.17604 0.35866
# Poissons Ratio (y) = 1.22875 0.68577
# Poissons Ratio (z) = 0.42250 0.11573
#
# Static dielectric constant tensor:
#      x y z
#    x 1.698040 0.000000 0.000000 
#    y 0.000000 1.637970 0.000000 
#    z 0.000000 0.000000 1.619740 
# 
# From -- ./inp_files/22964.got.cif
#   From: 2010.05.17/outbox.cif.g08.bks.cpg/sg38_12_cif.got.tgz:22964.got - 2010.06.03 18:07:57.
