data_PCOD9357146
_publ_section_title
;
Structure prediction by ZEFSAII (Michael W. Deem and Ramdas Pophale) SiO2 
 PCOD9357146
Probable space group: A M M 2
;
_chemical_formula_sum "Si O2"
_cell_formula_units_Z 48
_cell_length_a 7.566436
_cell_length_b 20.797765
_cell_length_c 15.193441
_cell_angle_alpha 90.000000
_cell_angle_beta 90.000000
_cell_angle_gamma 90.000000
_cell_volume 2390.915202
_symmetry_space_group_name_H-M "A M M 2"
_symmetry_group_IT_number 38
_symmetry_cell_setting 'orthorhombic'
loop_
_space_group_symop_operation_xyz
x,y,z
-x,-y,z
-x,y,z
x,-y,z
x,1/2+y,1/2+z
-x,1/2-y,1/2+z
-x,1/2+y,1/2+z
x,1/2-y,1/2+z
loop_
_atom_site_type_symbol
_atom_site_label
_atom_site_fract_x
_atom_site_fract_y
_atom_site_fract_z
Si Si1 0.782867 0.189709 0.866610
Si Si2 0.787112 0.927463 0.745148
Si Si3 0.287114 0.072498 0.380654
Si Si4 0.709621 0.138687 0.560289
Si Si5 0.789180 0.312166 0.752546
Si Si6 0.796436 0.713612 0.561805
O O1 0.726780 0.125494 0.815730
O O2 0.723457 0.252326 0.811438
O O3 0.000000 0.191372 0.867762
O O4 0.719942 0.194079 0.967262
O O5 0.741439 0.902021 0.648043
O O6 0.000000 0.929003 0.750744
O O7 0.721312 0.000000 0.758793
O O8 0.500000 0.069793 0.385655
O O9 0.224517 0.101797 0.473619
O O10 0.240948 0.121963 0.303865
O O11 0.221849 0.000000 0.367371
O O12 0.500000 0.148871 0.550797
O O13 0.793523 0.208974 0.567195
O O14 0.716003 0.310952 0.653386
O O15 0.000000 0.302089 0.744909
O O16 0.000000 0.691340 0.559743
#
# Coordination Sequence:
#
# PCOD9357146 Si02
#       6
#     8   8   8   8   8   8
#     4   9  17  32  54  79 108 138 171 215 260 305
#     4  10  20  35  55  79 108 143 178 211 259 319
#     4  10  22  38  53  74 109 145 175 214 266 318
#     4  11  21  33  53  80 110 138 172 218 267 315
#     4  10  19  33  56  80 105 137 177 221 259 307
#     4  10  19  34  55  80 110 138 172 218 266 308
#
# _framework density 20.075994999999999
#
# number of rings (size 3 to 8) (size 9 to 14) (size 15 to 20)
#    0.000    2.000    3.333    1.000    0.000    2.667 
#    0.000    1.667    0.000    3.000    0.000    0.000 
#    0.000    0.000    0.000    0.000    0.000    0.000 
#
# Total GULP energy -134039.515118 kJ/mol
# GULP energy per Si atom -5584.979797 kJ/mol
# Density = 2.003030 g / cm^3
# Si number density = 20.075995 Si / 1000 Ang^3
#
#
#
# Elastic Constant Matrix: (Units=GPa)
#
#
# Indices 1 2 3 4 5 6 
#
# 1 47.2997 -10.3896 3.1748 0.0000 0.0000 0.0000
# 2 -10.3896 137.7322 103.5656 0.0000 0.0000 0.0000
# 3 3.1748 103.5656 215.9508 0.0000 0.0000 0.0000
# 4 0.0000 0.0000 0.0000 9.9688 0.0000 0.0000
# 5 0.0000 0.0000 0.0000 0.0000 8.3930 0.0000
# 6 0.0000 0.0000 0.0000 0.0000 0.0000 8.8407
#
#
#
# Elastic Compliance Matrix: (Units=1/GPa)
#
#
# Indices 1 2 3 4 5 6 
#
# 1 0.021910 0.002964 -0.001743 0.000000 0.000000 0.000000
# 2 0.002964 0.011756 -0.005682 0.000000 0.000000 0.000000
# 3 -0.001743 -0.005682 0.007381 0.000000 0.000000 0.000000
# 4 0.000000 0.000000 0.000000 0.100313 0.000000 0.000000
# 5 0.000000 0.000000 0.000000 0.000000 0.119147 0.000000
# 6 0.000000 0.000000 0.000000 0.000000 0.000000 0.113114
#
#
# Mechanical properties :
#
#
# Convention : Reuss Voigt Hill
#
# Bulk Modulus (GPa) = 31.12900 65.96492 48.54696
# Shear Modulus (GPa) = 12.71450 25.74929 19.23190
#
# Velocity S-wave (km/s) = 2.51931 3.58521 3.09844
# Velocity P-wave (km/s) = 4.89917 7.07582 6.08560
#
# Compressibility (1/GPa) = 0.03212438
#
# Stress axis : x y z
#
# Youngs Moduli (GPa) = 45.64171 85.06130 135.48112
#
# Poissons Ratio (x) = -0.25209 0.23620
# Poissons Ratio (y) = -0.13527 0.76975
# Poissons Ratio (z) = 0.07957 0.48329
#
# Static dielectric constant tensor:
#      x y z
#    x 1.761870 0.000000 0.000000 
#    y 0.000000 1.670220 0.000000 
#    z 0.000000 0.000000 1.707010 
# 
# From -- ./inp_files/12014.got.cif
#   From: 2010.05.17/outbox.cif.g08.bks.cpg/sg38_7_cif.got.tgz:12014.got - 2010.06.03 18:07:57.
