data_PCOD9357706
_publ_section_title
;
Structure prediction by ZEFSAII (Michael W. Deem and Ramdas Pophale) SiO2 
 PCOD9357706
Probable space group: A M M 2
;
_chemical_formula_sum "Si O2"
_cell_formula_units_Z 52
_cell_length_a 14.713228
_cell_length_b 24.846117
_cell_length_c 8.559826
_cell_angle_alpha 90.000000
_cell_angle_beta 90.000000
_cell_angle_gamma 90.000000
_cell_volume 3129.186353
_symmetry_space_group_name_H-M "A M M 2"
_symmetry_group_IT_number 38
_symmetry_cell_setting 'orthorhombic'
loop_
_space_group_symop_operation_xyz
x,y,z
-x,-y,z
-x,y,z
x,-y,z
x,1/2+y,1/2+z
-x,1/2-y,1/2+z
-x,1/2+y,1/2+z
x,1/2-y,1/2+z
loop_
_atom_site_type_symbol
_atom_site_label
_atom_site_fract_x
_atom_site_fract_y
_atom_site_fract_z
Si Si1 0.109051 0.304639 0.862490
Si Si2 0.393521 0.437781 0.146151
Si Si3 0.889822 0.314169 0.497149
Si Si4 0.737593 0.000000 0.067141
Si Si5 0.768146 0.095685 0.830333
Si Si6 0.894868 0.594135 0.054058
Si Si7 0.608589 0.500000 0.853209
Si Si8 0.099063 0.000000 0.303626
O O1 0.134508 0.313448 0.681634
O O2 0.000000 0.311255 0.863836
O O3 0.126737 0.244806 0.924117
O O4 0.142717 0.349881 0.983513
O O5 0.500000 0.423477 0.154633
O O6 0.385344 0.500000 0.210494
O O7 0.326815 0.397929 0.236223
O O8 0.366601 0.448889 0.964458
O O9 0.824856 0.355660 0.406664
O O10 0.000000 0.325476 0.482234
O O11 0.653609 0.000000 0.186096
O O12 0.824500 0.000000 0.177546
O O13 0.744417 0.947316 0.961942
O O14 0.835794 0.073483 0.697271
O O15 0.000000 0.601450 0.103745
O O16 0.893720 0.551569 0.914593
O O17 0.500000 0.500000 0.842829
O O18 0.000000 0.000000 0.227605
#
# Coordination Sequence:
#
# PCOD9357706 Si02
#       8
#     8   8   8   4   8   8   4   4
#     4   9  18  35  54  71  99 139 185 229 259 288
#     4   8  17  36  55  71  96 133 172 210 256 308
#     4  10  20  33  50  75 103 136 181 226 261 299
#     4  12  22  30  44  72 106 134 166 204 260 312
#     4  12  21  30  49  77 105 135 167 212 261 314
#     4  10  20  34  50  69 100 143 179 212 254 305
#     4   8  17  35  57  73  93 132 174 214 258 306
#     4  10  21  33  45  65 101 144 176 204 246 302
#
# _framework density 16.617737000000002
#
# number of rings (size 3 to 8) (size 9 to 14) (size 15 to 20)
#    0.462    1.692    0.769    3.692    0.000    5.538 
#    0.000    0.000    0.000    0.000    0.000    4.308 
#    0.000    0.000    0.000    0.000    0.000    0.000 
#
# Total GULP energy -144795.403755 kJ/mol
# GULP energy per Si atom -5569.053991 kJ/mol
# Density = 1.657991 g / cm^3
# Si number density = 16.617737 Si / 1000 Ang^3
#
#
#
# Elastic Constant Matrix: (Units=GPa)
#
#
# Indices 1 2 3 4 5 6 
#
# 1 63.6202 24.1005 44.2198 0.0000 0.0000 0.0000
# 2 24.1005 61.8411 22.4270 0.0000 0.0000 0.0000
# 3 44.2198 22.4270 89.9545 0.0000 0.0000 0.0000
# 4 0.0000 0.0000 0.0000 48.8417 0.0000 0.0000
# 5 0.0000 0.0000 0.0000 0.0000 2.6831 0.0000
# 6 0.0000 0.0000 0.0000 0.0000 0.0000 14.7189
#
#
#
# Elastic Compliance Matrix: (Units=1/GPa)
#
#
# Indices 1 2 3 4 5 6 
#
# 1 0.025745 -0.005985 -0.011164 0.000000 0.000000 0.000000
# 2 -0.005985 0.019169 -0.001837 0.000000 0.000000 0.000000
# 3 -0.011164 -0.001837 0.017063 0.000000 0.000000 0.000000
# 4 0.000000 0.000000 0.000000 0.020474 0.000000 0.000000
# 5 0.000000 0.000000 0.000000 0.000000 0.372705 0.000000
# 6 0.000000 0.000000 0.000000 0.000000 0.000000 0.067940
#
#
# Mechanical properties :
#
#
# Convention : Reuss Voigt Hill
#
# Bulk Modulus (GPa) = 41.65696 44.10115 42.87906
# Shear Modulus (GPa) = 8.78630 21.55997 15.17313
#
# Velocity S-wave (km/s) = 2.30191 3.60586 3.02498
# Velocity P-wave (km/s) = 5.67338 6.62816 6.16927
#
# Compressibility (1/GPa) = 0.02400559
#
# Stress axis : x y z
#
# Youngs Moduli (GPa) = 38.84301 52.16739 58.60791
#
# Poissons Ratio (x) = 0.31220 0.65427
# Poissons Ratio (y) = 0.23246 0.10768
# Poissons Ratio (z) = 0.43362 0.09584
#
# Static dielectric constant tensor:
#      x y z
#    x 1.563920 0.000000 0.000000 
#    y 0.000000 1.558560 0.000000 
#    z 0.000000 0.000000 1.594520 
# 
# From -- ./inp_files/5819.got.cif
#   From: 2010.05.17/outbox.cif.g08.bks.cpg/sg38_3_cif.got.tgz:5819.got - 2010.06.03 18:07:57.
