data_PCOD9357374
_publ_section_title
;
Structure prediction by ZEFSAII (Michael W. Deem and Ramdas Pophale) SiO2 
 PCOD9357374
Probable space group: A M M 2
;
_chemical_formula_sum "Si O2"
_cell_formula_units_Z 64
_cell_length_a 18.175558
_cell_length_b 13.764830
_cell_length_c 12.140779
_cell_angle_alpha 90.000000
_cell_angle_beta 90.000000
_cell_angle_gamma 90.000000
_cell_volume 3037.422170
_symmetry_space_group_name_H-M "A M M 2"
_symmetry_group_IT_number 38
_symmetry_cell_setting 'orthorhombic'
loop_
_space_group_symop_operation_xyz
x,y,z
-x,-y,z
-x,y,z
x,-y,z
x,1/2+y,1/2+z
-x,1/2-y,1/2+z
-x,1/2+y,1/2+z
x,1/2-y,1/2+z
loop_
_atom_site_type_symbol
_atom_site_label
_atom_site_fract_x
_atom_site_fract_y
_atom_site_fract_z
Si Si1 0.842127 0.113660 0.505550
Si Si2 0.416825 0.891493 0.591806
Si Si3 0.915194 0.803528 0.940635
Si Si4 0.683634 0.886103 0.909943
Si Si5 0.795856 0.112824 0.105609
Si Si6 0.306854 0.388863 0.887727
Si Si7 0.415675 0.249275 0.796539
Si Si8 0.193410 0.806311 0.742303
O O1 0.905021 0.190767 0.476754
O O2 0.772687 0.145163 0.429463
O O3 0.817887 0.131049 0.631664
O O4 0.858000 0.000000 0.487336
O O5 0.500000 0.885182 0.546601
O O6 0.357691 0.882691 0.496586
O O7 0.409047 0.812410 0.685570
O O8 0.408949 0.000000 0.640788
O O9 0.877377 0.813966 0.821395
O O10 0.000000 0.831510 0.940759
O O11 0.866233 0.864599 0.027315
O O12 0.610532 0.822811 0.894547
O O13 0.739111 0.847461 0.814566
O O14 0.670520 0.000000 0.895542
O O15 0.725684 0.872416 0.025395
O O16 0.796401 0.195815 0.198449
O O17 0.798096 0.000000 0.141508
O O18 0.298884 0.500000 0.855388
O O19 0.355608 0.333675 0.798916
O O20 0.500000 0.280703 0.808680
#
# Coordination Sequence:
#
# PCOD9357374 Si02
#       8
#     8   8   8   8   8   8   8   8
#     4  10  21  37  58  83 108 139 184 233 276 320
#     4   9  18  32  51  78 109 140 179 228 279 329
#     4  10  22  38  55  81 117 147 174 216 271 331
#     4  10  20  36  56  80 111 144 181 229 280 326
#     4   9  20  38  60  84 110 143 184 227 270 323
#     4  10  20  36  58  80 105 142 186 231 278 327
#     4  11  21  32  52  82 112 144 184 228 275 329
#     4  10  19  35  60  84 108 142 187 227 271 323
#
# _framework density 21.070499999999999
#
# number of rings (size 3 to 8) (size 9 to 14) (size 15 to 20)
#    0.000    2.125    0.000    4.125    0.000    6.000 
#    0.000    0.625    0.000    1.500    0.000    3.500 
#    0.000    0.000    0.000    0.000    0.000    0.000 
#
# Total GULP energy -178878.476616 kJ/mol
# GULP energy per Si atom -5589.952394 kJ/mol
# Density = 2.102254 g / cm^3
# Si number density = 21.070500 Si / 1000 Ang^3
#
#
#
# Elastic Constant Matrix: (Units=GPa)
#
#
# Indices 1 2 3 4 5 6 
#
# 1 78.8482 -4.7608 22.5788 0.0000 0.0000 0.0000
# 2 -4.7608 80.0957 12.5138 0.0000 0.0000 0.0000
# 3 22.5788 12.5138 84.6688 0.0000 0.0000 0.0000
# 4 0.0000 0.0000 0.0000 24.4035 0.0000 0.0000
# 5 0.0000 0.0000 0.0000 0.0000 21.5331 0.0000
# 6 0.0000 0.0000 0.0000 0.0000 0.0000 20.4577
#
#
#
# Elastic Compliance Matrix: (Units=1/GPa)
#
#
# Indices 1 2 3 4 5 6 
#
# 1 0.013891 0.001438 -0.003917 0.000000 0.000000 0.000000
# 2 0.001438 0.012929 -0.002294 0.000000 0.000000 0.000000
# 3 -0.003917 -0.002294 0.013194 0.000000 0.000000 0.000000
# 4 0.000000 0.000000 0.000000 0.040978 0.000000 0.000000
# 5 0.000000 0.000000 0.000000 0.000000 0.046440 0.000000
# 6 0.000000 0.000000 0.000000 0.000000 0.000000 0.048881
#
#
# Mechanical properties :
#
#
# Convention : Reuss Voigt Hill
#
# Bulk Modulus (GPa) = 32.82195 33.80846 33.31521
# Shear Modulus (GPa) = 25.50808 27.49757 26.50283
#
# Velocity S-wave (km/s) = 3.48315 3.61644 3.55042
# Velocity P-wave (km/s) = 5.63804 5.78951 5.71427
#
# Compressibility (1/GPa) = 0.03046742
#
# Stress axis : x y z
#
# Youngs Moduli (GPa) = 71.98895 77.34576 75.79020
#
# Poissons Ratio (x) = -0.11119 0.29686
# Poissons Ratio (y) = -0.10349 0.17388
# Poissons Ratio (z) = 0.28197 0.17745
#
# Static dielectric constant tensor:
#      x y z
#    x 1.744170 0.000000 0.000000 
#    y 0.000000 1.793120 0.000000 
#    z 0.000000 0.000000 1.765460 
# 
# From -- ./inp_files/10630.got.cif
#   From: 2010.05.17/outbox.cif.g08.bks.cpg/sg38_6_cif.got.tgz:10630.got - 2010.06.03 18:07:57.
