data_PCOD9357874
_publ_section_title
;
Structure prediction by ZEFSAII (Michael W. Deem and Ramdas Pophale) SiO2 
 PCOD9357874
Probable space group: A M M 2
;
_chemical_formula_sum "Si O2"
_cell_formula_units_Z 48
_cell_length_a 7.542708
_cell_length_b 9.475189
_cell_length_c 31.638070
_cell_angle_alpha 90.000000
_cell_angle_beta 90.000000
_cell_angle_gamma 90.000000
_cell_volume 2261.128059
_symmetry_space_group_name_H-M "A M M 2"
_symmetry_group_IT_number 38
_symmetry_cell_setting 'orthorhombic'
loop_
_space_group_symop_operation_xyz
x,y,z
-x,-y,z
-x,y,z
x,-y,z
x,1/2+y,1/2+z
-x,1/2-y,1/2+z
-x,1/2+y,1/2+z
x,1/2-y,1/2+z
loop_
_atom_site_type_symbol
_atom_site_label
_atom_site_fract_x
_atom_site_fract_y
_atom_site_fract_z
Si Si1 0.791689 0.158558 0.203090
Si Si2 0.783858 0.162400 0.460691
Si Si3 0.783278 0.161894 0.041283
Si Si4 0.291854 0.658962 0.283808
Si Si5 0.217208 0.162264 0.623583
Si Si6 0.213875 0.338900 0.865399
O O1 0.779477 0.239377 0.247375
O O2 0.719667 0.254176 0.165058
O O3 0.000000 0.144255 0.193765
O O4 0.716695 0.000000 0.205167
O O5 0.724424 0.265599 0.497684
O O6 0.727052 0.198768 0.412956
O O7 0.000000 0.164887 0.460714
O O8 0.732278 0.000000 0.469226
O O9 0.728795 0.254628 0.081467
O O10 0.000000 0.161805 0.041024
O O11 0.726170 0.000000 0.044867
O O12 0.500000 0.649274 0.275769
O O13 0.216918 0.500000 0.282279
O O14 0.267184 0.730804 0.329289
O O15 0.000000 0.159974 0.623905
O O16 0.275126 0.000000 0.623583
O O17 0.273356 0.500000 0.856143
O O18 0.000000 0.341884 0.865895
#
# Coordination Sequence:
#
# PCOD9357874 Si02
#       6
#     8   8   8   8   8   8
#     4  10  20  34  53  76 100 127 163 206 249 294
#     4   8  14  25  41  63  93 126 158 194 238 287
#     4   9  15  22  35  60  95 130 162 196 234 279
#     4  11  24  38  51  71  99 130 165 204 247 297
#     4   9  16  26  42  65  95 130 163 196 239 288
#     4   9  18  33  53  76 100 128 165 207 249 294
#
# _framework density 21.228341
#
# number of rings (size 3 to 8) (size 9 to 14) (size 15 to 20)
#    0.000    2.667    0.000    3.500    0.000    9.333 
#    0.000    1.667    0.000    0.000    0.000    1.167 
#    0.000    4.000    0.000    0.000    0.000    0.000 
#
# Total GULP energy -134026.090950 kJ/mol
# GULP energy per Si atom -5584.420456 kJ/mol
# Density = 2.118002 g / cm^3
# Si number density = 21.228341 Si / 1000 Ang^3
#
#
#
# Elastic Constant Matrix: (Units=GPa)
#
#
# Indices 1 2 3 4 5 6 
#
# 1 49.2267 3.6391 -5.7375 0.0000 0.0000 0.0000
# 2 3.6391 219.1449 134.0803 0.0000 0.0000 0.0000
# 3 -5.7375 134.0803 166.0804 0.0000 0.0000 0.0000
# 4 0.0000 0.0000 0.0000 43.0797 0.0000 0.0000
# 5 0.0000 0.0000 0.0000 0.0000 -48.9844 0.0000
# 6 0.0000 0.0000 0.0000 0.0000 0.0000 -20.5700
#
#
#
# Elastic Compliance Matrix: (Units=1/GPa)
#
#
# Indices 1 2 3 4 5 6 
#
# 1 0.020656 -0.001541 0.001957 0.000000 0.000000 0.000000
# 2 -0.001541 0.009132 -0.007426 0.000000 0.000000 0.000000
# 3 0.001957 -0.007426 0.012084 0.000000 0.000000 0.000000
# 4 0.000000 0.000000 0.000000 0.023213 0.000000 0.000000
# 5 0.000000 0.000000 0.000000 0.000000 -0.020415 0.000000
# 6 0.000000 0.000000 0.000000 0.000000 0.000000 -0.048614
#
#
# Mechanical properties :
#
#
# Convention : Reuss Voigt Hill
#
# Bulk Modulus (GPa) = 35.90136 77.60175 56.75156
# Shear Modulus (GPa) = 258.28381 14.86974 136.57677
#
# Velocity S-wave (km/s) = 11.04235 2.64950 8.02974
# Velocity P-wave (km/s) = 13.39876 6.78196 10.61889
#
# Compressibility (1/GPa) = 0.02785410
#
# Stress axis : x y z
#
# Youngs Moduli (GPa) = 48.41156 109.50372 82.75552
#
# Poissons Ratio (x) = 0.16870 -0.16198
# Poissons Ratio (y) = 0.07458 0.61452
# Poissons Ratio (z) = -0.09476 0.81315
#
# Static dielectric constant tensor:
#      x y z
#    x 1.799600 0.000000 0.000000 
#    y 0.000000 1.742410 0.000000 
#    z 0.000000 0.000000 1.722660 
# 
# From -- ./inp_files/24273.got.cif
#   From: 2010.05.17/outbox.cif.g08.bks.cpg/sg38_13_cif.got.tgz:24273.got - 2010.06.03 18:07:57.
