data_PCOD9357137
_publ_section_title
;
Structure prediction by ZEFSAII (Michael W. Deem and Ramdas Pophale) SiO2 
 PCOD9357137
Probable space group: A M M 2
;
_chemical_formula_sum "Si O2"
_cell_formula_units_Z 48
_cell_length_a 17.821141
_cell_length_b 7.748137
_cell_length_c 18.474264
_cell_angle_alpha 90.000000
_cell_angle_beta 90.000000
_cell_angle_gamma 90.000000
_cell_volume 2550.938233
_symmetry_space_group_name_H-M "A M M 2"
_symmetry_group_IT_number 38
_symmetry_cell_setting 'orthorhombic'
loop_
_space_group_symop_operation_xyz
x,y,z
-x,-y,z
-x,y,z
x,-y,z
x,1/2+y,1/2+z
-x,1/2-y,1/2+z
-x,1/2+y,1/2+z
x,1/2-y,1/2+z
loop_
_atom_site_type_symbol
_atom_site_label
_atom_site_fract_x
_atom_site_fract_y
_atom_site_fract_z
Si Si1 0.085702 0.500000 0.381220
Si Si2 0.649811 0.790098 0.804119
Si Si3 0.800296 0.703772 0.056631
Si Si4 0.349693 0.706350 0.138912
Si Si5 0.500000 0.211312 0.888285
Si Si6 0.085346 0.500000 0.557259
Si Si7 0.500000 0.295061 0.552875
Si Si8 0.196824 0.196173 0.383608
O O1 0.082781 0.500000 0.469196
O O2 0.133998 0.332739 0.359907
O O3 0.000000 0.500000 0.355049
O O4 0.647141 0.728989 0.721142
O O5 0.575292 0.734505 0.846826
O O6 0.725214 0.728523 0.842944
O O7 0.650783 0.000000 0.804644
O O8 0.813924 0.500000 0.071952
O O9 0.724434 0.763980 0.096225
O O10 0.868210 0.829193 0.078242
O O11 0.789996 0.719712 0.969867
O O12 0.343618 0.500000 0.143152
O O13 0.425414 0.744676 0.095808
O O14 0.500000 0.000000 0.888387
O O15 0.500000 0.273888 0.970930
O O16 0.000000 0.500000 0.583693
O O17 0.500000 0.500000 0.547062
O O18 0.171765 0.000000 0.372019
#
# Coordination Sequence:
#
# PCOD9357137 Si02
#       8
#     4   8   8   8   4   4   4   8
#     4   9  18  34  56  83 113 143 179 225 279 335
#     4  10  19  35  56  77 106 149 188 229 271 328
#     4   9  19  34  54  82 111 143 185 228 275 329
#     4  10  21  36  54  77 106 149 187 227 273 327
#     4   9  19  33  53  79 106 144 189 228 276 324
#     4   9  18  32  56  85 111 143 177 225 285 329
#     4  11  22  33  51  79 110 141 184 237 276 318
#     4  10  19  33  55  83 112 142 183 231 276 327
#
# _framework density 18.816607000000001
#
# number of rings (size 3 to 8) (size 9 to 14) (size 15 to 20)
#    0.000    2.333    0.833    1.750    1.167    2.667 
#    0.000    4.583    0.000    1.000    0.000    0.000 
#    0.000    0.000    0.000    0.000    0.000    0.000 
#
# Total GULP energy -133963.231720 kJ/mol
# GULP energy per Si atom -5581.801322 kJ/mol
# Density = 1.877378 g / cm^3
# Si number density = 18.816607 Si / 1000 Ang^3
#
#
#
# Elastic Constant Matrix: (Units=GPa)
#
#
# Indices 1 2 3 4 5 6 
#
# 1 211.1516 69.5671 79.4072 0.0000 0.0000 0.0000
# 2 69.5671 74.9543 46.6883 0.0000 0.0000 0.0000
# 3 79.4072 46.6883 87.6735 0.0000 0.0000 0.0000
# 4 0.0000 0.0000 0.0000 9.8873 0.0000 0.0000
# 5 0.0000 0.0000 0.0000 0.0000 -2.4840 0.0000
# 6 0.0000 0.0000 0.0000 0.0000 0.0000 17.2496
#
#
#
# Elastic Compliance Matrix: (Units=1/GPa)
#
#
# Indices 1 2 3 4 5 6 
#
# 1 0.008040 -0.004379 -0.004950 0.000000 0.000000 0.000000
# 2 -0.004379 0.022348 -0.007935 0.000000 0.000000 0.000000
# 3 -0.004950 -0.007935 0.020115 0.000000 0.000000 0.000000
# 4 0.000000 0.000000 0.000000 0.101139 0.000000 0.000000
# 5 0.000000 0.000000 0.000000 0.000000 -0.402577 0.000000
# 6 0.000000 0.000000 0.000000 0.000000 0.000000 0.057972
#
#
# Mechanical properties :
#
#
# Convention : Reuss Voigt Hill
#
# Bulk Modulus (GPa) = 62.59683 85.01164 73.80424
# Shear Modulus (GPa) = -32.65666 16.80505 -7.92580
#
# Velocity S-wave (km/s) = -4.17048 2.99171 -2.05457
# Velocity P-wave (km/s) = 3.18567 7.56379 5.80342
#
# Compressibility (1/GPa) = 0.01597525
#
# Stress axis : x y z
#
# Youngs Moduli (GPa) = 124.37370 44.74629 49.71382
#
# Poissons Ratio (x) = 0.19594 0.24610
# Poissons Ratio (y) = 0.54462 0.39448
# Poissons Ratio (z) = 0.61569 0.35506
#
# Static dielectric constant tensor:
#      x y z
#    x 1.591800 0.000000 0.000000 
#    y 0.000000 1.676710 0.000000 
#    z 0.000000 0.000000 1.641560 
# 
# From -- ./inp_files/18290.got.cif
#   From: 2010.05.17/outbox.cif.g08.bks.cpg/sg38_10_cif.got.tgz:18290.got - 2010.06.03 18:07:57.
