data_PCOD9357895
_publ_section_title
;
Structure prediction by ZEFSAII (Michael W. Deem and Ramdas Pophale) SiO2 
 PCOD9357895
Probable space group: A M M 2
;
_chemical_formula_sum "Si O2"
_cell_formula_units_Z 48
_cell_length_a 8.744698
_cell_length_b 30.085489
_cell_length_c 10.485950
_cell_angle_alpha 90.000000
_cell_angle_beta 90.000000
_cell_angle_gamma 90.000000
_cell_volume 2758.733019
_symmetry_space_group_name_H-M "A M M 2"
_symmetry_group_IT_number 38
_symmetry_cell_setting 'orthorhombic'
loop_
_space_group_symop_operation_xyz
x,y,z
-x,-y,z
-x,y,z
x,-y,z
x,1/2+y,1/2+z
-x,1/2-y,1/2+z
-x,1/2+y,1/2+z
x,1/2-y,1/2+z
loop_
_atom_site_type_symbol
_atom_site_label
_atom_site_fract_x
_atom_site_fract_y
_atom_site_fract_z
Si Si1 0.815577 0.116950 0.648580
Si Si2 0.183450 0.279566 0.147159
Si Si3 0.316615 0.780725 0.370906
Si Si4 0.317478 0.384307 0.874007
Si Si5 0.815671 0.448296 0.660337
Si Si6 0.186313 0.949114 0.870139
O O1 0.774483 0.168622 0.670203
O O2 0.749554 0.103036 0.511970
O O3 0.761993 0.085370 0.763116
O O4 0.000000 0.114543 0.642274
O O5 0.250374 0.249057 0.258051
O O6 0.000000 0.276208 0.144995
O O7 0.249354 0.267244 0.008406
O O8 0.500000 0.777424 0.374055
O O9 0.274321 0.832640 0.350916
O O10 0.500000 0.386798 0.878691
O O11 0.255180 0.415765 0.763533
O O12 0.775700 0.500000 0.684372
O O13 0.767569 0.437578 0.514832
O O14 0.000000 0.445014 0.666052
O O15 0.000000 0.948803 0.869537
O O16 0.233396 0.000000 0.843262
#
# Coordination Sequence:
#
# PCOD9357895 Si02
#       6
#     8   8   8   8   8   8
#     4   9  18  33  53  77 103 131 166 209 255 303
#     4  10  20  34  53  78 105 134 173 219 261 305
#     4  10  21  37  54  74 104 140 174 211 262 320
#     4  10  21  35  51  74 104 137 171 208 252 303
#     4   9  18  33  53  76 102 134 171 211 256 304
#     4   8  15  30  52  76 100 127 163 206 250 298
#
# _framework density 17.399290000000001
#
# number of rings (size 3 to 8) (size 9 to 14) (size 15 to 20)
#    0.000    2.667    0.000    2.500    0.000    5.000 
#    0.000    4.167    0.000    1.000    0.000    0.000 
#    0.000    0.000    0.000    0.000    0.000    0.000 
#
# Total GULP energy -133872.014113 kJ/mol
# GULP energy per Si atom -5578.000588 kJ/mol
# Density = 1.735969 g / cm^3
# Si number density = 17.399290 Si / 1000 Ang^3
#
#
#
# Elastic Constant Matrix: (Units=GPa)
#
#
# Indices 1 2 3 4 5 6 
#
# 1 25.8569 34.4299 46.5325 0.0000 0.0000 0.0000
# 2 34.4299 95.5642 123.2175 0.0000 0.0000 0.0000
# 3 46.5325 123.2175 199.6653 0.0000 0.0000 0.0000
# 4 0.0000 0.0000 0.0000 44.0544 0.0000 0.0000
# 5 0.0000 0.0000 0.0000 0.0000 6.3313 0.0000
# 6 0.0000 0.0000 0.0000 0.0000 0.0000 22.6847
#
#
#
# Elastic Compliance Matrix: (Units=1/GPa)
#
#
# Indices 1 2 3 4 5 6 
#
# 1 0.074961 -0.021937 -0.003932 0.000000 0.000000 0.000000
# 2 -0.021937 0.057638 -0.030457 0.000000 0.000000 0.000000
# 3 -0.003932 -0.030457 0.024720 0.000000 0.000000 0.000000
# 4 0.000000 0.000000 0.000000 0.022699 0.000000 0.000000
# 5 0.000000 0.000000 0.000000 0.000000 0.157946 0.000000
# 6 0.000000 0.000000 0.000000 0.000000 0.000000 0.044083
#
#
# Mechanical properties :
#
#
# Convention : Reuss Voigt Hill
#
# Bulk Modulus (GPa) = 22.38793 81.04959 51.71876
# Shear Modulus (GPa) = 9.81182 22.40786 16.10984
#
# Velocity S-wave (km/s) = 2.37728 3.59257 3.04615
# Velocity P-wave (km/s) = 4.51999 7.99325 6.49316
#
# Compressibility (1/GPa) = 0.04466692
#
# Stress axis : x y z
#
# Youngs Moduli (GPa) = 13.34027 17.34956 40.45226
#
# Poissons Ratio (x) = 0.38060 0.15905
# Poissons Ratio (y) = 0.29265 1.23206
# Poissons Ratio (z) = 0.05245 0.52842
#
# Static dielectric constant tensor:
#      x y z
#    x 1.582630 0.000000 0.000000 
#    y 0.000000 1.582870 0.000000 
#    z 0.000000 0.000000 1.563060 
# 
# From -- ./inp_files/3718.got.cif
#   From: 2010.05.17/outbox.cif.g08.bks.cpg/sg38_2_cif.got.tgz:3718.got - 2010.06.03 18:07:57.
