data_PCOD9357440
_publ_section_title
;
Structure prediction by ZEFSAII (Michael W. Deem and Ramdas Pophale) SiO2 
 PCOD9357440
Probable space group: A M M 2
;
_chemical_formula_sum "Si O2"
_cell_formula_units_Z 64
_cell_length_a 24.475823
_cell_length_b 8.185035
_cell_length_c 15.851997
_cell_angle_alpha 90.000000
_cell_angle_beta 90.000000
_cell_angle_gamma 90.000000
_cell_volume 3175.717236
_symmetry_space_group_name_H-M "A M M 2"
_symmetry_group_IT_number 38
_symmetry_cell_setting 'orthorhombic'
loop_
_space_group_symop_operation_xyz
x,y,z
-x,-y,z
-x,y,z
x,-y,z
x,1/2+y,1/2+z
-x,1/2-y,1/2+z
-x,1/2+y,1/2+z
x,1/2-y,1/2+z
loop_
_atom_site_type_symbol
_atom_site_label
_atom_site_fract_x
_atom_site_fract_y
_atom_site_fract_z
Si Si1 0.248749 0.697934 0.521050
Si Si2 0.625393 0.693749 0.267375
Si Si3 0.870466 0.193823 0.576500
Si Si4 0.061804 0.304293 0.416820
Si Si5 0.862249 0.799669 0.763576
Si Si6 0.744083 0.698585 0.323887
Si Si7 0.562328 0.306086 0.930206
Si Si8 0.634837 0.806406 0.086015
O O1 0.246075 0.500000 0.524786
O O2 0.192791 0.767963 0.556935
O O3 0.254376 0.743332 0.422530
O O4 0.303193 0.753841 0.569329
O O5 0.624884 0.500000 0.281843
O O6 0.687555 0.755258 0.282856
O O7 0.586894 0.770626 0.338092
O O8 0.610757 0.729427 0.170819
O O9 0.907918 0.269342 0.504321
O O10 0.882033 0.252448 0.671444
O O11 0.878507 0.000000 0.573961
O O12 0.059066 0.500000 0.407302
O O13 0.099098 0.243275 0.339538
O O14 0.000000 0.239621 0.415436
O O15 0.799895 0.745483 0.780036
O O16 0.861667 0.000000 0.764540
O O17 0.744129 0.500000 0.320105
O O18 0.500000 0.246060 0.935640
O O19 0.562600 0.500000 0.943864
O O20 0.599873 0.228621 0.002574
O O21 0.637322 0.000000 0.098534
#
# Coordination Sequence:
#
# PCOD9357440 Si02
#       8
#     8   8   8   8   8   8   8   8
#     4  10  19  36  61  87 119 157 194 234 286 353
#     4  11  22  39  64  93 123 159 201 248 304 364
#     4  11  22  35  57  90 119 147 186 240 299 346
#     4  10  21  39  61  80 105 152 203 240 285 350
#     4   9  18  34  57  82 112 149 189 229 277 345
#     4   9  16  32  59  86 114 150 191 235 284 344
#     4  11  25  44  64  88 120 160 207 258 307 357
#     4  11  23  40  63  93 125 161 201 247 305 363
#
# _framework density 20.152927999999999
#
# number of rings (size 3 to 8) (size 9 to 14) (size 15 to 20)
#    0.000    1.750    2.500    2.250    0.000    4.250 
#    0.000    2.500    0.000    0.000    0.000    0.000 
#    0.000    0.000    0.000    0.000    0.000    0.000 
#
# Total GULP energy -178805.590839 kJ/mol
# GULP energy per Si atom -5587.674714 kJ/mol
# Density = 2.010706 g / cm^3
# Si number density = 20.152928 Si / 1000 Ang^3
#
#
#
# Elastic Constant Matrix: (Units=GPa)
#
#
# Indices 1 2 3 4 5 6 
#
# 1 95.3976 -4.0933 9.3810 0.0000 0.0000 0.0000
# 2 -4.0933 11.0470 -12.4742 0.0000 0.0000 0.0000
# 3 9.3810 -12.4742 91.7272 0.0000 0.0000 0.0000
# 4 0.0000 0.0000 0.0000 24.0819 0.0000 0.0000
# 5 0.0000 0.0000 0.0000 0.0000 -0.1726 0.0000
# 6 0.0000 0.0000 0.0000 0.0000 0.0000 186.7456
#
#
#
# Elastic Compliance Matrix: (Units=1/GPa)
#
#
# Indices 1 2 3 4 5 6 
#
# 1 0.010685 0.003220 -0.000655 0.000000 0.000000 0.000000
# 2 0.003220 0.107915 0.014346 0.000000 0.000000 0.000000
# 3 -0.000655 0.014346 0.012920 0.000000 0.000000 0.000000
# 4 0.000000 0.000000 0.000000 0.041525 0.000000 0.000000
# 5 0.000000 0.000000 0.000000 0.000000 -5.793520 0.000000
# 6 0.000000 0.000000 0.000000 0.000000 0.000000 0.005355
#
#
# Mechanical properties :
#
#
# Convention : Reuss Voigt Hill
#
# Bulk Modulus (GPa) = 6.04808 20.42209 13.23508
# Shear Modulus (GPa) = -0.89384 55.82153 27.46384
#
# Velocity S-wave (km/s) = -0.66670 5.26869 3.69558
# Velocity P-wave (km/s) = 1.55401 6.86787 4.97909
#
# Compressibility (1/GPa) = 0.16534173
#
# Stress axis : x y z
#
# Youngs Moduli (GPa) = 93.58925 9.26657 77.40008
#
# Poissons Ratio (x) = -0.02983 0.05069
# Poissons Ratio (y) = -0.30132 -1.11041
# Poissons Ratio (z) = 0.06129 -0.13294
#
# Static dielectric constant tensor:
#      x y z
#    x 1.700810 0.000000 0.000000 
#    y 0.000000 1.706450 0.000000 
#    z 0.000000 0.000000 1.694030 
# 
# From -- ./inp_files/15752.got.cif
#   From: 2010.05.17/outbox.cif.g08.bks.cpg/sg38_8_cif.got.tgz:15752.got - 2010.06.03 18:07:57.
