data_PCOD9357896
_publ_section_title
;
Structure prediction by ZEFSAII (Michael W. Deem and Ramdas Pophale) SiO2 
 PCOD9357896
Probable space group: A M M 2
;
_chemical_formula_sum "Si O2"
_cell_formula_units_Z 56
_cell_length_a 14.564868
_cell_length_b 8.971056
_cell_length_c 26.057061
_cell_angle_alpha 90.000000
_cell_angle_beta 90.000000
_cell_angle_gamma 90.000000
_cell_volume 3404.674126
_symmetry_space_group_name_H-M "A M M 2"
_symmetry_group_IT_number 38
_symmetry_cell_setting 'orthorhombic'
loop_
_space_group_symop_operation_xyz
x,y,z
-x,-y,z
-x,y,z
x,-y,z
x,1/2+y,1/2+z
-x,1/2-y,1/2+z
-x,1/2+y,1/2+z
x,1/2-y,1/2+z
loop_
_atom_site_type_symbol
_atom_site_label
_atom_site_fract_x
_atom_site_fract_y
_atom_site_fract_z
Si Si1 0.892598 0.321442 0.765470
Si Si2 0.220179 0.177933 0.856346
Si Si3 0.891597 0.677667 0.646480
Si Si4 0.217172 0.177328 0.554662
Si Si5 0.605327 0.822650 0.401592
Si Si6 0.605581 0.322484 0.514003
Si Si7 0.891960 0.178798 0.959984
O O1 0.882652 0.500000 0.771804
O O2 0.830051 0.236999 0.805881
O O3 0.871462 0.286690 0.705974
O O4 0.000000 0.285100 0.774269
O O5 0.318395 0.254551 0.864681
O O6 0.157922 0.215205 0.906350
O O7 0.230165 0.000000 0.854783
O O8 0.877298 0.500000 0.639197
O O9 0.831647 0.767638 0.606307
O O10 0.000000 0.706086 0.637768
O O11 0.318387 0.247002 0.549267
O O12 0.158339 0.239417 0.506601
O O13 0.221496 0.000000 0.552233
O O14 0.500000 0.795735 0.385045
O O15 0.617031 0.745381 0.457054
O O16 0.618243 0.000000 0.407087
O O17 0.500000 0.294894 0.529777
O O18 0.620383 0.500000 0.511643
O O19 0.000000 0.215541 0.958025
O O20 0.883804 0.000000 0.967858
#
# Coordination Sequence:
#
# PCOD9357896 Si02
#       7
#     8   8   8   8   8   8   8
#     4   9  19  36  57  79 104 139 182 224 265 310
#     4  11  21  33  53  79 108 143 178 214 263 317
#     4   9  19  37  58  77 102 141 184 222 262 312
#     4  12  23  33  51  79 109 140 174 217 268 315
#     4  10  20  34  53  78 107 138 175 219 264 311
#     4  10  20  35  55  77 103 138 178 216 259 316
#     4  10  21  35  49  70 105 146 180 210 253 312
#
# _framework density 16.447977000000002
#
# number of rings (size 3 to 8) (size 9 to 14) (size 15 to 20)
#    0.000    1.857    1.429    4.286    0.000    6.000 
#    0.000    1.429    0.000    0.857    0.000    6.000 
#    0.000    0.000    0.000    0.000    0.000    0.000 
#
# Total GULP energy -156370.679634 kJ/mol
# GULP energy per Si atom -5584.667130 kJ/mol
# Density = 1.641054 g / cm^3
# Si number density = 16.447977 Si / 1000 Ang^3
#
#
#
# Elastic Constant Matrix: (Units=GPa)
#
#
# Indices 1 2 3 4 5 6 
#
# 1 128.0124 77.0611 77.6045 0.0000 0.0000 0.0000
# 2 77.0611 80.3214 64.3461 0.0000 0.0000 0.0000
# 3 77.6045 64.3461 96.5676 0.0000 0.0000 0.0000
# 4 0.0000 0.0000 0.0000 29.3747 0.0000 0.0000
# 5 0.0000 0.0000 0.0000 0.0000 20.0765 0.0000
# 6 0.0000 0.0000 0.0000 0.0000 0.0000 24.8385
#
#
#
# Elastic Compliance Matrix: (Units=1/GPa)
#
#
# Indices 1 2 3 4 5 6 
#
# 1 0.020625 -0.013963 -0.007271 0.000000 0.000000 0.000000
# 2 -0.013963 0.036159 -0.012872 0.000000 0.000000 0.000000
# 3 -0.007271 -0.012872 0.024776 0.000000 0.000000 0.000000
# 4 0.000000 0.000000 0.000000 0.034043 0.000000 0.000000
# 5 0.000000 0.000000 0.000000 0.000000 0.049810 0.000000
# 6 0.000000 0.000000 0.000000 0.000000 0.000000 0.040260
#
#
# Mechanical properties :
#
#
# Convention : Reuss Voigt Hill
#
# Bulk Modulus (GPa) = 74.92515 82.54720 78.73618
# Shear Modulus (GPa) = 17.96405 20.58391 19.27398
#
# Velocity S-wave (km/s) = 3.30839 3.54143 3.42689
# Velocity P-wave (km/s) = 7.76181 8.18646 7.97696
#
# Compressibility (1/GPa) = 0.01334665
#
# Stress axis : x y z
#
# Youngs Moduli (GPa) = 48.48466 27.65590 40.36211
#
# Poissons Ratio (x) = 0.38617 0.29346
# Poissons Ratio (y) = 0.67700 0.51956
# Poissons Ratio (z) = 0.35252 0.35600
#
# Static dielectric constant tensor:
#      x y z
#    x 1.552580 0.000000 0.000000 
#    y 0.000000 1.545160 0.000000 
#    z 0.000000 0.000000 1.523400 
# 
# From -- ./inp_files/21102.got.cif
#   From: 2010.05.17/outbox.cif.g08.bks.cpg/sg38_11_cif.got.tgz:21102.got - 2010.06.03 18:07:57.
