data_PCOD9357628
_publ_section_title
;
Structure prediction by ZEFSAII (Michael W. Deem and Ramdas Pophale) SiO2 
 PCOD9357628
Probable space group: A M M 2
;
_chemical_formula_sum "Si O2"
_cell_formula_units_Z 58
_cell_length_a 7.625630
_cell_length_b 26.136126
_cell_length_c 12.424264
_cell_angle_alpha 90.000000
_cell_angle_beta 90.000000
_cell_angle_gamma 90.000000
_cell_volume 2476.210811
_symmetry_space_group_name_H-M "A M M 2"
_symmetry_group_IT_number 38
_symmetry_cell_setting 'orthorhombic'
loop_
_space_group_symop_operation_xyz
x,y,z
-x,-y,z
-x,y,z
x,-y,z
x,1/2+y,1/2+z
-x,1/2-y,1/2+z
-x,1/2+y,1/2+z
x,1/2-y,1/2+z
loop_
_atom_site_type_symbol
_atom_site_label
_atom_site_fract_x
_atom_site_fract_y
_atom_site_fract_z
Si Si1 0.795384 0.281163 0.958800
Si Si2 0.301833 0.667947 0.738314
Si Si3 0.295508 0.589225 0.349465
Si Si4 0.709655 0.444223 0.022967
Si Si5 0.801385 0.346903 0.151296
Si Si6 0.000000 0.000000 0.816098
Si Si7 0.790807 0.055685 0.269304
Si Si8 0.292673 0.673063 0.509262
O O1 0.774750 0.315702 0.852684
O O2 0.000000 0.278386 0.980106
O O3 0.717967 0.306285 0.067985
O O4 0.730608 0.223967 0.939371
O O5 0.500000 0.687307 0.743729
O O6 0.297553 0.606543 0.726585
O O7 0.215650 0.685802 0.627123
O O8 0.500000 0.571957 0.361073
O O9 0.295089 0.633047 0.256687
O O10 0.231039 0.620970 0.454156
O O11 0.156680 0.545171 0.321409
O O12 0.500000 0.438489 0.037574
O O13 0.762676 0.500000 0.066904
O O14 0.806194 0.398147 0.078665
O O15 0.750375 0.444401 0.896659
O O16 0.000000 0.331848 0.182012
O O17 0.000000 0.059883 0.254556
O O18 0.733810 0.000000 0.226337
O O19 0.500000 0.665422 0.524190
#
# Coordination Sequence:
#
# PCOD9357628 Si02
#       8
#     8   8   8   8   8   2   8   8
#     4  11  25  42  69 103 140 184 233 295 362 430
#     4  11  23  43  69  98 135 177 229 285 347 422
#     4  11  26  49  76 109 147 191 248 304 363 438
#     4  10  20  32  53  85 124 173 222 276 342 410
#     4  11  23  40  62 100 143 185 238 297 359 426
#     4  12  26  52  80 110 146 196 242 300 374 440
#     4  10  20  36  56  88 129 172 220 276 336 404
#     4  10  26  49  71 100 138 183 237 295 353 424
#
# _framework density 23.422885999999998
#
# number of rings (size 3 to 8) (size 9 to 14) (size 15 to 20)
#    0.000    1.379    2.069    2.276    3.862    4.414 
#    1.241    0.000    0.000    0.000    0.000    0.000 
#    0.000    0.000    0.000    0.000    0.000    0.000 
#
# Total GULP energy -161701.188617 kJ/mol
# GULP energy per Si atom -5575.903056 kJ/mol
# Density = 2.336957 g / cm^3
# Si number density = 23.422886 Si / 1000 Ang^3
#
#
#
# Elastic Constant Matrix: (Units=GPa)
#
#
# Indices 1 2 3 4 5 6 
#
# 1 93.0780 11.6519 13.7235 0.0000 0.0000 0.0000
# 2 11.6519 105.8500 31.5009 0.0000 0.0000 0.0000
# 3 13.7235 31.5009 66.0861 0.0000 0.0000 0.0000
# 4 0.0000 0.0000 0.0000 18.1570 0.0000 0.0000
# 5 0.0000 0.0000 0.0000 0.0000 14.3939 0.0000
# 6 0.0000 0.0000 0.0000 0.0000 0.0000 43.3783
#
#
#
# Elastic Compliance Matrix: (Units=1/GPa)
#
#
# Indices 1 2 3 4 5 6 
#
# 1 0.011118 -0.000626 -0.002011 0.000000 0.000000 0.000000
# 2 -0.000626 0.011044 -0.005134 0.000000 0.000000 0.000000
# 3 -0.002011 -0.005134 0.017997 0.000000 0.000000 0.000000
# 4 0.000000 0.000000 0.000000 0.055075 0.000000 0.000000
# 5 0.000000 0.000000 0.000000 0.000000 0.069474 0.000000
# 6 0.000000 0.000000 0.000000 0.000000 0.000000 0.023053
#
#
# Mechanical properties :
#
#
# Convention : Reuss Voigt Hill
#
# Bulk Modulus (GPa) = 40.62072 42.08518 41.35295
# Shear Modulus (GPa) = 23.63969 29.06169 26.35069
#
# Velocity S-wave (km/s) = 3.18033 3.52623 3.35774
# Velocity P-wave (km/s) = 5.55571 5.88096 5.72065
#
# Compressibility (1/GPa) = 0.02461798
#
# Stress axis : x y z
#
# Youngs Moduli (GPa) = 89.94060 90.54525 55.56560
#
# Poissons Ratio (x) = 0.05664 0.11173
# Poissons Ratio (y) = 0.05626 0.28530
# Poissons Ratio (z) = 0.18084 0.46490
#
# Static dielectric constant tensor:
#      x y z
#    x 1.874420 0.000000 0.000000 
#    y 0.000000 1.895970 0.000000 
#    z 0.000000 0.000000 1.939690 
# 
# From -- ./inp_files/8332.got.cif
#   From: 2010.05.17/outbox.cif.g08.bks.cpg/sg38_5_cif.got.tgz:8332.got - 2010.06.03 18:07:57.
