data_PCOD9357025
_publ_section_title
;
Structure prediction by ZEFSAII (Michael W. Deem and Ramdas Pophale) SiO2 
 PCOD9357025
Probable space group: A M M 2
;
_chemical_formula_sum "Si O2"
_cell_formula_units_Z 40
_cell_length_a 7.798466
_cell_length_b 7.717483
_cell_length_c 34.002917
_cell_angle_alpha 90.000000
_cell_angle_beta 90.000000
_cell_angle_gamma 90.000000
_cell_volume 2046.449537
_symmetry_space_group_name_H-M "A M M 2"
_symmetry_group_IT_number 38
_symmetry_cell_setting 'orthorhombic'
loop_
_space_group_symop_operation_xyz
x,y,z
-x,-y,z
-x,y,z
x,-y,z
x,1/2+y,1/2+z
-x,1/2-y,1/2+z
-x,1/2+y,1/2+z
x,1/2-y,1/2+z
loop_
_atom_site_type_symbol
_atom_site_label
_atom_site_fract_x
_atom_site_fract_y
_atom_site_fract_z
Si Si1 0.703774 0.706010 0.551950
Si Si2 0.792115 0.692319 0.345335
Si Si3 0.000000 0.790343 0.112307
Si Si4 0.000000 0.712628 0.701898
Si Si5 0.704885 0.500000 0.990966
Si Si6 0.795069 0.000000 0.400015
Si Si7 0.690608 0.709655 0.757163
O O1 0.500000 0.732641 0.560305
O O2 0.726776 0.500000 0.543869
O O3 0.755034 0.828621 0.515516
O O4 0.829248 0.755686 0.587805
O O5 0.740133 0.500000 0.357084
O O6 0.729199 0.832825 0.376542
O O7 0.729512 0.730482 0.301354
O O8 0.000000 0.699458 0.343876
O O9 0.000000 0.726641 0.156991
O O10 0.000000 0.000000 0.114288
O O11 0.165853 0.768527 0.726598
O O12 0.000000 0.500000 0.701378
O O13 0.500000 0.500000 0.990154
O O14 0.762569 0.500000 0.946150
O O15 0.000000 0.000000 0.395155
O O16 0.500000 0.764519 0.745646
O O17 0.696146 0.500000 0.757919
#
# Coordination Sequence:
#
# PCOD9357025 Si02
#       7
#     8   8   4   4   4   4   8
#     4   9  19  36  58  84 115 149 187 234 283 337
#     4  10  20  36  58  81 112 154 193 235 284 334
#     4   9  18  33  57  87 111 149 193 229 284 351
#     4   9  18  32  54  84 119 146 186 243 285 332
#     4  10  22  38  58  84 116 152 190 237 287 342
#     4  10  22  36  56  86 118 150 192 242 284 333
#     4  10  19  32  56  84 112 152 195 232 283 340
#
# _framework density 19.546046
#
# number of rings (size 3 to 8) (size 9 to 14) (size 15 to 20)
#    0.000    2.400    2.000    0.000    1.400    2.800 
#    0.000    4.000    4.400    0.000    0.000    0.000 
#    0.000    0.000    0.000    0.000    0.000    0.000 
#
# Total GULP energy -111627.353386 kJ/mol
# GULP energy per Si atom -5581.367669 kJ/mol
# Density = 1.950156 g / cm^3
# Si number density = 19.546046 Si / 1000 Ang^3
#
#
#
# Elastic Constant Matrix: (Units=GPa)
#
#
# Indices 1 2 3 4 5 6 
#
# 1 88.9182 52.6520 73.4455 0.0000 0.0000 0.0000
# 2 52.6520 89.3722 76.4680 0.0000 0.0000 0.0000
# 3 73.4455 76.4680 194.0692 0.0000 0.0000 0.0000
# 4 0.0000 0.0000 0.0000 -9.8390 0.0000 0.0000
# 5 0.0000 0.0000 0.0000 0.0000 -20.1385 0.0000
# 6 0.0000 0.0000 0.0000 0.0000 0.0000 6.7401
#
#
#
# Elastic Compliance Matrix: (Units=1/GPa)
#
#
# Indices 1 2 3 4 5 6 
#
# 1 0.019368 -0.007752 -0.004275 0.000000 0.000000 0.000000
# 2 -0.007752 0.019983 -0.004940 0.000000 0.000000 0.000000
# 3 -0.004275 -0.004940 0.008717 0.000000 0.000000 0.000000
# 4 0.000000 0.000000 0.000000 -0.101636 0.000000 0.000000
# 5 0.000000 0.000000 0.000000 0.000000 -0.049656 0.000000
# 6 0.000000 0.000000 0.000000 0.000000 0.000000 0.148367
#
#
# Mechanical properties :
#
#
# Convention : Reuss Voigt Hill
#
# Bulk Modulus (GPa) = 70.75524 86.38785 78.57154
# Shear Modulus (GPa) = 59.67365 6.67210 33.17288
#
# Velocity S-wave (km/s) = 5.53137 1.84958 4.12414
# Velocity P-wave (km/s) = 8.77910 6.98959 7.93495
#
# Compressibility (1/GPa) = 0.01413323
#
# Stress axis : x y z
#
# Youngs Moduli (GPa) = 51.63128 50.04252 114.71597
#
# Poissons Ratio (x) = 0.38795 0.49043
# Poissons Ratio (y) = 0.40027 0.56668
# Poissons Ratio (z) = 0.22073 0.24720
#
# Static dielectric constant tensor:
#      x y z
#    x 1.699830 0.000000 0.000000 
#    y 0.000000 1.708550 0.000000 
#    z 0.000000 0.000000 1.635360 
# 
# From -- ./inp_files/23299.got.cif
#   From: 2010.05.17/outbox.cif.g08.bks.cpg/sg38_12_cif.got.tgz:23299.got - 2010.06.03 18:07:57.
