data_PCOD9357936
_publ_section_title
;
Structure prediction by ZEFSAII (Michael W. Deem and Ramdas Pophale) SiO2 
 PCOD9357936
Probable space group: A M M 2
;
_chemical_formula_sum "Si O2"
_cell_formula_units_Z 48
_cell_length_a 9.387641
_cell_length_b 8.320471
_cell_length_c 32.137453
_cell_angle_alpha 90.000000
_cell_angle_beta 90.000000
_cell_angle_gamma 90.000000
_cell_volume 2510.243428
_symmetry_space_group_name_H-M "A M M 2"
_symmetry_group_IT_number 38
_symmetry_cell_setting 'orthorhombic'
loop_
_space_group_symop_operation_xyz
x,y,z
-x,-y,z
-x,y,z
x,-y,z
x,1/2+y,1/2+z
-x,1/2-y,1/2+z
-x,1/2+y,1/2+z
x,1/2-y,1/2+z
loop_
_atom_site_type_symbol
_atom_site_label
_atom_site_fract_x
_atom_site_fract_y
_atom_site_fract_z
Si Si1 0.337731 0.690952 0.072990
Si Si2 0.663842 0.803366 0.233208
Si Si3 0.837592 0.193597 0.152201
Si Si4 0.827004 0.814118 0.405701
Si Si5 0.835280 0.810074 0.994950
Si Si6 0.834873 0.196580 0.314642
O O1 0.500000 0.753029 0.074041
O O2 0.341403 0.500000 0.078256
O O3 0.245596 0.762029 0.110506
O O4 0.263207 0.729983 0.029303
O O5 0.500000 0.751992 0.230920
O O6 0.752595 0.749482 0.192972
O O7 0.739631 0.752127 0.275908
O O8 0.664955 0.000000 0.233155
O O9 0.000000 0.253749 0.151461
O O10 0.843215 0.000000 0.154672
O O11 0.786544 0.723782 0.447722
O O12 0.781848 0.750711 0.360366
O O13 0.000000 0.811808 0.403769
O O14 0.782552 0.000000 0.409830
O O15 0.000000 0.752180 0.998766
O O16 0.835438 0.000000 0.002330
O O17 0.000000 0.244891 0.308720
O O18 0.834511 0.000000 0.315867
#
# Coordination Sequence:
#
# PCOD9357936 Si02
#       6
#     8   8   8   8   8   8
#     4  11  24  39  54  74 101 133 168 207 254 307
#     4   9  16  26  43  70 103 135 166 205 253 299
#     4  10  20  34  54  79 104 132 169 211 253 299
#     4   8  14  26  46  71  99 132 169 210 254 296
#     4  10  20  34  54  79 104 132 169 211 254 302
#     4   8  13  23  41  65  93 128 171 213 250 291
#
# _framework density 19.121652000000001
#
# number of rings (size 3 to 8) (size 9 to 14) (size 15 to 20)
#    0.000    2.667    0.000    3.500    0.000    7.333 
#    0.000    0.833    0.000    4.000    0.000    2.333 
#    0.000    0.000    0.000    0.000    0.000    0.000 
#
# Total GULP energy -133868.599015 kJ/mol
# GULP energy per Si atom -5577.858292 kJ/mol
# Density = 1.907813 g / cm^3
# Si number density = 19.121652 Si / 1000 Ang^3
#
#
#
# Elastic Constant Matrix: (Units=GPa)
#
#
# Indices 1 2 3 4 5 6 
#
# 1 133.5487 10.8085 91.2707 0.0000 0.0000 0.0000
# 2 10.8085 6.1339 4.2924 0.0000 0.0000 0.0000
# 3 91.2707 4.2924 167.9806 0.0000 0.0000 0.0000
# 4 0.0000 0.0000 0.0000 21.4536 0.0000 0.0000
# 5 0.0000 0.0000 0.0000 0.0000 -13.9623 0.0000
# 6 0.0000 0.0000 0.0000 0.0000 0.0000 12.1900
#
#
#
# Elastic Compliance Matrix: (Units=1/GPa)
#
#
# Indices 1 2 3 4 5 6 
#
# 1 0.013883 -0.019534 -0.007044 0.000000 0.000000 0.000000
# 2 -0.019534 0.193481 0.005669 0.000000 0.000000 0.000000
# 3 -0.007044 0.005669 0.009635 0.000000 0.000000 0.000000
# 4 0.000000 0.000000 0.000000 0.046612 0.000000 0.000000
# 5 0.000000 0.000000 0.000000 0.000000 -0.071621 0.000000
# 6 0.000000 0.000000 0.000000 0.000000 0.000000 0.082035
#
#
# Mechanical properties :
#
#
# Convention : Reuss Voigt Hill
#
# Bulk Modulus (GPa) = 5.70833 57.82292 31.76562
# Shear Modulus (GPa) = 13.36059 17.35570 15.35815
#
# Velocity S-wave (km/s) = 2.64619 3.01599 2.83712
# Velocity P-wave (km/s) = 3.51115 6.51409 5.23266
#
# Compressibility (1/GPa) = 0.17518268
#
# Stress axis : x y z
#
# Youngs Moduli (GPa) = 72.03136 5.16848 103.78320
#
# Poissons Ratio (x) = 0.10096 0.73105
# Poissons Ratio (y) = 1.40703 -0.58839
# Poissons Ratio (z) = 0.50739 -0.02930
#
# Static dielectric constant tensor:
#      x y z
#    x 1.653410 0.000000 0.000000 
#    y 0.000000 1.672680 0.000000 
#    z 0.000000 0.000000 1.656610 
# 
# From -- ./inp_files/24288.got.cif
#   From: 2010.05.17/outbox.cif.g08.bks.cpg/sg38_13_cif.got.tgz:24288.got - 2010.06.03 18:07:57.
