data_PCOD9357496
_publ_section_title
;
Structure prediction by ZEFSAII (Michael W. Deem and Ramdas Pophale) SiO2 
 PCOD9357496
Probable space group: A M M 2
;
_chemical_formula_sum "Si O2"
_cell_formula_units_Z 48
_cell_length_a 9.888377
_cell_length_b 7.346634
_cell_length_c 31.355752
_cell_angle_alpha 90.000000
_cell_angle_beta 90.000000
_cell_angle_gamma 90.000000
_cell_volume 2277.878949
_symmetry_space_group_name_H-M "A M M 2"
_symmetry_group_IT_number 38
_symmetry_cell_setting 'orthorhombic'
loop_
_space_group_symop_operation_xyz
x,y,z
-x,-y,z
-x,y,z
x,-y,z
x,1/2+y,1/2+z
-x,1/2-y,1/2+z
-x,1/2+y,1/2+z
x,1/2-y,1/2+z
loop_
_atom_site_type_symbol
_atom_site_label
_atom_site_fract_x
_atom_site_fract_y
_atom_site_fract_z
Si Si1 0.154342 0.778506 0.486510
Si Si2 0.655442 0.277520 0.063407
Si Si3 0.154135 0.221612 0.640145
Si Si4 0.154112 0.221982 0.389375
Si Si5 0.152039 0.781337 0.737057
Si Si6 0.348079 0.714925 0.815031
O O1 0.261313 0.719007 0.521688
O O2 0.185399 0.722928 0.437961
O O3 0.000000 0.723217 0.496684
O O4 0.154675 0.000000 0.486897
O O5 0.500000 0.219183 0.063290
O O6 0.655270 0.500000 0.063399
O O7 0.737846 0.218904 0.105298
O O8 0.182302 0.279951 0.688740
O O9 0.000000 0.275311 0.629241
O O10 0.155565 0.000000 0.639973
O O11 0.259230 0.288320 0.354226
O O12 0.000000 0.277328 0.379291
O O13 0.154613 0.000000 0.388936
O O14 0.263122 0.733286 0.771733
O O15 0.000000 0.717822 0.748735
O O16 0.147017 0.000000 0.735696
O O17 0.500000 0.789079 0.811923
O O18 0.359995 0.500000 0.823019
#
# Coordination Sequence:
#
# PCOD9357496 Si02
#       6
#     8   8   8   8   8   8
#     4   8  13  21  33  49  71 102 138 172 207 248
#     4   9  15  20  29  49  76 105 135 166 204 252
#     4   8  14  25  39  54  75 104 137 173 212 253
#     4   8  14  25  40  56  76 107 145 180 214 253
#     4   9  18  32  49  67  86 113 151 190 225 261
#     4  10  20  31  44  65  92 120 148 180 222 269
#
# _framework density 21.072233000000001
#
# number of rings (size 3 to 8) (size 9 to 14) (size 15 to 20)
#    0.000    3.333    0.000    3.000    0.000    4.667 
#    0.000    5.000    0.000    0.000    0.000    0.000 
#    0.000    1.333    0.000    7.333    0.000   12.167 
#
# Total GULP energy -133958.157801 kJ/mol
# GULP energy per Si atom -5581.589908 kJ/mol
# Density = 2.102427 g / cm^3
# Si number density = 21.072233 Si / 1000 Ang^3
#
#
#
# Elastic Constant Matrix: (Units=GPa)
#
#
# Indices 1 2 3 4 5 6 
#
# 1 226.6904 7.0443 171.7092 0.0000 0.0000 0.0000
# 2 7.0443 78.5553 2.7589 0.0000 0.0000 0.0000
# 3 171.7092 2.7589 180.9673 0.0000 0.0000 0.0000
# 4 0.0000 0.0000 0.0000 2.6707 0.0000 0.0000
# 5 0.0000 0.0000 0.0000 0.0000 -8.2520 0.0000
# 6 0.0000 0.0000 0.0000 0.0000 0.0000 -1.1973
#
#
#
# Elastic Compliance Matrix: (Units=1/GPa)
#
#
# Indices 1 2 3 4 5 6 
#
# 1 0.015744 -0.000888 -0.014925 0.000000 0.000000 0.000000
# 2 -0.000888 0.012787 0.000647 0.000000 0.000000 0.000000
# 3 -0.014925 0.000647 0.019678 0.000000 0.000000 0.000000
# 4 0.000000 0.000000 0.000000 0.374439 0.000000 0.000000
# 5 0.000000 0.000000 0.000000 0.000000 -0.121183 0.000000
# 6 0.000000 0.000000 0.000000 0.000000 0.000000 -0.835224
#
#
# Mechanical properties :
#
#
# Convention : Reuss Voigt Hill
#
# Bulk Modulus (GPa) = 55.93633 94.35975 75.14804
# Shear Modulus (GPa) = -10.05086 18.95766 4.45340
#
# Velocity S-wave (km/s) = -2.18634 3.00267 1.45533
# Velocity P-wave (km/s) = 4.49769 7.54306 6.20995
#
# Compressibility (1/GPa) = 0.01787747
#
# Stress axis : x y z
#
# Youngs Moduli (GPa) = 63.51606 78.20600 50.81944
#
# Poissons Ratio (x) = 0.06942 0.75848
# Poissons Ratio (y) = 0.05638 -0.03289
# Poissons Ratio (z) = 0.94798 -0.05062
#
# Static dielectric constant tensor:
#      x y z
#    x 1.721910 0.000000 0.000000 
#    y 0.000000 1.963160 0.000000 
#    z 0.000000 0.000000 1.723580 
# 
# From -- ./inp_files/23339.got.cif
#   From: 2010.05.17/outbox.cif.g08.bks.cpg/sg38_12_cif.got.tgz:23339.got - 2010.06.03 18:07:57.
