data_PCOD9357430
_publ_section_title
;
Structure prediction by ZEFSAII (Michael W. Deem and Ramdas Pophale) SiO2 
 PCOD9357430
Probable space group: A M M 2
;
_chemical_formula_sum "Si O2"
_cell_formula_units_Z 56
_cell_length_a 16.952997
_cell_length_b 9.173973
_cell_length_c 20.840756
_cell_angle_alpha 90.000000
_cell_angle_beta 90.000000
_cell_angle_gamma 90.000000
_cell_volume 3241.286436
_symmetry_space_group_name_H-M "A M M 2"
_symmetry_group_IT_number 38
_symmetry_cell_setting 'orthorhombic'
loop_
_space_group_symop_operation_xyz
x,y,z
-x,-y,z
-x,y,z
x,-y,z
x,1/2+y,1/2+z
-x,1/2-y,1/2+z
-x,1/2+y,1/2+z
x,1/2-y,1/2+z
loop_
_atom_site_type_symbol
_atom_site_label
_atom_site_fract_x
_atom_site_fract_y
_atom_site_fract_z
Si Si1 0.409167 0.171680 0.311550
Si Si2 0.845165 0.172597 0.869243
Si Si3 0.269678 0.827163 0.748157
Si Si4 0.589326 0.324559 0.449347
Si Si5 0.754706 0.174340 0.002004
Si Si6 0.000000 0.173984 0.322910
Si Si7 0.831833 0.325123 0.123579
Si Si8 0.000000 0.823960 0.683040
O O1 0.500000 0.193081 0.291903
O O2 0.348549 0.238558 0.261369
O O3 0.398886 0.252067 0.379831
O O4 0.395268 0.000000 0.320099
O O5 0.788225 0.197782 0.808515
O O6 0.798343 0.204955 0.934544
O O7 0.922796 0.267628 0.859405
O O8 0.865763 0.000000 0.869199
O O9 0.224285 0.786283 0.683486
O O10 0.286728 0.000000 0.746418
O O11 0.500000 0.288269 0.471398
O O12 0.593507 0.500000 0.441427
O O13 0.662731 0.281402 0.494066
O O14 0.756747 0.000000 0.011615
O O15 0.799592 0.251190 0.059779
O O16 0.000000 0.245740 0.251890
O O17 0.000000 0.000000 0.318257
O O18 0.829775 0.500000 0.116189
O O19 0.921067 0.286032 0.143840
O O20 0.000000 0.000000 0.694098
#
# Coordination Sequence:
#
# PCOD9357430 Si02
#       8
#     8   8   8   8   8   4   8   4
#     4  10  20  32  51  84 120 148 180 234 292 326
#     4  10  20  38  60  81 111 149 187 227 278 335
#     4  10  19  36  60  82 107 147 193 227 270 336
#     4   9  17  33  57  81 107 146 193 230 270 336
#     4  10  21  37  57  84 115 148 184 230 282 331
#     4  12  24  35  56  91 117 141 185 241 288 322
#     4  10  22  38  60  83 109 149 187 229 283 335
#     4  10  20  41  62  77 107 151 191 227 276 344
#
# _framework density 17.277090999999999
#
# number of rings (size 3 to 8) (size 9 to 14) (size 15 to 20)
#    0.000    2.000    2.857    1.071    0.000    4.286 
#    0.000    2.143    0.000    2.571    0.000    0.000 
#    0.000    0.000    0.000    0.000    0.000    0.000 
#
# Total GULP energy -156268.442063 kJ/mol
# GULP energy per Si atom -5581.015788 kJ/mol
# Density = 1.723777 g / cm^3
# Si number density = 17.277091 Si / 1000 Ang^3
#
#
#
# Elastic Constant Matrix: (Units=GPa)
#
#
# Indices 1 2 3 4 5 6 
#
# 1 133.6159 54.5166 56.6922 0.0000 0.0000 0.0000
# 2 54.5166 33.8672 36.9215 0.0000 0.0000 0.0000
# 3 56.6922 36.9215 105.1453 0.0000 0.0000 0.0000
# 4 0.0000 0.0000 0.0000 29.8636 0.0000 0.0000
# 5 0.0000 0.0000 0.0000 0.0000 18.0621 0.0000
# 6 0.0000 0.0000 0.0000 0.0000 0.0000 22.2207
#
#
#
# Elastic Compliance Matrix: (Units=1/GPa)
#
#
# Indices 1 2 3 4 5 6 
#
# 1 0.021861 -0.036196 0.000923 0.000000 0.000000 0.000000
# 2 -0.036196 0.107774 -0.018328 0.000000 0.000000 0.000000
# 3 0.000923 -0.018328 0.015449 0.000000 0.000000 0.000000
# 4 0.000000 0.000000 0.000000 0.033486 0.000000 0.000000
# 5 0.000000 0.000000 0.000000 0.000000 0.055364 0.000000
# 6 0.000000 0.000000 0.000000 0.000000 0.000000 0.045003
#
#
# Mechanical properties :
#
#
# Convention : Reuss Voigt Hill
#
# Bulk Modulus (GPa) = 26.39836 63.20989 44.80412
# Shear Modulus (GPa) = 12.53866 22.32916 17.43391
#
# Velocity S-wave (km/s) = 2.69688 3.59892 3.18004
# Velocity P-wave (km/s) = 5.00101 7.34404 6.28272
#
# Compressibility (1/GPa) = 0.03788115
#
# Stress axis : x y z
#
# Youngs Moduli (GPa) = 45.74376 9.27866 64.73038
#
# Poissons Ratio (x) = 0.33585 -0.05977
# Poissons Ratio (y) = 1.65576 1.18639
# Poissons Ratio (z) = -0.04224 0.17006
#
# Static dielectric constant tensor:
#      x y z
#    x 1.599430 0.000000 0.000000 
#    y 0.000000 1.576680 0.000000 
#    z 0.000000 0.000000 1.547880 
# 
# From -- ./inp_files/21125.got.cif
#   From: 2010.05.17/outbox.cif.g08.bks.cpg/sg38_11_cif.got.tgz:21125.got - 2010.06.03 18:07:57.
