data_PCOD9357501
_publ_section_title
;
Structure prediction by ZEFSAII (Michael W. Deem and Ramdas Pophale) SiO2 
 PCOD9357501
Probable space group: A M M 2
;
_chemical_formula_sum "Si O2"
_cell_formula_units_Z 64
_cell_length_a 8.947661
_cell_length_b 14.677768
_cell_length_c 28.802407
_cell_angle_alpha 90.000000
_cell_angle_beta 90.000000
_cell_angle_gamma 90.000000
_cell_volume 3782.668854
_symmetry_space_group_name_H-M "A M M 2"
_symmetry_group_IT_number 38
_symmetry_cell_setting 'orthorhombic'
loop_
_space_group_symop_operation_xyz
x,y,z
-x,-y,z
-x,y,z
x,-y,z
x,1/2+y,1/2+z
-x,1/2-y,1/2+z
-x,1/2+y,1/2+z
x,1/2-y,1/2+z
loop_
_atom_site_type_symbol
_atom_site_label
_atom_site_fract_x
_atom_site_fract_y
_atom_site_fract_z
Si Si1 0.320898 0.606663 0.546010
Si Si2 0.822162 0.400153 0.171064
Si Si3 0.319261 0.287175 0.638437
Si Si4 0.821608 0.107219 0.947064
Si Si5 0.669771 0.856543 0.234872
Si Si6 0.177820 0.600522 0.828279
Si Si7 0.669499 0.855620 0.764134
Si Si8 0.320118 0.712190 0.361704
O O1 0.500000 0.615677 0.539514
O O2 0.290710 0.500000 0.556221
O O3 0.276397 0.668469 0.589649
O O4 0.238662 0.630599 0.498291
O O5 0.778677 0.500000 0.152095
O O6 0.746059 0.313340 0.146882
O O7 0.773126 0.398392 0.225121
O O8 0.000000 0.390616 0.167918
O O9 0.500000 0.281349 0.640764
O O10 0.275354 0.352316 0.681867
O O11 0.744200 0.168304 0.908067
O O12 0.000000 0.117872 0.945108
O O13 0.785846 0.000000 0.939261
O O14 0.500000 0.893006 0.236943
O O15 0.772864 0.898642 0.274236
O O16 0.660866 0.750369 0.249333
O O17 0.217245 0.500000 0.847268
O O18 0.257972 0.686236 0.852332
O O19 0.000000 0.612633 0.831531
O O20 0.500000 0.892139 0.761848
O O21 0.722693 0.851095 0.817233
O O22 0.500000 0.715634 0.362236
#
# Coordination Sequence:
#
# PCOD9357501 Si02
#       8
#     8   8   8   8   8   8   8   8
#     4   9  18  34  55  77 100 125 157 200 248 298
#     4  10  20  31  45  69 101 136 170 203 242 287
#     4   9  18  32  51  74  98 129 167 204 245 290
#     4  10  21  36  54  77 103 129 158 197 250 307
#     4   8  15  28  45  67  95 127 165 204 240 282
#     4  10  20  32  47  71 104 139 172 206 246 292
#     4   8  16  30  46  66  92 124 163 203 240 279
#     4  10  20  34  53  75  99 131 170 209 249 294
#
# _framework density 16.919271999999999
#
# number of rings (size 3 to 8) (size 9 to 14) (size 15 to 20)
#    0.000    2.750    0.000    3.000    0.000    9.250 
#    0.000    3.750    0.000    2.250    0.000    3.500 
#    0.000    0.000    0.000    0.000    0.000    0.000 
#
# Total GULP energy -178314.096091 kJ/mol
# GULP energy per Si atom -5572.315503 kJ/mol
# Density = 1.688076 g / cm^3
# Si number density = 16.919272 Si / 1000 Ang^3
#
#
#
# Elastic Constant Matrix: (Units=GPa)
#
#
# Indices 1 2 3 4 5 6 
#
# 1 41.3324 37.8129 42.2641 0.0000 0.0000 0.0000
# 2 37.8129 93.8187 66.5145 0.0000 0.0000 0.0000
# 3 42.2641 66.5145 135.5686 0.0000 0.0000 0.0000
# 4 0.0000 0.0000 0.0000 20.6718 0.0000 0.0000
# 5 0.0000 0.0000 0.0000 0.0000 13.7250 0.0000
# 6 0.0000 0.0000 0.0000 0.0000 0.0000 36.2112
#
#
#
# Elastic Compliance Matrix: (Units=1/GPa)
#
#
# Indices 1 2 3 4 5 6 
#
# 1 0.042753 -0.011932 -0.007474 0.000000 0.000000 0.000000
# 2 -0.011932 0.019674 -0.005933 0.000000 0.000000 0.000000
# 3 -0.007474 -0.005933 0.012617 0.000000 0.000000 0.000000
# 4 0.000000 0.000000 0.000000 0.048375 0.000000 0.000000
# 5 0.000000 0.000000 0.000000 0.000000 0.072860 0.000000
# 6 0.000000 0.000000 0.000000 0.000000 0.000000 0.027616
#
#
# Mechanical properties :
#
#
# Convention : Reuss Voigt Hill
#
# Bulk Modulus (GPa) = 41.04094 62.65586 51.84840
# Shear Modulus (GPa) = 17.68686 22.39681 20.04184
#
# Velocity S-wave (km/s) = 3.23672 3.64228 3.44547
# Velocity P-wave (km/s) = 6.18693 7.40276 6.82199
#
# Compressibility (1/GPa) = 0.02436591
#
# Stress axis : x y z
#
# Youngs Moduli (GPa) = 23.39027 50.82751 79.25653
#
# Poissons Ratio (x) = 0.60650 0.59236
# Poissons Ratio (y) = 0.27910 0.47022
# Poissons Ratio (z) = 0.17482 0.30156
#
# Static dielectric constant tensor:
#      x y z
#    x 1.564460 0.000000 0.000000 
#    y 0.000000 1.588360 0.000000 
#    z 0.000000 0.000000 1.567970 
# 
# From -- ./inp_files/24708.got.cif
#   From: 2010.05.17/outbox.cif.g08.bks.cpg/sg38_13_cif.got.tgz:24708.got - 2010.06.03 18:07:57.
