data_PCOD9357525
_publ_section_title
;
Structure prediction by ZEFSAII (Michael W. Deem and Ramdas Pophale) SiO2 
 PCOD9357525
Probable space group: A M M 2
;
_chemical_formula_sum "Si O2"
_cell_formula_units_Z 64
_cell_length_a 8.985980
_cell_length_b 18.899690
_cell_length_c 26.895550
_cell_angle_alpha 90.000000
_cell_angle_beta 90.000000
_cell_angle_gamma 90.000000
_cell_volume 4567.731404
_symmetry_space_group_name_H-M "A M M 2"
_symmetry_group_IT_number 38
_symmetry_cell_setting 'orthorhombic'
loop_
_space_group_symop_operation_xyz
x,y,z
-x,-y,z
-x,y,z
x,-y,z
x,1/2+y,1/2+z
-x,1/2-y,1/2+z
-x,1/2+y,1/2+z
x,1/2-y,1/2+z
loop_
_atom_site_type_symbol
_atom_site_label
_atom_site_fract_x
_atom_site_fract_y
_atom_site_fract_z
Si Si1 0.821390 0.161496 0.600670
Si Si2 0.822198 0.338107 0.803075
Si Si3 0.329142 0.210785 0.148448
Si Si4 0.677300 0.583646 0.895188
Si Si5 0.671903 0.791972 0.754955
Si Si6 0.177773 0.416629 0.001118
Si Si7 0.320440 0.582464 0.709591
Si Si8 0.820468 0.082071 0.702095
O O1 0.763692 0.240141 0.611788
O O2 0.771486 0.128718 0.548477
O O3 0.776354 0.112150 0.647553
O O4 0.000000 0.161777 0.600239
O O5 0.759173 0.369849 0.854008
O O6 0.759993 0.259511 0.791951
O O7 0.759548 0.387416 0.758468
O O8 0.000000 0.338162 0.802435
O O9 0.500000 0.208149 0.131633
O O10 0.325362 0.250823 0.201859
O O11 0.277254 0.132087 0.162937
O O12 0.500000 0.593791 0.892139
O O13 0.708028 0.500000 0.885990
O O14 0.737096 0.599998 0.950296
O O15 0.500000 0.799301 0.769848
O O16 0.747196 0.866897 0.742942
O O17 0.199697 0.500000 0.012188
O O18 0.000000 0.406224 0.993880
O O19 0.500000 0.591101 0.716253
O O20 0.289088 0.500000 0.702550
O O21 0.000000 0.087611 0.705423
O O22 0.779107 0.000000 0.706880
#
# Coordination Sequence:
#
# PCOD9357525 Si02
#       8
#     8   8   8   8   8   8   8   8
#     4   9  16  26  41  59  81 111 141 169 204 242
#     4  11  20  29  43  61  81 107 139 172 207 246
#     4   8  15  26  39  56  78 105 136 169 202 238
#     4  10  20  32  44  59  81 108 137 170 207 244
#     4   9  17  29  42  57  80 109 140 172 205 242
#     4   9  17  29  43  59  80 106 138 173 204 236
#     4   9  17  29  43  59  82 111 140 170 205 244
#     4   9  16  26  41  62  87 113 141 172 206 244
#
# _framework density 14.011331999999999
#
# number of rings (size 3 to 8) (size 9 to 14) (size 15 to 20)
#    0.000    2.750    0.000    3.375    0.000    7.750 
#    0.000    0.000    0.000    2.250    0.000    0.000 
#    0.000    1.000    0.000    6.500    0.000    4.250 
#
# Total GULP energy -178263.909490 kJ/mol
# GULP energy per Si atom -5570.747172 kJ/mol
# Density = 1.397944 g / cm^3
# Si number density = 14.011332 Si / 1000 Ang^3
#
#
#
# Elastic Constant Matrix: (Units=GPa)
#
#
# Indices 1 2 3 4 5 6 
#
# 1 52.5713 47.8060 43.0536 0.0000 0.0000 0.0000
# 2 47.8060 119.7087 60.7625 0.0000 0.0000 0.0000
# 3 43.0536 60.7625 84.1786 0.0000 0.0000 0.0000
# 4 0.0000 0.0000 0.0000 26.5460 0.0000 0.0000
# 5 0.0000 0.0000 0.0000 0.0000 18.6988 0.0000
# 6 0.0000 0.0000 0.0000 0.0000 0.0000 22.4374
#
#
#
# Elastic Compliance Matrix: (Units=1/GPa)
#
#
# Indices 1 2 3 4 5 6 
#
# 1 0.037228 -0.008211 -0.013114 0.000000 0.000000 0.000000
# 2 -0.008211 0.014995 -0.006624 0.000000 0.000000 0.000000
# 3 -0.013114 -0.006624 0.023368 0.000000 0.000000 0.000000
# 4 0.000000 0.000000 0.000000 0.037670 0.000000 0.000000
# 5 0.000000 0.000000 0.000000 0.000000 0.053479 0.000000
# 6 0.000000 0.000000 0.000000 0.000000 0.000000 0.044568
#
#
# Mechanical properties :
#
#
# Convention : Reuss Voigt Hill
#
# Bulk Modulus (GPa) = 50.77815 62.18920 56.48367
# Shear Modulus (GPa) = 18.26343 20.52556 19.39450
#
# Velocity S-wave (km/s) = 3.61429 3.83159 3.72452
# Velocity P-wave (km/s) = 7.33054 8.00350 7.67440
#
# Compressibility (1/GPa) = 0.01969351
#
# Stress axis : x y z
#
# Youngs Moduli (GPa) = 26.86170 66.68871 42.79314
#
# Poissons Ratio (x) = 0.54756 0.56117
# Poissons Ratio (y) = 0.22055 0.28348
# Poissons Ratio (z) = 0.35225 0.44178
#
# Static dielectric constant tensor:
#      x y z
#    x 1.471460 0.000000 0.000000 
#    y 0.000000 1.465350 0.000000 
#    z 0.000000 0.000000 1.438600 
# 
# From -- ./inp_files/22257.got.cif
#   From: 2010.05.17/outbox.cif.g08.bks.cpg/sg38_12_cif.got.tgz:22257.got - 2010.06.03 18:07:57.
