data_PCOD9357604
_publ_section_title
;
Structure prediction by ZEFSAII (Michael W. Deem and Ramdas Pophale) SiO2 
 PCOD9357604
Probable space group: A M M 2
;
_chemical_formula_sum "Si O2"
_cell_formula_units_Z 56
_cell_length_a 15.636185
_cell_length_b 21.150248
_cell_length_c 8.995710
_cell_angle_alpha 90.000000
_cell_angle_beta 90.000000
_cell_angle_gamma 90.000000
_cell_volume 2974.963972
_symmetry_space_group_name_H-M "A M M 2"
_symmetry_group_IT_number 38
_symmetry_cell_setting 'orthorhombic'
loop_
_space_group_symop_operation_xyz
x,y,z
-x,-y,z
-x,y,z
x,-y,z
x,1/2+y,1/2+z
-x,1/2-y,1/2+z
-x,1/2+y,1/2+z
x,1/2-y,1/2+z
loop_
_atom_site_type_symbol
_atom_site_label
_atom_site_fract_x
_atom_site_fract_y
_atom_site_fract_z
Si Si1 0.788554 0.683863 0.201550
Si Si2 0.177368 0.685194 0.546884
Si Si3 0.098200 0.071138 0.212831
Si Si4 0.592471 0.075427 0.350583
Si Si5 0.627014 0.332567 0.616798
Si Si6 0.593410 0.791911 0.781305
Si Si7 0.227359 0.926640 0.489224
O O1 0.822106 0.687165 0.369178
O O2 0.826993 0.743826 0.112788
O O3 0.684079 0.686010 0.213157
O O4 0.807056 0.619320 0.116100
O O5 0.114903 0.631068 0.607118
O O6 0.271433 0.664338 0.601378
O O7 0.163994 0.076598 0.349059
O O8 0.000000 0.073379 0.264429
O O9 0.111673 0.000000 0.146556
O O10 0.500000 0.094437 0.415041
O O11 0.596652 0.101469 0.182646
O O12 0.678241 0.096016 0.436082
O O13 0.596057 0.000000 0.348976
O O14 0.598744 0.282296 0.742081
O O15 0.596222 0.308595 0.456258
O O16 0.500000 0.814443 0.725301
O O17 0.233446 0.000000 0.536337
#
# Coordination Sequence:
#
# PCOD9357604 Si02
#       7
#     8   8   8   8   8   8   8
#     4  10  22  36  58  83 117 160 192 237 295 340
#     4  10  20  37  58  85 117 148 189 238 288 342
#     4  10  21  40  67  92 115 148 188 232 287 349
#     4  10  20  33  53  80 112 154 198 236 279 335
#     4  10  20  33  51  76 109 146 188 237 289 332
#     4  10  20  32  49  79 112 149 196 243 284 331
#     4  10  21  39  59  84 118 155 197 242 287 340
#
# _framework density 18.823757000000001
#
# number of rings (size 3 to 8) (size 9 to 14) (size 15 to 20)
#    0.000    2.000    1.429    2.143    6.000    1.143 
#    0.000    5.714    0.000    2.571    0.000    0.000 
#    0.000    0.000    0.000    0.000    0.000    0.000 
#
# Total GULP energy -155985.069029 kJ/mol
# GULP energy per Si atom -5570.895322 kJ/mol
# Density = 1.878091 g / cm^3
# Si number density = 18.823757 Si / 1000 Ang^3
#
#
#
# Elastic Constant Matrix: (Units=GPa)
#
#
# Indices 1 2 3 4 5 6 
#
# 1 71.2636 31.4776 23.9685 0.0000 0.0000 0.0000
# 2 31.4776 93.3089 72.3550 0.0000 0.0000 0.0000
# 3 23.9685 72.3550 99.6194 0.0000 0.0000 0.0000
# 4 0.0000 0.0000 0.0000 32.5996 0.0000 0.0000
# 5 0.0000 0.0000 0.0000 0.0000 -0.1032 0.0000
# 6 0.0000 0.0000 0.0000 0.0000 0.0000 16.1870
#
#
#
# Elastic Compliance Matrix: (Units=1/GPa)
#
#
# Indices 1 2 3 4 5 6 
#
# 1 0.016491 -0.005693 0.000167 0.000000 0.000000 0.000000
# 2 -0.005693 0.026501 -0.017878 0.000000 0.000000 0.000000
# 3 0.000167 -0.017878 0.022983 0.000000 0.000000 0.000000
# 4 0.000000 0.000000 0.000000 0.030675 0.000000 0.000000
# 5 0.000000 0.000000 0.000000 0.000000 -9.686829 0.000000
# 6 0.000000 0.000000 0.000000 0.000000 0.000000 0.061778
#
#
# Mechanical properties :
#
#
# Convention : Reuss Voigt Hill
#
# Bulk Modulus (GPa) = 52.17304 57.75490 54.96397
# Shear Modulus (GPa) = -0.52769 18.82940 9.15085
#
# Velocity S-wave (km/s) = -0.53004 3.16618 2.20724
# Velocity P-wave (km/s) = 5.23471 6.64190 5.97984
#
# Compressibility (1/GPa) = 0.01916699
#
# Stress axis : x y z
#
# Youngs Moduli (GPa) = 60.64026 37.73437 43.50960
#
# Poissons Ratio (x) = 0.21480 -0.00726
# Poissons Ratio (y) = 0.34520 0.77788
# Poissons Ratio (z) = -0.01012 0.67463
#
# Static dielectric constant tensor:
#      x y z
#    x 1.688260 0.000000 0.000000 
#    y 0.000000 1.668640 0.000000 
#    z 0.000000 0.000000 1.622660 
# 
# From -- ./inp_files/5700.got.cif
#   From: 2010.05.17/outbox.cif.g08.bks.cpg/sg38_3_cif.got.tgz:5700.got - 2010.06.03 18:07:57.
