data_PCOD9357019
_publ_section_title
;
Structure prediction by ZEFSAII (Michael W. Deem and Ramdas Pophale) SiO2 
 PCOD9357019
Probable space group: A M M 2
;
_chemical_formula_sum "Si O2"
_cell_formula_units_Z 48
_cell_length_a 8.282988
_cell_length_b 14.968585
_cell_length_c 21.086000
_cell_angle_alpha 90.000000
_cell_angle_beta 90.000000
_cell_angle_gamma 90.000000
_cell_volume 2614.339485
_symmetry_space_group_name_H-M "A M M 2"
_symmetry_group_IT_number 38
_symmetry_cell_setting 'orthorhombic'
loop_
_space_group_symop_operation_xyz
x,y,z
-x,-y,z
-x,y,z
x,-y,z
x,1/2+y,1/2+z
-x,1/2-y,1/2+z
-x,1/2+y,1/2+z
x,1/2-y,1/2+z
loop_
_atom_site_type_symbol
_atom_site_label
_atom_site_fract_x
_atom_site_fract_y
_atom_site_fract_z
Si Si1 0.692846 0.692230 0.959280
Si Si2 0.195137 0.809523 0.219058
Si Si3 0.196966 0.500000 0.773576
Si Si4 0.804829 0.500000 0.522678
Si Si5 0.304935 0.500000 0.377178
Si Si6 0.695010 0.194210 0.836911
Si Si7 0.195080 0.309472 0.576440
Si Si8 0.807007 0.500000 0.920159
O O1 0.500000 0.694410 0.957877
O O2 0.752538 0.747784 0.897560
O O3 0.749208 0.590544 0.953014
O O4 0.750083 0.740633 0.022934
O O5 0.249334 0.909122 0.239409
O O6 0.250628 0.740592 0.272386
O O7 0.250300 0.788381 0.147767
O O8 0.000000 0.810403 0.219019
O O9 0.250678 0.500000 0.846806
O O10 0.000000 0.500000 0.773235
O O11 0.747421 0.500000 0.450328
O O12 0.750174 0.590871 0.556647
O O13 0.000000 0.500000 0.523475
O O14 0.500000 0.500000 0.375599
O O15 0.248812 0.407899 0.345200
O O16 0.500000 0.194234 0.838435
O O17 0.000000 0.310264 0.576729
O O18 0.000000 0.500000 0.918974
#
# Coordination Sequence:
#
# PCOD9357019 Si02
#       8
#     8   8   4   4   4   8   8   4
#     4  11  22  37  58  83 114 150 191 234 277 337
#     4  10  20  36  57  82 114 148 186 229 279 338
#     4   9  17  31  55  84 112 144 177 223 282 334
#     4  10  19  32  55  85 115 143 182 233 280 335
#     4  10  20  37  56  80 111 145 185 228 279 331
#     4  10  21  36  56  80 110 147 188 233 277 331
#     4  10  21  36  56  84 116 150 187 233 287 340
#     4  11  21  36  60  87 114 146 188 234 281 334
#
# _framework density 18.360278999999998
#
# number of rings (size 3 to 8) (size 9 to 14) (size 15 to 20)
#    0.000    1.833    3.333    1.250    0.000    4.000 
#    0.000    1.250    0.000    6.000    0.000    0.000 
#    0.000    0.000    0.000    0.000    0.000    0.000 
#
# Total GULP energy -134023.697528 kJ/mol
# GULP energy per Si atom -5584.320730 kJ/mol
# Density = 1.831849 g / cm^3
# Si number density = 18.360279 Si / 1000 Ang^3
#
#
#
# Elastic Constant Matrix: (Units=GPa)
#
#
# Indices 1 2 3 4 5 6 
#
# 1 12.0314 23.3741 21.2113 0.0000 0.0000 0.0000
# 2 23.3741 180.3424 114.5521 0.0000 0.0000 0.0000
# 3 21.2113 114.5521 192.5687 0.0000 0.0000 0.0000
# 4 0.0000 0.0000 0.0000 -18.2158 0.0000 0.0000
# 5 0.0000 0.0000 0.0000 0.0000 14.6482 0.0000
# 6 0.0000 0.0000 0.0000 0.0000 0.0000 5.4139
#
#
#
# Elastic Compliance Matrix: (Units=1/GPa)
#
#
# Indices 1 2 3 4 5 6 
#
# 1 0.115423 -0.011065 -0.006131 0.000000 0.000000 0.000000
# 2 -0.011065 0.009973 -0.004714 0.000000 0.000000 0.000000
# 3 -0.006131 -0.004714 0.008673 0.000000 0.000000 0.000000
# 4 0.000000 0.000000 0.000000 -0.054897 0.000000 0.000000
# 5 0.000000 0.000000 0.000000 0.000000 0.068268 0.000000
# 6 0.000000 0.000000 0.000000 0.000000 0.000000 0.184709
#
#
# Mechanical properties :
#
#
# Convention : Reuss Voigt Hill
#
# Bulk Modulus (GPa) = 11.08064 78.13529 44.60797
# Shear Modulus (GPa) = 12.31367 15.42293 13.86830
#
# Velocity S-wave (km/s) = 2.59254 2.90145 2.75133
# Velocity P-wave (km/s) = 3.87426 7.33986 5.86871
#
# Compressibility (1/GPa) = 0.09024747
#
# Stress axis : x y z
#
# Youngs Moduli (GPa) = 8.66379 100.26573 115.30672
#
# Poissons Ratio (x) = 1.10947 0.70699
# Poissons Ratio (y) = 0.09587 0.54356
# Poissons Ratio (z) = 0.05312 0.47266
#
# Static dielectric constant tensor:
#      x y z
#    x 1.646290 0.000000 0.000000 
#    y 0.000000 1.641110 0.000000 
#    z 0.000000 0.000000 1.608320 
# 
# From -- ./inp_files/16719.got.cif
#   From: 2010.05.17/outbox.cif.g08.bks.cpg/sg38_9_cif.got.tgz:16719.got - 2010.06.03 18:07:57.
