data_PCOD9357273
_publ_section_title
;
Structure prediction by ZEFSAII (Michael W. Deem and Ramdas Pophale) SiO2 
 PCOD9357273
Probable space group: A M M 2
;
_chemical_formula_sum "Si O2"
_cell_formula_units_Z 64
_cell_length_a 8.380386
_cell_length_b 25.859617
_cell_length_c 15.124705
_cell_angle_alpha 90.000000
_cell_angle_beta 90.000000
_cell_angle_gamma 90.000000
_cell_volume 3277.728850
_symmetry_space_group_name_H-M "A M M 2"
_symmetry_group_IT_number 38
_symmetry_cell_setting 'orthorhombic'
loop_
_space_group_symop_operation_xyz
x,y,z
-x,-y,z
-x,y,z
x,-y,z
x,1/2+y,1/2+z
-x,1/2-y,1/2+z
-x,1/2+y,1/2+z
x,1/2-y,1/2+z
loop_
_atom_site_type_symbol
_atom_site_label
_atom_site_fract_x
_atom_site_fract_y
_atom_site_fract_z
Si Si1 0.188216 0.393797 0.789430
Si Si2 0.310603 0.768735 0.531349
Si Si3 0.690596 0.057250 0.115894
Si Si4 0.813147 0.869360 0.625590
Si Si5 0.691006 0.829549 0.801300
Si Si6 0.190999 0.719247 0.832696
Si Si7 0.689096 0.060184 0.470737
Si Si8 0.694580 0.654297 0.503822
O O1 0.276463 0.428167 0.717269
O O2 0.237275 0.333567 0.783766
O O3 0.223865 0.412978 0.888327
O O4 0.000000 0.397395 0.772591
O O5 0.500000 0.772800 0.548957
O O6 0.221475 0.812458 0.585848
O O7 0.278001 0.779492 0.427649
O O8 0.256493 0.709464 0.545355
O O9 0.500000 0.055810 0.102642
O O10 0.754605 0.000000 0.095743
O O11 0.753751 0.104313 0.056101
O O12 0.748531 0.867733 0.725151
O O13 0.728757 0.909697 0.560521
O O14 0.000000 0.879657 0.624711
O O15 0.500000 0.825899 0.799533
O O16 0.761268 0.772248 0.785328
O O17 0.741072 0.845531 0.900529
O O18 0.000000 0.717961 0.847108
O O19 0.500000 0.063452 0.454354
O O20 0.734747 0.000000 0.476304
O O21 0.500000 0.654503 0.505719
#
# Coordination Sequence:
#
# PCOD9357273 Si02
#       8
#     8   8   8   8   8   8   8   8
#     4  11  23  37  56  86 123 160 194 239 300 359
#     4  10  19  34  57  84 114 153 197 241 292 354
#     4  10  21  38  60  85 114 152 201 251 295 348
#     4  12  24  38  58  88 124 158 196 245 301 363
#     4  10  21  38  60  84 117 159 201 249 298 357
#     4  10  20  35  54  84 121 156 193 237 297 357
#     4  11  24  42  64  88 116 156 206 251 294 355
#     4   8  18  37  59  85 113 147 196 248 300 343
#
# _framework density 19.525715999999999
#
# number of rings (size 3 to 8) (size 9 to 14) (size 15 to 20)
#    0.000    1.750    1.250    4.125    1.750    4.250 
#    0.000    3.750    0.000    2.250    0.000    0.000 
#    0.000    0.000    0.000    0.000    0.000    0.000 
#
# Total GULP energy -178788.903566 kJ/mol
# GULP energy per Si atom -5587.153236 kJ/mol
# Density = 1.948128 g / cm^3
# Si number density = 19.525716 Si / 1000 Ang^3
#
#
#
# Elastic Constant Matrix: (Units=GPa)
#
#
# Indices 1 2 3 4 5 6 
#
# 1 19.4494 4.5315 -12.8960 0.0000 0.0000 0.0000
# 2 4.5315 103.8403 19.4955 0.0000 0.0000 0.0000
# 3 -12.8960 19.4955 42.7545 0.0000 0.0000 0.0000
# 4 0.0000 0.0000 0.0000 23.6481 0.0000 0.0000
# 5 0.0000 0.0000 0.0000 0.0000 -11.4419 0.0000
# 6 0.0000 0.0000 0.0000 0.0000 0.0000 -315.6959
#
#
#
# Elastic Compliance Matrix: (Units=1/GPa)
#
#
# Indices 1 2 3 4 5 6 
#
# 1 0.069358 -0.007606 0.024389 0.000000 0.000000 0.000000
# 2 -0.007606 0.011366 -0.007477 0.000000 0.000000 0.000000
# 3 0.024389 -0.007477 0.034155 0.000000 0.000000 0.000000
# 4 0.000000 0.000000 0.000000 0.042287 0.000000 0.000000
# 5 0.000000 0.000000 0.000000 0.000000 -0.087398 0.000000
# 6 0.000000 0.000000 0.000000 0.000000 0.000000 -0.003168
#
#
# Mechanical properties :
#
#
# Convention : Reuss Voigt Hill
#
# Bulk Modulus (GPa) = 7.49110 20.92292 14.20701
# Shear Modulus (GPa) = 54.06281 -50.37039 1.84621
#
# Velocity S-wave (km/s) = 5.26765 -5.08458 0.97344
# Velocity P-wave (km/s) = 6.39080 4.87153 2.92494
#
# Compressibility (1/GPa) = 0.13349171
#
# Stress axis : x y z
#
# Youngs Moduli (GPa) = 14.41786 87.98331 29.27834
#
# Poissons Ratio (x) = 0.66917 -0.71406
# Poissons Ratio (y) = 0.10966 0.21891
# Poissons Ratio (z) = -0.35163 0.65783
#
# Static dielectric constant tensor:
#      x y z
#    x 1.664640 0.000000 0.000000 
#    y 0.000000 1.690480 0.000000 
#    z 0.000000 0.000000 1.677850 
# 
# From -- ./inp_files/12851.got.cif
#   From: 2010.05.17/outbox.cif.g08.bks.cpg/sg38_7_cif.got.tgz:12851.got - 2010.06.03 18:07:57.
