data_PCOD9357741
_publ_section_title
;
Structure prediction by ZEFSAII (Michael W. Deem and Ramdas Pophale) SiO2 
 PCOD9357741
Probable space group: A M M 2
;
_chemical_formula_sum "Si O2"
_cell_formula_units_Z 64
_cell_length_a 15.401812
_cell_length_b 13.693816
_cell_length_c 17.284578
_cell_angle_alpha 90.000000
_cell_angle_beta 90.000000
_cell_angle_gamma 90.000000
_cell_volume 3645.483079
_symmetry_space_group_name_H-M "A M M 2"
_symmetry_group_IT_number 38
_symmetry_cell_setting 'orthorhombic'
loop_
_space_group_symop_operation_xyz
x,y,z
-x,-y,z
-x,y,z
x,-y,z
x,1/2+y,1/2+z
-x,1/2-y,1/2+z
-x,1/2+y,1/2+z
x,1/2-y,1/2+z
loop_
_atom_site_type_symbol
_atom_site_label
_atom_site_fract_x
_atom_site_fract_y
_atom_site_fract_z
Si Si1 0.092798 0.383487 0.708120
Si Si2 0.603072 0.776875 0.083658
Si Si3 0.267149 0.301221 0.302186
Si Si4 0.901547 0.115806 0.524958
Si Si5 0.736715 0.384671 0.130535
Si Si6 0.397773 0.612982 0.423434
Si Si7 0.096162 0.736319 0.867467
Si Si8 0.715558 0.115202 0.206889
O O1 0.090320 0.500000 0.715617
O O2 0.094840 0.335955 0.793250
O O3 0.187391 0.362701 0.672184
O O4 0.000000 0.352785 0.671338
O O5 0.500000 0.763318 0.094942
O O6 0.658205 0.678455 0.095319
O O7 0.642702 0.851750 0.146617
O O8 0.618203 0.822165 0.999247
O O9 0.256104 0.354625 0.220196
O O10 0.342271 0.348603 0.352224
O O11 0.177596 0.304619 0.349883
O O12 0.289445 0.188367 0.280051
O O13 0.826397 0.138845 0.586056
O O14 0.890299 0.176257 0.446105
O O15 0.000000 0.133673 0.554060
O O16 0.895503 0.000000 0.507238
O O17 0.721240 0.500000 0.123539
O O18 0.500000 0.618510 0.405562
O O19 0.376582 0.500000 0.440200
O O20 0.000000 0.782554 0.871041
O O21 0.710340 0.000000 0.224704
#
# Coordination Sequence:
#
# PCOD9357741 Si02
#       8
#     8   8   8   8   8   8   8   8
#     4   8  13  23  42  70 103 135 166 202 247 300
#     4  10  21  37  56  77 100 130 174 221 263 313
#     4  10  20  33  51  77 107 138 175 214 255 309
#     4   9  17  30  50  76 104 135 173 215 259 311
#     4  10  21  36  54  78 108 141 174 213 264 316
#     4  10  21  38  59  78  97 128 171 217 263 313
#     4   9  16  27  46  72 103 139 175 210 249 293
#     4   9  18  32  51  77 106 135 168 209 260 309
#
# _framework density 17.555973000000002
#
# number of rings (size 3 to 8) (size 9 to 14) (size 15 to 20)
#    0.000    2.625    0.000    1.875    0.000    5.500 
#    0.000    2.500    0.000    2.625    0.000    0.000 
#    0.000    0.000    0.000    0.000    0.000    0.000 
#
# Total GULP energy -178273.386064 kJ/mol
# GULP energy per Si atom -5571.043315 kJ/mol
# Density = 1.751601 g / cm^3
# Si number density = 17.555973 Si / 1000 Ang^3
#
#
#
# Elastic Constant Matrix: (Units=GPa)
#
#
# Indices 1 2 3 4 5 6 
#
# 1 115.2490 51.6552 63.6360 0.0000 0.0000 0.0000
# 2 51.6552 89.4396 29.1502 0.0000 0.0000 0.0000
# 3 63.6360 29.1502 64.6730 0.0000 0.0000 0.0000
# 4 0.0000 0.0000 0.0000 13.5754 0.0000 0.0000
# 5 0.0000 0.0000 0.0000 0.0000 33.0732 0.0000
# 6 0.0000 0.0000 0.0000 0.0000 0.0000 26.0614
#
#
#
# Elastic Compliance Matrix: (Units=1/GPa)
#
#
# Indices 1 2 3 4 5 6 
#
# 1 0.021874 -0.006586 -0.018555 0.000000 0.000000 0.000000
# 2 -0.006586 0.015089 -0.000321 0.000000 0.000000 0.000000
# 3 -0.018555 -0.000321 0.033864 0.000000 0.000000 0.000000
# 4 0.000000 0.000000 0.000000 0.073663 0.000000 0.000000
# 5 0.000000 0.000000 0.000000 0.000000 0.030236 0.000000
# 6 0.000000 0.000000 0.000000 0.000000 0.000000 0.038371
#
#
# Mechanical properties :
#
#
# Convention : Reuss Voigt Hill
#
# Bulk Modulus (GPa) = 50.24053 62.02716 56.13385
# Shear Modulus (GPa) = 18.47380 22.87001 20.67191
#
# Velocity S-wave (km/s) = 3.24741 3.61320 3.43517
# Velocity P-wave (km/s) = 6.53761 7.26737 6.91213
#
# Compressibility (1/GPa) = 0.01990425
#
# Stress axis : x y z
#
# Youngs Moduli (GPa) = 45.71697 66.27415 29.52974
#
# Poissons Ratio (x) = 0.43646 0.54791
# Poissons Ratio (y) = 0.30108 0.00948
# Poissons Ratio (z) = 0.84826 0.02127
#
# Static dielectric constant tensor:
#      x y z
#    x 1.632830 0.000000 0.000000 
#    y 0.000000 1.596280 0.000000 
#    z 0.000000 0.000000 1.565450 
# 
# From -- ./inp_files/18530.got.cif
#   From: 2010.05.17/outbox.cif.g08.bks.cpg/sg38_10_cif.got.tgz:18530.got - 2010.06.03 18:07:57.
