data_PCOD9357349
_publ_section_title
;
Structure prediction by ZEFSAII (Michael W. Deem and Ramdas Pophale) SiO2 
 PCOD9357349
Probable space group: A M M 2
;
_chemical_formula_sum "Si O2"
_cell_formula_units_Z 32
_cell_length_a 10.362756
_cell_length_b 10.767691
_cell_length_c 11.643198
_cell_angle_alpha 90.000000
_cell_angle_beta 90.000000
_cell_angle_gamma 90.000000
_cell_volume 1299.182433
_symmetry_space_group_name_H-M "A M M 2"
_symmetry_group_IT_number 38
_symmetry_cell_setting 'orthorhombic'
loop_
_space_group_symop_operation_xyz
x,y,z
-x,-y,z
-x,y,z
x,-y,z
x,1/2+y,1/2+z
-x,1/2-y,1/2+z
-x,1/2+y,1/2+z
x,1/2-y,1/2+z
loop_
_atom_site_type_symbol
_atom_site_label
_atom_site_fract_x
_atom_site_fract_y
_atom_site_fract_z
Si Si1 0.148753 0.237442 0.380190
Si Si2 0.156600 0.000000 0.224427
Si Si3 0.728331 0.364228 0.084300
Si Si4 0.158299 0.500000 0.454355
Si Si5 0.500000 0.128746 0.402132
Si Si6 0.500000 0.650094 0.244001
O O1 0.194266 0.124119 0.297483
O O2 0.157682 0.201382 0.516110
O O3 0.204964 0.376828 0.387207
O O4 0.000000 0.252471 0.346356
O O5 0.000000 0.000000 0.223020
O O6 0.198995 0.000000 0.090131
O O7 0.773411 0.500000 0.121750
O O8 0.624462 0.377077 0.982026
O O9 0.632106 0.310933 0.178818
O O10 0.000000 0.500000 0.455441
O O11 0.500000 0.265131 0.353188
O O12 0.500000 0.000000 0.329280
O O13 0.500000 0.500000 0.250892
#
# Coordination Sequence:
#
# PCOD9357349 Si02
#       6
#     8   4   8   4   4   4
#     4  10  19  35  58  83 117 153 187 236 288 340
#     4   9  18  34  57  78 107 156 193 224 279 339
#     4   9  18  35  56  79 109 142 184 230 273 339
#     4   9  20  36  53  82 117 150 195 240 277 329
#     4   9  19  37  58  78 104 141 185 231 280 335
#     4   9  19  37  56  76 108 143 177 231 286 325
#
# _framework density 24.630873000000001
#
# number of rings (size 3 to 8) (size 9 to 14) (size 15 to 20)
#    0.000    2.750    1.250    1.500    0.000    2.000 
#    4.500    2.500    0.000    7.500    0.000    0.000 
#    0.000    0.000    0.000    0.000    0.000    0.000 
#
# Total GULP energy -89112.885744 kJ/mol
# GULP energy per Si atom -5569.555359 kJ/mol
# Density = 2.457481 g / cm^3
# Si number density = 24.630873 Si / 1000 Ang^3
#
#
#
# Elastic Constant Matrix: (Units=GPa)
#
#
# Indices 1 2 3 4 5 6 
#
# 1 28.7883 27.0298 30.0195 0.0000 0.0000 0.0000
# 2 27.0298 176.4039 74.9849 0.0000 0.0000 0.0000
# 3 30.0195 74.9849 108.9446 0.0000 0.0000 0.0000
# 4 0.0000 0.0000 0.0000 24.7949 0.0000 0.0000
# 5 0.0000 0.0000 0.0000 0.0000 33.9407 0.0000
# 6 0.0000 0.0000 0.0000 0.0000 0.0000 23.2572
#
#
#
# Elastic Compliance Matrix: (Units=1/GPa)
#
#
# Indices 1 2 3 4 5 6 
#
# 1 0.049526 -0.002527 -0.011907 0.000000 0.000000 0.000000
# 2 -0.002527 0.008142 -0.004908 0.000000 0.000000 0.000000
# 3 -0.011907 -0.004908 0.015838 0.000000 0.000000 0.000000
# 4 0.000000 0.000000 0.000000 0.040331 0.000000 0.000000
# 5 0.000000 0.000000 0.000000 0.000000 0.029463 0.000000
# 6 0.000000 0.000000 0.000000 0.000000 0.000000 0.042997
#
#
# Mechanical properties :
#
#
# Convention : Reuss Voigt Hill
#
# Bulk Modulus (GPa) = 28.71805 64.24505 46.48155
# Shear Modulus (GPa) = 21.13369 28.53873 24.83621
#
# Velocity S-wave (km/s) = 2.93237 3.40760 3.17888
# Velocity P-wave (km/s) = 4.81142 6.45152 5.69086
#
# Compressibility (1/GPa) = 0.03482130
#
# Stress axis : x y z
#
# Youngs Moduli (GPa) = 20.19155 122.81652 63.13929
#
# Poissons Ratio (x) = 0.31038 0.75182
# Poissons Ratio (y) = 0.05103 0.30988
# Poissons Ratio (z) = 0.24043 0.60276
#
# Static dielectric constant tensor:
#      x y z
#    x 1.968300 0.000000 0.000000 
#    y 0.000000 2.055670 0.000000 
#    z 0.000000 0.000000 1.988150 
# 
# From -- ./inp_files/8913.got.cif
#   From: 2010.05.17/outbox.cif.g08.bks.cpg/sg38_5_cif.got.tgz:8913.got - 2010.06.03 18:07:57.
