data_PCOD9357487
_publ_section_title
;
Structure prediction by ZEFSAII (Michael W. Deem and Ramdas Pophale) SiO2 
 PCOD9357487
Probable space group: A M M 2
;
_chemical_formula_sum "Si O2"
_cell_formula_units_Z 56
_cell_length_a 8.848989
_cell_length_b 14.135086
_cell_length_c 30.169236
_cell_angle_alpha 90.000000
_cell_angle_beta 90.000000
_cell_angle_gamma 90.000000
_cell_volume 3773.604861
_symmetry_space_group_name_H-M "A M M 2"
_symmetry_group_IT_number 38
_symmetry_cell_setting 'orthorhombic'
loop_
_space_group_symop_operation_xyz
x,y,z
-x,-y,z
-x,y,z
x,-y,z
x,1/2+y,1/2+z
-x,1/2-y,1/2+z
-x,1/2+y,1/2+z
x,1/2-y,1/2+z
loop_
_atom_site_type_symbol
_atom_site_label
_atom_site_fract_x
_atom_site_fract_y
_atom_site_fract_z
Si Si1 0.675003 0.385215 0.101350
Si Si2 0.183198 0.295259 0.285266
Si Si3 0.817318 0.716820 0.920137
Si Si4 0.681048 0.891166 0.871638
Si Si5 0.817895 0.110135 0.508775
Si Si6 0.181792 0.110617 0.693633
Si Si7 0.183343 0.106002 0.331394
O O1 0.500000 0.358942 0.100569
O O2 0.685941 0.500000 0.101696
O O3 0.754892 0.355417 0.055873
O O4 0.750782 0.353994 0.147247
O O5 0.251155 0.359789 0.324195
O O6 0.229416 0.331146 0.236910
O O7 0.228663 0.187569 0.296852
O O8 0.000000 0.301210 0.288071
O O9 0.746654 0.817197 0.907166
O O10 0.775985 0.644984 0.880171
O O11 0.000000 0.725137 0.919766
O O12 0.769946 0.673222 0.967043
O O13 0.500000 0.883075 0.870100
O O14 0.721239 0.000000 0.880931
O O15 0.000000 0.111112 0.510489
O O16 0.771815 0.000000 0.502132
O O17 0.000000 0.114048 0.690635
O O18 0.224621 0.000000 0.699713
O O19 0.000000 0.102388 0.330303
O O20 0.240164 0.000000 0.323554
#
# Coordination Sequence:
#
# PCOD9357487 Si02
#       7
#     8   8   8   8   8   8   8
#     4   9  17  27  39  58  84 112 139 167 205 253
#     4   9  17  28  44  64  83 109 144 176 208 247
#     4   9  17  28  44  64  83 109 143 172 201 242
#     4  10  20  31  42  59  85 114 141 172 210 249
#     4   9  16  27  44  65  88 112 138 170 208 248
#     4   9  16  26  40  58  81 108 138 173 210 247
#     4   8  13  23  40  62  86 108 133 167 203 240
#
# _framework density 14.839922
#
# number of rings (size 3 to 8) (size 9 to 14) (size 15 to 20)
#    0.000    3.000    0.000    2.571    0.000    6.286 
#    0.000    1.429    0.000   10.286    0.000    1.000 
#    0.000    5.714    0.000    0.000    0.000    0.000 
#
# Total GULP energy -155927.774686 kJ/mol
# GULP energy per Si atom -5568.849096 kJ/mol
# Density = 1.480615 g / cm^3
# Si number density = 14.839922 Si / 1000 Ang^3
#
#
#
# Elastic Constant Matrix: (Units=GPa)
#
#
# Indices 1 2 3 4 5 6 
#
# 1 15.7073 25.5204 34.5054 0.0000 0.0000 0.0000
# 2 25.5204 103.2759 73.3210 0.0000 0.0000 0.0000
# 3 34.5054 73.3210 157.9130 0.0000 0.0000 0.0000
# 4 0.0000 0.0000 0.0000 24.1032 0.0000 0.0000
# 5 0.0000 0.0000 0.0000 0.0000 5.5689 0.0000
# 6 0.0000 0.0000 0.0000 0.0000 0.0000 12.0177
#
#
#
# Elastic Compliance Matrix: (Units=1/GPa)
#
#
# Indices 1 2 3 4 5 6 
#
# 1 0.145683 -0.019989 -0.022552 0.000000 0.000000 0.000000
# 2 -0.019989 0.017187 -0.003612 0.000000 0.000000 0.000000
# 3 -0.022552 -0.003612 0.012938 0.000000 0.000000 0.000000
# 4 0.000000 0.000000 0.000000 0.041488 0.000000 0.000000
# 5 0.000000 0.000000 0.000000 0.000000 0.179567 0.000000
# 6 0.000000 0.000000 0.000000 0.000000 0.000000 0.083211
#
#
# Mechanical properties :
#
#
# Convention : Reuss Voigt Hill
#
# Bulk Modulus (GPa) = 11.97583 60.39886 36.18735
# Shear Modulus (GPa) = 8.33036 17.90793 13.11914
#
# Velocity S-wave (km/s) = 2.37185 3.47758 2.97651
# Velocity P-wave (km/s) = 3.94822 7.54410 6.02087
#
# Compressibility (1/GPa) = 0.08350151
#
# Stress axis : x y z
#
# Youngs Moduli (GPa) = 6.86420 58.18429 77.29363
#
# Poissons Ratio (x) = 1.16303 1.74313
# Poissons Ratio (y) = 0.13721 0.27921
# Poissons Ratio (z) = 0.15480 0.21018
#
# Static dielectric constant tensor:
#      x y z
#    x 1.494720 0.000000 0.000000 
#    y 0.000000 1.485250 0.000000 
#    z 0.000000 0.000000 1.483130 
# 
# From -- ./inp_files/24623.got.cif
#   From: 2010.05.17/outbox.cif.g08.bks.cpg/sg38_13_cif.got.tgz:24623.got - 2010.06.03 18:07:57.
