data_PCOD9357567
_publ_section_title
;
Structure prediction by ZEFSAII (Michael W. Deem and Ramdas Pophale) SiO2 
 PCOD9357567
Probable space group: A M M 2
;
_chemical_formula_sum "Si O2"
_cell_formula_units_Z 64
_cell_length_a 7.397605
_cell_length_b 11.997474
_cell_length_c 28.520441
_cell_angle_alpha 90.000000
_cell_angle_beta 90.000000
_cell_angle_gamma 90.000000
_cell_volume 2531.262540
_symmetry_space_group_name_H-M "A M M 2"
_symmetry_group_IT_number 38
_symmetry_cell_setting 'orthorhombic'
loop_
_space_group_symop_operation_xyz
x,y,z
-x,-y,z
-x,y,z
x,-y,z
x,1/2+y,1/2+z
-x,1/2-y,1/2+z
-x,1/2+y,1/2+z
x,1/2-y,1/2+z
loop_
_atom_site_type_symbol
_atom_site_label
_atom_site_fract_x
_atom_site_fract_y
_atom_site_fract_z
Si Si1 0.203878 0.122983 0.114450
Si Si2 0.789178 0.375608 0.244117
Si Si3 0.294468 0.152680 0.011821
Si Si4 0.217455 0.118951 0.478954
Si Si5 0.788432 0.125034 0.631385
Si Si6 0.778707 0.622935 0.770552
Si Si7 0.282215 0.881745 0.905571
Si Si8 0.794386 0.652175 0.873908
O O1 0.195786 0.116073 0.058020
O O2 0.285293 0.248020 0.121805
O O3 0.000000 0.127651 0.134665
O O4 0.280327 0.000000 0.129247
O O5 0.716418 0.500000 0.259959
O O6 0.783052 0.380257 0.187726
O O7 0.719095 0.248593 0.255144
O O8 0.000000 0.374397 0.258726
O O9 0.500000 0.113970 0.014394
O O10 0.294295 0.285354 0.010260
O O11 0.221270 0.124519 0.959984
O O12 0.285114 0.124749 0.425018
O O13 0.000000 0.132746 0.477029
O O14 0.260654 0.000000 0.498619
O O15 0.000000 0.129062 0.615471
O O16 0.720520 0.000000 0.615867
O O17 0.728109 0.500000 0.749165
O O18 0.717283 0.616210 0.824845
O O19 0.000000 0.625474 0.768665
O O20 0.500000 0.870648 0.907121
O O21 0.205879 0.784846 0.874749
O O22 0.232982 0.000000 0.885911
O O23 0.000000 0.613147 0.875321
#
# Coordination Sequence:
#
# PCOD9357567 Si02
#       8
#     8   8   8   8   8   8   8   8
#     4  10  20  32  48  72  98 123 157 201 244 290
#     4   8  14  25  41  63  93 126 157 190 231 280
#     4  10  20  33  48  67  93 124 159 199 244 293
#     4   9  17  30  47  65  90 127 167 205 245 287
#     4   8  15  29  47  66  92 127 160 190 232 285
#     4   9  16  25  40  65  97 129 157 189 233 282
#     4   9  18  32  47  62  85 121 162 200 239 284
#     4   9  17  28  43  66  94 123 157 196 238 282
#
# _framework density 25.283825
#
# number of rings (size 3 to 8) (size 9 to 14) (size 15 to 20)
#    0.000    3.000    0.000    1.875    0.000    4.750 
#    0.000    5.000    0.000    1.125    0.000    0.875 
#    0.000    1.000    0.000    0.000    0.000    0.000 
#
# Total GULP energy -178188.618799 kJ/mol
# GULP energy per Si atom -5568.394337 kJ/mol
# Density = 2.522628 g / cm^3
# Si number density = 25.283825 Si / 1000 Ang^3
#
#
#
# Elastic Constant Matrix: (Units=GPa)
#
#
# Indices 1 2 3 4 5 6 
#
# 1 76.1788 22.5967 -0.4016 0.0000 0.0000 0.0000
# 2 22.5967 336.1346 33.5728 0.0000 0.0000 0.0000
# 3 -0.4016 33.5728 57.5941 0.0000 0.0000 0.0000
# 4 0.0000 0.0000 0.0000 -93.4290 0.0000 0.0000
# 5 0.0000 0.0000 0.0000 0.0000 -147.0209 0.0000
# 6 0.0000 0.0000 0.0000 0.0000 0.0000 -65.7934
#
#
#
# Elastic Compliance Matrix: (Units=1/GPa)
#
#
# Indices 1 2 3 4 5 6 
#
# 1 0.013418 -0.000968 0.000658 0.000000 0.000000 0.000000
# 2 -0.000968 0.003229 -0.001889 0.000000 0.000000 0.000000
# 3 0.000658 -0.001889 0.018469 0.000000 0.000000 0.000000
# 4 0.000000 0.000000 0.000000 -0.010703 0.000000 0.000000
# 5 0.000000 0.000000 0.000000 0.000000 -0.006802 0.000000
# 6 0.000000 0.000000 0.000000 0.000000 0.000000 -0.015199
#
#
# Mechanical properties :
#
#
# Convention : Reuss Voigt Hill
#
# Bulk Modulus (GPa) = 32.55526 64.60479 48.58003
# Shear Modulus (GPa) = 293.30114 -33.63935 129.83089
#
# Velocity S-wave (km/s) = 10.78218 -3.65152 7.17362
# Velocity P-wave (km/s) = 12.95805 2.79807 9.37390
#
# Compressibility (1/GPa) = 0.03071700
#
# Stress axis : x y z
#
# Youngs Moduli (GPa) = 74.52941 309.72170 54.14619
#
# Poissons Ratio (x) = 0.29971 -0.03561
# Poissons Ratio (y) = 0.07212 0.10227
# Poissons Ratio (z) = -0.04901 0.58501
#
# Static dielectric constant tensor:
#      x y z
#    x 2.293060 0.000000 0.000000 
#    y 0.000000 2.107480 0.000000 
#    z 0.000000 0.000000 1.929200 
# 
# From -- ./inp_files/24614.got.cif
#   From: 2010.05.17/outbox.cif.g08.bks.cpg/sg38_13_cif.got.tgz:24614.got - 2010.06.03 18:07:57.
