data_PCOD9357341
_publ_section_title
;
Structure prediction by ZEFSAII (Michael W. Deem and Ramdas Pophale) SiO2 
 PCOD9357341
Probable space group: A M M 2
;
_chemical_formula_sum "Si O2"
_cell_formula_units_Z 48
_cell_length_a 17.276453
_cell_length_b 7.785741
_cell_length_c 16.555009
_cell_angle_alpha 90.000000
_cell_angle_beta 90.000000
_cell_angle_gamma 90.000000
_cell_volume 2226.814069
_symmetry_space_group_name_H-M "A M M 2"
_symmetry_group_IT_number 38
_symmetry_cell_setting 'orthorhombic'
loop_
_space_group_symop_operation_xyz
x,y,z
-x,-y,z
-x,y,z
x,-y,z
x,1/2+y,1/2+z
-x,1/2-y,1/2+z
-x,1/2+y,1/2+z
x,1/2-y,1/2+z
loop_
_atom_site_type_symbol
_atom_site_label
_atom_site_fract_x
_atom_site_fract_y
_atom_site_fract_z
Si Si1 0.500000 0.204298 0.083440
Si Si2 0.500000 0.290209 0.399863
Si Si3 0.821332 0.711208 0.074819
Si Si4 0.172511 0.200130 0.398134
Si Si5 0.333795 0.208833 0.833527
Si Si6 0.666138 0.794892 0.651550
Si Si7 0.912930 0.795710 0.733922
O O1 0.578779 0.257563 0.126612
O O2 0.500000 0.000000 0.079349
O O3 0.500000 0.270712 0.991961
O O4 0.500000 0.500000 0.398478
O O5 0.580035 0.236471 0.358545
O O6 0.822727 0.500000 0.072784
O O7 0.732596 0.767141 0.091072
O O8 0.869415 0.768877 0.153428
O O9 0.849559 0.770632 0.986712
O O10 0.264903 0.223595 0.388854
O O11 0.133156 0.272665 0.317566
O O12 0.153279 0.000000 0.397732
O O13 0.318525 0.268268 0.742113
O O14 0.331086 0.000000 0.836146
O O15 0.674060 0.000000 0.654884
O O16 0.000000 0.725767 0.740669
O O17 0.917962 0.000000 0.722075
#
# Coordination Sequence:
#
# PCOD9357341 Si02
#       7
#     4   4   8   8   8   8   8
#     4  11  22  33  47  77 118 147 182 239 300 339
#     4   9  19  33  51  79 110 147 194 243 286 331
#     4   9  19  37  60  87 115 152 196 234 279 343
#     4  11  22  36  59  91 124 150 183 239 301 342
#     4  10  19  36  60  80 107 152 203 239 276 338
#     4  10  19  35  58  78 104 149 202 238 271 333
#     4  10  21  41  66  87 112 152 198 235 275 345
#
# _framework density 21.555457000000001
#
# number of rings (size 3 to 8) (size 9 to 14) (size 15 to 20)
#    0.000    2.000    1.667    2.250    0.000    3.000 
#    0.000    5.417    0.000    0.000    0.000    0.000 
#    0.000    0.000    0.000    0.000    0.000    0.000 
#
# Total GULP energy -134016.254057 kJ/mol
# GULP energy per Si atom -5584.010586 kJ/mol
# Density = 2.150640 g / cm^3
# Si number density = 21.555457 Si / 1000 Ang^3
#
#
#
# Elastic Constant Matrix: (Units=GPa)
#
#
# Indices 1 2 3 4 5 6 
#
# 1 120.6488 -6.7083 58.2882 0.0000 0.0000 0.0000
# 2 -6.7083 20.8785 3.5982 0.0000 0.0000 0.0000
# 3 58.2882 3.5982 172.8389 0.0000 0.0000 0.0000
# 4 0.0000 0.0000 0.0000 13.3236 0.0000 0.0000
# 5 0.0000 0.0000 0.0000 0.0000 12.7035 0.0000
# 6 0.0000 0.0000 0.0000 0.0000 0.0000 3.5265
#
#
#
# Elastic Compliance Matrix: (Units=1/GPa)
#
#
# Indices 1 2 3 4 5 6 
#
# 1 0.010207 0.003887 -0.003523 0.000000 0.000000 0.000000
# 2 0.003887 0.049548 -0.002342 0.000000 0.000000 0.000000
# 3 -0.003523 -0.002342 0.007023 0.000000 0.000000 0.000000
# 4 0.000000 0.000000 0.000000 0.075055 0.000000 0.000000
# 5 0.000000 0.000000 0.000000 0.000000 0.078718 0.000000
# 6 0.000000 0.000000 0.000000 0.000000 0.000000 0.283569
#
#
# Mechanical properties :
#
#
# Convention : Reuss Voigt Hill
#
# Bulk Modulus (GPa) = 15.91839 47.19137 31.55488
# Shear Modulus (GPa) = 9.45149 23.18992 16.32071
#
# Velocity S-wave (km/s) = 2.09625 3.28354 2.75462
# Velocity P-wave (km/s) = 3.64141 6.02628 4.97875
#
# Compressibility (1/GPa) = 0.06282044
#
# Stress axis : x y z
#
# Youngs Moduli (GPa) = 97.97518 20.18225 142.39750
#
# Poissons Ratio (x) = -0.07844 0.50167
# Poissons Ratio (y) = -0.38079 0.33352
# Poissons Ratio (z) = 0.34517 0.04727
#
# Static dielectric constant tensor:
#      x y z
#    x 1.746200 0.000000 0.000000 
#    y 0.000000 1.794020 0.000000 
#    z 0.000000 0.000000 1.791660 
# 
# From -- ./inp_files/14997.got.cif
#   From: 2010.05.17/outbox.cif.g08.bks.cpg/sg38_8_cif.got.tgz:14997.got - 2010.06.03 18:07:57.
