data_PCOD9357732
_publ_section_title
;
Structure prediction by ZEFSAII (Michael W. Deem and Ramdas Pophale) SiO2 
 PCOD9357732
Probable space group: A M M 2
;
_chemical_formula_sum "Si O2"
_cell_formula_units_Z 64
_cell_length_a 21.419075
_cell_length_b 18.896188
_cell_length_c 8.826699
_cell_angle_alpha 90.000000
_cell_angle_beta 90.000000
_cell_angle_gamma 90.000000
_cell_volume 3572.508161
_symmetry_space_group_name_H-M "A M M 2"
_symmetry_group_IT_number 38
_symmetry_cell_setting 'orthorhombic'
loop_
_space_group_symop_operation_xyz
x,y,z
-x,-y,z
-x,y,z
x,-y,z
x,1/2+y,1/2+z
-x,1/2-y,1/2+z
-x,1/2+y,1/2+z
x,1/2-y,1/2+z
loop_
_atom_site_type_symbol
_atom_site_label
_atom_site_fract_x
_atom_site_fract_y
_atom_site_fract_z
Si Si1 0.311180 0.327929 0.809320
Si Si2 0.068753 0.585837 0.168734
Si Si3 0.198490 0.583982 0.311477
Si Si4 0.570203 0.918469 0.675476
Si Si5 0.068753 0.585837 0.813582
Si Si6 0.570203 0.418469 0.806840
Si Si7 0.311180 0.172071 0.672996
Si Si8 0.801510 0.416018 0.670839
O O1 0.374493 0.367470 0.756655
O O2 0.307962 0.250000 0.741158
O O3 0.252093 0.373487 0.755920
O O4 0.311829 0.324324 0.991158
O O5 0.067697 0.500000 0.177518
O O6 0.129569 0.608730 0.260092
O O7 0.000000 0.610484 0.221051
O O8 0.075605 0.603942 0.991158
O O9 0.203796 0.500000 0.276097
O O10 0.252093 0.626513 0.226396
O O11 0.205265 0.592613 0.491158
O O12 0.500000 0.898209 0.724092
O O13 0.570320 0.918049 0.491158
O O14 0.625507 0.867470 0.725661
O O15 0.581590 0.000000 0.721760
O O16 0.067697 0.500000 0.804798
O O17 0.129569 0.608730 0.722224
O O18 0.000000 0.610484 0.761264
O O19 0.500000 0.398209 0.758223
O O20 0.581590 0.500000 0.760556
O O21 0.796204 0.500000 0.706219
#
# Coordination Sequence:
#
# PCOD9357732 Si02
#       8
#     8   8   8   8   8   8   8   8
#     4  11  22  35  52  74 103 139 176 214 257 305
#     4   8  14  26  46  73 103 133 167 208 253 302
#     4  10  20  33  51  76 105 136 172 215 259 305
#     4   8  15  30  53  79 103 129 166 210 254 303
#     4   8  14  26  46  73 103 133 167 208 253 302
#     4   8  15  30  53  79 103 129 166 210 254 303
#     4  11  22  35  52  74 103 139 176 214 257 305
#     4  10  20  33  51  76 105 136 172 215 259 305
#
# _framework density 17.914584000000001
#
# number of rings (size 3 to 8) (size 9 to 14) (size 15 to 20)
#    0.000    2.750    0.000    3.750    0.000    3.500 
#    0.000    2.500    0.000    3.000    0.000    8.750 
#    0.000    0.000    0.000    0.000    0.000    0.000 
#
# Total GULP energy -178386.865139 kJ/mol
# GULP energy per Si atom -5574.589536 kJ/mol
# Density = 1.787381 g / cm^3
# Si number density = 17.914584 Si / 1000 Ang^3
#
#
#
# Elastic Constant Matrix: (Units=GPa)
#
#
# Indices 1 2 3 4 5 6 
#
# 1 168.4588 74.3933 56.4805 0.0000 0.0000 0.0000
# 2 74.3933 65.0936 40.8885 0.0000 0.0000 0.0000
# 3 56.4805 40.8885 41.3528 0.0000 0.0000 0.0000
# 4 0.0000 0.0000 0.0000 15.0154 0.0000 0.0000
# 5 0.0000 0.0000 0.0000 0.0000 9.7454 0.0000
# 6 0.0000 0.0000 0.0000 0.0000 0.0000 -5.7865
#
#
#
# Elastic Compliance Matrix: (Units=1/GPa)
#
#
# Indices 1 2 3 4 5 6 
#
# 1 0.012925 -0.009719 -0.008043 0.000000 0.000000 0.000000
# 2 -0.009719 0.047853 -0.034041 0.000000 0.000000 0.000000
# 3 -0.008043 -0.034041 0.068827 0.000000 0.000000 0.000000
# 4 0.000000 0.000000 0.000000 0.066598 0.000000 0.000000
# 5 0.000000 0.000000 0.000000 0.000000 0.102613 0.000000
# 6 0.000000 0.000000 0.000000 0.000000 0.000000 -0.172817
#
#
# Mechanical properties :
#
#
# Convention : Reuss Voigt Hill
#
# Bulk Modulus (GPa) = 38.46490 68.71444 53.58967
# Shear Modulus (GPa) = 20.98446 10.67106 15.82776
#
# Velocity S-wave (km/s) = 3.42623 2.44327 2.97562
# Velocity P-wave (km/s) = 6.09672 6.81171 6.46411
#
# Compressibility (1/GPa) = 0.02599773
#
# Stress axis : x y z
#
# Youngs Moduli (GPa) = 77.36964 20.89720 14.52927
#
# Poissons Ratio (x) = 0.20311 0.11686
# Poissons Ratio (y) = 0.75198 0.49459
# Poissons Ratio (z) = 0.62229 0.71137
#
# Static dielectric constant tensor:
#      x y z
#    x 1.626750 0.000000 0.000000 
#    y 0.000000 1.587320 0.000000 
#    z 0.000000 0.000000 1.595700 
# 
# From -- ./inp_files/6879.got.cif
#   From: 2010.05.17/outbox.cif.g08.bks.cpg/sg38_4_cif.got.tgz:6879.got - 2010.06.03 18:07:57.
