data_PCOD9357175
_publ_section_title
;
Structure prediction by ZEFSAII (Michael W. Deem and Ramdas Pophale) SiO2 
 PCOD9357175
Probable space group: A M M 2
;
_chemical_formula_sum "Si O2"
_cell_formula_units_Z 38
_cell_length_a 7.683341
_cell_length_b 12.391676
_cell_length_c 20.637073
_cell_angle_alpha 90.000000
_cell_angle_beta 90.000000
_cell_angle_gamma 90.000000
_cell_volume 1964.844830
_symmetry_space_group_name_H-M "A M M 2"
_symmetry_group_IT_number 38
_symmetry_cell_setting 'orthorhombic'
loop_
_space_group_symop_operation_xyz
x,y,z
-x,-y,z
-x,y,z
x,-y,z
x,1/2+y,1/2+z
-x,1/2-y,1/2+z
-x,1/2+y,1/2+z
x,1/2-y,1/2+z
loop_
_atom_site_type_symbol
_atom_site_label
_atom_site_fract_x
_atom_site_fract_y
_atom_site_fract_z
Si Si1 0.794755 0.500000 0.310190
Si Si2 0.500000 0.118327 0.026801
Si Si3 0.197652 0.839613 0.926150
Si Si4 0.500000 0.238691 0.649770
Si Si5 0.500000 0.500000 0.201579
Si Si6 0.799248 0.625602 0.717357
Si Si7 0.290666 0.378363 0.867713
O O1 0.760777 0.601442 0.357871
O O2 0.667592 0.500000 0.249382
O O3 0.000000 0.500000 0.292645
O O4 0.667018 0.125780 0.980342
O O5 0.500000 0.000000 0.059436
O O6 0.500000 0.216204 0.076966
O O7 0.215284 0.712938 0.913410
O O8 0.000000 0.868634 0.942961
O O9 0.500000 0.110475 0.660472
O O10 0.331926 0.292545 0.683775
O O11 0.755774 0.500000 0.702073
O O12 0.778785 0.636481 0.794809
O O13 0.000000 0.644745 0.699498
O O14 0.500000 0.367316 0.865586
O O15 0.247971 0.500000 0.888242
#
# Coordination Sequence:
#
# PCOD9357175 Si02
#       7
#     4   4   8   4   2   8   8
#     4  10  22  40  68 100 128 156 201 266 330 381
#     4  12  25  44  65  84 120 163 213 274 309 355
#     4  11  22  39  64  95 123 157 206 259 322 379
#     4  12  26  43  61  88 123 172 219 252 302 373
#     4  12  26  42  64  92 134 174 210 254 318 382
#     4  10  20  37  63  94 126 157 202 260 315 368
#     4  10  19  33  58  93 129 162 193 243 312 383
#
# _framework density 19.339950000000002
#
# number of rings (size 3 to 8) (size 9 to 14) (size 15 to 20)
#    0.000    1.263    3.158    3.474    0.000    4.632 
#    1.895    0.000    0.000    0.000    0.000    0.000 
#    0.000    0.000    0.000    0.000    0.000    0.000 
#
# Total GULP energy -106223.097675 kJ/mol
# GULP energy per Si atom -5590.689351 kJ/mol
# Density = 1.929593 g / cm^3
# Si number density = 19.339950 Si / 1000 Ang^3
#
#
#
# Elastic Constant Matrix: (Units=GPa)
#
#
# Indices 1 2 3 4 5 6 
#
# 1 103.1861 59.3789 41.9644 0.0000 0.0000 0.0000
# 2 59.3789 150.4421 51.5809 0.0000 0.0000 0.0000
# 3 41.9644 51.5809 62.7546 0.0000 0.0000 0.0000
# 4 0.0000 0.0000 0.0000 27.7909 0.0000 0.0000
# 5 0.0000 0.0000 0.0000 0.0000 -16.3501 0.0000
# 6 0.0000 0.0000 0.0000 0.0000 0.0000 -20.9535
#
#
#
# Elastic Compliance Matrix: (Units=1/GPa)
#
#
# Indices 1 2 3 4 5 6 
#
# 1 0.014411 -0.003319 -0.006908 0.000000 0.000000 0.000000
# 2 -0.003319 0.010020 -0.006016 0.000000 0.000000 0.000000
# 3 -0.006908 -0.006016 0.025500 0.000000 0.000000 0.000000
# 4 0.000000 0.000000 0.000000 0.035983 0.000000 0.000000
# 5 0.000000 0.000000 0.000000 0.000000 -0.061162 0.000000
# 6 0.000000 0.000000 0.000000 0.000000 0.000000 -0.047725
#
#
# Mechanical properties :
#
#
# Convention : Reuss Voigt Hill
#
# Bulk Modulus (GPa) = 57.33018 69.13681 63.23350
# Shear Modulus (GPa) = 326.17636 8.99469 167.58553
#
# Velocity S-wave (km/s) = 13.00078 2.15892 9.31883
# Velocity P-wave (km/s) = 15.97085 6.48385 12.18828
#
# Compressibility (1/GPa) = 0.01744282
#
# Stress axis : x y z
#
# Youngs Moduli (GPa) = 69.39213 99.80120 39.21614
#
# Poissons Ratio (x) = 0.33127 0.27092
# Poissons Ratio (y) = 0.23033 0.23593
# Poissons Ratio (z) = 0.47938 0.60042
#
# Static dielectric constant tensor:
#      x y z
#    x 1.681430 0.000000 0.000000 
#    y 0.000000 1.700410 0.000000 
#    z 0.000000 0.000000 1.637030 
# 
# From -- ./inp_files/16357.got.cif
#   From: 2010.05.17/outbox.cif.g08.bks.cpg/sg38_9_cif.got.tgz:16357.got - 2010.06.03 18:07:57.
