data_PCOD9357072
_publ_section_title
;
Structure prediction by ZEFSAII (Michael W. Deem and Ramdas Pophale) SiO2 
 PCOD9357072
Probable space group: A M M 2
;
_chemical_formula_sum "Si O2"
_cell_formula_units_Z 56
_cell_length_a 20.210498
_cell_length_b 7.485539
_cell_length_c 16.452189
_cell_angle_alpha 90.000000
_cell_angle_beta 90.000000
_cell_angle_gamma 90.000000
_cell_volume 2488.993614
_symmetry_space_group_name_H-M "A M M 2"
_symmetry_group_IT_number 38
_symmetry_cell_setting 'orthorhombic'
loop_
_space_group_symop_operation_xyz
x,y,z
-x,-y,z
-x,y,z
x,-y,z
x,1/2+y,1/2+z
-x,1/2-y,1/2+z
-x,1/2+y,1/2+z
x,1/2-y,1/2+z
loop_
_atom_site_type_symbol
_atom_site_label
_atom_site_fract_x
_atom_site_fract_y
_atom_site_fract_z
Si Si1 0.710860 0.782576 0.120260
Si Si2 0.845472 0.780372 0.045800
Si Si3 0.925889 0.289959 0.702746
Si Si4 0.145967 0.204551 0.869188
Si Si5 0.427933 0.788661 0.362194
Si Si6 0.714621 0.716648 0.804930
Si Si7 0.428299 0.284251 0.554202
O O1 0.769346 0.725808 0.060718
O O2 0.728522 0.732363 0.211984
O O3 0.637817 0.718444 0.097312
O O4 0.709008 0.000000 0.118387
O O5 0.886755 0.718614 0.124233
O O6 0.845796 0.000000 0.044395
O O7 0.870601 0.718063 0.957849
O O8 0.931705 0.500000 0.686092
O O9 0.886325 0.278780 0.787341
O O10 0.000000 0.215698 0.710887
O O11 0.225418 0.215209 0.859413
O O12 0.124714 0.000000 0.870426
O O13 0.500000 0.716191 0.335414
O O14 0.358923 0.718608 0.327378
O O15 0.424910 0.765037 0.459323
O O16 0.428729 0.000000 0.343206
O O17 0.715359 0.500000 0.810684
O O18 0.500000 0.222567 0.586004
O O19 0.428058 0.500000 0.559699
#
# Coordination Sequence:
#
# PCOD9357072 Si02
#       7
#     8   8   8   8   8   8   8
#     4   9  16  29  51  74  99 134 181 230 266 313
#     4   9  18  34  57  82 109 146 187 224 268 326
#     4  10  21  40  64  86 112 149 189 223 266 335
#     4  11  22  36  59  89 118 146 183 234 284 328
#     4   9  18  31  47  71 103 139 180 229 283 333
#     4  10  19  33  54  76 106 147 189 232 277 333
#     4   9  17  29  47  71  98 133 179 230 279 327
#
# _framework density 22.499054000000001
#
# number of rings (size 3 to 8) (size 9 to 14) (size 15 to 20)
#    0.000    2.429    1.429    1.286    0.000    3.143 
#    0.000    6.429    0.000    0.000    0.000    4.000 
#    0.000    0.000    0.000    0.000    0.000    0.000 
#
# Total GULP energy -156295.720437 kJ/mol
# GULP energy per Si atom -5581.990016 kJ/mol
# Density = 2.244785 g / cm^3
# Si number density = 22.499054 Si / 1000 Ang^3
#
#
#
# Elastic Constant Matrix: (Units=GPa)
#
#
# Indices 1 2 3 4 5 6 
#
# 1 137.7172 -0.5935 63.0602 0.0000 0.0000 0.0000
# 2 -0.5935 60.5299 -3.1553 0.0000 0.0000 0.0000
# 3 63.0602 -3.1553 136.8732 0.0000 0.0000 0.0000
# 4 0.0000 0.0000 0.0000 11.9505 0.0000 0.0000
# 5 0.0000 0.0000 0.0000 0.0000 11.4259 0.0000
# 6 0.0000 0.0000 0.0000 0.0000 0.0000 -9.2443
#
#
#
# Elastic Compliance Matrix: (Units=1/GPa)
#
#
# Indices 1 2 3 4 5 6 
#
# 1 0.009204 -0.000131 -0.004243 0.000000 0.000000 0.000000
# 2 -0.000131 0.016542 0.000442 0.000000 0.000000 0.000000
# 3 -0.004243 0.000442 0.009271 0.000000 0.000000 0.000000
# 4 0.000000 0.000000 0.000000 0.083679 0.000000 0.000000
# 5 0.000000 0.000000 0.000000 0.000000 0.087521 0.000000
# 6 0.000000 0.000000 0.000000 0.000000 0.000000 -0.108175
#
#
# Mechanical properties :
#
#
# Convention : Reuss Voigt Hill
#
# Bulk Modulus (GPa) = 36.82946 50.41589 43.62267
# Shear Modulus (GPa) = 43.49423 21.21368 32.35396
#
# Velocity S-wave (km/s) = 4.40154 3.07395 3.79623
# Velocity P-wave (km/s) = 6.49894 5.92077 6.21658
#
# Compressibility (1/GPa) = 0.02715218
#
# Stress axis : x y z
#
# Youngs Moduli (GPa) = 108.65192 60.45036 107.86083
#
# Poissons Ratio (x) = 0.00792 0.45769
# Poissons Ratio (y) = 0.01423 -0.04764
# Poissons Ratio (z) = 0.46105 -0.02670
#
# Static dielectric constant tensor:
#      x y z
#    x 1.834190 0.000000 0.000000 
#    y 0.000000 1.833120 0.000000 
#    z 0.000000 0.000000 1.802640 
# 
# From -- ./inp_files/15422.got.cif
#   From: 2010.05.17/outbox.cif.g08.bks.cpg/sg38_8_cif.got.tgz:15422.got - 2010.06.03 18:07:57.
