data_PCOD9357073
_publ_section_title
;
Structure prediction by ZEFSAII (Michael W. Deem and Ramdas Pophale) SiO2 
 PCOD9357073
Probable space group: A M M 2
;
_chemical_formula_sum "Si O2"
_cell_formula_units_Z 64
_cell_length_a 9.144156
_cell_length_b 28.574107
_cell_length_c 14.704207
_cell_angle_alpha 90.000000
_cell_angle_beta 90.000000
_cell_angle_gamma 90.000000
_cell_volume 3842.004783
_symmetry_space_group_name_H-M "A M M 2"
_symmetry_group_IT_number 38
_symmetry_cell_setting 'orthorhombic'
loop_
_space_group_symop_operation_xyz
x,y,z
-x,-y,z
-x,y,z
x,-y,z
x,1/2+y,1/2+z
-x,1/2-y,1/2+z
-x,1/2+y,1/2+z
x,1/2-y,1/2+z
loop_
_atom_site_type_symbol
_atom_site_label
_atom_site_fract_x
_atom_site_fract_y
_atom_site_fract_z
Si Si1 0.173794 0.831717 0.872500
Si Si2 0.675261 0.640651 0.986905
Si Si3 0.825693 0.445325 0.673183
Si Si4 0.328959 0.667893 0.191352
Si Si5 0.170142 0.270031 0.933758
Si Si6 0.326905 0.133791 0.057449
Si Si7 0.668227 0.264797 0.607633
Si Si8 0.675213 0.446246 0.867085
O O1 0.235857 0.849231 0.776572
O O2 0.199880 0.775469 0.873251
O O3 0.000000 0.839252 0.881768
O O4 0.257104 0.852956 0.959761
O O5 0.500000 0.644406 0.986597
O O6 0.738218 0.682689 0.925464
O O7 0.717214 0.591208 0.943607
O O8 0.719631 0.648443 0.092366
O O9 0.796621 0.500000 0.651023
O O10 0.751979 0.410084 0.602558
O O11 0.757624 0.436657 0.772818
O O12 0.000000 0.438496 0.675146
O O13 0.500000 0.655942 0.204116
O O14 0.321199 0.724686 0.182897
O O15 0.000000 0.281391 0.928138
O O16 0.214929 0.250592 0.032816
O O17 0.500000 0.125520 0.047522
O O18 0.309417 0.180101 0.121923
O O19 0.500000 0.260421 0.570880
O O20 0.500000 0.442117 0.851753
O O21 0.705400 0.500000 0.893699
#
# Coordination Sequence:
#
# PCOD9357073 Si02
#       8
#     8   8   8   8   8   8   8   8
#     4  10  20  32  46  69 101 135 169 203 242 288
#     4   9  18  32  50  72  98 128 164 206 250 294
#     4  10  21  36  53  75 103 130 156 195 249 302
#     4   9  17  30  47  68  97 133 169 202 240 288
#     4   9  17  28  43  65  93 125 161 198 236 283
#     4  10  19  33  54  76  98 129 169 208 246 291
#     4   8  16  30  46  66  93 125 161 201 242 281
#     4   9  18  34  55  76  97 124 161 204 249 298
#
# _framework density 16.657968
#
# number of rings (size 3 to 8) (size 9 to 14) (size 15 to 20)
#    0.000    2.750    0.000    2.250    0.000    6.250 
#    0.000    3.750    0.000    0.750    0.000    1.750 
#    0.000    0.000    0.000    0.000    0.000    0.000 
#
# Total GULP energy -178155.746651 kJ/mol
# GULP energy per Si atom -5567.367083 kJ/mol
# Density = 1.662005 g / cm^3
# Si number density = 16.657968 Si / 1000 Ang^3
#
#
#
# Elastic Constant Matrix: (Units=GPa)
#
#
# Indices 1 2 3 4 5 6 
#
# 1 48.2904 52.4100 55.5515 0.0000 0.0000 0.0000
# 2 52.4100 105.8175 64.4353 0.0000 0.0000 0.0000
# 3 55.5515 64.4353 84.5528 0.0000 0.0000 0.0000
# 4 0.0000 0.0000 0.0000 20.6907 0.0000 0.0000
# 5 0.0000 0.0000 0.0000 0.0000 8.0919 0.0000
# 6 0.0000 0.0000 0.0000 0.0000 0.0000 22.9252
#
#
#
# Elastic Compliance Matrix: (Units=1/GPa)
#
#
# Indices 1 2 3 4 5 6 
#
# 1 0.099973 -0.017761 -0.052147 0.000000 0.000000 0.000000
# 2 -0.017761 0.020788 -0.004173 0.000000 0.000000 0.000000
# 3 -0.052147 -0.004173 0.049268 0.000000 0.000000 0.000000
# 4 0.000000 0.000000 0.000000 0.048331 0.000000 0.000000
# 5 0.000000 0.000000 0.000000 0.000000 0.123581 0.000000
# 6 0.000000 0.000000 0.000000 0.000000 0.000000 0.043620
#
#
# Mechanical properties :
#
#
# Convention : Reuss Voigt Hill
#
# Bulk Modulus (GPa) = 45.73268 64.82826 55.28047
# Shear Modulus (GPa) = 9.24195 14.75914 12.00055
#
# Velocity S-wave (km/s) = 2.35799 2.97982 2.68696
# Velocity P-wave (km/s) = 5.90991 7.13028 6.54858
#
# Compressibility (1/GPa) = 0.02186620
#
# Stress axis : x y z
#
# Youngs Moduli (GPa) = 10.00272 48.10441 20.29727
#
# Poissons Ratio (x) = 0.85440 1.05844
# Poissons Ratio (y) = 0.17766 0.08469
# Poissons Ratio (z) = 0.52161 0.20073
#
# Static dielectric constant tensor:
#      x y z
#    x 1.557400 0.000000 0.000000 
#    y 0.000000 1.573660 0.000000 
#    z 0.000000 0.000000 1.554410 
# 
# From -- ./inp_files/8595.got.cif
#   From: 2010.05.17/outbox.cif.g08.bks.cpg/sg38_5_cif.got.tgz:8595.got - 2010.06.03 18:07:57.
