data_PCOD9357264
_publ_section_title
;
Structure prediction by ZEFSAII (Michael W. Deem and Ramdas Pophale) SiO2 
 PCOD9357264
Probable space group: A M M 2
;
_chemical_formula_sum "Si O2"
_cell_formula_units_Z 48
_cell_length_a 9.240390
_cell_length_b 7.990610
_cell_length_c 34.979475
_cell_angle_alpha 90.000000
_cell_angle_beta 90.000000
_cell_angle_gamma 90.000000
_cell_volume 2582.756855
_symmetry_space_group_name_H-M "A M M 2"
_symmetry_group_IT_number 38
_symmetry_cell_setting 'orthorhombic'
loop_
_space_group_symop_operation_xyz
x,y,z
-x,-y,z
-x,y,z
x,-y,z
x,1/2+y,1/2+z
-x,1/2-y,1/2+z
-x,1/2+y,1/2+z
x,1/2-y,1/2+z
loop_
_atom_site_type_symbol
_atom_site_label
_atom_site_fract_x
_atom_site_fract_y
_atom_site_fract_z
Si Si1 0.665485 0.798292 0.282770
Si Si2 0.333713 0.196640 0.433307
Si Si3 0.675620 0.000000 0.566140
Si Si4 0.676085 0.684336 0.515145
Si Si5 0.164518 0.801220 0.858596
Si Si6 0.173442 0.195349 0.204183
Si Si7 0.173887 0.500000 0.147890
O O1 0.500000 0.738054 0.282175
O O2 0.748478 0.735426 0.320002
O O3 0.747688 0.756464 0.243578
O O4 0.663399 0.000000 0.284987
O O5 0.500000 0.250986 0.425985
O O6 0.277353 0.287750 0.471271
O O7 0.241906 0.224559 0.395465
O O8 0.336931 0.000000 0.442668
O O9 0.721303 0.835527 0.542347
O O10 0.744468 0.000000 0.607823
O O11 0.500000 0.000000 0.568691
O O12 0.500000 0.690051 0.514019
O O13 0.720131 0.500000 0.528562
O O14 0.000000 0.739147 0.854895
O O15 0.161643 0.000000 0.864303
O O16 0.210277 0.332481 0.172107
O O17 0.000000 0.202112 0.210003
O O18 0.210014 0.000000 0.194907
O O19 0.000000 0.500000 0.142112
#
# Coordination Sequence:
#
# PCOD9357264 Si02
#       7
#     8   8   4   8   8   8   4
#     4  10  21  37  57  82 110 141 183 234 286 337
#     4  10  19  34  57  82 108 141 187 238 285 336
#     4  10  20  36  56  84 114 144 188 232 278 340
#     4   9  17  32  56  83 112 146 182 228 283 334
#     4  11  24  37  50  75 112 151 191 232 276 333
#     4   9  19  37  59  81 110 149 187 228 280 338
#     4  10  22  38  58  84 114 148 188 230 282 344
#
# _framework density 18.584790999999999
#
# number of rings (size 3 to 8) (size 9 to 14) (size 15 to 20)
#    0.000    2.167    0.833    2.000    1.167    6.667 
#    0.000    0.833    0.000    1.000    0.000    0.000 
#    0.000    0.000    0.000    0.000    0.000    0.000 
#
# Total GULP energy -133961.482217 kJ/mol
# GULP energy per Si atom -5581.728426 kJ/mol
# Density = 1.854249 g / cm^3
# Si number density = 18.584791 Si / 1000 Ang^3
#
#
#
# Elastic Constant Matrix: (Units=GPa)
#
#
# Indices 1 2 3 4 5 6 
#
# 1 55.0539 31.7727 52.4796 0.0000 0.0000 0.0000
# 2 31.7727 103.9331 72.2241 0.0000 0.0000 0.0000
# 3 52.4796 72.2241 145.7494 0.0000 0.0000 0.0000
# 4 0.0000 0.0000 0.0000 11.1889 0.0000 0.0000
# 5 0.0000 0.0000 0.0000 0.0000 76.8009 0.0000
# 6 0.0000 0.0000 0.0000 0.0000 0.0000 14.3051
#
#
#
# Elastic Compliance Matrix: (Units=1/GPa)
#
#
# Indices 1 2 3 4 5 6 
#
# 1 0.028035 -0.002373 -0.008919 0.000000 0.000000 0.000000
# 2 -0.002373 0.014876 -0.006517 0.000000 0.000000 0.000000
# 3 -0.008919 -0.006517 0.013302 0.000000 0.000000 0.000000
# 4 0.000000 0.000000 0.000000 0.089375 0.000000 0.000000
# 5 0.000000 0.000000 0.000000 0.000000 0.013021 0.000000
# 6 0.000000 0.000000 0.000000 0.000000 0.000000 0.069905
#
#
# Mechanical properties :
#
#
# Convention : Reuss Voigt Hill
#
# Bulk Modulus (GPa) = 48.55421 68.63214 58.59317
# Shear Modulus (GPa) = 18.45048 30.34298 24.39673
#
# Velocity S-wave (km/s) = 3.15425 4.04502 3.62709
# Velocity P-wave (km/s) = 6.28078 7.66979 7.00977
#
# Compressibility (1/GPa) = 0.02059554
#
# Stress axis : x y z
#
# Youngs Moduli (GPa) = 35.66966 67.22360 75.17715
#
# Poissons Ratio (x) = 0.15950 0.67049
# Poissons Ratio (y) = 0.08463 0.48994
# Poissons Ratio (z) = 0.31813 0.43811
#
# Static dielectric constant tensor:
#      x y z
#    x 1.635440 0.000000 0.000000 
#    y 0.000000 1.674290 0.000000 
#    z 0.000000 0.000000 1.595440 
# 
# From -- ./inp_files/24308.got.cif
#   From: 2010.05.17/outbox.cif.g08.bks.cpg/sg38_13_cif.got.tgz:24308.got - 2010.06.03 18:07:57.
