data_PCOD9357557
_publ_section_title
;
Structure prediction by ZEFSAII (Michael W. Deem and Ramdas Pophale) SiO2 
 PCOD9357557
Probable space group: A M M 2
;
_chemical_formula_sum "Si O2"
_cell_formula_units_Z 56
_cell_length_a 9.466466
_cell_length_b 20.311337
_cell_length_c 15.728008
_cell_angle_alpha 90.000000
_cell_angle_beta 90.000000
_cell_angle_gamma 90.000000
_cell_volume 3024.127606
_symmetry_space_group_name_H-M "A M M 2"
_symmetry_group_IT_number 38
_symmetry_cell_setting 'orthorhombic'
loop_
_space_group_symop_operation_xyz
x,y,z
-x,-y,z
-x,y,z
x,-y,z
x,1/2+y,1/2+z
-x,1/2-y,1/2+z
-x,1/2+y,1/2+z
x,1/2-y,1/2+z
loop_
_atom_site_type_symbol
_atom_site_label
_atom_site_fract_x
_atom_site_fract_y
_atom_site_fract_z
Si Si1 0.661079 0.923691 0.581260
Si Si2 0.833681 0.076588 0.054889
Si Si3 0.333108 0.203458 0.478762
Si Si4 0.168621 0.282124 0.627974
Si Si5 0.662259 0.394549 0.384882
Si Si6 0.664044 0.250033 0.799327
Si Si7 0.152667 0.075040 0.731910
O O1 0.500000 0.921815 0.613808
O O2 0.674194 0.872480 0.505920
O O3 0.758114 0.895134 0.655964
O O4 0.689839 0.000000 0.559097
O O5 0.813750 0.138101 0.119096
O O6 0.000000 0.078927 0.029224
O O7 0.806313 0.000000 0.081515
O O8 0.734038 0.094769 0.975526
O O9 0.500000 0.224039 0.483698
O O10 0.244221 0.247329 0.546111
O O11 0.288189 0.207325 0.380553
O O12 0.241326 0.258073 0.715617
O O13 0.000000 0.268259 0.626741
O O14 0.500000 0.416222 0.386651
O O15 0.665765 0.321375 0.344797
O O16 0.760005 0.429696 0.317022
O O17 0.500000 0.264280 0.776691
O O18 0.000000 0.106286 0.744924
O O19 0.135013 0.000000 0.703257
#
# Coordination Sequence:
#
# PCOD9357557 Si02
#       7
#     8   8   8   8   8   8   8
#     4   9  18  33  54  79 107 143 187 232 280 337
#     4  10  22  40  59  81 115 156 195 243 301 351
#     4  10  20  38  60  82 113 150 187 235 292 344
#     4  11  23  38  60  88 116 151 197 245 290 349
#     4  11  21  34  54  82 111 144 187 235 287 345
#     4  10  22  38  57  82 115 151 188 235 293 349
#     4  10  20  32  47  72 109 147 179 218 274 336
#
# _framework density 18.517737
#
# number of rings (size 3 to 8) (size 9 to 14) (size 15 to 20)
#    0.000    1.857    1.429    2.571    0.000    9.143 
#    0.000    0.714    0.000    0.857    0.000    0.000 
#    0.000    0.000    0.000    0.000    0.000    0.000 
#
# Total GULP energy -155956.269539 kJ/mol
# GULP energy per Si atom -5569.866769 kJ/mol
# Density = 1.847559 g / cm^3
# Si number density = 18.517737 Si / 1000 Ang^3
#
#
#
# Elastic Constant Matrix: (Units=GPa)
#
#
# Indices 1 2 3 4 5 6 
#
# 1 89.8465 43.1841 49.9511 0.0000 0.0000 0.0000
# 2 43.1841 88.7529 29.1378 0.0000 0.0000 0.0000
# 3 49.9511 29.1378 84.4083 0.0000 0.0000 0.0000
# 4 0.0000 0.0000 0.0000 26.2374 0.0000 0.0000
# 5 0.0000 0.0000 0.0000 0.0000 28.8310 0.0000
# 6 0.0000 0.0000 0.0000 0.0000 0.0000 82.0714
#
#
#
# Elastic Compliance Matrix: (Units=1/GPa)
#
#
# Indices 1 2 3 4 5 6 
#
# 1 0.019329 -0.006372 -0.009239 0.000000 0.000000 0.000000
# 2 -0.006372 0.014808 -0.001341 0.000000 0.000000 0.000000
# 3 -0.009239 -0.001341 0.017778 0.000000 0.000000 0.000000
# 4 0.000000 0.000000 0.000000 0.038114 0.000000 0.000000
# 5 0.000000 0.000000 0.000000 0.000000 0.034685 0.000000
# 6 0.000000 0.000000 0.000000 0.000000 0.000000 0.012185
#
#
# Mechanical properties :
#
#
# Convention : Reuss Voigt Hill
#
# Bulk Modulus (GPa) = 55.52185 56.39486 55.95836
# Shear Modulus (GPa) = 28.27979 36.81027 32.54503
#
# Velocity S-wave (km/s) = 3.91215 4.46336 4.19681
# Velocity P-wave (km/s) = 7.10314 7.55531 7.33271
#
# Compressibility (1/GPa) = 0.01801093
#
# Stress axis : x y z
#
# Youngs Moduli (GPa) = 51.73521 67.53225 56.25056
#
# Poissons Ratio (x) = 0.43030 0.51970
# Poissons Ratio (y) = 0.32964 0.07543
# Poissons Ratio (z) = 0.47799 0.09056
#
# Static dielectric constant tensor:
#      x y z
#    x 1.690230 0.000000 0.000000 
#    y 0.000000 1.441640 0.000000 
#    z 0.000000 0.000000 1.610190 
# 
# From -- ./inp_files/12380.got.cif
#   From: 2010.05.17/outbox.cif.g08.bks.cpg/sg38_7_cif.got.tgz:12380.got - 2010.06.03 18:07:57.
