data_PCOD9357069
_publ_section_title
;
Structure prediction by ZEFSAII (Michael W. Deem and Ramdas Pophale) SiO2 
 PCOD9357069
Probable space group: A M M 2
;
_chemical_formula_sum "Si O2"
_cell_formula_units_Z 56
_cell_length_a 24.440627
_cell_length_b 24.860706
_cell_length_c 5.188264
_cell_angle_alpha 90.000000
_cell_angle_beta 90.000000
_cell_angle_gamma 90.000000
_cell_volume 3152.447534
_symmetry_space_group_name_H-M "A M M 2"
_symmetry_group_IT_number 38
_symmetry_cell_setting 'orthorhombic'
loop_
_space_group_symop_operation_xyz
x,y,z
-x,-y,z
-x,y,z
x,-y,z
x,1/2+y,1/2+z
-x,1/2-y,1/2+z
-x,1/2+y,1/2+z
x,1/2-y,1/2+z
loop_
_atom_site_type_symbol
_atom_site_label
_atom_site_fract_x
_atom_site_fract_y
_atom_site_fract_z
Si Si1 0.775893 0.123008 0.948370
Si Si2 0.940743 0.191188 0.904714
Si Si3 0.679853 0.788936 0.969043
Si Si4 0.170673 0.227829 0.856122
Si Si5 0.559124 0.286259 0.399488
Si Si6 0.938468 0.884529 0.404437
Si Si7 0.818176 0.063870 0.438756
O O1 0.722088 0.161358 0.949935
O O2 0.821646 0.169268 0.970173
O O3 0.790014 0.092119 0.685728
O O4 0.784595 0.084358 0.189644
O O5 0.893825 0.234359 0.854028
O O6 0.937407 0.150125 0.665205
O O7 0.000000 0.217451 0.906930
O O8 0.935726 0.155100 0.160092
O O9 0.685800 0.745860 0.733120
O O10 0.617991 0.812468 0.948066
O O11 0.194247 0.232417 0.570835
O O12 0.500000 0.314576 0.434575
O O13 0.559408 0.238435 0.612450
O O14 0.882502 0.919424 0.410035
O O15 0.000000 0.910804 0.392950
O O16 0.815182 0.000000 0.463940
#
# Coordination Sequence:
#
# PCOD9357069 Si02
#       7
#     8   8   8   8   8   8   8
#     4  12  23  39  54  77 109 134 170 219 250 304
#     4  10  20  35  53  72  99 128 159 199 244 302
#     4  10  19  33  53  81 113 151 183 206 250 302
#     4  12  22  33  53  75  99 134 166 192 241 295
#     4   8  14  25  44  72 109 147 181 213 242 282
#     4  10  19  37  58  75  95 121 156 210 271 321
#     4  12  24  40  60  78  97 130 170 216 277 322
#
# _framework density 17.763974000000001
#
# number of rings (size 3 to 8) (size 9 to 14) (size 15 to 20)
#    0.000    1.429    2.857    3.857    0.000    0.857 
#    0.000    0.000    0.000    4.286    0.000    0.000 
#    0.000    3.429    0.000    0.000    0.000    0.000 
#
# Total GULP energy -156038.820391 kJ/mol
# GULP energy per Si atom -5572.815014 kJ/mol
# Density = 1.772354 g / cm^3
# Si number density = 17.763974 Si / 1000 Ang^3
#
#
#
# Elastic Constant Matrix: (Units=GPa)
#
#
# Indices 1 2 3 4 5 6 
#
# 1 150.9549 32.7421 24.4459 0.0000 0.0000 0.0000
# 2 32.7421 55.7135 20.7665 0.0000 0.0000 0.0000
# 3 24.4459 20.7665 109.4269 0.0000 0.0000 0.0000
# 4 0.0000 0.0000 0.0000 16.8843 0.0000 0.0000
# 5 0.0000 0.0000 0.0000 0.0000 17.0452 0.0000
# 6 0.0000 0.0000 0.0000 0.0000 0.0000 11.8279
#
#
#
# Elastic Compliance Matrix: (Units=1/GPa)
#
#
# Indices 1 2 3 4 5 6 
#
# 1 0.007678 -0.004168 -0.000924 0.000000 0.000000 0.000000
# 2 -0.004168 0.021578 -0.003164 0.000000 0.000000 0.000000
# 3 -0.000924 -0.003164 0.009945 0.000000 0.000000 0.000000
# 4 0.000000 0.000000 0.000000 0.059227 0.000000 0.000000
# 5 0.000000 0.000000 0.000000 0.000000 0.058668 0.000000
# 6 0.000000 0.000000 0.000000 0.000000 0.000000 0.084546
#
#
# Mechanical properties :
#
#
# Convention : Reuss Voigt Hill
#
# Bulk Modulus (GPa) = 44.07372 52.44491 48.25931
# Shear Modulus (GPa) = 18.81704 25.02752 21.92228
#
# Velocity S-wave (km/s) = 3.25819 3.75759 3.51677
# Velocity P-wave (km/s) = 6.24652 6.95797 6.61182
#
# Compressibility (1/GPa) = 0.02268926
#
# Stress axis : x y z
#
# Youngs Moduli (GPa) = 130.23902 46.34435 100.54865
#
# Poissons Ratio (x) = 0.19316 0.09294
# Poissons Ratio (y) = 0.54281 0.31812
# Poissons Ratio (z) = 0.12039 0.14662
#
# Static dielectric constant tensor:
#      x y z
#    x 1.748650 0.000000 0.000000 
#    y 0.000000 1.554840 0.000000 
#    z 0.000000 0.000000 1.671370 
# 
# From -- ./inp_files/2255.got.cif
#   From: 2010.05.17/outbox.cif.g08.bks.cpg/sg38_2_cif.got.tgz:2255.got - 2010.06.03 18:07:57.
