data_PCOD9357594
_publ_section_title
;
Structure prediction by ZEFSAII (Michael W. Deem and Ramdas Pophale) SiO2 
 PCOD9357594
Probable space group: A M M 2
;
_chemical_formula_sum "Si O2"
_cell_formula_units_Z 64
_cell_length_a 14.015032
_cell_length_b 18.356129
_cell_length_c 14.277644
_cell_angle_alpha 90.000000
_cell_angle_beta 90.000000
_cell_angle_gamma 90.000000
_cell_volume 3673.091472
_symmetry_space_group_name_H-M "A M M 2"
_symmetry_group_IT_number 38
_symmetry_cell_setting 'orthorhombic'
loop_
_space_group_symop_operation_xyz
x,y,z
-x,-y,z
-x,y,z
x,-y,z
x,1/2+y,1/2+z
-x,1/2-y,1/2+z
-x,1/2+y,1/2+z
x,1/2-y,1/2+z
loop_
_atom_site_type_symbol
_atom_site_label
_atom_site_fract_x
_atom_site_fract_y
_atom_site_fract_z
Si Si1 0.114285 0.585929 0.342240
Si Si2 0.889171 0.412201 0.557647
Si Si3 0.263568 0.667142 0.684571
Si Si4 0.611633 0.671304 0.376607
Si Si5 0.255589 0.335808 0.201552
Si Si6 0.391582 0.586385 0.060018
Si Si7 0.388839 0.663596 0.866718
Si Si8 0.386035 0.581667 0.548618
O O1 0.138275 0.500000 0.336609
O O2 0.135495 0.610724 0.449946
O O3 0.169021 0.627621 0.259207
O O4 0.000000 0.592959 0.331254
O O5 0.882722 0.500000 0.559236
O O6 0.822441 0.378790 0.638218
O O7 0.000000 0.392663 0.573255
O O8 0.236687 0.751781 0.676840
O O9 0.307276 0.652974 0.788179
O O10 0.351353 0.642365 0.619894
O O11 0.500000 0.659695 0.366322
O O12 0.660966 0.665236 0.278147
O O13 0.625192 0.754880 0.408914
O O14 0.646893 0.610101 0.447810
O O15 0.303703 0.377757 0.115344
O O16 0.500000 0.611657 0.088135
O O17 0.388627 0.500000 0.073989
O O18 0.382214 0.606755 0.950779
O O19 0.500000 0.661421 0.830300
O O20 0.500000 0.579207 0.549204
O O21 0.350563 0.500000 0.569588
#
# Coordination Sequence:
#
# PCOD9357594 Si02
#       8
#     8   8   8   8   8   8   8   8
#     4   9  19  37  59  80 102 129 163 208 264 322
#     4   9  19  37  60  83 105 130 162 206 264 323
#     4  11  21  32  52  78 105 136 171 210 255 305
#     4   9  18  32  49  72 103 135 166 207 260 312
#     4  11  21  32  52  78 104 134 171 211 258 309
#     4  10  21  35  50  70 100 140 182 218 248 286
#     4   9  19  35  51  69 100 143 184 215 247 292
#     4  10  20  32  49  76 107 137 171 215 266 315
#
# _framework density 17.424015000000001
#
# number of rings (size 3 to 8) (size 9 to 14) (size 15 to 20)
#    0.000    2.250    0.000    3.750    0.000    7.000 
#    0.000    2.500    0.000    0.750    0.000    1.750 
#    0.000    0.000    0.000    0.000    0.000    0.000 
#
# Total GULP energy -178231.373470 kJ/mol
# GULP energy per Si atom -5569.730421 kJ/mol
# Density = 1.738436 g / cm^3
# Si number density = 17.424015 Si / 1000 Ang^3
#
#
#
# Elastic Constant Matrix: (Units=GPa)
#
#
# Indices 1 2 3 4 5 6 
#
# 1 85.7781 32.5429 40.6232 0.0000 0.0000 0.0000
# 2 32.5429 59.8432 39.2542 0.0000 0.0000 0.0000
# 3 40.6232 39.2542 59.3764 0.0000 0.0000 0.0000
# 4 0.0000 0.0000 0.0000 27.8323 0.0000 0.0000
# 5 0.0000 0.0000 0.0000 0.0000 37.1995 0.0000
# 6 0.0000 0.0000 0.0000 0.0000 0.0000 -42.5304
#
#
#
# Elastic Compliance Matrix: (Units=1/GPa)
#
#
# Indices 1 2 3 4 5 6 
#
# 1 0.017534 -0.002942 -0.010051 0.000000 0.000000 0.000000
# 2 -0.002942 0.029999 -0.017820 0.000000 0.000000 0.000000
# 3 -0.010051 -0.017820 0.035499 0.000000 0.000000 0.000000
# 4 0.000000 0.000000 0.000000 0.035930 0.000000 0.000000
# 5 0.000000 0.000000 0.000000 0.000000 0.026882 0.000000
# 6 0.000000 0.000000 0.000000 0.000000 0.000000 -0.023513
#
#
# Mechanical properties :
#
#
# Convention : Reuss Voigt Hill
#
# Bulk Modulus (GPa) = 46.71511 47.75981 47.23746
# Shear Modulus (GPa) = 26.16520 10.67209 18.41864
#
# Velocity S-wave (km/s) = 3.87935 2.47754 3.25481
# Velocity P-wave (km/s) = 6.85089 5.97111 6.42608
#
# Compressibility (1/GPa) = 0.02140635
#
# Stress axis : x y z
#
# Youngs Moduli (GPa) = 57.03102 33.33435 28.16959
#
# Poissons Ratio (x) = 0.09807 0.28314
# Poissons Ratio (y) = 0.16779 0.50198
# Poissons Ratio (z) = 0.57324 0.59401
#
# Static dielectric constant tensor:
#      x y z
#    x 1.614810 0.000000 0.000000 
#    y 0.000000 1.636050 0.000000 
#    z 0.000000 0.000000 1.598500 
# 
# From -- ./inp_files/10264.got.cif
#   From: 2010.05.17/outbox.cif.g08.bks.cpg/sg38_6_cif.got.tgz:10264.got - 2010.06.03 18:07:57.
