data_PCOD9357875
_publ_section_title
;
Structure prediction by ZEFSAII (Michael W. Deem and Ramdas Pophale) SiO2 
 PCOD9357875
Probable space group: A M M 2
;
_chemical_formula_sum "Si O2"
_cell_formula_units_Z 64
_cell_length_a 20.558280
_cell_length_b 7.788912
_cell_length_c 20.830739
_cell_angle_alpha 90.000000
_cell_angle_beta 90.000000
_cell_angle_gamma 90.000000
_cell_volume 3335.556115
_symmetry_space_group_name_H-M "A M M 2"
_symmetry_group_IT_number 38
_symmetry_cell_setting 'orthorhombic'
loop_
_space_group_symop_operation_xyz
x,y,z
-x,-y,z
-x,y,z
x,-y,z
x,1/2+y,1/2+z
-x,1/2-y,1/2+z
-x,1/2+y,1/2+z
x,1/2-y,1/2+z
loop_
_atom_site_type_symbol
_atom_site_label
_atom_site_fract_x
_atom_site_fract_y
_atom_site_fract_z
Si Si1 0.847412 0.203757 0.905310
Si Si2 0.925212 0.291179 0.529349
Si Si3 0.073714 0.700826 0.780443
Si Si4 0.711124 0.793334 0.951091
Si Si5 0.430200 0.206129 0.950680
Si Si6 0.153416 0.298672 0.156175
Si Si7 0.569984 0.292725 0.102240
Si Si8 0.712279 0.291989 0.102429
O O1 0.882929 0.227838 0.838131
O O2 0.774099 0.272882 0.913197
O O3 0.842093 0.000000 0.915709
O O4 0.891622 0.269786 0.963771
O O5 0.924082 0.500000 0.530843
O O6 0.885343 0.226489 0.590116
O O7 0.000000 0.236749 0.532376
O O8 0.067771 0.500000 0.793198
O O9 0.111585 0.722083 0.713729
O O10 0.000000 0.773942 0.777853
O O11 0.640257 0.726817 0.928717
O O12 0.708433 0.000000 0.944740
O O13 0.719859 0.756380 0.027202
O O14 0.500000 0.272433 0.925385
O O15 0.430560 0.000000 0.941934
O O16 0.430228 0.243607 0.026983
O O17 0.159455 0.500000 0.170467
O O18 0.226074 0.228561 0.143015
O O19 0.500000 0.231578 0.129121
O O20 0.569980 0.500000 0.106788
O O21 0.640805 0.232665 0.125970
O O22 0.713108 0.500000 0.104491
#
# Coordination Sequence:
#
# PCOD9357875 Si02
#       8
#     8   8   8   8   8   8   8   8
#     4  10  20  35  55  77 101 131 166 204 249 298
#     4  10  20  34  53  76 101 129 162 200 245 299
#     4  11  25  42  57  73  96 127 165 210 257 305
#     4   9  16  27  46  71  99 132 165 198 239 287
#     4   8  13  21  35  60  95 130 161 193 230 274
#     4  11  22  35  53  76 102 132 165 204 250 297
#     4   8  13  22  37  59  91 129 162 192 231 278
#     4   9  17  28  44  70 101 130 162 201 241 284
#
# _framework density 19.187204999999999
#
# number of rings (size 3 to 8) (size 9 to 14) (size 15 to 20)
#    0.000    2.500    1.250    1.500    0.000    4.750 
#    0.000    0.000    0.000    0.000    0.000    0.875 
#    0.000    7.000    0.000    0.000    0.000    0.000 
#
# Total GULP energy -178276.830344 kJ/mol
# GULP energy per Si atom -5571.150948 kJ/mol
# Density = 1.914353 g / cm^3
# Si number density = 19.187205 Si / 1000 Ang^3
#
#
#
# Elastic Constant Matrix: (Units=GPa)
#
#
# Indices 1 2 3 4 5 6 
#
# 1 223.2895 5.1602 45.1815 0.0000 0.0000 0.0000
# 2 5.1602 21.9395 -11.7807 0.0000 0.0000 0.0000
# 3 45.1815 -11.7807 57.6129 0.0000 0.0000 0.0000
# 4 0.0000 0.0000 0.0000 19.1134 0.0000 0.0000
# 5 0.0000 0.0000 0.0000 0.0000 9.5801 0.0000
# 6 0.0000 0.0000 0.0000 0.0000 0.0000 12.5792
#
#
#
# Elastic Compliance Matrix: (Units=1/GPa)
#
#
# Indices 1 2 3 4 5 6 
#
# 1 0.005642 -0.004160 -0.005275 0.000000 0.000000 0.000000
# 2 -0.004160 0.054268 0.014359 0.000000 0.000000 0.000000
# 3 -0.005275 0.014359 0.024430 0.000000 0.000000 0.000000
# 4 0.000000 0.000000 0.000000 0.052319 0.000000 0.000000
# 5 0.000000 0.000000 0.000000 0.000000 0.104383 0.000000
# 6 0.000000 0.000000 0.000000 0.000000 0.000000 0.079497
#
#
# Mechanical properties :
#
#
# Convention : Reuss Voigt Hill
#
# Bulk Modulus (GPa) = 10.61695 42.21821 26.41758
# Shear Modulus (GPa) = 14.61614 25.87326 20.24470
#
# Velocity S-wave (km/s) = 2.76300 3.67613 3.25178
# Velocity P-wave (km/s) = 3.96538 6.33006 5.28176
#
# Compressibility (1/GPa) = 0.09418904
#
# Stress axis : x y z
#
# Youngs Moduli (GPa) = 177.24132 18.42691 40.93284
#
# Poissons Ratio (x) = 0.07665 0.21593
# Poissons Ratio (y) = 0.73725 -0.58775
# Poissons Ratio (z) = 0.93498 -0.26459
#
# Static dielectric constant tensor:
#      x y z
#    x 1.769050 0.000000 0.000000 
#    y 0.000000 1.731710 0.000000 
#    z 0.000000 0.000000 1.612050 
# 
# From -- ./inp_files/18917.got.cif
#   From: 2010.05.17/outbox.cif.g08.bks.cpg/sg38_10_cif.got.tgz:18917.got - 2010.06.03 18:07:57.
