data_PCOD9357569
_publ_section_title
;
Structure prediction by ZEFSAII (Michael W. Deem and Ramdas Pophale) SiO2 
 PCOD9357569
Probable space group: A M M 2
;
_chemical_formula_sum "Si O2"
_cell_formula_units_Z 64
_cell_length_a 9.514272
_cell_length_b 16.488933
_cell_length_c 22.844672
_cell_angle_alpha 90.000000
_cell_angle_beta 90.000000
_cell_angle_gamma 90.000000
_cell_volume 3583.876565
_symmetry_space_group_name_H-M "A M M 2"
_symmetry_group_IT_number 38
_symmetry_cell_setting 'orthorhombic'
loop_
_space_group_symop_operation_xyz
x,y,z
-x,-y,z
-x,y,z
x,-y,z
x,1/2+y,1/2+z
-x,1/2-y,1/2+z
-x,1/2+y,1/2+z
x,1/2-y,1/2+z
loop_
_atom_site_type_symbol
_atom_site_label
_atom_site_fract_x
_atom_site_fract_y
_atom_site_fract_z
Si Si1 0.839836 0.806807 0.471120
Si Si2 0.162721 0.377492 0.428330
Si Si3 0.331878 0.593041 0.309027
Si Si4 0.664956 0.913114 0.043504
Si Si5 0.667058 0.909431 0.245780
Si Si6 0.653979 0.405750 0.885635
Si Si7 0.332558 0.235317 0.584245
Si Si8 0.671092 0.729759 0.214328
O O1 0.835998 0.718410 0.441196
O O2 0.771475 0.865251 0.424059
O O3 0.749713 0.803293 0.530370
O O4 0.000000 0.827482 0.484640
O O5 0.246927 0.396874 0.369356
O O6 0.242152 0.411885 0.485134
O O7 0.000000 0.403507 0.424734
O O8 0.500000 0.602578 0.319830
O O9 0.310869 0.500000 0.287637
O O10 0.287944 0.663219 0.262966
O O11 0.500000 0.908126 0.026969
O O12 0.694760 0.832623 0.080510
O O13 0.685916 0.000000 0.074217
O O14 0.500000 0.911336 0.231085
O O15 0.677804 0.901986 0.316182
O O16 0.722782 0.822661 0.223324
O O17 0.722794 0.000000 0.229497
O O18 0.500000 0.367812 0.897440
O O19 0.647519 0.500000 0.900807
O O20 0.500000 0.223721 0.576800
O O21 0.290935 0.204652 0.648330
O O22 0.500000 0.733470 0.216837
#
# Coordination Sequence:
#
# PCOD9357569 Si02
#       8
#     8   8   8   8   8   8   8   8
#     4  10  20  33  49  70  97 129 162 198 243 290
#     4  10  20  32  48  72  99 127 160 197 241 294
#     4  10  20  33  50  72  97 127 163 202 246 294
#     4   9  17  29  46  70  98 125 154 192 240 292
#     4   8  14  25  45  75 104 125 150 190 241 294
#     4   9  17  30  50  76 102 127 157 194 239 292
#     4   9  18  32  49  68  92 125 164 202 239 283
#     4   9  17  30  48  69  95 128 163 200 241 284
#
# _framework density 17.857758
#
# number of rings (size 3 to 8) (size 9 to 14) (size 15 to 20)
#    0.000    2.750    0.000    2.625    0.000    5.250 
#    0.000    3.750    0.000    3.000    0.000    0.000 
#    0.000    0.000    0.000    0.000    0.000    0.000 
#
# Total GULP energy -178234.336335 kJ/mol
# GULP energy per Si atom -5569.823010 kJ/mol
# Density = 1.781711 g / cm^3
# Si number density = 17.857758 Si / 1000 Ang^3
#
#
#
# Elastic Constant Matrix: (Units=GPa)
#
#
# Indices 1 2 3 4 5 6 
#
# 1 40.5066 18.9616 28.2763 0.0000 0.0000 0.0000
# 2 18.9616 52.0134 28.8254 0.0000 0.0000 0.0000
# 3 28.2763 28.8254 58.2430 0.0000 0.0000 0.0000
# 4 0.0000 0.0000 0.0000 0.3462 0.0000 0.0000
# 5 0.0000 0.0000 0.0000 0.0000 -2.0017 0.0000
# 6 0.0000 0.0000 0.0000 0.0000 0.0000 13.7309
#
#
#
# Elastic Compliance Matrix: (Units=1/GPa)
#
#
# Indices 1 2 3 4 5 6 
#
# 1 0.038277 -0.005037 -0.016090 0.000000 0.000000 0.000000
# 2 -0.005037 0.027155 -0.010994 0.000000 0.000000 0.000000
# 3 -0.016090 -0.010994 0.030422 0.000000 0.000000 0.000000
# 4 0.000000 0.000000 0.000000 2.888708 0.000000 0.000000
# 5 0.000000 0.000000 0.000000 0.000000 -0.499587 0.000000
# 6 0.000000 0.000000 0.000000 0.000000 0.000000 0.072828
#
#
# Mechanical properties :
#
#
# Convention : Reuss Voigt Hill
#
# Bulk Modulus (GPa) = 31.63373 33.65440 32.64406
# Shear Modulus (GPa) = 1.89928 7.39507 4.64717
#
# Velocity S-wave (km/s) = 1.03241 2.03718 1.61492
# Velocity P-wave (km/s) = 4.37880 4.94168 4.66873
#
# Compressibility (1/GPa) = 0.03161183
#
# Stress axis : x y z
#
# Youngs Moduli (GPa) = 26.12519 36.82595 32.87072
#
# Poissons Ratio (x) = 0.18549 0.52890
# Poissons Ratio (y) = 0.13159 0.36138
# Poissons Ratio (z) = 0.42036 0.40486
#
# Static dielectric constant tensor:
#      x y z
#    x 1.597490 0.000000 0.000000 
#    y 0.000000 1.695640 0.000000 
#    z 0.000000 0.000000 1.583790 
# 
# From -- ./inp_files/20059.got.cif
#   From: 2010.05.17/outbox.cif.g08.bks.cpg/sg38_11_cif.got.tgz:20059.got - 2010.06.03 18:07:57.
