data_PCOD9357258
_publ_section_title
;
Structure prediction by ZEFSAII (Michael W. Deem and Ramdas Pophale) SiO2 
 PCOD9357258
Probable space group: A M M 2
;
_chemical_formula_sum "Si O2"
_cell_formula_units_Z 56
_cell_length_a 8.747365
_cell_length_b 19.115199
_cell_length_c 15.628328
_cell_angle_alpha 90.000000
_cell_angle_beta 90.000000
_cell_angle_gamma 90.000000
_cell_volume 2613.175572
_symmetry_space_group_name_H-M "A M M 2"
_symmetry_group_IT_number 38
_symmetry_cell_setting 'orthorhombic'
loop_
_space_group_symop_operation_xyz
x,y,z
-x,-y,z
-x,y,z
x,-y,z
x,1/2+y,1/2+z
-x,1/2-y,1/2+z
-x,1/2+y,1/2+z
x,1/2-y,1/2+z
loop_
_atom_site_type_symbol
_atom_site_label
_atom_site_fract_x
_atom_site_fract_y
_atom_site_fract_z
Si Si1 0.834091 0.079175 0.585320
Si Si2 0.317031 0.922374 0.114985
Si Si3 0.818367 0.121076 0.293576
Si Si4 0.673646 0.341179 0.955203
Si Si5 0.817519 0.223302 0.058324
Si Si6 0.815358 0.221510 0.747495
Si Si7 0.823277 0.923553 0.791446
O O1 0.692688 0.117275 0.543863
O O2 0.829325 0.076144 0.687667
O O3 0.000000 0.112601 0.561697
O O4 0.836540 0.000000 0.555077
O O5 0.500000 0.917535 0.112414
O O6 0.261174 0.915491 0.213528
O O7 0.247760 0.855204 0.066769
O O8 0.271366 0.000000 0.083150
O O9 0.757449 0.107801 0.387864
O O10 0.779431 0.203748 0.287470
O O11 0.000000 0.111451 0.286391
O O12 0.500000 0.330325 0.929781
O O13 0.754821 0.267966 0.979154
O O14 0.776285 0.264745 0.147208
O O15 0.000000 0.218109 0.054948
O O16 0.752842 0.154370 0.799912
O O17 0.000000 0.213796 0.749069
O O18 0.000000 0.922789 0.822917
O O19 0.757361 0.000000 0.817820
#
# Coordination Sequence:
#
# PCOD9357258 Si02
#       7
#     8   8   8   8   8   8   8
#     4   9  17  30  49  72 100 134 168 203 249 311
#     4  10  21  38  59  85 116 145 179 229 289 346
#     4  10  21  35  53  75 103 143 186 227 269 325
#     4  12  23  34  50  75 109 146 182 228 283 330
#     4  10  19  34  57  80 105 139 185 232 268 322
#     4   8  14  27  48  73  97 124 165 215 260 301
#     4   8  12  21  43  73  99 121 150 193 244 294
#
# _framework density 21.429863000000001
#
# number of rings (size 3 to 8) (size 9 to 14) (size 15 to 20)
#    0.000    2.429    1.429    4.286    0.000    2.000 
#    0.000    0.000    0.000    0.857    0.000    2.000 
#    0.000    0.000    0.000    0.000    0.000    0.000 
#
# Total GULP energy -155915.904488 kJ/mol
# GULP energy per Si atom -5568.425160 kJ/mol
# Density = 2.138109 g / cm^3
# Si number density = 21.429863 Si / 1000 Ang^3
#
#
#
# Elastic Constant Matrix: (Units=GPa)
#
#
# Indices 1 2 3 4 5 6 
#
# 1 54.2629 19.0431 0.8804 0.0000 0.0000 0.0000
# 2 19.0431 108.4344 -21.9248 0.0000 0.0000 0.0000
# 3 0.8804 -21.9248 14.9096 0.0000 0.0000 0.0000
# 4 0.0000 0.0000 0.0000 9.4628 0.0000 0.0000
# 5 0.0000 0.0000 0.0000 0.0000 13.0305 0.0000
# 6 0.0000 0.0000 0.0000 0.0000 0.0000 24.1025
#
#
#
# Elastic Compliance Matrix: (Units=1/GPa)
#
#
# Indices 1 2 3 4 5 6 
#
# 1 0.020499 -0.005472 -0.009257 0.000000 0.000000 0.000000
# 2 -0.005472 0.014585 0.021771 0.000000 0.000000 0.000000
# 3 -0.009257 0.021771 0.099632 0.000000 0.000000 0.000000
# 4 0.000000 0.000000 0.000000 0.105677 0.000000 0.000000
# 5 0.000000 0.000000 0.000000 0.000000 0.076743 0.000000
# 6 0.000000 0.000000 0.000000 0.000000 0.000000 0.041489
#
#
# Mechanical properties :
#
#
# Convention : Reuss Voigt Hill
#
# Bulk Modulus (GPa) = 6.72043 19.28937 13.00490
# Shear Modulus (GPa) = 12.68582 21.29305 16.98943
#
# Velocity S-wave (km/s) = 2.43568 3.15559 2.81871
# Velocity P-wave (km/s) = 3.32459 4.72204 4.08354
#
# Compressibility (1/GPa) = 0.14880009
#
# Stress axis : x y z
#
# Youngs Moduli (GPa) = 48.78236 68.56369 10.03699
#
# Poissons Ratio (x) = 0.37516 0.09291
# Poissons Ratio (y) = 0.26692 -0.21851
# Poissons Ratio (z) = 0.45156 -1.49267
#
# Static dielectric constant tensor:
#      x y z
#    x 1.747660 0.000000 0.000000 
#    y 0.000000 1.909890 0.000000 
#    z 0.000000 0.000000 1.842570 
# 
# From -- ./inp_files/20164.got.cif
#   From: 2010.05.17/outbox.cif.g08.bks.cpg/sg38_11_cif.got.tgz:20164.got - 2010.06.03 18:07:57.
