data_PCOD9357558
_publ_section_title
;
Structure prediction by ZEFSAII (Michael W. Deem and Ramdas Pophale) SiO2 
 PCOD9357558
Probable space group: A M M 2
;
_chemical_formula_sum "Si O2"
_cell_formula_units_Z 64
_cell_length_a 7.722317
_cell_length_b 14.422401
_cell_length_c 24.705404
_cell_angle_alpha 90.000000
_cell_angle_beta 90.000000
_cell_angle_gamma 90.000000
_cell_volume 2751.548372
_symmetry_space_group_name_H-M "A M M 2"
_symmetry_group_IT_number 38
_symmetry_cell_setting 'orthorhombic'
loop_
_space_group_symop_operation_xyz
x,y,z
-x,-y,z
-x,y,z
x,-y,z
x,1/2+y,1/2+z
-x,1/2-y,1/2+z
-x,1/2+y,1/2+z
x,1/2-y,1/2+z
loop_
_atom_site_type_symbol
_atom_site_label
_atom_site_fract_x
_atom_site_fract_y
_atom_site_fract_z
Si Si1 0.205234 0.601166 0.024340
Si Si2 0.194551 0.253488 0.105178
Si Si3 0.701580 0.391337 0.192408
Si Si4 0.293664 0.199273 0.421343
Si Si5 0.791594 0.106692 0.309555
Si Si6 0.806504 0.110467 0.810089
Si Si7 0.697571 0.603126 0.429374
Si Si8 0.789074 0.891936 0.188073
O O1 0.276713 0.500000 0.039724
O O2 0.280350 0.689630 0.056310
O O3 0.000000 0.599808 0.036567
O O4 0.227433 0.619360 0.960892
O O5 0.187711 0.331440 0.151805
O O6 0.277994 0.168444 0.137819
O O7 0.000000 0.224725 0.088310
O O8 0.500000 0.381488 0.178489
O O9 0.746380 0.500000 0.188737
O O10 0.729455 0.357034 0.253744
O O11 0.500000 0.204894 0.426494
O O12 0.255853 0.173072 0.359202
O O13 0.219614 0.297913 0.443775
O O14 0.731063 0.134316 0.249036
O O15 0.000000 0.104183 0.307322
O O16 0.732646 0.000000 0.319695
O O17 0.696289 0.116968 0.864226
O O18 0.000000 0.149048 0.818706
O O19 0.823029 0.000000 0.802808
O O20 0.500000 0.599705 0.449399
O O21 0.775316 0.500000 0.439804
O O22 0.000000 0.881767 0.187693
O O23 0.749630 0.000000 0.181077
#
# Coordination Sequence:
#
# PCOD9357558 Si02
#       8
#     8   8   8   8   8   8   8   8
#     4  10  22  40  59  81 114 151 185 231 289 342
#     4  10  20  35  58  84 108 141 188 234 277 330
#     4  10  20  32  47  72 109 148 181 218 270 329
#     4  11  23  36  56  84 110 145 194 240 280 331
#     4   9  18  34  56  82 114 150 184 223 279 343
#     4   9  17  29  47  72 102 138 180 222 262 313
#     4   9  19  36  53  72 106 147 182 223 280 336
#     4   8  16  33  57  85 115 145 179 223 280 341
#
# _framework density 23.259630000000001
#
# number of rings (size 3 to 8) (size 9 to 14) (size 15 to 20)
#    0.000    2.500    0.000    2.625    1.750    6.250 
#    0.000    0.625    0.000    1.875    0.000    0.000 
#    0.000    0.000    0.000    0.000    0.000    0.000 
#
# Total GULP energy -178459.209183 kJ/mol
# GULP energy per Si atom -5576.850287 kJ/mol
# Density = 2.320669 g / cm^3
# Si number density = 23.259630 Si / 1000 Ang^3
#
#
#
# Elastic Constant Matrix: (Units=GPa)
#
#
# Indices 1 2 3 4 5 6 
#
# 1 45.7034 3.4631 -6.7002 0.0000 0.0000 0.0000
# 2 3.4631 146.1404 40.3734 0.0000 0.0000 0.0000
# 3 -6.7002 40.3734 77.6623 0.0000 0.0000 0.0000
# 4 0.0000 0.0000 0.0000 43.2714 0.0000 0.0000
# 5 0.0000 0.0000 0.0000 0.0000 99.4611 0.0000
# 6 0.0000 0.0000 0.0000 0.0000 0.0000 9.9644
#
#
#
# Elastic Compliance Matrix: (Units=1/GPa)
#
#
# Indices 1 2 3 4 5 6 
#
# 1 0.022351 -0.001241 0.002573 0.000000 0.000000 0.000000
# 2 -0.001241 0.008059 -0.004297 0.000000 0.000000 0.000000
# 3 0.002573 -0.004297 0.015332 0.000000 0.000000 0.000000
# 4 0.000000 0.000000 0.000000 0.023110 0.000000 0.000000
# 5 0.000000 0.000000 0.000000 0.000000 0.010054 0.000000
# 6 0.000000 0.000000 0.000000 0.000000 0.000000 0.100357
#
#
# Mechanical properties :
#
#
# Convention : Reuss Voigt Hill
#
# Bulk Modulus (GPa) = 25.11639 38.19762 31.65701
# Shear Modulus (GPa) = 25.19363 46.03072 35.61218
#
# Velocity S-wave (km/s) = 3.29469 4.45342 3.91714
# Velocity P-wave (km/s) = 5.02942 6.54995 5.83939
#
# Compressibility (1/GPa) = 0.03981463
#
# Stress axis : x y z
#
# Youngs Moduli (GPa) = 44.73981 124.08269 65.22346
#
# Poissons Ratio (x) = 0.15393 -0.16784
# Poissons Ratio (y) = 0.05550 0.28024
# Poissons Ratio (z) = -0.11513 0.53314
#
# Static dielectric constant tensor:
#      x y z
#    x 1.863320 0.000000 0.000000 
#    y 0.000000 1.872520 0.000000 
#    z 0.000000 0.000000 1.867450 
# 
# From -- ./inp_files/22122.got.cif
#   From: 2010.05.17/outbox.cif.g08.bks.cpg/sg38_12_cif.got.tgz:22122.got - 2010.06.03 18:07:57.
