data_PCOD9357298
_publ_section_title
;
Structure prediction by ZEFSAII (Michael W. Deem and Ramdas Pophale) SiO2 
 PCOD9357298
Probable space group: A M M 2
;
_chemical_formula_sum "Si O2"
_cell_formula_units_Z 48
_cell_length_a 16.635255
_cell_length_b 18.273061
_cell_length_c 7.389340
_cell_angle_alpha 90.000000
_cell_angle_beta 90.000000
_cell_angle_gamma 90.000000
_cell_volume 2246.189622
_symmetry_space_group_name_H-M "A M M 2"
_symmetry_group_IT_number 38
_symmetry_cell_setting 'orthorhombic'
loop_
_space_group_symop_operation_xyz
x,y,z
-x,-y,z
-x,y,z
x,-y,z
x,1/2+y,1/2+z
-x,1/2-y,1/2+z
-x,1/2+y,1/2+z
x,1/2-y,1/2+z
loop_
_atom_site_type_symbol
_atom_site_label
_atom_site_fract_x
_atom_site_fract_y
_atom_site_fract_z
Si Si1 0.162551 0.842429 0.731350
Si Si2 0.158487 0.670471 0.660839
Si Si3 0.334978 0.842263 0.131433
Si Si4 0.590158 0.803000 0.494921
Si Si5 0.000000 0.414258 0.676081
Si Si6 0.000000 0.916255 0.733295
Si Si7 0.332792 0.585760 0.252084
O O1 0.156345 0.757562 0.681936
O O2 0.245792 0.882806 0.687380
O O3 0.081519 0.880093 0.664490
O O4 0.160195 0.846024 0.948293
O O5 0.247376 0.647810 0.722886
O O6 0.080664 0.628653 0.735436
O O7 0.395413 0.838294 0.298634
O O8 0.347065 0.763039 0.032783
O O9 0.342867 0.898936 0.967145
O O10 0.500000 0.772651 0.505010
O O11 0.603816 0.864604 0.645379
O O12 0.000000 0.500000 0.726333
O O13 0.000000 0.411869 0.454354
O O14 0.000000 0.000000 0.682811
O O15 0.338728 0.500000 0.215107
#
# Coordination Sequence:
#
# PCOD9357298 Si02
#       7
#     8   8   8   8   4   4   8
#     4  10  19  34  59  87 119 162 215 260 317 387
#     4  10  19  34  60  88 120 164 213 260 315 386
#     4  11  22  41  69 100 130 174 227 272 327 404
#     4  12  24  42  70 101 130 172 225 280 340 409
#     4   9  19  34  55  89 128 165 210 266 321 377
#     4   9  17  30  51  81 118 159 202 250 309 379
#     4  11  25  43  66  97 136 174 216 279 344 399
#
# _framework density 21.369524999999999
#
# number of rings (size 3 to 8) (size 9 to 14) (size 15 to 20)
#    0.000    1.500    3.333    2.500    0.000    5.667 
#    0.000    0.000    0.000    1.000    0.000    0.000 
#    0.000    0.000    0.000    0.000    0.000    0.000 
#
# Total GULP energy -134031.334925 kJ/mol
# GULP energy per Si atom -5584.638955 kJ/mol
# Density = 2.132089 g / cm^3
# Si number density = 21.369525 Si / 1000 Ang^3
#
#
#
# Elastic Constant Matrix: (Units=GPa)
#
#
# Indices 1 2 3 4 5 6 
#
# 1 100.8409 2.3384 12.8771 0.0000 0.0000 0.0000
# 2 2.3384 68.5351 -3.8526 0.0000 0.0000 0.0000
# 3 12.8771 -3.8526 68.1065 0.0000 0.0000 0.0000
# 4 0.0000 0.0000 0.0000 33.3269 0.0000 0.0000
# 5 0.0000 0.0000 0.0000 0.0000 -2.2677 0.0000
# 6 0.0000 0.0000 0.0000 0.0000 0.0000 16.3544
#
#
#
# Elastic Compliance Matrix: (Units=1/GPa)
#
#
# Indices 1 2 3 4 5 6 
#
# 1 0.010176 -0.000457 -0.001950 0.000000 0.000000 0.000000
# 2 -0.000457 0.014658 0.000916 0.000000 0.000000 0.000000
# 3 -0.001950 0.000916 0.015103 0.000000 0.000000 0.000000
# 4 0.000000 0.000000 0.000000 0.030006 0.000000 0.000000
# 5 0.000000 0.000000 0.000000 0.000000 -0.440973 0.000000
# 6 0.000000 0.000000 0.000000 0.000000 0.000000 0.061146
#
#
# Mechanical properties :
#
#
# Convention : Reuss Voigt Hill
#
# Bulk Modulus (GPa) = 27.05970 28.91204 27.98587
# Shear Modulus (GPa) = -16.97315 24.55736 3.79211
#
# Velocity S-wave (km/s) = -2.82134 3.39363 1.33356
# Velocity P-wave (km/s) = 1.44118 5.37723 3.93647
#
# Compressibility (1/GPa) = 0.03695533
#
# Stress axis : x y z
#
# Youngs Moduli (GPa) = 98.26848 68.22159 66.21052
#
# Poissons Ratio (x) = 0.03117 0.12910
# Poissons Ratio (y) = 0.04489 -0.06062
# Poissons Ratio (z) = 0.19161 -0.06246
#
# Static dielectric constant tensor:
#      x y z
#    x 1.826200 0.000000 0.000000 
#    y 0.000000 1.716550 0.000000 
#    z 0.000000 0.000000 1.798840 
# 
# From -- ./inp_files/5484.got.cif
#   From: 2010.05.17/outbox.cif.g08.bks.cpg/sg38_3_cif.got.tgz:5484.got - 2010.06.03 18:07:57.
