data_PCOD9357287
_publ_section_title
;
Structure prediction by ZEFSAII (Michael W. Deem and Ramdas Pophale) SiO2 
 PCOD9357287
Probable space group: A M M 2
;
_chemical_formula_sum "Si O2"
_cell_formula_units_Z 48
_cell_length_a 7.715906
_cell_length_b 14.331981
_cell_length_c 19.305586
_cell_angle_alpha 90.000000
_cell_angle_beta 90.000000
_cell_angle_gamma 90.000000
_cell_volume 2134.893135
_symmetry_space_group_name_H-M "A M M 2"
_symmetry_group_IT_number 38
_symmetry_cell_setting 'orthorhombic'
loop_
_space_group_symop_operation_xyz
x,y,z
-x,-y,z
-x,y,z
x,-y,z
x,1/2+y,1/2+z
-x,1/2-y,1/2+z
-x,1/2+y,1/2+z
x,1/2-y,1/2+z
loop_
_atom_site_type_symbol
_atom_site_label
_atom_site_fract_x
_atom_site_fract_y
_atom_site_fract_z
Si Si1 0.292667 0.893951 0.296910
Si Si2 0.705299 0.190674 0.152470
Si Si3 0.791177 0.753154 0.406905
Si Si4 0.210201 0.900572 0.801946
Si Si5 0.791094 0.100903 0.642433
Si Si6 0.203666 0.897284 0.014387
O O1 0.500000 0.896085 0.290540
O O2 0.227790 0.831888 0.230659
O O3 0.256698 0.852221 0.373475
O O4 0.227363 0.000000 0.290290
O O5 0.500000 0.178352 0.153908
O O6 0.739660 0.294822 0.122614
O O7 0.780449 0.120515 0.095947
O O8 0.727287 0.684526 0.346013
O O9 0.728347 0.695169 0.474153
O O10 0.000000 0.756106 0.411430
O O11 0.265670 0.899663 0.722792
O O12 0.000000 0.896462 0.801525
O O13 0.259746 0.000000 0.833082
O O14 0.000000 0.099030 0.639184
O O15 0.731914 0.000000 0.612069
O O16 0.000000 0.901821 0.995781
O O17 0.278261 0.000000 0.997774
#
# Coordination Sequence:
#
# PCOD9357287 Si02
#       6
#     8   8   8   8   8   8
#     4  10  22  39  57  80 113 153 194 236 286 342
#     4  11  22  37  58  84 119 158 196 239 285 339
#     4  10  19  34  58  86 112 140 183 237 288 340
#     4   8  13  24  47  78 109 137 166 210 270 328
#     4   9  17  31  54  83 113 146 185 231 284 338
#     4  10  22  39  60  87 118 152 190 235 289 349
#
# _framework density 22.483561999999999
#
# number of rings (size 3 to 8) (size 9 to 14) (size 15 to 20)
#    0.000    2.333    1.667    2.500    0.000    5.000 
#    0.000    0.833    0.000    2.500    0.000    0.000 
#    0.000    0.000    0.000    0.000    0.000    0.000 
#
# Total GULP energy -133615.987560 kJ/mol
# GULP energy per Si atom -5567.332815 kJ/mol
# Density = 2.243239 g / cm^3
# Si number density = 22.483562 Si / 1000 Ang^3
#
#
#
# Elastic Constant Matrix: (Units=GPa)
#
#
# Indices 1 2 3 4 5 6 
#
# 1 39.0865 7.2527 0.4927 0.0000 0.0000 0.0000
# 2 7.2527 137.2166 43.0375 0.0000 0.0000 0.0000
# 3 0.4927 43.0375 83.3812 0.0000 0.0000 0.0000
# 4 0.0000 0.0000 0.0000 32.0122 0.0000 0.0000
# 5 0.0000 0.0000 0.0000 0.0000 13.4962 0.0000
# 6 0.0000 0.0000 0.0000 0.0000 0.0000 31.3629
#
#
#
# Elastic Compliance Matrix: (Units=1/GPa)
#
#
# Indices 1 2 3 4 5 6 
#
# 1 0.025868 -0.001574 0.000660 0.000000 0.000000 0.000000
# 2 -0.001574 0.008791 -0.004528 0.000000 0.000000 0.000000
# 3 0.000660 -0.004528 0.014327 0.000000 0.000000 0.000000
# 4 0.000000 0.000000 0.000000 0.031238 0.000000 0.000000
# 5 0.000000 0.000000 0.000000 0.000000 0.074095 0.000000
# 6 0.000000 0.000000 0.000000 0.000000 0.000000 0.031885
#
#
# Mechanical properties :
#
#
# Convention : Reuss Voigt Hill
#
# Bulk Modulus (GPa) = 26.24660 40.13889 33.19275
# Shear Modulus (GPa) = 23.83344 29.30101 26.56723
#
# Velocity S-wave (km/s) = 3.25936 3.61393 3.44121
# Velocity P-wave (km/s) = 5.08562 5.94183 5.53032
#
# Compressibility (1/GPa) = 0.03810017
#
# Stress axis : x y z
#
# Youngs Moduli (GPa) = 38.65768 113.74942 69.80055
#
# Poissons Ratio (x) = 0.17906 -0.04605
# Poissons Ratio (y) = 0.06085 0.31608
# Poissons Ratio (z) = -0.02550 0.51510
#
# Static dielectric constant tensor:
#      x y z
#    x 1.837780 0.000000 0.000000 
#    y 0.000000 1.909430 0.000000 
#    z 0.000000 0.000000 1.836140 
# 
# From -- ./inp_files/16642.got.cif
#   From: 2010.05.17/outbox.cif.g08.bks.cpg/sg38_9_cif.got.tgz:16642.got - 2010.06.03 18:07:57.
