data_PCOD9357787
_publ_section_title
;
Structure prediction by ZEFSAII (Michael W. Deem and Ramdas Pophale) SiO2 
 PCOD9357787
Probable space group: A M M 2
;
_chemical_formula_sum "Si O2"
_cell_formula_units_Z 56
_cell_length_a 17.234877
_cell_length_b 8.013770
_cell_length_c 21.084542
_cell_angle_alpha 90.000000
_cell_angle_beta 90.000000
_cell_angle_gamma 90.000000
_cell_volume 2912.119777
_symmetry_space_group_name_H-M "A M M 2"
_symmetry_group_IT_number 38
_symmetry_cell_setting 'orthorhombic'
loop_
_space_group_symop_operation_xyz
x,y,z
-x,-y,z
-x,y,z
x,-y,z
x,1/2+y,1/2+z
-x,1/2-y,1/2+z
-x,1/2+y,1/2+z
x,1/2-y,1/2+z
loop_
_atom_site_type_symbol
_atom_site_label
_atom_site_fract_x
_atom_site_fract_y
_atom_site_fract_z
Si Si1 0.666546 0.203544 0.936960
Si Si2 0.248916 0.295009 0.565740
Si Si3 0.663712 0.194713 0.190294
Si Si4 0.500000 0.196239 0.745004
Si Si5 0.087979 0.200047 0.369497
Si Si6 0.757210 0.303091 0.311397
Si Si7 0.913020 0.299069 0.515508
Si Si8 0.500000 0.204420 0.890246
O O1 0.715238 0.258201 0.875590
O O2 0.578157 0.256239 0.925752
O O3 0.668448 0.000000 0.937275
O O4 0.705119 0.257253 0.002477
O O5 0.247750 0.500000 0.566920
O O6 0.293636 0.234351 0.628106
O O7 0.159356 0.240415 0.557676
O O8 0.578795 0.260485 0.208403
O O9 0.719770 0.219566 0.250373
O O10 0.653009 0.000000 0.178268
O O11 0.500000 0.266175 0.817192
O O12 0.500000 0.000000 0.753681
O O13 0.152252 0.272049 0.322751
O O14 0.103660 0.256569 0.441892
O O15 0.000000 0.252904 0.354336
O O16 0.091680 0.000000 0.367563
O O17 0.741736 0.500000 0.305643
O O18 0.915269 0.500000 0.520097
O O19 0.000000 0.235489 0.530528
O O20 0.500000 0.000000 0.889147
#
# Coordination Sequence:
#
# PCOD9357787 Si02
#       8
#     8   8   8   4   8   8   8   4
#     4   9  16  29  53  81 104 134 183 233 268 314
#     4   9  18  33  52  81 115 145 184 228 275 335
#     4  11  23  37  56  83 117 151 185 232 288 338
#     4  11  21  38  59  81 109 146 194 233 277 345
#     4  10  20  33  52  83 119 148 179 231 294 341
#     4  11  20  35  59  82 108 147 193 233 273 331
#     4   9  16  30  55  82 107 142 189 233 273 332
#     4   9  16  28  51  81 105 132 180 235 269 303
#
# _framework density 19.229979
#
# number of rings (size 3 to 8) (size 9 to 14) (size 15 to 20)
#    0.000    2.143    2.857    1.500    0.000    1.429 
#    0.000    4.286    0.000    2.571    0.000    0.000 
#    0.000    0.000    0.000    0.000    0.000    0.000 
#
# Total GULP energy -156243.581978 kJ/mol
# GULP energy per Si atom -5580.127928 kJ/mol
# Density = 1.918621 g / cm^3
# Si number density = 19.229979 Si / 1000 Ang^3
#
#
#
# Elastic Constant Matrix: (Units=GPa)
#
#
# Indices 1 2 3 4 5 6 
#
# 1 162.9971 -1.2039 75.0153 0.0000 0.0000 0.0000
# 2 -1.2039 11.4765 -3.4455 0.0000 0.0000 0.0000
# 3 75.0153 -3.4455 121.7135 0.0000 0.0000 0.0000
# 4 0.0000 0.0000 0.0000 18.7158 0.0000 0.0000
# 5 0.0000 0.0000 0.0000 0.0000 19.7453 0.0000
# 6 0.0000 0.0000 0.0000 0.0000 0.0000 19.4614
#
#
#
# Elastic Compliance Matrix: (Units=1/GPa)
#
#
# Indices 1 2 3 4 5 6 
#
# 1 0.008570 -0.000693 -0.005301 0.000000 0.000000 0.000000
# 2 -0.000693 0.087938 0.002916 0.000000 0.000000 0.000000
# 3 -0.005301 0.002916 0.011566 0.000000 0.000000 0.000000
# 4 0.000000 0.000000 0.000000 0.053431 0.000000 0.000000
# 5 0.000000 0.000000 0.000000 0.000000 0.050645 0.000000
# 6 0.000000 0.000000 0.000000 0.000000 0.000000 0.051384
#
#
# Mechanical properties :
#
#
# Convention : Reuss Voigt Hill
#
# Bulk Modulus (GPa) = 9.81182 48.54654 29.17918
# Shear Modulus (GPa) = 16.46573 26.63926 21.55249
#
# Velocity S-wave (km/s) = 2.92935 3.72600 3.35143
# Velocity P-wave (km/s) = 4.06877 6.61897 5.49389
#
# Compressibility (1/GPa) = 0.10191786
#
# Stress axis : x y z
#
# Youngs Moduli (GPa) = 116.68890 11.37170 86.46061
#
# Poissons Ratio (x) = 0.00788 0.45836
# Poissons Ratio (y) = 0.08083 -0.25215
# Poissons Ratio (z) = 0.61861 -0.03316
#
# Static dielectric constant tensor:
#      x y z
#    x 1.697980 0.000000 0.000000 
#    y 0.000000 1.692750 0.000000 
#    z 0.000000 0.000000 1.645760 
# 
# From -- ./inp_files/21166.got.cif
#   From: 2010.05.17/outbox.cif.g08.bks.cpg/sg38_11_cif.got.tgz:21166.got - 2010.06.03 18:07:57.
