data_PCOD9357138
_publ_section_title
;
Structure prediction by ZEFSAII (Michael W. Deem and Ramdas Pophale) SiO2 
 PCOD9357138
Probable space group: A M M 2
;
_chemical_formula_sum "Si O2"
_cell_formula_units_Z 64
_cell_length_a 19.923949
_cell_length_b 8.673281
_cell_length_c 20.907042
_cell_angle_alpha 90.000000
_cell_angle_beta 90.000000
_cell_angle_gamma 90.000000
_cell_volume 3612.862474
_symmetry_space_group_name_H-M "A M M 2"
_symmetry_group_IT_number 38
_symmetry_cell_setting 'orthorhombic'
loop_
_space_group_symop_operation_xyz
x,y,z
-x,-y,z
-x,y,z
x,-y,z
x,1/2+y,1/2+z
-x,1/2-y,1/2+z
-x,1/2+y,1/2+z
x,1/2-y,1/2+z
loop_
_atom_site_type_symbol
_atom_site_label
_atom_site_fract_x
_atom_site_fract_y
_atom_site_fract_z
Si Si1 0.576751 0.685589 0.567590
Si Si2 0.710146 0.683317 0.117241
Si Si3 0.925374 0.812468 0.545095
Si Si4 0.286091 0.315457 0.362613
Si Si5 0.923818 0.313997 0.194054
Si Si6 0.212682 0.317267 0.738932
Si Si7 0.211987 0.314009 0.985816
Si Si8 0.574921 0.312460 0.418398
O O1 0.500000 0.724106 0.585144
O O2 0.583906 0.500000 0.570848
O O3 0.633432 0.763749 0.610050
O O4 0.586080 0.731106 0.492835
O O5 0.714673 0.500000 0.126105
O O6 0.748623 0.762556 0.175311
O O7 0.746064 0.721591 0.049961
O O8 0.914113 0.768361 0.619329
O O9 0.864199 0.763546 0.500703
O O10 0.000000 0.761219 0.525985
O O11 0.925145 0.000000 0.544882
O O12 0.286808 0.500000 0.357355
O O13 0.252107 0.246503 0.300047
O O14 0.244139 0.266035 0.424893
O O15 0.362712 0.261084 0.375576
O O16 0.920054 0.500000 0.196428
O O17 0.863338 0.245560 0.234589
O O18 0.000000 0.269282 0.212433
O O19 0.210956 0.500000 0.741430
O O20 0.213426 0.500000 0.976980
O O21 0.500000 0.260756 0.399427
O O22 0.574437 0.500000 0.417561
#
# Coordination Sequence:
#
# PCOD9357138 Si02
#       8
#     8   8   8   8   8   8   8   8
#     4   9  17  32  55  84 116 147 184 231 284 337
#     4  11  21  35  57  84 114 146 188 234 281 336
#     4   8  14  28  53  82 110 141 177 222 276 328
#     4  11  22  37  58  81 111 149 191 232 283 342
#     4   9  17  34  60  86 112 144 185 231 282 338
#     4  12  25  39  56  80 116 154 194 236 282 336
#     4  10  19  33  55  83 113 141 179 229 279 335
#     4   8  15  30  54  82 108 137 178 228 280 336
#
# _framework density 17.714483999999999
#
# number of rings (size 3 to 8) (size 9 to 14) (size 15 to 20)
#    0.000    2.250    2.500    3.375    0.000    1.000 
#    0.000    1.250    0.000    6.375    0.000    0.000 
#    0.000    0.000    0.000    0.000    0.000    0.000 
#
# Total GULP energy -178520.653049 kJ/mol
# GULP energy per Si atom -5578.770408 kJ/mol
# Density = 1.767417 g / cm^3
# Si number density = 17.714484 Si / 1000 Ang^3
#
#
#
# Elastic Constant Matrix: (Units=GPa)
#
#
# Indices 1 2 3 4 5 6 
#
# 1 169.1944 39.6163 66.9236 0.0000 0.0000 0.0000
# 2 39.6163 38.5644 36.2232 0.0000 0.0000 0.0000
# 3 66.9236 36.2232 83.4840 0.0000 0.0000 0.0000
# 4 0.0000 0.0000 0.0000 23.5641 0.0000 0.0000
# 5 0.0000 0.0000 0.0000 0.0000 27.5880 0.0000
# 6 0.0000 0.0000 0.0000 0.0000 0.0000 23.0880
#
#
#
# Elastic Compliance Matrix: (Units=1/GPa)
#
#
# Indices 1 2 3 4 5 6 
#
# 1 0.009038 -0.004185 -0.005429 0.000000 0.000000 0.000000
# 2 -0.004185 0.045706 -0.016477 0.000000 0.000000 0.000000
# 3 -0.005429 -0.016477 0.023480 0.000000 0.000000 0.000000
# 4 0.000000 0.000000 0.000000 0.042437 0.000000 0.000000
# 5 0.000000 0.000000 0.000000 0.000000 0.036248 0.000000
# 6 0.000000 0.000000 0.000000 0.000000 0.000000 0.043313
#
#
# Mechanical properties :
#
#
# Convention : Reuss Voigt Hill
#
# Bulk Modulus (GPa) = 38.39967 64.08542 51.24255
# Shear Modulus (GPa) = 19.15093 24.74667 21.94880
#
# Velocity S-wave (km/s) = 3.29156 3.74167 3.52381
# Velocity P-wave (km/s) = 6.01414 7.41095 6.74878
#
# Compressibility (1/GPa) = 0.02604189
#
# Stress axis : x y z
#
# Youngs Moduli (GPa) = 110.64826 21.87888 42.58951
#
# Poissons Ratio (x) = 0.09155 0.23123
# Poissons Ratio (y) = 0.46301 0.70176
# Poissons Ratio (z) = 0.60074 0.36050
#
# Static dielectric constant tensor:
#      x y z
#    x 1.630600 0.000000 0.000000 
#    y 0.000000 1.597910 0.000000 
#    z 0.000000 0.000000 1.568400 
# 
# From -- ./inp_files/18883.got.cif
#   From: 2010.05.17/outbox.cif.g08.bks.cpg/sg38_10_cif.got.tgz:18883.got - 2010.06.03 18:07:57.
