data_PCOD9357606
_publ_section_title
;
Structure prediction by ZEFSAII (Michael W. Deem and Ramdas Pophale) SiO2 
 PCOD9357606
Probable space group: A M M 2
;
_chemical_formula_sum "Si O2"
_cell_formula_units_Z 64
_cell_length_a 14.973066
_cell_length_b 8.665359
_cell_length_c 25.509083
_cell_angle_alpha 90.000000
_cell_angle_beta 90.000000
_cell_angle_gamma 90.000000
_cell_volume 3309.726794
_symmetry_space_group_name_H-M "A M M 2"
_symmetry_group_IT_number 38
_symmetry_cell_setting 'orthorhombic'
loop_
_space_group_symop_operation_xyz
x,y,z
-x,-y,z
-x,y,z
x,-y,z
x,1/2+y,1/2+z
-x,1/2-y,1/2+z
-x,1/2+y,1/2+z
x,1/2-y,1/2+z
loop_
_atom_site_type_symbol
_atom_site_label
_atom_site_fract_x
_atom_site_fract_y
_atom_site_fract_z
Si Si1 0.288826 0.813366 0.434650
Si Si2 0.601094 0.322980 0.218490
Si Si3 0.097922 0.183613 0.906533
Si Si4 0.863646 0.821589 0.295286
Si Si5 0.602911 0.813951 0.537396
Si Si6 0.654406 0.822612 0.321121
Si Si7 0.717181 0.181497 0.132135
Si Si8 0.901404 0.811725 0.176733
O O1 0.186586 0.755748 0.432284
O O2 0.344455 0.762680 0.485170
O O3 0.338923 0.766339 0.380890
O O4 0.285588 0.000000 0.433346
O O5 0.500000 0.307096 0.198551
O O6 0.629642 0.500000 0.210777
O O7 0.603223 0.280529 0.279574
O O8 0.665457 0.211485 0.186467
O O9 0.101897 0.226931 0.844865
O O10 0.000000 0.235783 0.926497
O O11 0.103181 0.000000 0.912318
O O12 0.756808 0.822826 0.301148
O O13 0.889138 0.764024 0.237572
O O14 0.893704 0.000000 0.300337
O O15 0.500000 0.758801 0.539420
O O16 0.660427 0.763097 0.587242
O O17 0.599997 0.000000 0.536296
O O18 0.621649 0.000000 0.320180
O O19 0.818114 0.240017 0.141634
O O20 0.720289 0.000000 0.120829
O O21 0.000000 0.765798 0.158506
O O22 0.897457 0.000000 0.177597
#
# Coordination Sequence:
#
# PCOD9357606 Si02
#       8
#     8   8   8   8   8   8   8   8
#     4   9  20  38  60  83 109 144 188 234 282 337
#     4  11  23  36  52  78 113 152 186 222 278 339
#     4  10  20  32  49  80 120 155 188 229 276 324
#     4   9  16  30  52  77 108 149 192 229 269 325
#     4  10  22  42  65  86 108 139 184 238 293 343
#     4   9  17  32  54  82 111 141 180 227 277 330
#     4  11  22  38  59  84 113 145 187 234 278 331
#     4   9  17  31  53  80 110 145 185 227 271 323
#
# _framework density 19.336945
#
# number of rings (size 3 to 8) (size 9 to 14) (size 15 to 20)
#    0.000    2.250    1.250    2.625    0.000    7.250 
#    0.000    1.875    0.000    4.500    0.000    0.000 
#    0.000    0.000    0.000    0.000    0.000    0.000 
#
# Total GULP energy -178526.258486 kJ/mol
# GULP energy per Si atom -5578.945578 kJ/mol
# Density = 1.929293 g / cm^3
# Si number density = 19.336945 Si / 1000 Ang^3
#
#
#
# Elastic Constant Matrix: (Units=GPa)
#
#
# Indices 1 2 3 4 5 6 
#
# 1 135.3370 14.9348 65.0230 0.0000 0.0000 0.0000
# 2 14.9348 9.0108 5.6053 0.0000 0.0000 0.0000
# 3 65.0230 5.6053 103.8891 0.0000 0.0000 0.0000
# 4 0.0000 0.0000 0.0000 23.3691 0.0000 0.0000
# 5 0.0000 0.0000 0.0000 0.0000 13.3374 0.0000
# 6 0.0000 0.0000 0.0000 0.0000 0.0000 20.4994
#
#
#
# Elastic Compliance Matrix: (Units=1/GPa)
#
#
# Indices 1 2 3 4 5 6 
#
# 1 0.012555 -0.016474 -0.006969 0.000000 0.000000 0.000000
# 2 -0.016474 0.136449 0.002949 0.000000 0.000000 0.000000
# 3 -0.006969 0.002949 0.013829 0.000000 0.000000 0.000000
# 4 0.000000 0.000000 0.000000 0.042791 0.000000 0.000000
# 5 0.000000 0.000000 0.000000 0.000000 0.074977 0.000000
# 6 0.000000 0.000000 0.000000 0.000000 0.000000 0.048782
#
#
# Mechanical properties :
#
#
# Convention : Reuss Voigt Hill
#
# Bulk Modulus (GPa) = 8.20722 46.59589 27.40156
# Shear Modulus (GPa) = 12.16580 22.28611 17.22596
#
# Velocity S-wave (km/s) = 2.51100 3.39855 2.98792
# Velocity P-wave (km/s) = 3.55814 6.28883 5.10929
#
# Compressibility (1/GPa) = 0.12184391
#
# Stress axis : x y z
#
# Youngs Moduli (GPa) = 79.64666 7.32872 72.31374
#
# Poissons Ratio (x) = 0.12074 0.50399
# Poissons Ratio (y) = 1.31214 -0.21326
# Poissons Ratio (z) = 0.55509 -0.02161
#
# Static dielectric constant tensor:
#      x y z
#    x 1.700900 0.000000 0.000000 
#    y 0.000000 1.660930 0.000000 
#    z 0.000000 0.000000 1.665440 
# 
# From -- ./inp_files/22919.got.cif
#   From: 2010.05.17/outbox.cif.g08.bks.cpg/sg38_12_cif.got.tgz:22919.got - 2010.06.03 18:07:57.
