data_PCOD9357623
_publ_section_title
;
Structure prediction by ZEFSAII (Michael W. Deem and Ramdas Pophale) SiO2 
 PCOD9357623
Probable space group: A M M 2
;
_chemical_formula_sum "Si O2"
_cell_formula_units_Z 40
_cell_length_a 9.545113
_cell_length_b 17.154627
_cell_length_c 13.150823
_cell_angle_alpha 90.000000
_cell_angle_beta 90.000000
_cell_angle_gamma 90.000000
_cell_volume 2153.353280
_symmetry_space_group_name_H-M "A M M 2"
_symmetry_group_IT_number 38
_symmetry_cell_setting 'orthorhombic'
loop_
_space_group_symop_operation_xyz
x,y,z
-x,-y,z
-x,y,z
x,-y,z
x,1/2+y,1/2+z
-x,1/2-y,1/2+z
-x,1/2+y,1/2+z
x,1/2-y,1/2+z
loop_
_atom_site_type_symbol
_atom_site_label
_atom_site_fract_x
_atom_site_fract_y
_atom_site_fract_z
Si Si1 0.670521 0.591104 0.341280
Si Si2 0.156977 0.907663 0.444387
Si Si3 0.331376 0.658196 0.122199
Si Si4 0.669534 0.832688 0.051423
Si Si5 0.659274 0.406696 0.759816
O O1 0.500000 0.590314 0.344513
O O2 0.714591 0.500000 0.338826
O O3 0.707866 0.636405 0.237667
O O4 0.720980 0.635075 0.443260
O O5 0.249498 0.896046 0.544122
O O6 0.241057 0.874481 0.347688
O O7 0.000000 0.875510 0.454680
O O8 0.144994 0.000000 0.426962
O O9 0.500000 0.648707 0.112897
O O10 0.294179 0.745227 0.085023
O O11 0.500000 0.835171 0.045298
O O12 0.709348 0.886265 0.147004
O O13 0.500000 0.375778 0.772961
O O14 0.652062 0.500000 0.768978
#
# Coordination Sequence:
#
# PCOD9357623 Si02
#       5
#     8   8   8   8   8
#     4   9  17  30  49  76 109 141 172 211 264 321
#     4  10  21  36  53  74 104 141 177 216 263 313
#     4  10  20  32  53  80 105 135 176 221 264 312
#     4   9  18  30  50  79 110 137 168 216 268 313
#     4   9  17  31  54  81 106 135 173 214 258 314
#
# _framework density 18.575679000000001
#
# number of rings (size 3 to 8) (size 9 to 14) (size 15 to 20)
#    0.000    2.600    0.000    1.800    2.800    4.400 
#    0.000    1.000    0.000    1.200    0.000    2.800 
#    0.000    0.000    0.000    0.000    0.000    0.000 
#
# Total GULP energy -111425.991441 kJ/mol
# GULP energy per Si atom -5571.299572 kJ/mol
# Density = 1.853340 g / cm^3
# Si number density = 18.575679 Si / 1000 Ang^3
#
#
#
# Elastic Constant Matrix: (Units=GPa)
#
#
# Indices 1 2 3 4 5 6 
#
# 1 43.1586 19.6161 49.0154 0.0000 0.0000 0.0000
# 2 19.6161 55.7847 51.5070 0.0000 0.0000 0.0000
# 3 49.0154 51.5070 190.4025 0.0000 0.0000 0.0000
# 4 0.0000 0.0000 0.0000 24.2459 0.0000 0.0000
# 5 0.0000 0.0000 0.0000 0.0000 -8.2645 0.0000
# 6 0.0000 0.0000 0.0000 0.0000 0.0000 7.7745
#
#
#
# Elastic Compliance Matrix: (Units=1/GPa)
#
#
# Indices 1 2 3 4 5 6 
#
# 1 0.033812 -0.005136 -0.007315 0.000000 0.000000 0.000000
# 2 -0.005136 0.024674 -0.005353 0.000000 0.000000 0.000000
# 3 -0.007315 -0.005353 0.008583 0.000000 0.000000 0.000000
# 4 0.000000 0.000000 0.000000 0.041244 0.000000 0.000000
# 5 0.000000 0.000000 0.000000 0.000000 -0.120999 0.000000
# 6 0.000000 0.000000 0.000000 0.000000 0.000000 0.128625
#
#
# Mechanical properties :
#
#
# Convention : Reuss Voigt Hill
#
# Bulk Modulus (GPa) = 31.78349 58.84697 45.31523
# Shear Modulus (GPa) = 30.85770 16.03168 23.44469
#
# Velocity S-wave (km/s) = 4.08019 2.94095 3.55648
# Velocity P-wave (km/s) = 6.27253 6.57880 6.42749
#
# Compressibility (1/GPa) = 0.03146287
#
# Stress axis : x y z
#
# Youngs Moduli (GPa) = 29.57508 40.52818 116.50751
#
# Poissons Ratio (x) = 0.20814 0.85226
# Poissons Ratio (y) = 0.15189 0.62363
# Poissons Ratio (z) = 0.21634 0.21694
#
# Static dielectric constant tensor:
#      x y z
#    x 1.634690 0.000000 0.000000 
#    y 0.000000 1.699520 0.000000 
#    z 0.000000 0.000000 1.642350 
# 
# From -- ./inp_files/7767.got.cif
#   From: 2010.05.17/outbox.cif.g08.bks.cpg/sg38_4_cif.got.tgz:7767.got - 2010.06.03 18:07:57.
