data_PCOD9357497
_publ_section_title
;
Structure prediction by ZEFSAII (Michael W. Deem and Ramdas Pophale) SiO2 
 PCOD9357497
Probable space group: A M M 2
;
_chemical_formula_sum "Si O2"
_cell_formula_units_Z 64
_cell_length_a 21.843623
_cell_length_b 7.420837
_cell_length_c 19.114727
_cell_angle_alpha 90.000000
_cell_angle_beta 90.000000
_cell_angle_gamma 90.000000
_cell_volume 3098.458363
_symmetry_space_group_name_H-M "A M M 2"
_symmetry_group_IT_number 38
_symmetry_cell_setting 'orthorhombic'
loop_
_space_group_symop_operation_xyz
x,y,z
-x,-y,z
-x,y,z
x,-y,z
x,1/2+y,1/2+z
-x,1/2-y,1/2+z
-x,1/2+y,1/2+z
x,1/2-y,1/2+z
loop_
_atom_site_type_symbol
_atom_site_label
_atom_site_fract_x
_atom_site_fract_y
_atom_site_fract_z
Si Si1 0.301573 0.786991 0.286160
Si Si2 0.068872 0.219501 0.294847
Si Si3 0.931380 0.282873 0.955298
Si Si4 0.433972 0.288222 0.460943
Si Si5 0.816834 0.721496 0.702868
Si Si6 0.565709 0.218172 0.294479
Si Si7 0.699622 0.718296 0.451584
Si Si8 0.811986 0.211619 0.044345
O O1 0.243400 0.716497 0.244422
O O2 0.369109 0.715615 0.266045
O O3 0.293687 0.765530 0.369715
O O4 0.303157 0.000000 0.271934
O O5 0.080362 0.275569 0.375183
O O6 0.122134 0.279699 0.243423
O O7 0.000000 0.275589 0.275222
O O8 0.069171 0.000000 0.294848
O O9 0.932303 0.500000 0.954733
O O10 0.000000 0.222131 0.975460
O O11 0.876735 0.227995 0.005552
O O12 0.500000 0.212639 0.485174
O O13 0.434401 0.500000 0.478770
O O14 0.434325 0.270028 0.376467
O O15 0.366659 0.216489 0.479985
O O16 0.817687 0.500000 0.703709
O O17 0.815218 0.783443 0.622882
O O18 0.500000 0.278661 0.264647
O O19 0.566340 0.000000 0.291431
O O20 0.698102 0.500000 0.453655
O O21 0.757071 0.785131 0.496366
O O22 0.798537 0.000000 0.051634
#
# Coordination Sequence:
#
# PCOD9357497 Si02
#       8
#     8   8   8   8   8   8   8   8
#     4   9  16  27  45  64  82 111 149 183 215 256
#     4   8  14  26  45  66  84 104 135 174 208 239
#     4   9  18  33  52  71  89 110 140 179 217 254
#     4   8  13  22  37  56  79 109 143 177 214 257
#     4   9  17  28  42  62  87 114 144 174 204 245
#     4   8  13  21  35  58  84 104 129 174 225 261
#     4   9  17  28  42  63  90 115 143 183 225 261
#     4  10  20  31  44  65  93 121 145 175 216 258
#
# _framework density 20.655434
#
# number of rings (size 3 to 8) (size 9 to 14) (size 15 to 20)
#    0.000    3.250    0.000    1.500    0.000    2.250 
#    0.000    1.875    0.000    1.500    0.000    5.250 
#    0.000    0.000    0.000   40.500    0.000   19.000 
#
# Total GULP energy -178318.523528 kJ/mol
# GULP energy per Si atom -5572.453860 kJ/mol
# Density = 2.060842 g / cm^3
# Si number density = 20.655434 Si / 1000 Ang^3
#
#
#
# Elastic Constant Matrix: (Units=GPa)
#
#
# Indices 1 2 3 4 5 6 
#
# 1 235.6929 -3.6340 106.6432 0.0000 0.0000 0.0000
# 2 -3.6340 64.1905 -5.6566 0.0000 0.0000 0.0000
# 3 106.6432 -5.6566 85.2746 0.0000 0.0000 0.0000
# 4 0.0000 0.0000 0.0000 9.8335 0.0000 0.0000
# 5 0.0000 0.0000 0.0000 0.0000 -6.0047 0.0000
# 6 0.0000 0.0000 0.0000 0.0000 0.0000 -19.3028
#
#
#
# Elastic Compliance Matrix: (Units=1/GPa)
#
#
# Indices 1 2 3 4 5 6 
#
# 1 0.009790 -0.000528 -0.012279 0.000000 0.000000 0.000000
# 2 -0.000528 0.015699 0.001701 0.000000 0.000000 0.000000
# 3 -0.012279 0.001701 0.027195 0.000000 0.000000 0.000000
# 4 0.000000 0.000000 0.000000 0.101694 0.000000 0.000000
# 5 0.000000 0.000000 0.000000 0.000000 -0.166537 0.000000
# 6 0.000000 0.000000 0.000000 0.000000 0.000000 -0.051806
#
#
# Mechanical properties :
#
#
# Convention : Reuss Voigt Hill
#
# Bulk Modulus (GPa) = 32.81476 64.42926 48.62201
# Shear Modulus (GPa) = -158.24708 16.09222 -71.07743
#
# Velocity S-wave (km/s) = -8.76237 2.79423 -5.87245
# Velocity P-wave (km/s) = 9.29790 6.45526 4.73184
#
# Compressibility (1/GPa) = 0.03047409
#
# Stress axis : x y z
#
# Youngs Moduli (GPa) = 102.14092 63.69966 36.77105
#
# Poissons Ratio (x) = 0.03362 0.45150
# Poissons Ratio (y) = 0.05391 -0.06256
# Poissons Ratio (z) = 1.25416 -0.10838
#
# Static dielectric constant tensor:
#      x y z
#    x 1.781430 0.000000 0.000000 
#    y 0.000000 1.785680 0.000000 
#    z 0.000000 0.000000 1.674730 
# 
# From -- ./inp_files/15885.got.cif
#   From: 2010.05.17/outbox.cif.g08.bks.cpg/sg38_8_cif.got.tgz:15885.got - 2010.06.03 18:07:57.
