data_PCOD9357380
_publ_section_title
;
Structure prediction by ZEFSAII (Michael W. Deem and Ramdas Pophale) SiO2 
 PCOD9357380
Probable space group: A M M 2
;
_chemical_formula_sum "Si O2"
_cell_formula_units_Z 48
_cell_length_a 14.441774
_cell_length_b 8.866609
_cell_length_c 20.903842
_cell_angle_alpha 90.000000
_cell_angle_beta 90.000000
_cell_angle_gamma 90.000000
_cell_volume 2676.727840
_symmetry_space_group_name_H-M "A M M 2"
_symmetry_group_IT_number 38
_symmetry_cell_setting 'orthorhombic'
loop_
_space_group_symop_operation_xyz
x,y,z
-x,-y,z
-x,y,z
x,-y,z
x,1/2+y,1/2+z
-x,1/2-y,1/2+z
-x,1/2+y,1/2+z
x,1/2-y,1/2+z
loop_
_atom_site_type_symbol
_atom_site_label
_atom_site_fract_x
_atom_site_fract_y
_atom_site_fract_z
Si Si1 0.787684 0.821407 0.883490
Si Si2 0.795333 0.681690 0.138844
Si Si3 0.889845 0.178012 0.503160
Si Si4 0.108051 0.180755 0.262615
Si Si5 0.606458 0.818842 0.433818
Si Si6 0.396625 0.316733 0.083232
O O1 0.839305 0.746367 0.823849
O O2 0.683224 0.761304 0.891547
O O3 0.788411 0.000000 0.876413
O O4 0.840822 0.771985 0.947949
O O5 0.796808 0.500000 0.147821
O O6 0.850058 0.714293 0.073102
O O7 0.843359 0.759138 0.198646
O O8 0.689218 0.731477 0.126581
O O9 0.000000 0.199247 0.501793
O O10 0.870016 0.000000 0.491494
O O11 0.000000 0.226702 0.263608
O O12 0.111867 0.000000 0.264435
O O13 0.500000 0.783448 0.417100
O O14 0.619863 0.776186 0.508759
O O15 0.618013 0.000000 0.429854
O O16 0.500000 0.265434 0.101621
O O17 0.397252 0.500000 0.084345
#
# Coordination Sequence:
#
# PCOD9357380 Si02
#       6
#     8   8   8   8   8   8
#     4  12  24  37  57  85 117 151 192 241 289 343
#     4  10  19  35  60  87 115 147 188 236 287 345
#     4  10  20  35  57  84 114 148 190 239 289 346
#     4  11  25  43  60  78 109 154 200 245 294 349
#     4   9  17  34  61  88 116 152 191 231 281 342
#     4   8  14  28  55  88 117 147 183 223 272 333
#
# _framework density 17.932341999999998
#
# number of rings (size 3 to 8) (size 9 to 14) (size 15 to 20)
#    0.000    2.000    1.667    4.000    0.000    5.333 
#    0.000    0.833    0.000    3.500    0.000    0.000 
#    0.000    0.000    0.000    0.000    0.000    0.000 
#
# Total GULP energy -134011.386587 kJ/mol
# GULP energy per Si atom -5583.807774 kJ/mol
# Density = 1.789153 g / cm^3
# Si number density = 17.932342 Si / 1000 Ang^3
#
#
#
# Elastic Constant Matrix: (Units=GPa)
#
#
# Indices 1 2 3 4 5 6 
#
# 1 168.7808 60.6991 90.4474 0.0000 0.0000 0.0000
# 2 60.6991 50.4726 54.4291 0.0000 0.0000 0.0000
# 3 90.4474 54.4291 121.7402 0.0000 0.0000 0.0000
# 4 0.0000 0.0000 0.0000 30.2250 0.0000 0.0000
# 5 0.0000 0.0000 0.0000 0.0000 31.3613 0.0000
# 6 0.0000 0.0000 0.0000 0.0000 0.0000 22.1989
#
#
#
# Elastic Compliance Matrix: (Units=1/GPa)
#
#
# Indices 1 2 3 4 5 6 
#
# 1 0.011645 -0.009026 -0.004616 0.000000 0.000000 0.000000
# 2 -0.009026 0.045255 -0.013527 0.000000 0.000000 0.000000
# 3 -0.004616 -0.013527 0.017691 0.000000 0.000000 0.000000
# 4 0.000000 0.000000 0.000000 0.033085 0.000000 0.000000
# 5 0.000000 0.000000 0.000000 0.000000 0.031886 0.000000
# 6 0.000000 0.000000 0.000000 0.000000 0.000000 0.045047
#
#
# Mechanical properties :
#
#
# Convention : Reuss Voigt Hill
#
# Bulk Modulus (GPa) = 49.37580 83.57165 66.47372
# Shear Modulus (GPa) = 20.35004 25.78493 23.06749
#
# Velocity S-wave (km/s) = 3.37237 3.79608 3.59048
# Velocity P-wave (km/s) = 6.53897 8.11903 7.37146
#
# Compressibility (1/GPa) = 0.02025284
#
# Stress axis : x y z
#
# Youngs Moduli (GPa) = 85.87740 22.09679 56.52442
#
# Poissons Ratio (x) = 0.19945 0.26090
# Poissons Ratio (y) = 0.77515 0.76462
# Poissons Ratio (z) = 0.39639 0.29891
#
# Static dielectric constant tensor:
#      x y z
#    x 1.629380 0.000000 0.000000 
#    y 0.000000 1.603530 0.000000 
#    z 0.000000 0.000000 1.576730 
# 
# From -- ./inp_files/18159.got.cif
#   From: 2010.05.17/outbox.cif.g08.bks.cpg/sg38_10_cif.got.tgz:18159.got - 2010.06.03 18:07:57.
