data_PCOD9357030
_publ_section_title
;
Structure prediction by ZEFSAII (Michael W. Deem and Ramdas Pophale) SiO2 
 PCOD9357030
Probable space group: A M M 2
;
_chemical_formula_sum "Si O2"
_cell_formula_units_Z 48
_cell_length_a 7.934894
_cell_length_b 33.906315
_cell_length_c 7.295414
_cell_angle_alpha 90.000000
_cell_angle_beta 90.000000
_cell_angle_gamma 90.000000
_cell_volume 1962.780182
_symmetry_space_group_name_H-M "A M M 2"
_symmetry_group_IT_number 38
_symmetry_cell_setting 'orthorhombic'
loop_
_space_group_symop_operation_xyz
x,y,z
-x,-y,z
-x,y,z
x,-y,z
x,1/2+y,1/2+z
-x,1/2-y,1/2+z
-x,1/2+y,1/2+z
x,1/2-y,1/2+z
loop_
_atom_site_type_symbol
_atom_site_label
_atom_site_fract_x
_atom_site_fract_y
_atom_site_fract_z
Si Si1 0.706307 0.873238 0.270750
Si Si2 0.301871 0.042433 0.238344
Si Si3 0.200704 0.542517 0.161763
Si Si4 0.188827 0.294425 0.153187
Si Si5 0.310617 0.788681 0.265003
Si Si6 0.699566 0.374350 0.202919
O O1 0.500000 0.873027 0.260843
O O2 0.767963 0.914433 0.185714
O O3 0.761432 0.830611 0.196706
O O4 0.751182 0.874789 0.486830
O O5 0.500000 0.042136 0.190168
O O6 0.287637 0.042870 0.461270
O O7 0.226443 0.000000 0.181147
O O8 0.245444 0.500000 0.247193
O O9 0.000000 0.543419 0.132297
O O10 0.249848 0.582124 0.267699
O O11 0.210997 0.251715 0.241331
O O12 0.224233 0.333276 0.273192
O O13 0.000000 0.297737 0.080388
O O14 0.315861 0.294844 0.983469
O O15 0.500000 0.783559 0.191079
O O16 0.500000 0.371400 0.220339
#
# Coordination Sequence:
#
# PCOD9357030 Si02
#       6
#     8   8   8   8   8   8
#     4   7  12  22  37  56  78 107 144 181 216 260
#     4   8  12  19  32  50  74 106 142 177 215 263
#     4   9  15  21  31  51  79 109 141 179 222 266
#     4  11  21  33  49  71  96 122 156 200 244 282
#     4  10  19  33  50  68  93 127 162 193 231 285
#     4   9  16  27  41  57  80 114 151 184 224 276
#
# _framework density 24.455110000000001
#
# number of rings (size 3 to 8) (size 9 to 14) (size 15 to 20)
#    0.000    3.000    0.000    5.000    0.000    1.000 
#    0.000    0.833    0.000    0.000    0.000    0.000 
#    0.000    1.333    0.000    6.667    0.000   17.167 
#
# Total GULP energy -133752.402930 kJ/mol
# GULP energy per Si atom -5573.016789 kJ/mol
# Density = 2.439945 g / cm^3
# Si number density = 24.455110 Si / 1000 Ang^3
#
#
#
# Elastic Constant Matrix: (Units=GPa)
#
#
# Indices 1 2 3 4 5 6 
#
# 1 64.8741 35.8335 -7.7866 0.0000 0.0000 0.0000
# 2 35.8335 314.4452 6.6894 0.0000 0.0000 0.0000
# 3 -7.7866 6.6894 64.6299 0.0000 0.0000 0.0000
# 4 0.0000 0.0000 0.0000 -3.2254 0.0000 0.0000
# 5 0.0000 0.0000 0.0000 0.0000 -2.1460 0.0000
# 6 0.0000 0.0000 0.0000 0.0000 0.0000 22.1941
#
#
#
# Elastic Compliance Matrix: (Units=1/GPa)
#
#
# Indices 1 2 3 4 5 6 
#
# 1 0.016762 -0.001957 0.002222 0.000000 0.000000 0.000000
# 2 -0.001957 0.003416 -0.000589 0.000000 0.000000 0.000000
# 3 0.002222 -0.000589 0.015801 0.000000 0.000000 0.000000
# 4 0.000000 0.000000 0.000000 -0.310041 0.000000 0.000000
# 5 0.000000 0.000000 0.000000 0.000000 -0.465981 0.000000
# 6 0.000000 0.000000 0.000000 0.000000 0.000000 0.045057
#
#
# Mechanical properties :
#
#
# Convention : Reuss Voigt Hill
#
# Bulk Modulus (GPa) = 28.30440 57.04687 42.67564
# Shear Modulus (GPa) = -7.32538 30.64538 11.66000
#
# Velocity S-wave (km/s) = -1.73261 3.54380 2.18593
# Velocity P-wave (km/s) = 2.75619 6.33423 4.88462
#
# Compressibility (1/GPa) = 0.03533020
#
# Stress axis : x y z
#
# Youngs Moduli (GPa) = 59.65724 292.75597 63.28537
#
# Poissons Ratio (x) = 0.57307 -0.14063
# Poissons Ratio (y) = 0.11678 0.03730
# Poissons Ratio (z) = -0.13257 0.17255
#
# Static dielectric constant tensor:
#      x y z
#    x 1.856490 0.000000 0.000000 
#    y 0.000000 2.100120 0.000000 
#    z 0.000000 0.000000 2.151050 
# 
# From -- ./inp_files/8388.got.cif
#   From: 2010.05.17/outbox.cif.g08.bks.cpg/sg38_5_cif.got.tgz:8388.got - 2010.06.03 18:07:57.
