data_PCOD9357662
_publ_section_title
;
Structure prediction by ZEFSAII (Michael W. Deem and Ramdas Pophale) SiO2 
 PCOD9357662
Probable space group: A M M 2
;
_chemical_formula_sum "Si O2"
_cell_formula_units_Z 64
_cell_length_a 8.828573
_cell_length_b 14.640198
_cell_length_c 28.949751
_cell_angle_alpha 90.000000
_cell_angle_beta 90.000000
_cell_angle_gamma 90.000000
_cell_volume 3741.814860
_symmetry_space_group_name_H-M "A M M 2"
_symmetry_group_IT_number 38
_symmetry_cell_setting 'orthorhombic'
loop_
_space_group_symop_operation_xyz
x,y,z
-x,-y,z
-x,y,z
x,-y,z
x,1/2+y,1/2+z
-x,1/2-y,1/2+z
-x,1/2+y,1/2+z
x,1/2-y,1/2+z
loop_
_atom_site_type_symbol
_atom_site_label
_atom_site_fract_x
_atom_site_fract_y
_atom_site_fract_z
Si Si1 0.181390 0.893753 0.805770
Si Si2 0.819372 0.106279 0.075901
Si Si3 0.318489 0.714052 0.660885
Si Si4 0.317704 0.103799 0.706836
Si Si5 0.177300 0.890404 0.247373
Si Si6 0.318522 0.105854 0.975120
Si Si7 0.818105 0.226346 0.894133
Si Si8 0.319275 0.892993 0.347306
O O1 0.256390 0.868554 0.757212
O O2 0.227824 0.832258 0.848819
O O3 0.000000 0.886729 0.800777
O O4 0.219044 0.000000 0.815033
O O5 0.756225 0.170386 0.115932
O O6 0.000000 0.116075 0.071786
O O7 0.787178 0.000000 0.088056
O O8 0.742514 0.124363 0.026558
O O9 0.500000 0.708289 0.657261
O O10 0.273713 0.819369 0.670080
O O11 0.263534 0.658808 0.705962
O O12 0.500000 0.102812 0.709051
O O13 0.265474 0.000000 0.697284
O O14 0.247506 0.869235 0.297413
O O15 0.000000 0.864792 0.246896
O O16 0.187847 0.000000 0.241067
O O17 0.500000 0.113030 0.974322
O O18 0.246223 0.174453 0.938478
O O19 0.277411 0.000000 0.963852
O O20 0.751401 0.326547 0.885351
O O21 0.000000 0.229209 0.896208
O O22 0.500000 0.881423 0.345129
O O23 0.286529 0.000000 0.355944
#
# Coordination Sequence:
#
# PCOD9357662 Si02
#       8
#     8   8   8   8   8   8   8   8
#     4   9  18  31  47  71 103 136 169 205 247 296
#     4  10  21  37  56  78 105 134 163 202 255 311
#     4  11  21  32  51  76 101 133 172 213 256 305
#     4   9  19  34  49  68  98 135 172 209 249 292
#     4  10  20  33  49  72 104 139 173 210 255 308
#     4  10  21  37  57  81 108 136 167 206 253 307
#     4  11  21  33  53  78 105 138 174 213 257 308
#     4  10  21  36  52  72 102 139 178 220 262 304
#
# _framework density 17.103999000000002
#
# number of rings (size 3 to 8) (size 9 to 14) (size 15 to 20)
#    0.000    2.000    0.000    3.750    0.000    9.000 
#    0.000    1.250    0.000    0.750    0.000    1.750 
#    0.000    0.000    0.000    0.000    0.000    0.000 
#
# Total GULP energy -178723.054633 kJ/mol
# GULP energy per Si atom -5585.095457 kJ/mol
# Density = 1.706507 g / cm^3
# Si number density = 17.103999 Si / 1000 Ang^3
#
#
#
# Elastic Constant Matrix: (Units=GPa)
#
#
# Indices 1 2 3 4 5 6 
#
# 1 51.5937 44.2259 41.8525 0.0000 0.0000 0.0000
# 2 44.2259 92.0040 80.0413 0.0000 0.0000 0.0000
# 3 41.8525 80.0413 106.7384 0.0000 0.0000 0.0000
# 4 0.0000 0.0000 0.0000 34.6462 0.0000 0.0000
# 5 0.0000 0.0000 0.0000 0.0000 33.5992 0.0000
# 6 0.0000 0.0000 0.0000 0.0000 0.0000 23.8404
#
#
#
# Elastic Compliance Matrix: (Units=1/GPa)
#
#
# Indices 1 2 3 4 5 6 
#
# 1 0.033303 -0.013372 -0.003031 0.000000 0.000000 0.000000
# 2 -0.013372 0.036636 -0.022230 0.000000 0.000000 0.000000
# 3 -0.003031 -0.022230 0.027227 0.000000 0.000000 0.000000
# 4 0.000000 0.000000 0.000000 0.028863 0.000000 0.000000
# 5 0.000000 0.000000 0.000000 0.000000 0.029763 0.000000
# 6 0.000000 0.000000 0.000000 0.000000 0.000000 0.041946
#
#
# Mechanical properties :
#
#
# Convention : Reuss Voigt Hill
#
# Bulk Modulus (GPa) = 50.24826 64.73061 57.48944
# Shear Modulus (GPa) = 17.75334 24.03156 20.89245
#
# Velocity S-wave (km/s) = 3.22524 3.75243 3.49878
# Velocity P-wave (km/s) = 6.58114 7.53006 7.07154
#
# Compressibility (1/GPa) = 0.01990118
#
# Stress axis : x y z
#
# Youngs Moduli (GPa) = 30.02711 27.29532 36.72832
#
# Poissons Ratio (x) = 0.36499 0.11132
# Poissons Ratio (y) = 0.40152 0.81646
# Poissons Ratio (z) = 0.09101 0.60677
#
# Static dielectric constant tensor:
#      x y z
#    x 1.568500 0.000000 0.000000 
#    y 0.000000 1.602900 0.000000 
#    z 0.000000 0.000000 1.536570 
# 
# From -- ./inp_files/22135.got.cif
#   From: 2010.05.17/outbox.cif.g08.bks.cpg/sg38_12_cif.got.tgz:22135.got - 2010.06.03 18:07:57.
