data_PCOD9357955
_publ_section_title
;
Structure prediction by ZEFSAII (Michael W. Deem and Ramdas Pophale) SiO2 
 PCOD9357955
Probable space group: A M M 2
;
_chemical_formula_sum "Si O2"
_cell_formula_units_Z 64
_cell_length_a 15.332400
_cell_length_b 7.842250
_cell_length_c 25.099647
_cell_angle_alpha 90.000000
_cell_angle_beta 90.000000
_cell_angle_gamma 90.000000
_cell_volume 3017.994454
_symmetry_space_group_name_H-M "A M M 2"
_symmetry_group_IT_number 38
_symmetry_cell_setting 'orthorhombic'
loop_
_space_group_symop_operation_xyz
x,y,z
-x,-y,z
-x,y,z
x,-y,z
x,1/2+y,1/2+z
-x,1/2-y,1/2+z
-x,1/2+y,1/2+z
x,1/2-y,1/2+z
loop_
_atom_site_type_symbol
_atom_site_label
_atom_site_fract_x
_atom_site_fract_y
_atom_site_fract_z
Si Si1 0.405811 0.295841 0.951530
Si Si2 0.632273 0.696465 0.571801
Si Si3 0.174649 0.704651 0.096229
Si Si4 0.905709 0.298251 0.492940
Si Si5 0.405291 0.700339 0.190515
Si Si6 0.226570 0.302191 0.908142
Si Si7 0.788730 0.206415 0.714639
Si Si8 0.099677 0.796438 0.317380
O O1 0.500000 0.228486 0.933881
O O2 0.405268 0.500000 0.944178
O O3 0.321351 0.225234 0.920722
O O4 0.397273 0.266313 0.014961
O O5 0.606506 0.500000 0.575166
O O6 0.736380 0.714622 0.574246
O O7 0.600681 0.784797 0.626132
O O8 0.183095 0.500000 0.094260
O O9 0.168875 0.755024 0.157873
O O10 0.101176 0.761955 0.055581
O O11 0.897188 0.500000 0.484065
O O12 0.828318 0.205640 0.462510
O O13 0.000000 0.240749 0.472303
O O14 0.500000 0.773855 0.206947
O O15 0.406365 0.500000 0.203778
O O16 0.312794 0.768753 0.213184
O O17 0.240550 0.500000 0.893206
O O18 0.162774 0.224367 0.863705
O O19 0.848425 0.267746 0.762631
O O20 0.785569 0.000000 0.716547
O O21 0.000000 0.729153 0.317084
O O22 0.092786 0.000000 0.326085
#
# Coordination Sequence:
#
# PCOD9357955 Si02
#       8
#     8   8   8   8   8   8   8   8
#     4  10  20  34  54  80 111 150 192 230 275 335
#     4  11  20  30  49  80 117 152 189 233 279 328
#     4  10  20  36  56  79 112 154 193 229 277 341
#     4  11  23  36  54  85 119 148 181 230 292 346
#     4   9  18  34  55  79 112 154 195 230 272 336
#     4  10  21  39  61  81 109 150 193 234 278 340
#     4   9  20  37  58  84 111 143 188 236 282 334
#     4  10  22  40  61  84 109 143 190 241 292 342
#
# _framework density 21.206135
#
# number of rings (size 3 to 8) (size 9 to 14) (size 15 to 20)
#    0.000    2.000    1.250    3.375    0.000    7.250 
#    0.000    3.125    0.000    0.750    0.000    0.000 
#    0.000    0.000    0.000    0.000    0.000    0.000 
#
# Total GULP energy -178557.785444 kJ/mol
# GULP energy per Si atom -5579.930795 kJ/mol
# Density = 2.115787 g / cm^3
# Si number density = 21.206135 Si / 1000 Ang^3
#
#
#
# Elastic Constant Matrix: (Units=GPa)
#
#
# Indices 1 2 3 4 5 6 
#
# 1 181.1535 3.3534 69.2124 0.0000 0.0000 0.0000
# 2 3.3534 31.4047 -5.1559 0.0000 0.0000 0.0000
# 3 69.2124 -5.1559 94.5905 0.0000 0.0000 0.0000
# 4 0.0000 0.0000 0.0000 18.2968 0.0000 0.0000
# 5 0.0000 0.0000 0.0000 0.0000 -22.8291 0.0000
# 6 0.0000 0.0000 0.0000 0.0000 0.0000 19.1948
#
#
#
# Elastic Compliance Matrix: (Units=1/GPa)
#
#
# Indices 1 2 3 4 5 6 
#
# 1 0.007759 -0.001777 -0.005774 0.000000 0.000000 0.000000
# 2 -0.001777 0.032537 0.003073 0.000000 0.000000 0.000000
# 3 -0.005774 0.003073 0.014965 0.000000 0.000000 0.000000
# 4 0.000000 0.000000 0.000000 0.054654 0.000000 0.000000
# 5 0.000000 0.000000 0.000000 0.000000 -0.043804 0.000000
# 6 0.000000 0.000000 0.000000 0.000000 0.000000 0.052097
#
#
# Mechanical properties :
#
#
# Convention : Reuss Voigt Hill
#
# Bulk Modulus (GPa) = 21.59570 49.10763 35.35166
# Shear Modulus (GPa) = 35.06350 18.91509 26.98929
#
# Velocity S-wave (km/s) = 4.07069 2.98981 3.57138
# Velocity P-wave (km/s) = 5.68329 5.92674 5.80629
#
# Compressibility (1/GPa) = 0.04630551
#
# Stress axis : x y z
#
# Youngs Moduli (GPa) = 128.87871 30.73454 66.82477
#
# Poissons Ratio (x) = 0.05460 0.38587
# Poissons Ratio (y) = 0.22896 -0.20538
# Poissons Ratio (z) = 0.74419 -0.09446
#
# Static dielectric constant tensor:
#      x y z
#    x 1.817160 0.000000 0.000000 
#    y 0.000000 1.781570 0.000000 
#    z 0.000000 0.000000 1.747000 
# 
# From -- ./inp_files/22969.got.cif
#   From: 2010.05.17/outbox.cif.g08.bks.cpg/sg38_12_cif.got.tgz:22969.got - 2010.06.03 18:07:57.
