data_PCOD9357318
_publ_section_title
;
Structure prediction by ZEFSAII (Michael W. Deem and Ramdas Pophale) SiO2 
 PCOD9357318
Probable space group: A M M 2
;
_chemical_formula_sum "Si O2"
_cell_formula_units_Z 58
_cell_length_a 22.975573
_cell_length_b 7.398463
_cell_length_c 14.925205
_cell_angle_alpha 90.000000
_cell_angle_beta 90.000000
_cell_angle_gamma 90.000000
_cell_volume 2537.044953
_symmetry_space_group_name_H-M "A M M 2"
_symmetry_group_IT_number 38
_symmetry_cell_setting 'orthorhombic'
loop_
_space_group_symop_operation_xyz
x,y,z
-x,-y,z
-x,y,z
x,-y,z
x,1/2+y,1/2+z
-x,1/2-y,1/2+z
-x,1/2+y,1/2+z
x,1/2-y,1/2+z
loop_
_atom_site_type_symbol
_atom_site_label
_atom_site_fract_x
_atom_site_fract_y
_atom_site_fract_z
Si Si1 0.761693 0.283177 0.830990
Si Si2 0.791629 0.721259 0.638267
Si Si3 0.000000 0.500000 0.720366
Si Si4 0.633154 0.210481 0.874714
Si Si5 0.147520 0.794956 0.969677
Si Si6 0.064535 0.792461 0.815833
Si Si7 0.666065 0.787124 0.067656
Si Si8 0.564967 0.781345 0.709331
O O1 0.763285 0.500000 0.837272
O O2 0.796518 0.226324 0.741953
O O3 0.695010 0.225038 0.824220
O O4 0.790095 0.203495 0.919929
O O5 0.792604 0.500000 0.636207
O O6 0.839769 0.784298 0.567075
O O7 0.727634 0.782708 0.604886
O O8 0.051051 0.658924 0.733602
O O9 0.585117 0.285438 0.807339
O O10 0.618365 0.000000 0.888195
O O11 0.645117 0.290927 0.972537
O O12 0.106709 0.714899 0.892368
O O13 0.125792 0.000000 0.981654
O O14 0.000000 0.796988 0.859980
O O15 0.079777 0.000000 0.792470
O O16 0.614319 0.769280 0.138524
O O17 0.676614 0.000000 0.053261
O O18 0.500000 0.720317 0.686067
O O19 0.564540 0.000000 0.712130
#
# Coordination Sequence:
#
# PCOD9357318 Si02
#       8
#     8   8   2   8   8   8   8   8
#     4  11  21  31  51  81 110 136 175 221 267 316
#     4   9  18  33  51  77 108 140 171 214 264 320
#     4   8  14  28  52  74 116 140 182 238 278 306
#     4  10  20  36  56  74 101 138 173 209 261 322
#     4  10  19  35  56  76 109 146 182 216 265 325
#     4   8  16  29  51  79 104 148 191 223 274 332
#     4  10  19  35  57  77 100 135 175 209 255 317
#     4  10  22  38  55  76 104 134 169 218 268 312
#
# _framework density 22.861242000000001
#
# number of rings (size 3 to 8) (size 9 to 14) (size 15 to 20)
#    0.414    1.931    2.759    0.414    0.966    1.379 
#    0.000    2.759    0.000    0.828    0.000    1.931 
#    0.000    0.000    0.000    0.000    0.000    0.000 
#
# Total GULP energy -161473.249511 kJ/mol
# GULP energy per Si atom -5568.043087 kJ/mol
# Density = 2.280921 g / cm^3
# Si number density = 22.861242 Si / 1000 Ang^3
#
#
#
# Elastic Constant Matrix: (Units=GPa)
#
#
# Indices 1 2 3 4 5 6 
#
# 1 47.3285 -8.1315 -5.4103 0.0000 0.0000 0.0000
# 2 -8.1315 87.8959 5.1331 0.0000 0.0000 0.0000
# 3 -5.4103 5.1331 99.4226 0.0000 0.0000 0.0000
# 4 0.0000 0.0000 0.0000 2.7210 0.0000 0.0000
# 5 0.0000 0.0000 0.0000 0.0000 -8.7263 0.0000
# 6 0.0000 0.0000 0.0000 0.0000 0.0000 -19.2104
#
#
#
# Elastic Compliance Matrix: (Units=1/GPa)
#
#
# Indices 1 2 3 4 5 6 
#
# 1 0.021584 0.001934 0.001075 0.000000 0.000000 0.000000
# 2 0.001934 0.011585 -0.000493 0.000000 0.000000 0.000000
# 3 0.001075 -0.000493 0.010142 0.000000 0.000000 0.000000
# 4 0.000000 0.000000 0.000000 0.367505 0.000000 0.000000
# 5 0.000000 0.000000 0.000000 0.000000 -0.114596 0.000000
# 6 0.000000 0.000000 0.000000 0.000000 0.000000 -0.052055
#
#
# Mechanical properties :
#
#
# Convention : Reuss Voigt Hill
#
# Bulk Modulus (GPa) = 20.68569 24.20329 22.44449
# Shear Modulus (GPa) = 19.58887 11.16059 15.37473
#
# Velocity S-wave (km/s) = 2.93039 2.21189 2.59612
# Velocity P-wave (km/s) = 4.52964 4.13924 4.33883
#
# Compressibility (1/GPa) = 0.04834261
#
# Stress axis : x y z
#
# Youngs Moduli (GPa) = 46.33046 86.31995 98.59989
#
# Poissons Ratio (x) = -0.16695 -0.10596
# Poissons Ratio (y) = -0.08961 0.04860
# Poissons Ratio (z) = -0.04979 0.04254
#
# Static dielectric constant tensor:
#      x y z
#    x 1.868560 0.000000 0.000000 
#    y 0.000000 1.893290 0.000000 
#    z 0.000000 0.000000 1.858740 
# 
# From -- ./inp_files/15671.got.cif
#   From: 2010.05.17/outbox.cif.g08.bks.cpg/sg38_8_cif.got.tgz:15671.got - 2010.06.03 18:07:57.
