data_PCOD9357326
_publ_section_title
;
Structure prediction by ZEFSAII (Michael W. Deem and Ramdas Pophale) SiO2 
 PCOD9357326
Probable space group: A M M 2
;
_chemical_formula_sum "Si O2"
_cell_formula_units_Z 48
_cell_length_a 8.687320
_cell_length_b 14.833497
_cell_length_c 20.905613
_cell_angle_alpha 90.000000
_cell_angle_beta 90.000000
_cell_angle_gamma 90.000000
_cell_volume 2693.967015
_symmetry_space_group_name_H-M "A M M 2"
_symmetry_group_IT_number 38
_symmetry_cell_setting 'orthorhombic'
loop_
_space_group_symop_operation_xyz
x,y,z
-x,-y,z
-x,y,z
x,-y,z
x,1/2+y,1/2+z
-x,1/2-y,1/2+z
-x,1/2+y,1/2+z
x,1/2-y,1/2+z
loop_
_atom_site_type_symbol
_atom_site_label
_atom_site_fract_x
_atom_site_fract_y
_atom_site_fract_z
Si Si1 0.185650 0.307623 0.392200
Si Si2 0.315815 0.685171 0.529689
Si Si3 0.685976 0.196911 0.651672
Si Si4 0.184653 0.311794 0.769887
Si Si5 0.316377 0.000000 0.227574
Si Si6 0.816254 0.500000 0.583464
Si Si7 0.185789 0.000000 0.834905
Si Si8 0.314495 0.000000 0.691489
O O1 0.259433 0.285621 0.460050
O O2 0.227797 0.239185 0.335354
O O3 0.233054 0.408656 0.370860
O O4 0.000000 0.307220 0.398167
O O5 0.500000 0.676017 0.530301
O O6 0.271366 0.755580 0.585255
O O7 0.242029 0.589206 0.547743
O O8 0.500000 0.202104 0.657724
O O9 0.758804 0.251662 0.710339
O O10 0.732845 0.092520 0.657107
O O11 0.257813 0.410039 0.762258
O O12 0.000000 0.319028 0.767444
O O13 0.249802 0.000000 0.155446
O O14 0.500000 0.000000 0.223662
O O15 0.000000 0.500000 0.585929
O O16 0.250429 0.000000 0.763339
O O17 0.000000 0.000000 0.831190
O O18 0.500000 0.000000 0.694793
#
# Coordination Sequence:
#
# PCOD9357326 Si02
#       8
#     8   8   8   8   4   4   4   4
#     4  10  22  38  58  86 122 158 195 241 296 355
#     4  11  23  38  58  86 120 159 201 244 296 356
#     4  10  21  37  58  85 119 154 195 248 293 346
#     4  11  22  38  62  88 116 156 200 244 296 354
#     4  12  24  39  60  89 122 153 196 249 300 355
#     4  12  23  37  60  88 121 157 196 246 303 357
#     4  10  19  35  56  84 117 149 186 236 291 348
#     4  10  20  35  58  87 116 151 190 237 296 346
#
# _framework density 17.817591
#
# number of rings (size 3 to 8) (size 9 to 14) (size 15 to 20)
#    0.000    1.333    3.333    3.000    0.000    3.333 
#    0.000    0.833    0.000    1.000    0.000    0.000 
#    0.000    0.000    0.000    0.000    0.000    0.000 
#
# Total GULP energy -134136.754020 kJ/mol
# GULP energy per Si atom -5589.031417 kJ/mol
# Density = 1.777704 g / cm^3
# Si number density = 17.817591 Si / 1000 Ang^3
#
#
#
# Elastic Constant Matrix: (Units=GPa)
#
#
# Indices 1 2 3 4 5 6 
#
# 1 48.8597 48.0516 56.1452 0.0000 0.0000 0.0000
# 2 48.0516 154.8583 92.7836 0.0000 0.0000 0.0000
# 3 56.1452 92.7836 175.4213 0.0000 0.0000 0.0000
# 4 0.0000 0.0000 0.0000 16.8391 0.0000 0.0000
# 5 0.0000 0.0000 0.0000 0.0000 33.8176 0.0000
# 6 0.0000 0.0000 0.0000 0.0000 0.0000 15.7371
#
#
#
# Elastic Compliance Matrix: (Units=1/GPa)
#
#
# Indices 1 2 3 4 5 6 
#
# 1 0.036095 -0.006263 -0.008240 0.000000 0.000000 0.000000
# 2 -0.006263 0.010540 -0.003570 0.000000 0.000000 0.000000
# 3 -0.008240 -0.003570 0.010226 0.000000 0.000000 0.000000
# 4 0.000000 0.000000 0.000000 0.059386 0.000000 0.000000
# 5 0.000000 0.000000 0.000000 0.000000 0.029570 0.000000
# 6 0.000000 0.000000 0.000000 0.000000 0.000000 0.063544
#
#
# Mechanical properties :
#
#
# Convention : Reuss Voigt Hill
#
# Bulk Modulus (GPa) = 48.27502 85.90000 67.08751
# Shear Modulus (GPa) = 19.80887 25.42268 22.61578
#
# Velocity S-wave (km/s) = 3.33792 3.78144 3.56658
# Velocity P-wave (km/s) = 6.48139 8.20860 7.39559
#
# Compressibility (1/GPa) = 0.02071464
#
# Stress axis : x y z
#
# Youngs Moduli (GPa) = 27.70487 94.87617 97.78842
#
# Poissons Ratio (x) = 0.59422 0.80575
# Poissons Ratio (y) = 0.17352 0.34913
# Poissons Ratio (z) = 0.22828 0.33873
#
# Static dielectric constant tensor:
#      x y z
#    x 1.599980 0.000000 0.000000 
#    y 0.000000 1.600650 0.000000 
#    z 0.000000 0.000000 1.579220 
# 
# From -- ./inp_files/16770.got.cif
#   From: 2010.05.17/outbox.cif.g08.bks.cpg/sg38_9_cif.got.tgz:16770.got - 2010.06.03 18:07:57.
