data_PCOD9357110
_publ_section_title
;
Structure prediction by ZEFSAII (Michael W. Deem and Ramdas Pophale) SiO2 
 PCOD9357110
Probable space group: A M M 2
;
_chemical_formula_sum "Si O2"
_cell_formula_units_Z 64
_cell_length_a 14.004193
_cell_length_b 27.764391
_cell_length_c 9.653930
_cell_angle_alpha 90.000000
_cell_angle_beta 90.000000
_cell_angle_gamma 90.000000
_cell_volume 3753.620694
_symmetry_space_group_name_H-M "A M M 2"
_symmetry_group_IT_number 38
_symmetry_cell_setting 'orthorhombic'
loop_
_space_group_symop_operation_xyz
x,y,z
-x,-y,z
-x,y,z
x,-y,z
x,1/2+y,1/2+z
-x,1/2-y,1/2+z
-x,1/2+y,1/2+z
x,1/2-y,1/2+z
loop_
_atom_site_type_symbol
_atom_site_label
_atom_site_fract_x
_atom_site_fract_y
_atom_site_fract_z
Si Si1 0.390451 0.814176 0.723980
Si Si2 0.889586 0.095189 0.230223
Si Si3 0.201629 0.127699 0.743335
Si Si4 0.884977 0.445129 0.025711
Si Si5 0.390434 0.726231 0.530087
Si Si6 0.113169 0.775683 0.854639
Si Si7 0.890407 0.554795 0.435363
Si Si8 0.801395 0.196672 0.154237
O O1 0.500000 0.831578 0.725452
O O2 0.309827 0.854683 0.727183
O O3 0.377676 0.780271 0.589342
O O4 0.377644 0.782553 0.865609
O O5 0.860883 0.067532 0.367858
O O6 0.886122 0.059959 0.099635
O O7 0.832736 0.143405 0.195711
O O8 0.000000 0.110514 0.247691
O O9 0.163401 0.095656 0.618001
O O10 0.140217 0.175820 0.770927
O O11 0.182489 0.092720 0.872573
O O12 0.856401 0.500000 0.059478
O O13 0.000000 0.442622 0.042152
O O14 0.500000 0.712647 0.563141
O O15 0.309660 0.697414 0.612484
O O16 0.169518 0.732639 0.778418
O O17 0.000000 0.766761 0.850039
O O18 0.145619 0.784962 0.013407
O O19 0.873182 0.500000 0.392176
O O20 0.000000 0.567599 0.393039
#
# Coordination Sequence:
#
# PCOD9357110 Si02
#       8
#     8   8   8   8   8   8   8   8
#     4  10  21  37  57  79 104 139 182 229 275 319
#     4  10  20  35  54  77 110 146 186 226 267 324
#     4  12  21  35  55  79 110 140 179 225 269 329
#     4  10  22  38  56  80 108 142 185 230 275 323
#     4  10  19  36  56  77 106 143 187 234 270 308
#     4  12  24  35  50  77 117 153 182 211 260 333
#     4  10  19  33  55  79 105 141 183 228 273 317
#     4  12  22  37  52  79 112 152 186 220 270 324
#
# _framework density 17.050204999999998
#
# number of rings (size 3 to 8) (size 9 to 14) (size 15 to 20)
#    0.000    1.250    3.750    3.000    1.750    3.500 
#    0.000    0.000    0.000    1.500    0.000    0.000 
#    0.000    3.000    0.000    0.000    0.000    0.000 
#
# Total GULP energy -178606.447174 kJ/mol
# GULP energy per Si atom -5581.451474 kJ/mol
# Density = 1.701140 g / cm^3
# Si number density = 17.050205 Si / 1000 Ang^3
#
#
#
# Elastic Constant Matrix: (Units=GPa)
#
#
# Indices 1 2 3 4 5 6 
#
# 1 81.8786 37.3790 20.7945 0.0000 0.0000 0.0000
# 2 37.3790 89.6458 27.0304 0.0000 0.0000 0.0000
# 3 20.7945 27.0304 78.2015 0.0000 0.0000 0.0000
# 4 0.0000 0.0000 0.0000 25.2490 0.0000 0.0000
# 5 0.0000 0.0000 0.0000 0.0000 31.3895 0.0000
# 6 0.0000 0.0000 0.0000 0.0000 0.0000 18.8621
#
#
#
# Elastic Compliance Matrix: (Units=1/GPa)
#
#
# Indices 1 2 3 4 5 6 
#
# 1 0.015385 -0.005784 -0.002092 0.000000 0.000000 0.000000
# 2 -0.005784 0.014628 -0.003518 0.000000 0.000000 0.000000
# 3 -0.002092 -0.003518 0.014560 0.000000 0.000000 0.000000
# 4 0.000000 0.000000 0.000000 0.039606 0.000000 0.000000
# 5 0.000000 0.000000 0.000000 0.000000 0.031858 0.000000
# 6 0.000000 0.000000 0.000000 0.000000 0.000000 0.053016
#
#
# Mechanical properties :
#
#
# Convention : Reuss Voigt Hill
#
# Bulk Modulus (GPa) = 45.90430 46.68154 46.29292
# Shear Modulus (GPa) = 25.11286 26.06826 25.59056
#
# Velocity S-wave (km/s) = 3.84197 3.91437 3.87834
# Velocity P-wave (km/s) = 6.83099 6.91867 6.87497
#
# Compressibility (1/GPa) = 0.02178445
#
# Stress axis : x y z
#
# Youngs Moduli (GPa) = 64.99812 68.36391 68.68295
#
# Poissons Ratio (x) = 0.39544 0.14366
# Poissons Ratio (y) = 0.37597 0.24162
# Poissons Ratio (z) = 0.13596 0.24050
#
# Static dielectric constant tensor:
#      x y z
#    x 1.569670 0.000000 0.000000 
#    y 0.000000 1.544060 0.000000 
#    z 0.000000 0.000000 1.621860 
# 
# From -- ./inp_files/5885.got.cif
#   From: 2010.05.17/outbox.cif.g08.bks.cpg/sg38_3_cif.got.tgz:5885.got - 2010.06.03 18:07:57.
