data_PCOD9357149
_publ_section_title
;
Structure prediction by ZEFSAII (Michael W. Deem and Ramdas Pophale) SiO2 
 PCOD9357149
Probable space group: A M M 2
;
_chemical_formula_sum "Si O2"
_cell_formula_units_Z 56
_cell_length_a 18.163381
_cell_length_b 11.040041
_cell_length_c 14.397874
_cell_angle_alpha 90.000000
_cell_angle_beta 90.000000
_cell_angle_gamma 90.000000
_cell_volume 2887.126066
_symmetry_space_group_name_H-M "A M M 2"
_symmetry_group_IT_number 38
_symmetry_cell_setting 'orthorhombic'
loop_
_space_group_symop_operation_xyz
x,y,z
-x,-y,z
-x,y,z
x,-y,z
x,1/2+y,1/2+z
-x,1/2-y,1/2+z
-x,1/2+y,1/2+z
x,1/2-y,1/2+z
loop_
_atom_site_type_symbol
_atom_site_label
_atom_site_fract_x
_atom_site_fract_y
_atom_site_fract_z
Si Si1 0.811832 0.357290 0.794290
Si Si2 0.081697 0.145723 0.463563
Si Si3 0.165454 0.357625 0.146850
Si Si4 0.666839 0.631420 0.094588
Si Si5 0.635274 0.630406 0.807543
Si Si6 0.412466 0.632661 0.589699
Si Si7 0.583851 0.370726 0.289793
O O1 0.829456 0.500000 0.768674
O O2 0.856812 0.324818 0.887252
O O3 0.831382 0.250417 0.721819
O O4 0.723603 0.356939 0.808645
O O5 0.106782 0.175475 0.567634
O O6 0.000000 0.193525 0.441649
O O7 0.078132 0.000000 0.461785
O O8 0.153937 0.500000 0.178178
O O9 0.245595 0.358164 0.098089
O O10 0.647111 0.500000 0.054122
O O11 0.630392 0.750624 0.053120
O O12 0.638040 0.627877 0.201540
O O13 0.614517 0.500000 0.847072
O O14 0.606695 0.629224 0.700392
O O15 0.600095 0.751573 0.847695
O O16 0.500000 0.645833 0.578342
O O17 0.389834 0.500000 0.554040
O O18 0.500000 0.363658 0.254456
O O19 0.591531 0.500000 0.338579
#
# Coordination Sequence:
#
# PCOD9357149 Si02
#       7
#     8   8   8   8   8   8   8
#     4  10  19  33  56  81 107 141 179 220 265 317
#     4   9  20  38  57  81 112 143 176 214 265 329
#     4  10  19  33  56  81 107 141 179 220 265 317
#     4   9  15  23  38  63  94 126 165 210 252 298
#     4   9  15  23  38  63  94 126 165 210 252 298
#     4   9  15  22  35  61  97 131 166 211 258 303
#     4   9  15  22  35  61  97 131 166 211 258 303
#
# _framework density 19.396450999999999
#
# number of rings (size 3 to 8) (size 9 to 14) (size 15 to 20)
#    0.000    2.714    2.857    1.714    0.000    2.286 
#    0.000    0.714    0.000    0.857    0.000    4.000 
#    0.000   27.429    0.000    0.000    0.000    0.000 
#
# Total GULP energy -155867.904044 kJ/mol
# GULP energy per Si atom -5566.710859 kJ/mol
# Density = 1.935230 g / cm^3
# Si number density = 19.396451 Si / 1000 Ang^3
#
#
#
# Elastic Constant Matrix: (Units=GPa)
#
#
# Indices 1 2 3 4 5 6 
#
# 1 50.7586 8.9390 -5.1218 0.0000 0.0000 0.0000
# 2 8.9390 162.6868 4.3464 0.0000 0.0000 0.0000
# 3 -5.1218 4.3464 19.3647 0.0000 0.0000 0.0000
# 4 0.0000 0.0000 0.0000 -3.2328 0.0000 0.0000
# 5 0.0000 0.0000 0.0000 0.0000 55.4556 0.0000
# 6 0.0000 0.0000 0.0000 0.0000 0.0000 15.4263
#
#
#
# Elastic Compliance Matrix: (Units=1/GPa)
#
#
# Indices 1 2 3 4 5 6 
#
# 1 0.020502 -0.001279 0.005710 0.000000 0.000000 0.000000
# 2 -0.001279 0.006264 -0.001744 0.000000 0.000000 0.000000
# 3 0.005710 -0.001744 0.053542 0.000000 0.000000 0.000000
# 4 0.000000 0.000000 0.000000 -0.309334 0.000000 0.000000
# 5 0.000000 0.000000 0.000000 0.000000 0.018032 0.000000
# 6 0.000000 0.000000 0.000000 0.000000 0.000000 0.064824
#
#
# Mechanical properties :
#
#
# Convention : Reuss Voigt Hill
#
# Bulk Modulus (GPa) = 11.67114 27.68194 19.67654
# Shear Modulus (GPa) = -40.65664 28.50625 -6.07520
#
# Velocity S-wave (km/s) = -4.58327 3.83778 -1.77170
# Velocity P-wave (km/s) = 4.68810 5.82586 2.44565
#
# Compressibility (1/GPa) = 0.08568141
#
# Stress axis : x y z
#
# Youngs Moduli (GPa) = 48.77455 159.65112 18.67688
#
# Poissons Ratio (x) = 0.20421 -0.10664
# Poissons Ratio (y) = 0.06239 0.03258
# Poissons Ratio (z) = -0.27849 0.27846
#
# Static dielectric constant tensor:
#      x y z
#    x 1.647420 0.000000 0.000000 
#    y 0.000000 1.767690 0.000000 
#    z 0.000000 0.000000 1.683500 
# 
# From -- ./inp_files/14561.got.cif
#   From: 2010.05.17/outbox.cif.g08.bks.cpg/sg38_8_cif.got.tgz:14561.got - 2010.06.03 18:07:57.
