data_PCOD9357351
_publ_section_title
;
Structure prediction by ZEFSAII (Michael W. Deem and Ramdas Pophale) SiO2 
 PCOD9357351
Probable space group: A M M 2
;
_chemical_formula_sum "Si O2"
_cell_formula_units_Z 64
_cell_length_a 8.595240
_cell_length_b 25.833862
_cell_length_c 15.329753
_cell_angle_alpha 90.000000
_cell_angle_beta 90.000000
_cell_angle_gamma 90.000000
_cell_volume 3403.944735
_symmetry_space_group_name_H-M "A M M 2"
_symmetry_group_IT_number 38
_symmetry_cell_setting 'orthorhombic'
loop_
_space_group_symop_operation_xyz
x,y,z
-x,-y,z
-x,y,z
x,-y,z
x,1/2+y,1/2+z
-x,1/2-y,1/2+z
-x,1/2+y,1/2+z
x,1/2-y,1/2+z
loop_
_atom_site_type_symbol
_atom_site_label
_atom_site_fract_x
_atom_site_fract_y
_atom_site_fract_z
Si Si1 0.182756 0.737387 0.475960
Si Si2 0.685032 0.860723 0.880066
Si Si3 0.815755 0.218854 0.182599
Si Si4 0.811619 0.895037 0.209816
Si Si5 0.315124 0.651550 0.010590
Si Si6 0.811927 0.058840 0.394982
Si Si7 0.687995 0.940562 0.029052
Si Si8 0.813231 0.333258 0.202284
O O1 0.271172 0.695340 0.418868
O O2 0.201127 0.721198 0.577677
O O3 0.242697 0.796021 0.469599
O O4 0.000000 0.735807 0.454196
O O5 0.500000 0.864981 0.870887
O O6 0.762725 0.865735 0.785710
O O7 0.739643 0.903189 0.950511
O O8 0.752870 0.164384 0.216478
O O9 0.754901 0.273802 0.216370
O O10 0.000000 0.218672 0.202339
O O11 0.768251 0.926963 0.295545
O O12 0.750179 0.919744 0.120970
O O13 0.000000 0.893908 0.204788
O O14 0.500000 0.656144 0.009815
O O15 0.255474 0.648789 0.110262
O O16 0.260292 0.601517 0.957922
O O17 0.000000 0.062192 0.400822
O O18 0.765711 0.000000 0.415435
O O19 0.500000 0.938744 0.031557
O O20 0.736044 0.000000 0.015868
O O21 0.000000 0.332069 0.194290
#
# Coordination Sequence:
#
# PCOD9357351 Si02
#       8
#     8   8   8   8   8   8   8   8
#     4  10  19  35  58  84 117 156 193 236 292 354
#     4  11  22  36  56  87 121 155 199 248 294 349
#     4   8  16  31  53  83 114 147 187 227 282 344
#     4  10  19  35  59  88 117 150 195 242 286 340
#     4  11  23  40  61  87 117 153 198 250 303 354
#     4  10  22  39  60  87 118 155 200 248 297 353
#     4  10  22  39  57  81 120 163 196 234 290 349
#     4  10  21  38  60  86 118 158 195 241 299 359
#
# _framework density 18.801715999999999
#
# number of rings (size 3 to 8) (size 9 to 14) (size 15 to 20)
#    0.000    2.000    1.250    3.375    1.750    2.000 
#    0.000    1.250    0.000    2.250    0.000    0.000 
#    0.000    0.000    0.000    0.000    0.000    0.000 
#
# Total GULP energy -178705.048680 kJ/mol
# GULP energy per Si atom -5584.532771 kJ/mol
# Density = 1.875892 g / cm^3
# Si number density = 18.801716 Si / 1000 Ang^3
#
#
#
# Elastic Constant Matrix: (Units=GPa)
#
#
# Indices 1 2 3 4 5 6 
#
# 1 28.4384 18.2194 9.8813 0.0000 0.0000 0.0000
# 2 18.2194 124.9263 62.0189 0.0000 0.0000 0.0000
# 3 9.8813 62.0189 84.1562 0.0000 0.0000 0.0000
# 4 0.0000 0.0000 0.0000 24.0725 0.0000 0.0000
# 5 0.0000 0.0000 0.0000 0.0000 27.0544 0.0000
# 6 0.0000 0.0000 0.0000 0.0000 0.0000 19.2199
#
#
#
# Elastic Compliance Matrix: (Units=1/GPa)
#
#
# Indices 1 2 3 4 5 6 
#
# 1 0.038808 -0.005358 -0.000608 0.000000 0.000000 0.000000
# 2 -0.005358 0.013363 -0.009218 0.000000 0.000000 0.000000
# 3 -0.000608 -0.009218 0.018748 0.000000 0.000000 0.000000
# 4 0.000000 0.000000 0.000000 0.041541 0.000000 0.000000
# 5 0.000000 0.000000 0.000000 0.000000 0.036963 0.000000
# 6 0.000000 0.000000 0.000000 0.000000 0.000000 0.052029
#
#
# Mechanical properties :
#
#
# Convention : Reuss Voigt Hill
#
# Bulk Modulus (GPa) = 24.66164 46.41780 35.53972
# Shear Modulus (GPa) = 20.38021 23.89611 22.13816
#
# Velocity S-wave (km/s) = 3.29592 3.56891 3.43513
# Velocity P-wave (km/s) = 5.25636 6.45945 5.88871
#
# Compressibility (1/GPa) = 0.04054880
#
# Stress axis : x y z
#
# Youngs Moduli (GPa) = 25.76819 74.83609 53.34023
#
# Poissons Ratio (x) = 0.40096 0.03244
# Poissons Ratio (y) = 0.13806 0.49171
# Poissons Ratio (z) = 0.01567 0.68987
#
# Static dielectric constant tensor:
#      x y z
#    x 1.642840 0.000000 0.000000 
#    y 0.000000 1.653000 0.000000 
#    z 0.000000 0.000000 1.640310 
# 
# From -- ./inp_files/12706.got.cif
#   From: 2010.05.17/outbox.cif.g08.bks.cpg/sg38_7_cif.got.tgz:12706.got - 2010.06.03 18:07:57.
