data_PCOD9357768
_publ_section_title
;
Structure prediction by ZEFSAII (Michael W. Deem and Ramdas Pophale) SiO2 
 PCOD9357768
Probable space group: A M M 2
;
_chemical_formula_sum "Si O2"
_cell_formula_units_Z 48
_cell_length_a 9.625629
_cell_length_b 7.874118
_cell_length_c 31.901075
_cell_angle_alpha 90.000000
_cell_angle_beta 90.000000
_cell_angle_gamma 90.000000
_cell_volume 2417.888978
_symmetry_space_group_name_H-M "A M M 2"
_symmetry_group_IT_number 38
_symmetry_cell_setting 'orthorhombic'
loop_
_space_group_symop_operation_xyz
x,y,z
-x,-y,z
-x,y,z
x,-y,z
x,1/2+y,1/2+z
-x,1/2-y,1/2+z
-x,1/2+y,1/2+z
x,1/2-y,1/2+z
loop_
_atom_site_type_symbol
_atom_site_label
_atom_site_fract_x
_atom_site_fract_y
_atom_site_fract_z
Si Si1 0.657712 0.799640 0.652440
Si Si2 0.660883 0.707648 0.808547
Si Si3 0.660396 0.207198 0.402356
Si Si4 0.159612 0.201857 0.073825
Si Si5 0.156883 0.297523 0.731187
Si Si6 0.840941 0.205292 0.480429
O O1 0.500000 0.729883 0.652186
O O2 0.737075 0.770479 0.608810
O O3 0.751598 0.728770 0.689874
O O4 0.648681 0.000000 0.659377
O O5 0.500000 0.758429 0.801782
O O6 0.661516 0.500000 0.807962
O O7 0.704579 0.759893 0.855521
O O8 0.760551 0.769789 0.771713
O O9 0.500000 0.256553 0.407729
O O10 0.751348 0.267494 0.441266
O O11 0.664793 0.000000 0.402665
O O12 0.000000 0.267818 0.078478
O O13 0.153951 0.000000 0.079005
O O14 0.207729 0.241924 0.026617
O O15 0.145654 0.500000 0.737090
O O16 0.000000 0.229464 0.726870
O O17 0.000000 0.263908 0.476323
O O18 0.840377 0.000000 0.479405
#
# Coordination Sequence:
#
# PCOD9357768 Si02
#       6
#     8   8   8   8   8   8
#     4  11  24  39  55  76 101 131 168 209 254 305
#     4   8  14  26  45  70 101 135 169 208 253 296
#     4   8  14  25  43  69 100 133 169 208 248 290
#     4  10  21  37  56  77 102 133 169 209 254 304
#     4  10  20  33  52  79 107 135 169 209 253 301
#     4   9  17  29  47  72 101 132 166 207 254 299
#
# _framework density 19.852028000000001
#
# number of rings (size 3 to 8) (size 9 to 14) (size 15 to 20)
#    0.000    2.667    0.000    3.000    0.000    6.667 
#    0.000    5.000    0.000    1.000    0.000    4.667 
#    0.000    0.000    0.000    0.000    0.000    0.000 
#
# Total GULP energy -133903.449544 kJ/mol
# GULP energy per Si atom -5579.310398 kJ/mol
# Density = 1.980684 g / cm^3
# Si number density = 19.852028 Si / 1000 Ang^3
#
#
#
# Elastic Constant Matrix: (Units=GPa)
#
#
# Indices 1 2 3 4 5 6 
#
# 1 132.1816 4.5246 115.3430 0.0000 0.0000 0.0000
# 2 4.5246 20.4097 -4.7521 0.0000 0.0000 0.0000
# 3 115.3430 -4.7521 178.8772 0.0000 0.0000 0.0000
# 4 0.0000 0.0000 0.0000 17.6944 0.0000 0.0000
# 5 0.0000 0.0000 0.0000 0.0000 42.6877 0.0000
# 6 0.0000 0.0000 0.0000 0.0000 0.0000 9.9900
#
#
#
# Elastic Compliance Matrix: (Units=1/GPa)
#
#
# Indices 1 2 3 4 5 6 
#
# 1 0.018193 -0.006807 -0.011912 0.000000 0.000000 0.000000
# 2 -0.006807 0.051848 0.005766 0.000000 0.000000 0.000000
# 3 -0.011912 0.005766 0.013425 0.000000 0.000000 0.000000
# 4 0.000000 0.000000 0.000000 0.056515 0.000000 0.000000
# 5 0.000000 0.000000 0.000000 0.000000 0.023426 0.000000
# 6 0.000000 0.000000 0.000000 0.000000 0.000000 0.100100
#
#
# Mechanical properties :
#
#
# Convention : Reuss Voigt Hill
#
# Bulk Modulus (GPa) = 17.37279 62.41105 39.89192
# Shear Modulus (GPa) = 16.20233 28.49793 22.35013
#
# Velocity S-wave (km/s) = 2.85994 3.79293 3.35899
# Velocity P-wave (km/s) = 4.43574 7.11956 5.93144
#
# Compressibility (1/GPa) = 0.05756129
#
# Stress axis : x y z
#
# Youngs Moduli (GPa) = 54.96724 19.28715 74.49061
#
# Poissons Ratio (x) = 0.13128 0.88731
# Poissons Ratio (y) = 0.37414 -0.42954
# Poissons Ratio (z) = 0.65476 -0.11122
#
# Static dielectric constant tensor:
#      x y z
#    x 1.698710 0.000000 0.000000 
#    y 0.000000 1.736790 0.000000 
#    z 0.000000 0.000000 1.676570 
# 
# From -- ./inp_files/24297.got.cif
#   From: 2010.05.17/outbox.cif.g08.bks.cpg/sg38_13_cif.got.tgz:24297.got - 2010.06.03 18:07:57.
