data_PCOD9357928
_publ_section_title
;
Structure prediction by ZEFSAII (Michael W. Deem and Ramdas Pophale) SiO2 
 PCOD9357928
Probable space group: A M M 2
;
_chemical_formula_sum "Si O2"
_cell_formula_units_Z 64
_cell_length_a 25.770700
_cell_length_b 7.882529
_cell_length_c 15.132517
_cell_angle_alpha 90.000000
_cell_angle_beta 90.000000
_cell_angle_gamma 90.000000
_cell_volume 3073.993628
_symmetry_space_group_name_H-M "A M M 2"
_symmetry_group_IT_number 38
_symmetry_cell_setting 'orthorhombic'
loop_
_space_group_symop_operation_xyz
x,y,z
-x,-y,z
-x,y,z
x,-y,z
x,1/2+y,1/2+z
-x,1/2-y,1/2+z
-x,1/2+y,1/2+z
x,1/2-y,1/2+z
loop_
_atom_site_type_symbol
_atom_site_label
_atom_site_fract_x
_atom_site_fract_y
_atom_site_fract_z
Si Si1 0.555789 0.203528 0.113270
Si Si2 0.253995 0.201935 0.260893
Si Si3 0.941942 0.292803 0.904366
Si Si4 0.057903 0.704724 0.107671
Si Si5 0.331037 0.799750 0.609156
Si Si6 0.555547 0.296645 0.402782
Si Si7 0.668329 0.202464 0.407711
Si Si8 0.137014 0.796936 0.257885
O O1 0.500000 0.266469 0.148874
O O2 0.610786 0.270080 0.146233
O O3 0.556462 0.000000 0.121913
O O4 0.555520 0.243463 0.008012
O O5 0.287455 0.226778 0.172708
O O6 0.287936 0.272317 0.342417
O O7 0.195608 0.270837 0.254574
O O8 0.249879 0.000000 0.274998
O O9 0.941560 0.500000 0.902817
O O10 0.934372 0.241792 0.006050
O O11 0.000000 0.239827 0.876253
O O12 0.897345 0.230327 0.839459
O O13 0.057453 0.500000 0.108852
O O14 0.103438 0.764030 0.170742
O O15 0.000000 0.762793 0.135970
O O16 0.328893 0.729831 0.508421
O O17 0.322857 0.000000 0.604923
O O18 0.500000 0.232519 0.367034
O O19 0.555873 0.500000 0.394486
O O20 0.610533 0.231392 0.369504
O O21 0.674747 0.000000 0.413703
O O22 0.140398 0.000000 0.268466
#
# Coordination Sequence:
#
# PCOD9357928 Si02
#       8
#     8   8   8   8   8   8   8   8
#     4   8  14  27  49  75 102 133 165 199 251 316
#     4  10  22  38  52  71 102 138 176 214 254 303
#     4   8  15  30  53  79 105 135 169 202 245 304
#     4   9  18  33  54  81 111 139 166 202 253 307
#     4  10  20  34  54  78 101 129 169 217 262 301
#     4   8  14  26  47  75 102 127 159 202 255 312
#     4   9  19  35  53  73  99 132 170 212 256 302
#     4  10  20  34  54  77 101 135 178 218 250 289
#
# _framework density 20.819823
#
# number of rings (size 3 to 8) (size 9 to 14) (size 15 to 20)
#    0.000    3.000    0.000    2.250    0.000    3.750 
#    0.000    6.250    0.000    1.500    0.000    0.000 
#    0.000    0.000    0.000    0.000    0.000    0.000 
#
# Total GULP energy -178453.607189 kJ/mol
# GULP energy per Si atom -5576.675225 kJ/mol
# Density = 2.077244 g / cm^3
# Si number density = 20.819823 Si / 1000 Ang^3
#
#
#
# Elastic Constant Matrix: (Units=GPa)
#
#
# Indices 1 2 3 4 5 6 
#
# 1 231.7005 10.6085 93.3154 0.0000 0.0000 0.0000
# 2 10.6085 15.9779 1.1709 0.0000 0.0000 0.0000
# 3 93.3154 1.1709 95.8067 0.0000 0.0000 0.0000
# 4 0.0000 0.0000 0.0000 16.0667 0.0000 0.0000
# 5 0.0000 0.0000 0.0000 0.0000 -44.7624 0.0000
# 6 0.0000 0.0000 0.0000 0.0000 0.0000 34.2593
#
#
#
# Elastic Compliance Matrix: (Units=1/GPa)
#
#
# Indices 1 2 3 4 5 6 
#
# 1 0.007397 -0.004387 -0.007151 0.000000 0.000000 0.000000
# 2 -0.004387 0.065244 0.003476 0.000000 0.000000 0.000000
# 3 -0.007151 0.003476 0.017360 0.000000 0.000000 0.000000
# 4 0.000000 0.000000 0.000000 0.062240 0.000000 0.000000
# 5 0.000000 0.000000 0.000000 0.000000 -0.022340 0.000000
# 6 0.000000 0.000000 0.000000 0.000000 0.000000 0.029189
#
#
# Mechanical properties :
#
#
# Convention : Reuss Voigt Hill
#
# Bulk Modulus (GPa) = 13.53607 61.51941 37.52774
# Shear Modulus (GPa) = 25.01997 17.00541 21.01269
#
# Velocity S-wave (km/s) = 3.47037 2.86105 3.18034
# Velocity P-wave (km/s) = 4.75117 6.36607 5.61696
#
# Compressibility (1/GPa) = 0.07387666
#
# Stress axis : x y z
#
# Youngs Moduli (GPa) = 135.19608 15.32700 57.60372
#
# Poissons Ratio (x) = 0.06724 0.41191
# Poissons Ratio (y) = 0.59310 -0.20020
# Poissons Ratio (z) = 0.96675 -0.05327
#
# Static dielectric constant tensor:
#      x y z
#    x 1.757700 0.000000 0.000000 
#    y 0.000000 1.753720 0.000000 
#    z 0.000000 0.000000 1.769480 
# 
# From -- ./inp_files/15846.got.cif
#   From: 2010.05.17/outbox.cif.g08.bks.cpg/sg38_8_cif.got.tgz:15846.got - 2010.06.03 18:07:57.
