data_PCOD9357445
_publ_section_title
;
Structure prediction by ZEFSAII (Michael W. Deem and Ramdas Pophale) SiO2 
 PCOD9357445
Probable space group: A M M 2
;
_chemical_formula_sum "Si O2"
_cell_formula_units_Z 48
_cell_length_a 8.010225
_cell_length_b 19.078563
_cell_length_c 15.543824
_cell_angle_alpha 90.000000
_cell_angle_beta 90.000000
_cell_angle_gamma 90.000000
_cell_volume 2375.462866
_symmetry_space_group_name_H-M "A M M 2"
_symmetry_group_IT_number 38
_symmetry_cell_setting 'orthorhombic'
loop_
_space_group_symop_operation_xyz
x,y,z
-x,-y,z
-x,y,z
x,-y,z
x,1/2+y,1/2+z
-x,1/2-y,1/2+z
-x,1/2+y,1/2+z
x,1/2-y,1/2+z
loop_
_atom_site_type_symbol
_atom_site_label
_atom_site_fract_x
_atom_site_fract_y
_atom_site_fract_z
Si Si1 0.195941 0.231014 0.593180
Si Si2 0.700429 0.152567 0.234936
Si Si3 0.701848 0.424241 0.150458
Si Si4 0.294911 0.500000 0.674139
Si Si5 0.701864 0.738248 0.894599
Si Si6 0.703260 0.610259 0.340415
Si Si7 0.703835 0.500000 0.477921
O O1 0.267897 0.288936 0.660206
O O2 0.244833 0.150387 0.612928
O O3 0.244291 0.241343 0.493429
O O4 0.000000 0.237742 0.602072
O O5 0.500000 0.148112 0.240203
O O6 0.761495 0.074220 0.213461
O O7 0.761526 0.178417 0.328720
O O8 0.500000 0.424304 0.147584
O O9 0.757471 0.500000 0.113260
O O10 0.756145 0.421625 0.250144
O O11 0.500000 0.500000 0.676504
O O12 0.240514 0.500000 0.575005
O O13 0.500000 0.735835 0.895882
O O14 0.755560 0.810135 0.849223
O O15 0.500000 0.608296 0.340118
O O16 0.758507 0.566694 0.422810
O O17 0.500000 0.500000 0.479491
#
# Coordination Sequence:
#
# PCOD9357445 Si02
#       7
#     8   8   8   4   8   8   4
#     4  12  25  39  58  85 124 163 200 241 296 369
#     4  10  20  39  65  90 118 152 200 253 300 349
#     4  10  19  36  62  89 117 149 195 248 295 347
#     4   9  18  32  57  92 121 144 184 251 305 343
#     4  10  20  36  60  85 114 154 204 252 292 345
#     4   9  15  27  52  85 114 141 179 235 295 345
#     4   9  14  22  44  82 119 140 166 223 301 359
#
# _framework density 20.206588
#
# number of rings (size 3 to 8) (size 9 to 14) (size 15 to 20)
#    0.000    2.000    2.500    2.500    0.000    3.667 
#    1.500    0.417    0.000    0.000    0.000    0.000 
#    0.000    0.000    0.000    0.000    0.000    0.000 
#
# Total GULP energy -133814.115332 kJ/mol
# GULP energy per Si atom -5575.588139 kJ/mol
# Density = 2.016060 g / cm^3
# Si number density = 20.206588 Si / 1000 Ang^3
#
#
#
# Elastic Constant Matrix: (Units=GPa)
#
#
# Indices 1 2 3 4 5 6 
#
# 1 17.6282 5.4237 -0.4586 0.0000 0.0000 0.0000
# 2 5.4237 135.3408 27.3540 0.0000 0.0000 0.0000
# 3 -0.4586 27.3540 61.3322 0.0000 0.0000 0.0000
# 4 0.0000 0.0000 0.0000 24.1547 0.0000 0.0000
# 5 0.0000 0.0000 0.0000 0.0000 -19.8465 0.0000
# 6 0.0000 0.0000 0.0000 0.0000 0.0000 -1.0473
#
#
#
# Elastic Compliance Matrix: (Units=1/GPa)
#
#
# Indices 1 2 3 4 5 6 
#
# 1 0.057579 -0.002632 0.001604 0.000000 0.000000 0.000000
# 2 -0.002632 0.008241 -0.003695 0.000000 0.000000 0.000000
# 3 0.001604 -0.003695 0.017965 0.000000 0.000000 0.000000
# 4 0.000000 0.000000 0.000000 0.041400 0.000000 0.000000
# 5 0.000000 0.000000 0.000000 0.000000 -0.050387 0.000000
# 6 0.000000 0.000000 0.000000 0.000000 0.000000 -0.954808
#
#
# Mechanical properties :
#
#
# Convention : Reuss Voigt Hill
#
# Bulk Modulus (GPa) = 13.45180 30.99325 22.22252
# Shear Modulus (GPa) = -5.91166 12.78433 3.43633
#
# Velocity S-wave (km/s) = -1.71230 2.51804 1.30549
# Velocity P-wave (km/s) = 1.66202 4.88114 3.64608
#
# Compressibility (1/GPa) = 0.07433949
#
# Stress axis : x y z
#
# Youngs Moduli (GPa) = 17.36748 121.34365 55.66482
#
# Poissons Ratio (x) = 0.31934 -0.08930
# Poissons Ratio (y) = 0.04571 0.20569
# Poissons Ratio (z) = -0.02786 0.44838
#
# Static dielectric constant tensor:
#      x y z
#    x 1.726770 0.000000 0.000000 
#    y 0.000000 1.759750 0.000000 
#    z 0.000000 0.000000 1.703340 
# 
# From -- ./inp_files/12114.got.cif
#   From: 2010.05.17/outbox.cif.g08.bks.cpg/sg38_7_cif.got.tgz:12114.got - 2010.06.03 18:07:57.
