data_PCOD9357972
_publ_section_title
;
Structure prediction by ZEFSAII (Michael W. Deem and Ramdas Pophale) SiO2 
 PCOD9357972
Probable space group: A M M 2
;
_chemical_formula_sum "Si O2"
_cell_formula_units_Z 40
_cell_length_a 7.867464
_cell_length_b 7.543109
_cell_length_c 34.144611
_cell_angle_alpha 90.000000
_cell_angle_beta 90.000000
_cell_angle_gamma 90.000000
_cell_volume 2026.316669
_symmetry_space_group_name_H-M "A M M 2"
_symmetry_group_IT_number 38
_symmetry_cell_setting 'orthorhombic'
loop_
_space_group_symop_operation_xyz
x,y,z
-x,-y,z
-x,y,z
x,-y,z
x,1/2+y,1/2+z
-x,1/2-y,1/2+z
-x,1/2+y,1/2+z
x,1/2-y,1/2+z
loop_
_atom_site_type_symbol
_atom_site_label
_atom_site_fract_x
_atom_site_fract_y
_atom_site_fract_z
Si Si1 0.202896 0.000000 0.422220
Si Si2 0.206291 0.796447 0.981061
Si Si3 0.000000 0.787851 0.710923
Si Si4 0.311375 0.283347 0.568017
Si Si5 0.700681 0.711943 0.268722
Si Si6 0.702898 0.500000 0.831985
Si Si7 0.000000 0.210620 0.119523
O O1 0.265727 0.828089 0.445856
O O2 0.236609 0.000000 0.376336
O O3 0.000000 0.000000 0.426822
O O4 0.000000 0.794826 0.982816
O O5 0.260131 0.000000 0.975488
O O6 0.270307 0.732320 0.023347
O O7 0.829674 0.732680 0.734221
O O8 0.000000 0.736008 0.665782
O O9 0.000000 0.000000 0.711930
O O10 0.500000 0.226165 0.579104
O O11 0.308899 0.500000 0.568110
O O12 0.167401 0.219562 0.597717
O O13 0.500000 0.746237 0.260010
O O14 0.717907 0.500000 0.275284
O O15 0.751102 0.826741 0.306701
O O16 0.500000 0.500000 0.833755
O O17 0.000000 0.000000 0.112538
#
# Coordination Sequence:
#
# PCOD9357972 Si02
#       7
#     4   8   4   8   8   4   4
#     4  10  22  34  52  88 116 146 190 240 280 331
#     4   9  17  34  55  75 110 154 190 232 280 327
#     4  10  22  38  58  84 109 149 188 225 288 354
#     4   9  17  32  54  78 108 149 192 228 277 337
#     4   9  20  39  60  83 114 149 187 234 283 338
#     4  10  22  38  58  84 116 152 190 237 287 342
#     4  10  20  34  54  82 111 141 180 240 285 329
#
# _framework density 19.740252000000002
#
# number of rings (size 3 to 8) (size 9 to 14) (size 15 to 20)
#    0.000    2.600    1.000    0.000    2.800    2.400 
#    1.800    0.000    0.000    0.000    0.000    0.000 
#    0.000    0.000    0.000    0.000    0.000    0.000 
#
# Total GULP energy -111599.491880 kJ/mol
# GULP energy per Si atom -5579.974594 kJ/mol
# Density = 1.969532 g / cm^3
# Si number density = 19.740252 Si / 1000 Ang^3
#
#
#
# Elastic Constant Matrix: (Units=GPa)
#
#
# Indices 1 2 3 4 5 6 
#
# 1 101.3698 39.6356 85.5529 0.0000 0.0000 0.0000
# 2 39.6356 71.6496 55.9585 0.0000 0.0000 0.0000
# 3 85.5529 55.9585 190.0925 0.0000 0.0000 0.0000
# 4 0.0000 0.0000 0.0000 48.3790 0.0000 0.0000
# 5 0.0000 0.0000 0.0000 0.0000 -11.1544 0.0000
# 6 0.0000 0.0000 0.0000 0.0000 0.0000 1.0478
#
#
#
# Elastic Compliance Matrix: (Units=1/GPa)
#
#
# Indices 1 2 3 4 5 6 
#
# 1 0.016926 -0.004433 -0.006313 0.000000 0.000000 0.000000
# 2 -0.004433 0.019285 -0.003682 0.000000 0.000000 0.000000
# 3 -0.006313 -0.003682 0.009186 0.000000 0.000000 0.000000
# 4 0.000000 0.000000 0.000000 0.020670 0.000000 0.000000
# 5 0.000000 0.000000 0.000000 0.000000 -0.089650 0.000000
# 6 0.000000 0.000000 0.000000 0.000000 0.000000 0.954407
#
#
# Mechanical properties :
#
#
# Convention : Reuss Voigt Hill
#
# Bulk Modulus (GPa) = 60.45565 80.60066 70.52815
# Shear Modulus (GPa) = 5.18032 19.78546 12.48289
#
# Velocity S-wave (km/s) = 1.62171 3.16933 2.51740
# Velocity P-wave (km/s) = 5.84796 7.36968 6.65247
#
# Compressibility (1/GPa) = 0.01654105
#
# Stress axis : x y z
#
# Youngs Moduli (GPa) = 59.08119 51.85503 108.86711
#
# Poissons Ratio (x) = 0.22987 0.68724
# Poissons Ratio (y) = 0.26190 0.40083
# Poissons Ratio (z) = 0.37296 0.19092
#
# Static dielectric constant tensor:
#      x y z
#    x 1.714150 0.000000 0.000000 
#    y 0.000000 1.723980 0.000000 
#    z 0.000000 0.000000 1.653850 
# 
# From -- ./inp_files/23294.got.cif
#   From: 2010.05.17/outbox.cif.g08.bks.cpg/sg38_12_cif.got.tgz:23294.got - 2010.06.03 18:07:57.
