data_PCOD9357337
_publ_section_title
;
Structure prediction by ZEFSAII (Michael W. Deem and Ramdas Pophale) SiO2 
 PCOD9357337
Probable space group: A M M 2
;
_chemical_formula_sum "Si O2"
_cell_formula_units_Z 64
_cell_length_a 9.006311
_cell_length_b 25.395304
_cell_length_c 15.103706
_cell_angle_alpha 90.000000
_cell_angle_beta 90.000000
_cell_angle_gamma 90.000000
_cell_volume 3454.489516
_symmetry_space_group_name_H-M "A M M 2"
_symmetry_group_IT_number 38
_symmetry_cell_setting 'orthorhombic'
loop_
_space_group_symop_operation_xyz
x,y,z
-x,-y,z
-x,y,z
x,-y,z
x,1/2+y,1/2+z
-x,1/2-y,1/2+z
-x,1/2+y,1/2+z
x,1/2-y,1/2+z
loop_
_atom_site_type_symbol
_atom_site_label
_atom_site_fract_x
_atom_site_fract_y
_atom_site_fract_z
Si Si1 0.177133 0.562018 0.844040
Si Si2 0.322667 0.939476 0.704833
Si Si3 0.823431 0.331988 0.528454
Si Si4 0.177820 0.889176 0.535703
Si Si5 0.325770 0.278975 0.007664
Si Si6 0.677658 0.366061 0.697638
Si Si7 0.823808 0.349967 0.321808
Si Si8 0.673975 0.240496 0.297785
O O1 0.208871 0.500000 0.847381
O O2 0.263858 0.590586 0.765689
O O3 0.000000 0.568864 0.830351
O O4 0.214051 0.588304 0.938404
O O5 0.500000 0.933645 0.698570
O O6 0.249134 0.925242 0.610950
O O7 0.258031 0.897801 0.774339
O O8 0.288883 0.000000 0.728537
O O9 0.749484 0.274640 0.539963
O O10 0.751997 0.369507 0.601718
O O11 0.793801 0.349285 0.427348
O O12 0.000000 0.328419 0.539986
O O13 0.244817 0.830727 0.542671
O O14 0.000000 0.887906 0.545321
O O15 0.500000 0.279734 0.030515
O O16 0.312284 0.277103 0.900545
O O17 0.500000 0.367915 0.691236
O O18 0.720059 0.309009 0.738757
O O19 0.765842 0.293798 0.285595
O O20 0.000000 0.353937 0.307875
O O21 0.500000 0.251776 0.281261
#
# Coordination Sequence:
#
# PCOD9357337 Si02
#       8
#     8   8   8   8   8   8   8   8
#     4  10  22  40  61  86 120 161 202 248 299 351
#     4  11  25  43  63  87 117 155 200 250 302 356
#     4  10  22  39  59  87 122 158 198 246 301 357
#     4  11  22  37  60  89 122 159 198 242 293 355
#     4  10  19  35  57  85 122 159 196 239 290 350
#     4  11  22  37  59  89 121 160 203 245 297 353
#     4  10  22  40  63  88 116 153 199 249 302 354
#     4   9  19  35  56  84 120 157 193 236 290 351
#
# _framework density 18.526616000000001
#
# number of rings (size 3 to 8) (size 9 to 14) (size 15 to 20)
#    0.000    1.750    1.250    2.625    1.750    5.250 
#    0.000    0.625    0.000    0.750    0.000    0.000 
#    0.000    0.000    0.000    0.000    0.000    0.000 
#
# Total GULP energy -178868.137195 kJ/mol
# GULP energy per Si atom -5589.629287 kJ/mol
# Density = 1.848445 g / cm^3
# Si number density = 18.526616 Si / 1000 Ang^3
#
#
#
# Elastic Constant Matrix: (Units=GPa)
#
#
# Indices 1 2 3 4 5 6 
#
# 1 65.4009 48.8798 36.4282 0.0000 0.0000 0.0000
# 2 48.8798 93.4941 31.2149 0.0000 0.0000 0.0000
# 3 36.4282 31.2149 56.3032 0.0000 0.0000 0.0000
# 4 0.0000 0.0000 0.0000 26.1011 0.0000 0.0000
# 5 0.0000 0.0000 0.0000 0.0000 29.6316 0.0000
# 6 0.0000 0.0000 0.0000 0.0000 0.0000 27.9352
#
#
#
# Elastic Compliance Matrix: (Units=1/GPa)
#
#
# Indices 1 2 3 4 5 6 
#
# 1 0.032224 -0.012132 -0.014123 0.000000 0.000000 0.000000
# 2 -0.012132 0.017693 -0.001960 0.000000 0.000000 0.000000
# 3 -0.014123 -0.001960 0.027985 0.000000 0.000000 0.000000
# 4 0.000000 0.000000 0.000000 0.038313 0.000000 0.000000
# 5 0.000000 0.000000 0.000000 0.000000 0.033748 0.000000
# 6 0.000000 0.000000 0.000000 0.000000 0.000000 0.035797
#
#
# Mechanical properties :
#
#
# Convention : Reuss Voigt Hill
#
# Bulk Modulus (GPa) = 46.57056 49.80489 48.18773
# Shear Modulus (GPa) = 20.05248 23.31193 21.68221
#
# Velocity S-wave (km/s) = 3.29349 3.55109 3.42472
# Velocity P-wave (km/s) = 6.29718 6.61475 6.45792
#
# Compressibility (1/GPa) = 0.02147279
#
# Stress axis : x y z
#
# Youngs Moduli (GPa) = 31.03287 56.52013 35.73343
#
# Poissons Ratio (x) = 0.68569 0.50466
# Poissons Ratio (y) = 0.37648 0.07003
# Poissons Ratio (z) = 0.43827 0.11077
#
# Static dielectric constant tensor:
#      x y z
#    x 1.611580 0.000000 0.000000 
#    y 0.000000 1.603030 0.000000 
#    z 0.000000 0.000000 1.651040 
# 
# From -- ./inp_files/12724.got.cif
#   From: 2010.05.17/outbox.cif.g08.bks.cpg/sg38_7_cif.got.tgz:12724.got - 2010.06.03 18:07:57.
