data_PCOD9357063
_publ_section_title
;
Structure prediction by ZEFSAII (Michael W. Deem and Ramdas Pophale) SiO2 
 PCOD9357063
Probable space group: A M M 2
;
_chemical_formula_sum "Si O2"
_cell_formula_units_Z 48
_cell_length_a 8.566191
_cell_length_b 17.001083
_cell_length_c 19.072311
_cell_angle_alpha 90.000000
_cell_angle_beta 90.000000
_cell_angle_gamma 90.000000
_cell_volume 2777.586938
_symmetry_space_group_name_H-M "A M M 2"
_symmetry_group_IT_number 38
_symmetry_cell_setting 'orthorhombic'
loop_
_space_group_symop_operation_xyz
x,y,z
-x,-y,z
-x,y,z
x,-y,z
x,1/2+y,1/2+z
-x,1/2-y,1/2+z
-x,1/2+y,1/2+z
x,1/2-y,1/2+z
loop_
_atom_site_type_symbol
_atom_site_label
_atom_site_fract_x
_atom_site_fract_y
_atom_site_fract_z
Si Si1 0.311517 0.186769 0.365220
Si Si2 0.688838 0.838806 0.206109
Si Si3 0.186627 0.832743 0.946487
Si Si4 0.690224 0.000000 0.132530
Si Si5 0.313290 0.000000 0.970596
Si Si6 0.186837 0.736158 0.084094
Si Si7 0.688773 0.909845 0.501796
O O1 0.500000 0.188562 0.365550
O O2 0.259764 0.166864 0.286726
O O3 0.248771 0.270932 0.389928
O O4 0.263471 0.124486 0.425426
O O5 0.500000 0.837930 0.205156
O O6 0.748028 0.768405 0.157042
O O7 0.741601 0.920979 0.171637
O O8 0.000000 0.834215 0.945306
O O9 0.251966 0.919773 0.937211
O O10 0.237225 0.797060 0.022264
O O11 0.500000 0.000000 0.132716
O O12 0.741299 0.000000 0.051875
O O13 0.500000 0.000000 0.969796
O O14 0.000000 0.735201 0.086066
O O15 0.247333 0.651222 0.059120
O O16 0.500000 0.908085 0.504456
O O17 0.739562 0.000000 0.510848
#
# Coordination Sequence:
#
# PCOD9357063 Si02
#       7
#     8   8   8   4   4   8   8
#     4   9  19  33  53  78 106 137 170 209 257 310
#     4  10  19  33  53  78 108 138 170 209 255 308
#     4  10  20  34  51  74 106 141 176 212 255 306
#     4   9  18  29  49  81 109 134 163 206 257 303
#     4  11  19  31  55  81 105 132 173 218 257 303
#     4  10  20  33  51  74 103 140 176 211 253 305
#     4   9  18  33  54  79 103 131 170 215 258 303
#
# _framework density 17.281188
#
# number of rings (size 3 to 8) (size 9 to 14) (size 15 to 20)
#    0.000    2.333    1.667    1.250    1.167    2.333 
#    0.000    0.417    1.833    0.000    0.000    0.000 
#    0.000    0.000    0.000    0.000    0.000    0.000 
#
# Total GULP energy -133892.689048 kJ/mol
# GULP energy per Si atom -5578.862044 kJ/mol
# Density = 1.724186 g / cm^3
# Si number density = 17.281188 Si / 1000 Ang^3
#
#
#
# Elastic Constant Matrix: (Units=GPa)
#
#
# Indices 1 2 3 4 5 6 
#
# 1 10.9877 18.5299 12.2143 0.0000 0.0000 0.0000
# 2 18.5299 151.6551 47.6250 0.0000 0.0000 0.0000
# 3 12.2143 47.6250 81.8241 0.0000 0.0000 0.0000
# 4 0.0000 0.0000 0.0000 18.2804 0.0000 0.0000
# 5 0.0000 0.0000 0.0000 0.0000 15.6154 0.0000
# 6 0.0000 0.0000 0.0000 0.0000 0.0000 7.1058
#
#
#
# Elastic Compliance Matrix: (Units=1/GPa)
#
#
# Indices 1 2 3 4 5 6 
#
# 1 0.123274 -0.011360 -0.011790 0.000000 0.000000 0.000000
# 2 -0.011360 0.009116 -0.003610 0.000000 0.000000 0.000000
# 3 -0.011790 -0.003610 0.016082 0.000000 0.000000 0.000000
# 4 0.000000 0.000000 0.000000 0.054703 0.000000 0.000000
# 5 0.000000 0.000000 0.000000 0.000000 0.064039 0.000000
# 6 0.000000 0.000000 0.000000 0.000000 0.000000 0.140731
#
#
# Mechanical properties :
#
#
# Convention : Reuss Voigt Hill
#
# Bulk Modulus (GPa) = 10.53156 44.57835 27.55495
# Shear Modulus (GPa) = 10.13962 19.27351 14.70656
#
# Velocity S-wave (km/s) = 2.42491 3.34322 2.92038
# Velocity P-wave (km/s) = 3.73466 6.38394 5.22984
#
# Compressibility (1/GPa) = 0.09495273
#
# Stress axis : x y z
#
# Youngs Moduli (GPa) = 8.11203 109.70309 62.17997
#
# Poissons Ratio (x) = 1.24619 0.73309
# Poissons Ratio (y) = 0.09215 0.22446
# Poissons Ratio (z) = 0.09564 0.39602
#
# Static dielectric constant tensor:
#      x y z
#    x 1.578470 0.000000 0.000000 
#    y 0.000000 1.569910 0.000000 
#    z 0.000000 0.000000 1.575060 
# 
# From -- ./inp_files/16672.got.cif
#   From: 2010.05.17/outbox.cif.g08.bks.cpg/sg38_9_cif.got.tgz:16672.got - 2010.06.03 18:07:57.
