data_PCOD9357230
_publ_section_title
;
Structure prediction by ZEFSAII (Michael W. Deem and Ramdas Pophale) SiO2 
 PCOD9357230
Probable space group: A M M 2
;
_chemical_formula_sum "Si O2"
_cell_formula_units_Z 64
_cell_length_a 7.670114
_cell_length_b 29.286185
_cell_length_c 12.899930
_cell_angle_alpha 90.000000
_cell_angle_beta 90.000000
_cell_angle_gamma 90.000000
_cell_volume 2897.690347
_symmetry_space_group_name_H-M "A M M 2"
_symmetry_group_IT_number 38
_symmetry_cell_setting 'orthorhombic'
loop_
_space_group_symop_operation_xyz
x,y,z
-x,-y,z
-x,y,z
x,-y,z
x,1/2+y,1/2+z
-x,1/2-y,1/2+z
-x,1/2+y,1/2+z
x,1/2-y,1/2+z
loop_
_atom_site_type_symbol
_atom_site_label
_atom_site_fract_x
_atom_site_fract_y
_atom_site_fract_z
Si Si1 0.798209 0.950965 0.606490
Si Si2 0.798130 0.667232 0.922483
Si Si3 0.696323 0.067629 0.379536
Si Si4 0.286478 0.552003 0.435022
Si Si5 0.290323 0.193588 0.204504
Si Si6 0.299483 0.377153 0.262971
Si Si7 0.710323 0.708396 0.143512
Si Si8 0.286571 0.909640 0.158677
O O1 0.789025 0.950056 0.482090
O O2 0.704271 0.908701 0.659865
O O3 0.000000 0.947644 0.636660
O O4 0.726619 0.000000 0.642224
O O5 0.690863 0.621865 0.899216
O O6 0.760347 0.698898 0.824640
O O7 0.000000 0.653525 0.923058
O O8 0.752910 0.689011 0.031058
O O9 0.500000 0.049720 0.379813
O O10 0.771529 0.064178 0.263499
O O11 0.500000 0.551751 0.430846
O O12 0.229730 0.500000 0.412513
O O13 0.224498 0.590192 0.352775
O O14 0.236074 0.567033 0.551204
O O15 0.500000 0.192324 0.195321
O O16 0.225734 0.239674 0.150897
O O17 0.228923 0.143603 0.165904
O O18 0.500000 0.368541 0.293333
O O19 0.222723 0.328307 0.228757
O O20 0.500000 0.709192 0.154449
O O21 0.500000 0.909769 0.162923
#
# Coordination Sequence:
#
# PCOD9357230 Si02
#       8
#     8   8   8   8   8   8   8   8
#     4  11  23  36  52  78 111 145 181 227 285 341
#     4  11  21  34  54  78 111 148 180 225 288 346
#     4  10  19  34  56  80 106 140 185 230 280 337
#     4   9  17  30  50  78 110 141 178 228 284 338
#     4   9  19  35  55  80 109 144 189 237 283 337
#     4  10  20  34  55  81 108 142 186 233 281 337
#     4  10  20  34  55  81 108 144 191 239 285 338
#     4   8  16  31  52  78 109 140 176 228 283 333
#
# _framework density 22.086558
#
# number of rings (size 3 to 8) (size 9 to 14) (size 15 to 20)
#    0.000    2.250    1.250    3.000    0.000    3.500 
#    0.000    5.000    0.000    3.750    0.000    1.750 
#    0.000    0.000    0.000    0.000    0.000    0.000 
#
# Total GULP energy -178576.783803 kJ/mol
# GULP energy per Si atom -5580.524494 kJ/mol
# Density = 2.203629 g / cm^3
# Si number density = 22.086558 Si / 1000 Ang^3
#
#
#
# Elastic Constant Matrix: (Units=GPa)
#
#
# Indices 1 2 3 4 5 6 
#
# 1 38.9536 2.5664 -16.6097 0.0000 0.0000 0.0000
# 2 2.5664 68.9110 14.9547 0.0000 0.0000 0.0000
# 3 -16.6097 14.9547 99.4084 0.0000 0.0000 0.0000
# 4 0.0000 0.0000 0.0000 21.5840 0.0000 0.0000
# 5 0.0000 0.0000 0.0000 0.0000 -72.1148 0.0000
# 6 0.0000 0.0000 0.0000 0.0000 0.0000 -7.6062
#
#
#
# Elastic Compliance Matrix: (Units=1/GPa)
#
#
# Indices 1 2 3 4 5 6 
#
# 1 0.027938 -0.002123 0.004987 0.000000 0.000000 0.000000
# 2 -0.002123 0.015163 -0.002636 0.000000 0.000000 0.000000
# 3 0.004987 -0.002636 0.011289 0.000000 0.000000 0.000000
# 4 0.000000 0.000000 0.000000 0.046331 0.000000 0.000000
# 5 0.000000 0.000000 0.000000 0.000000 -0.013867 0.000000
# 6 0.000000 0.000000 0.000000 0.000000 0.000000 -0.131472
#
#
# Mechanical properties :
#
#
# Convention : Reuss Voigt Hill
#
# Bulk Modulus (GPa) = 18.23234 23.23289 20.73261
# Shear Modulus (GPa) = -186.61463 2.13004 -92.24229
#
# Velocity S-wave (km/s) = -9.20195 0.98311 -6.46952
# Velocity P-wave (km/s) = 10.22879 3.43955 6.81167
#
# Compressibility (1/GPa) = 0.05484758
#
# Stress axis : x y z
#
# Youngs Moduli (GPa) = 35.79354 65.95214 88.57916
#
# Poissons Ratio (x) = 0.14000 -0.44178
# Poissons Ratio (y) = 0.07598 0.23347
# Poissons Ratio (z) = -0.17852 0.17383
#
# Static dielectric constant tensor:
#      x y z
#    x 1.808300 0.000000 0.000000 
#    y 0.000000 1.829910 0.000000 
#    z 0.000000 0.000000 1.798130 
# 
# From -- ./inp_files/8657.got.cif
#   From: 2010.05.17/outbox.cif.g08.bks.cpg/sg38_5_cif.got.tgz:8657.got - 2010.06.03 18:07:57.
