data_PCOD9357716
_publ_section_title
;
Structure prediction by ZEFSAII (Michael W. Deem and Ramdas Pophale) SiO2 
 PCOD9357716
Probable space group: A M M 2
;
_chemical_formula_sum "Si O2"
_cell_formula_units_Z 56
_cell_length_a 8.758232
_cell_length_b 20.625835
_cell_length_c 15.840719
_cell_angle_alpha 90.000000
_cell_angle_beta 90.000000
_cell_angle_gamma 90.000000
_cell_volume 2861.560119
_symmetry_space_group_name_H-M "A M M 2"
_symmetry_group_IT_number 38
_symmetry_cell_setting 'orthorhombic'
loop_
_space_group_symop_operation_xyz
x,y,z
-x,-y,z
-x,y,z
x,-y,z
x,1/2+y,1/2+z
-x,1/2-y,1/2+z
-x,1/2+y,1/2+z
x,1/2-y,1/2+z
loop_
_atom_site_type_symbol
_atom_site_label
_atom_site_fract_x
_atom_site_fract_y
_atom_site_fract_z
Si Si1 0.818491 0.391756 0.977930
Si Si2 0.334246 0.073511 0.313486
Si Si3 0.683331 0.242643 0.414135
Si Si4 0.815919 0.285408 0.233742
Si Si5 0.677046 0.695532 0.586193
Si Si6 0.814978 0.426709 0.170447
Si Si7 0.170395 0.077523 0.154173
O O1 0.721982 0.428873 0.908177
O O2 0.770419 0.319217 0.953044
O O3 0.000000 0.401430 0.967794
O O4 0.777292 0.412497 0.072333
O O5 0.500000 0.106317 0.304480
O O6 0.202922 0.097823 0.251580
O O7 0.352958 0.000000 0.284929
O O8 0.500000 0.232107 0.410890
O O9 0.743736 0.259497 0.321067
O O10 0.714517 0.294468 0.487798
O O11 0.766350 0.241758 0.152726
O O12 0.767441 0.361079 0.219410
O O13 0.000000 0.283264 0.239282
O O14 0.500000 0.711761 0.598377
O O15 0.708609 0.620651 0.605987
O O16 0.761475 0.500000 0.193823
O O17 0.000000 0.428156 0.175883
O O18 0.000000 0.097556 0.130334
O O19 0.180077 0.000000 0.142249
#
# Coordination Sequence:
#
# PCOD9357716 Si02
#       7
#     8   8   8   8   8   8   8
#     4  11  20  34  57  85 116 150 195 249 303 361
#     4  10  20  33  50  77 115 154 190 229 284 354
#     4  11  24  40  59  85 119 157 201 249 303 365
#     4  11  22  39  64  91 122 160 206 257 307 368
#     4  11  23  40  62  86 119 158 198 249 303 364
#     4   9  19  36  59  88 121 157 199 253 313 367
#     4  10  21  37  58  84 114 150 195 246 300 358
#
# _framework density 19.569744
#
# number of rings (size 3 to 8) (size 9 to 14) (size 15 to 20)
#    0.000    1.571    1.429    3.857    0.000    4.000 
#    0.000    0.714    0.000    6.857    0.000    0.000 
#    0.000    0.000    0.000    0.000    0.000    0.000 
#
# Total GULP energy -156029.774892 kJ/mol
# GULP energy per Si atom -5572.491960 kJ/mol
# Density = 1.952520 g / cm^3
# Si number density = 19.569744 Si / 1000 Ang^3
#
#
#
# Elastic Constant Matrix: (Units=GPa)
#
#
# Indices 1 2 3 4 5 6 
#
# 1 53.3315 4.6475 14.2736 0.0000 0.0000 0.0000
# 2 4.6475 73.1922 14.0082 0.0000 0.0000 0.0000
# 3 14.2736 14.0082 69.9551 0.0000 0.0000 0.0000
# 4 0.0000 0.0000 0.0000 31.7875 0.0000 0.0000
# 5 0.0000 0.0000 0.0000 0.0000 18.2620 0.0000
# 6 0.0000 0.0000 0.0000 0.0000 0.0000 19.1759
#
#
#
# Elastic Compliance Matrix: (Units=1/GPa)
#
#
# Indices 1 2 3 4 5 6 
#
# 1 0.019852 -0.000505 -0.003949 0.000000 0.000000 0.000000
# 2 -0.000505 0.014220 -0.002745 0.000000 0.000000 0.000000
# 3 -0.003949 -0.002745 0.015650 0.000000 0.000000 0.000000
# 4 0.000000 0.000000 0.000000 0.031459 0.000000 0.000000
# 5 0.000000 0.000000 0.000000 0.000000 0.054758 0.000000
# 6 0.000000 0.000000 0.000000 0.000000 0.000000 0.052149
#
#
# Mechanical properties :
#
#
# Convention : Reuss Voigt Hill
#
# Bulk Modulus (GPa) = 28.30881 29.14858 28.72869
# Shear Modulus (GPa) = 23.33613 24.74840 24.04226
#
# Velocity S-wave (km/s) = 3.45695 3.56002 3.50886
# Velocity P-wave (km/s) = 5.51643 5.64139 5.57926
#
# Compressibility (1/GPa) = 0.03532470
#
# Stress axis : x y z
#
# Youngs Moduli (GPa) = 50.37363 70.32364 63.89650
#
# Poissons Ratio (x) = 0.03549 0.25236
# Poissons Ratio (y) = 0.02542 0.17536
# Poissons Ratio (z) = 0.19895 0.19300
#
# Static dielectric constant tensor:
#      x y z
#    x 1.741190 0.000000 0.000000 
#    y 0.000000 1.684320 0.000000 
#    z 0.000000 0.000000 1.677370 
# 
# From -- ./inp_files/12351.got.cif
#   From: 2010.05.17/outbox.cif.g08.bks.cpg/sg38_7_cif.got.tgz:12351.got - 2010.06.03 18:07:57.
