data_PCOD9357288
_publ_section_title
;
Structure prediction by ZEFSAII (Michael W. Deem and Ramdas Pophale) SiO2 
 PCOD9357288
Probable space group: A M M 2
;
_chemical_formula_sum "Si O2"
_cell_formula_units_Z 48
_cell_length_a 8.723031
_cell_length_b 14.093590
_cell_length_c 19.182983
_cell_angle_alpha 90.000000
_cell_angle_beta 90.000000
_cell_angle_gamma 90.000000
_cell_volume 2358.333342
_symmetry_space_group_name_H-M "A M M 2"
_symmetry_group_IT_number 38
_symmetry_cell_setting 'orthorhombic'
loop_
_space_group_symop_operation_xyz
x,y,z
-x,-y,z
-x,y,z
x,-y,z
x,1/2+y,1/2+z
-x,1/2-y,1/2+z
-x,1/2+y,1/2+z
x,1/2-y,1/2+z
loop_
_atom_site_type_symbol
_atom_site_label
_atom_site_fract_x
_atom_site_fract_y
_atom_site_fract_z
Si Si1 0.318026 0.195610 0.738910
Si Si2 0.816953 0.109558 0.880061
Si Si3 0.313068 0.105260 0.597485
Si Si4 0.323282 0.739808 0.490388
Si Si5 0.821278 0.105723 0.228905
Si Si6 0.669532 0.896936 0.371732
O O1 0.500000 0.194102 0.747675
O O2 0.246215 0.168069 0.813386
O O3 0.275399 0.121623 0.678463
O O4 0.268239 0.298972 0.709901
O O5 0.000000 0.113954 0.877415
O O6 0.766879 0.000000 0.873464
O O7 0.762554 0.152625 0.954137
O O8 0.500000 0.106444 0.590467
O O9 0.258247 0.196971 0.553782
O O10 0.260771 0.000000 0.575396
O O11 0.500000 0.713072 0.505927
O O12 0.323280 0.816677 0.428175
O O13 0.796559 0.106439 0.312633
O O14 0.000000 0.114508 0.211525
O O15 0.767877 0.000000 0.205569
O O16 0.500000 0.890473 0.336962
O O17 0.676300 0.000000 0.406385
#
# Coordination Sequence:
#
# PCOD9357288 Si02
#       6
#     8   8   8   8   8   8
#     4  11  21  36  60  88 118 154 195 241 290 342
#     4  11  24  40  58  82 115 155 197 242 291 344
#     4   9  19  36  59  89 121 150 185 234 292 350
#     4  10  19  34  58  86 113 146 186 234 290 345
#     4  10  20  33  51  78 113 150 188 233 284 336
#     4   9  16  27  48  79 110 139 175 220 274 335
#
# _framework density 20.353356000000002
#
# number of rings (size 3 to 8) (size 9 to 14) (size 15 to 20)
#    0.000    2.000    1.667    2.500    0.000    5.000 
#    0.000    2.500    0.000    8.500    0.000    0.000 
#    0.000    0.000    0.000    0.000    0.000    0.000 
#
# Total GULP energy -133733.128958 kJ/mol
# GULP energy per Si atom -5572.213707 kJ/mol
# Density = 2.030703 g / cm^3
# Si number density = 20.353356 Si / 1000 Ang^3
#
#
#
# Elastic Constant Matrix: (Units=GPa)
#
#
# Indices 1 2 3 4 5 6 
#
# 1 33.4536 21.4880 11.3426 0.0000 0.0000 0.0000
# 2 21.4880 119.3918 30.5692 0.0000 0.0000 0.0000
# 3 11.3426 30.5692 71.4065 0.0000 0.0000 0.0000
# 4 0.0000 0.0000 0.0000 26.6939 0.0000 0.0000
# 5 0.0000 0.0000 0.0000 0.0000 -437.5713 0.0000
# 6 0.0000 0.0000 0.0000 0.0000 0.0000 24.5664
#
#
#
# Elastic Compliance Matrix: (Units=1/GPa)
#
#
# Indices 1 2 3 4 5 6 
#
# 1 0.034424 -0.005386 -0.003162 0.000000 0.000000 0.000000
# 2 -0.005386 0.010250 -0.003532 0.000000 0.000000 0.000000
# 3 -0.003162 -0.003532 0.016019 0.000000 0.000000 0.000000
# 4 0.000000 0.000000 0.000000 0.037462 0.000000 0.000000
# 5 0.000000 0.000000 0.000000 0.000000 -0.002285 0.000000
# 6 0.000000 0.000000 0.000000 0.000000 0.000000 0.040706
#
#
# Mechanical properties :
#
#
# Convention : Reuss Voigt Hill
#
# Bulk Modulus (GPa) = 27.37394 39.00573 33.18983
# Shear Modulus (GPa) = 28.91632 -66.53872 -18.81120
#
# Velocity S-wave (km/s) = 3.77333 -5.72387 -3.04341
# Velocity P-wave (km/s) = 5.69759 4.94750 1.99810
#
# Compressibility (1/GPa) = 0.03653109
#
# Stress axis : x y z
#
# Youngs Moduli (GPa) = 29.04964 97.56524 62.42650
#
# Poissons Ratio (x) = 0.52547 0.19742
# Poissons Ratio (y) = 0.15646 0.22051
# Poissons Ratio (z) = 0.09187 0.34463
#
# Static dielectric constant tensor:
#      x y z
#    x 2.176180 0.000000 0.000000 
#    y 0.000000 1.782040 0.000000 
#    z 0.000000 0.000000 1.719450 
# 
# From -- ./inp_files/16654.got.cif
#   From: 2010.05.17/outbox.cif.g08.bks.cpg/sg38_9_cif.got.tgz:16654.got - 2010.06.03 18:07:57.
