data_PCOD9357843
_publ_section_title
;
Structure prediction by ZEFSAII (Michael W. Deem and Ramdas Pophale) SiO2 
 PCOD9357843
Probable space group: A M M 2
;
_chemical_formula_sum "Si O2"
_cell_formula_units_Z 64
_cell_length_a 8.387949
_cell_length_b 14.637699
_cell_length_c 29.211765
_cell_angle_alpha 90.000000
_cell_angle_beta 90.000000
_cell_angle_gamma 90.000000
_cell_volume 3586.628472
_symmetry_space_group_name_H-M "A M M 2"
_symmetry_group_IT_number 38
_symmetry_cell_setting 'orthorhombic'
loop_
_space_group_symop_operation_xyz
x,y,z
-x,-y,z
-x,y,z
x,-y,z
x,1/2+y,1/2+z
-x,1/2-y,1/2+z
-x,1/2+y,1/2+z
x,1/2-y,1/2+z
loop_
_atom_site_type_symbol
_atom_site_label
_atom_site_fract_x
_atom_site_fract_y
_atom_site_fract_z
Si Si1 0.809215 0.744519 0.413040
Si Si2 0.694412 0.604057 0.089544
Si Si3 0.307197 0.252331 0.662771
Si Si4 0.808916 0.104667 0.089612
Si Si5 0.692611 0.395747 0.339891
Si Si6 0.309111 0.747366 0.516438
Si Si7 0.692782 0.244588 0.267424
Si Si8 0.807371 0.604294 0.840654
O O1 0.747972 0.656198 0.385512
O O2 0.750654 0.747730 0.464802
O O3 0.754566 0.832516 0.383305
O O4 0.000000 0.743372 0.412661
O O5 0.500000 0.601901 0.089564
O O6 0.751210 0.500000 0.089397
O O7 0.743340 0.662814 0.133961
O O8 0.743795 0.663286 0.045350
O O9 0.500000 0.252900 0.662945
O O10 0.250842 0.339332 0.633707
O O11 0.251444 0.252597 0.715087
O O12 0.750128 0.160402 0.045336
O O13 0.000000 0.105141 0.089681
O O14 0.752855 0.000000 0.089639
O O15 0.500000 0.396813 0.339597
O O16 0.749135 0.500000 0.337223
O O17 0.745228 0.332501 0.297243
O O18 0.500000 0.746276 0.516616
O O19 0.500000 0.244342 0.267159
O O20 0.750391 0.156018 0.295105
O O21 0.751138 0.500000 0.843507
O O22 0.000000 0.603597 0.840665
#
# Coordination Sequence:
#
# PCOD9357843 Si02
#       8
#     8   8   8   8   8   8   8   8
#     4  10  20  34  52  73  99 131 165 204 247 293
#     4   8  15  29  49  73  99 126 158 195 237 289
#     4   9  18  32  51  75 103 133 163 201 248 294
#     4  10  21  36  53  73  98 130 168 207 245 289
#     4   9  18  33  52  74 101 132 166 205 247 291
#     4  10  20  34  53  76 101 129 161 201 248 296
#     4   9  18  32  50  75 103 130 165 206 247 291
#     4   9  19  35  52  71  98 133 170 205 245 293
#
# _framework density 17.844055000000001
#
# number of rings (size 3 to 8) (size 9 to 14) (size 15 to 20)
#    0.000    2.750    0.000    1.875    0.000    4.500 
#    0.000    5.000    0.000    9.000    0.000    5.250 
#    0.000    0.000    0.000    0.000    0.000    0.000 
#
# Total GULP energy -178449.780706 kJ/mol
# GULP energy per Si atom -5576.555647 kJ/mol
# Density = 1.780344 g / cm^3
# Si number density = 17.844055 Si / 1000 Ang^3
#
#
#
# Elastic Constant Matrix: (Units=GPa)
#
#
# Indices 1 2 3 4 5 6 
#
# 1 12.1863 18.8140 17.3689 0.0000 0.0000 0.0000
# 2 18.8140 189.7772 97.1197 0.0000 0.0000 0.0000
# 3 17.3689 97.1197 186.6893 0.0000 0.0000 0.0000
# 4 0.0000 0.0000 0.0000 5.5978 0.0000 0.0000
# 5 0.0000 0.0000 0.0000 0.0000 18.5885 0.0000
# 6 0.0000 0.0000 0.0000 0.0000 0.0000 17.7049
#
#
#
# Elastic Compliance Matrix: (Units=1/GPa)
#
#
# Indices 1 2 3 4 5 6 
#
# 1 0.101176 -0.007105 -0.005717 0.000000 0.000000 0.000000
# 2 -0.007105 0.007680 -0.003334 0.000000 0.000000 0.000000
# 3 -0.005717 -0.003334 0.007623 0.000000 0.000000 0.000000
# 4 0.000000 0.000000 0.000000 0.178641 0.000000 0.000000
# 5 0.000000 0.000000 0.000000 0.000000 0.053797 0.000000
# 6 0.000000 0.000000 0.000000 0.000000 0.000000 0.056481
#
#
# Mechanical properties :
#
#
# Convention : Reuss Voigt Hill
#
# Bulk Modulus (GPa) = 11.88113 72.80646 42.34379
# Shear Modulus (GPa) = 10.73500 25.40160 18.06830
#
# Velocity S-wave (km/s) = 2.45542 3.77707 3.18554
# Velocity P-wave (km/s) = 3.83556 7.74027 6.10832
#
# Compressibility (1/GPa) = 0.08416709
#
# Stress axis : x y z
#
# Youngs Moduli (GPa) = 9.88375 130.20784 131.18221
#
# Poissons Ratio (x) = 0.92507 0.74999
# Poissons Ratio (y) = 0.07022 0.43740
# Poissons Ratio (z) = 0.05651 0.43416
#
# Static dielectric constant tensor:
#      x y z
#    x 1.616720 0.000000 0.000000 
#    y 0.000000 1.602990 0.000000 
#    z 0.000000 0.000000 1.589230 
# 
# From -- ./inp_files/24784.got.cif
#   From: 2010.05.17/outbox.cif.g08.bks.cpg/sg38_13_cif.got.tgz:24784.got - 2010.06.03 18:07:57.
