data_PCOD9357461
_publ_section_title
;
Structure prediction by ZEFSAII (Michael W. Deem and Ramdas Pophale) SiO2 
 PCOD9357461
Probable space group: A M M 2
;
_chemical_formula_sum "Si O2"
_cell_formula_units_Z 48
_cell_length_a 8.760800
_cell_length_b 14.707395
_cell_length_c 20.738182
_cell_angle_alpha 90.000000
_cell_angle_beta 90.000000
_cell_angle_gamma 90.000000
_cell_volume 2672.084600
_symmetry_space_group_name_H-M "A M M 2"
_symmetry_group_IT_number 38
_symmetry_cell_setting 'orthorhombic'
loop_
_space_group_symop_operation_xyz
x,y,z
-x,-y,z
-x,y,z
x,-y,z
x,1/2+y,1/2+z
-x,1/2-y,1/2+z
-x,1/2+y,1/2+z
x,1/2-y,1/2+z
loop_
_atom_site_type_symbol
_atom_site_label
_atom_site_fract_x
_atom_site_fract_y
_atom_site_fract_z
Si Si1 0.682949 0.809833 0.661390
Si Si2 0.181891 0.500000 0.119079
Si Si3 0.317137 0.314969 0.536878
Si Si4 0.819445 0.500000 0.583187
Si Si5 0.818431 0.810898 0.275121
Si Si6 0.683404 0.000000 0.475714
Si Si7 0.683104 0.306578 0.912992
Si Si8 0.682433 0.500000 0.726563
O O1 0.500000 0.814852 0.666619
O O2 0.718773 0.749890 0.597727
O O3 0.751307 0.758754 0.722875
O O4 0.751207 0.909478 0.651490
O O5 0.000000 0.500000 0.122718
O O6 0.235316 0.500000 0.044583
O O7 0.500000 0.331251 0.538069
O O8 0.230976 0.409483 0.545842
O O9 0.280072 0.261808 0.471277
O O10 0.733611 0.500000 0.651983
O O11 0.000000 0.500000 0.594736
O O12 0.768321 0.785032 0.347104
O O13 0.747963 0.909649 0.259349
O O14 0.000000 0.814978 0.269239
O O15 0.720819 0.091269 0.436664
O O16 0.500000 0.000000 0.487421
O O17 0.500000 0.303451 0.902317
O O18 0.500000 0.500000 0.730815
#
# Coordination Sequence:
#
# PCOD9357461 Si02
#       8
#     8   4   8   4   8   4   8   4
#     4  11  22  41  66  89 119 164 208 249 299 366
#     4  12  24  37  60  95 130 158 198 258 310 353
#     4  10  21  39  65  90 118 160 210 252 294 362
#     4  12  24  37  60  93 128 158 198 258 314 355
#     4  12  25  40  60  93 129 160 200 256 315 363
#     4  10  19  37  62  90 123 159 206 249 297 366
#     4  10  21  39  63  90 122 164 206 247 298 365
#     4  12  23  39  62  88 123 167 208 247 299 368
#
# _framework density 17.963501999999998
#
# number of rings (size 3 to 8) (size 9 to 14) (size 15 to 20)
#    0.000    1.000    3.333    4.750    0.000    2.667 
#    0.000    0.833    0.000    3.000    0.000    0.000 
#    0.000    0.000    0.000    0.000    0.000    0.000 
#
# Total GULP energy -134247.979594 kJ/mol
# GULP energy per Si atom -5593.665816 kJ/mol
# Density = 1.792262 g / cm^3
# Si number density = 17.963502 Si / 1000 Ang^3
#
#
#
# Elastic Constant Matrix: (Units=GPa)
#
#
# Indices 1 2 3 4 5 6 
#
# 1 105.9144 75.7606 77.4266 0.0000 0.0000 0.0000
# 2 75.7606 141.1726 75.9331 0.0000 0.0000 0.0000
# 3 77.4266 75.9331 147.9564 0.0000 0.0000 0.0000
# 4 0.0000 0.0000 0.0000 -4.4730 0.0000 0.0000
# 5 0.0000 0.0000 0.0000 0.0000 10.3658 0.0000
# 6 0.0000 0.0000 0.0000 0.0000 0.0000 15.5828
#
#
#
# Elastic Compliance Matrix: (Units=1/GPa)
#
#
# Indices 1 2 3 4 5 6 
#
# 1 0.018976 -0.006689 -0.006497 0.000000 0.000000 0.000000
# 2 -0.006689 0.012142 -0.002731 0.000000 0.000000 0.000000
# 3 -0.006497 -0.002731 0.011561 0.000000 0.000000 0.000000
# 4 0.000000 0.000000 0.000000 -0.223564 0.000000 0.000000
# 5 0.000000 0.000000 0.000000 0.000000 0.096471 0.000000
# 6 0.000000 0.000000 0.000000 0.000000 0.000000 0.064174
#
#
# Mechanical properties :
#
#
# Convention : Reuss Voigt Hill
#
# Bulk Modulus (GPa) = 92.21856 94.80932 93.51394
# Shear Modulus (GPa) = 328.75539 15.35665 172.05602
#
# Velocity S-wave (km/s) = 13.54291 2.92701 9.79739
# Velocity P-wave (km/s) = 17.20451 8.01976 13.42222
#
# Compressibility (1/GPa) = 0.01084380
#
# Stress axis : x y z
#
# Youngs Moduli (GPa) = 52.69882 82.35846 86.50024
#
# Poissons Ratio (x) = 0.55086 0.56203
# Poissons Ratio (y) = 0.35248 0.23626
# Poissons Ratio (z) = 0.34241 0.22494
#
# Static dielectric constant tensor:
#      x y z
#    x 1.597510 0.000000 0.000000 
#    y 0.000000 1.591960 0.000000 
#    z 0.000000 0.000000 1.592690 
# 
# From -- ./inp_files/16745.got.cif
#   From: 2010.05.17/outbox.cif.g08.bks.cpg/sg38_9_cif.got.tgz:16745.got - 2010.06.03 18:07:57.
