data_PCOD9357976
_publ_section_title
;
Structure prediction by ZEFSAII (Michael W. Deem and Ramdas Pophale) SiO2 
 PCOD9357976
Probable space group: A M M 2
;
_chemical_formula_sum "Si O2"
_cell_formula_units_Z 64
_cell_length_a 12.799679
_cell_length_b 31.620212
_cell_length_c 8.797282
_cell_angle_alpha 90.000000
_cell_angle_beta 90.000000
_cell_angle_gamma 90.000000
_cell_volume 3560.511307
_symmetry_space_group_name_H-M "A M M 2"
_symmetry_group_IT_number 38
_symmetry_cell_setting 'orthorhombic'
loop_
_space_group_symop_operation_xyz
x,y,z
-x,-y,z
-x,y,z
x,-y,z
x,1/2+y,1/2+z
-x,1/2-y,1/2+z
-x,1/2+y,1/2+z
x,1/2-y,1/2+z
loop_
_atom_site_type_symbol
_atom_site_label
_atom_site_fract_x
_atom_site_fract_y
_atom_site_fract_z
Si Si1 0.258703 0.748711 0.360970
Si Si2 0.886151 0.874894 0.294944
Si Si3 0.123140 0.295590 0.610198
Si Si4 0.180392 0.950708 0.113200
Si Si5 0.619177 0.049980 0.302661
Si Si6 0.727423 0.607682 0.050162
Si Si7 0.624635 0.194837 0.611061
Si Si8 0.123828 0.050553 0.762022
O O1 0.191099 0.718071 0.467554
O O2 0.175173 0.771797 0.252757
O O3 0.321463 0.781889 0.466200
O O4 0.336568 0.721831 0.255708
O O5 0.865349 0.844718 0.152168
O O6 0.882575 0.922054 0.230389
O O7 0.803509 0.870649 0.427006
O O8 0.000000 0.863579 0.354952
O O9 0.000000 0.285914 0.592771
O O10 0.300517 0.942427 0.163641
O O11 0.158545 0.000000 0.138193
O O12 0.152250 0.941640 0.939041
O O13 0.500000 0.059992 0.262143
O O14 0.654822 0.077049 0.448140
O O15 0.626127 0.000000 0.338831
O O16 0.664412 0.646381 0.123899
O O17 0.800172 0.579311 0.159774
O O18 0.500000 0.195747 0.596229
O O19 0.000000 0.059486 0.737326
O O20 0.139570 0.000000 0.732843
#
# Coordination Sequence:
#
# PCOD9357976 Si02
#       8
#     8   8   8   8   8   8   8   8
#     4  10  22  40  61  84 113 149 186 233 283 344
#     4  10  20  34  54  82 114 147 185 225 272 332
#     4  10  20  37  59  88 116 146 179 223 280 343
#     4   9  19  35  56  80 111 150 192 232 272 327
#     4   9  18  35  58  81 110 149 191 234 280 326
#     4  11  21  36  56  85 116 149 186 236 279 335
#     4  11  23  41  62  83 112 149 194 241 288 339
#     4  10  21  37  57  85 121 156 187 227 283 342
#
# _framework density 17.974947
#
# number of rings (size 3 to 8) (size 9 to 14) (size 15 to 20)
#    0.000    2.000    1.250    2.250    1.750    1.250 
#    0.000    2.500    0.000    3.000    0.000    0.000 
#    0.000    0.000    0.000    0.000    0.000    0.000 
#
# Total GULP energy -178451.873389 kJ/mol
# GULP energy per Si atom -5576.621043 kJ/mol
# Density = 1.793404 g / cm^3
# Si number density = 17.974947 Si / 1000 Ang^3
#
#
#
# Elastic Constant Matrix: (Units=GPa)
#
#
# Indices 1 2 3 4 5 6 
#
# 1 109.0024 43.0306 32.1038 0.0000 0.0000 0.0000
# 2 43.0306 55.5079 27.2573 0.0000 0.0000 0.0000
# 3 32.1038 27.2573 63.5334 0.0000 0.0000 0.0000
# 4 0.0000 0.0000 0.0000 22.2183 0.0000 0.0000
# 5 0.0000 0.0000 0.0000 0.0000 127.6522 0.0000
# 6 0.0000 0.0000 0.0000 0.0000 0.0000 21.0344
#
#
#
# Elastic Compliance Matrix: (Units=1/GPa)
#
#
# Indices 1 2 3 4 5 6 
#
# 1 0.013653 -0.009117 -0.002988 0.000000 0.000000 0.000000
# 2 -0.009117 0.028912 -0.007797 0.000000 0.000000 0.000000
# 3 -0.002988 -0.007797 0.020594 0.000000 0.000000 0.000000
# 4 0.000000 0.000000 0.000000 0.045008 0.000000 0.000000
# 5 0.000000 0.000000 0.000000 0.000000 0.007834 0.000000
# 6 0.000000 0.000000 0.000000 0.000000 0.000000 0.047541
#
#
# Mechanical properties :
#
#
# Convention : Reuss Voigt Hill
#
# Bulk Modulus (GPa) = 42.81506 48.09189 45.45347
# Shear Modulus (GPa) = 23.68198 42.55778 33.11988
#
# Velocity S-wave (km/s) = 3.63368 4.87109 4.29716
# Velocity P-wave (km/s) = 6.44017 7.64525 7.06844
#
# Compressibility (1/GPa) = 0.02335627
#
# Stress axis : x y z
#
# Youngs Moduli (GPa) = 73.24323 34.58791 48.55678
#
# Poissons Ratio (x) = 0.31534 0.14507
# Poissons Ratio (y) = 0.66776 0.37859
# Poissons Ratio (z) = 0.21882 0.26968
#
# Static dielectric constant tensor:
#      x y z
#    x 1.555380 0.000000 0.000000 
#    y 0.000000 1.622200 0.000000 
#    z 0.000000 0.000000 1.592600 
# 
# From -- ./inp_files/4936.got.cif
#   From: 2010.05.17/outbox.cif.g08.bks.cpg/sg38_3_cif.got.tgz:4936.got - 2010.06.03 18:07:57.
