data_PCOD9357710
_publ_section_title
;
Structure prediction by ZEFSAII (Michael W. Deem and Ramdas Pophale) SiO2 
 PCOD9357710
Probable space group: A M M 2
;
_chemical_formula_sum "Si O2"
_cell_formula_units_Z 56
_cell_length_a 13.651092
_cell_length_b 8.605503
_cell_length_c 24.408576
_cell_angle_alpha 90.000000
_cell_angle_beta 90.000000
_cell_angle_gamma 90.000000
_cell_volume 2867.385583
_symmetry_space_group_name_H-M "A M M 2"
_symmetry_group_IT_number 38
_symmetry_cell_setting 'orthorhombic'
loop_
_space_group_symop_operation_xyz
x,y,z
-x,-y,z
-x,y,z
x,-y,z
x,1/2+y,1/2+z
-x,1/2-y,1/2+z
-x,1/2+y,1/2+z
x,1/2-y,1/2+z
loop_
_atom_site_type_symbol
_atom_site_label
_atom_site_fract_x
_atom_site_fract_y
_atom_site_fract_z
Si Si1 0.384161 0.827885 0.316590
Si Si2 0.744594 0.675314 0.994558
Si Si3 0.113358 0.686347 0.780758
Si Si4 0.707797 0.313900 0.213418
Si Si5 0.615684 0.167582 0.921326
Si Si6 0.615760 0.310867 0.095474
Si Si7 0.114677 0.185085 0.902219
O O1 0.500000 0.839169 0.324398
O O2 0.362587 0.769249 0.256560
O O3 0.350571 0.699159 0.359774
O O4 0.341564 0.000000 0.325745
O O5 0.777528 0.500000 0.005430
O O6 0.694441 0.743878 0.049446
O O7 0.650814 0.685563 0.954940
O O8 0.824209 0.758463 0.955411
O O9 0.119156 0.500000 0.777288
O O10 0.185592 0.759003 0.735278
O O11 0.139409 0.737041 0.843255
O O12 0.000000 0.733838 0.772024
O O13 0.702986 0.500000 0.218055
O O14 0.666405 0.272481 0.153512
O O15 0.500000 0.160296 0.923672
O O16 0.653239 0.000000 0.941367
O O17 0.500000 0.259771 0.090720
O O18 0.612523 0.500000 0.090852
O O19 0.000000 0.220570 0.911887
O O20 0.125508 0.000000 0.896091
#
# Coordination Sequence:
#
# PCOD9357710 Si02
#       7
#     8   8   8   8   8   8   8
#     4  10  20  33  50  75 107 141 178 222 274 333
#     4  11  21  35  57  81 108 144 186 232 279 329
#     4  10  21  38  60  86 116 148 183 227 280 338
#     4  11  21  35  57  81 108 144 186 232 279 329
#     4  10  20  33  50  75 107 141 178 222 274 333
#     4   9  20  38  58  81 110 148 193 235 276 325
#     4  10  21  38  60  86 116 148 183 227 280 338
#
# _framework density 19.529986000000001
#
# number of rings (size 3 to 8) (size 9 to 14) (size 15 to 20)
#    0.000    1.857    0.000    4.286    0.000    4.571 
#    0.000    3.571    0.000    9.429    0.000    0.000 
#    0.000    0.000    0.000    0.000    0.000    0.000 
#
# Total GULP energy -155951.760143 kJ/mol
# GULP energy per Si atom -5569.705719 kJ/mol
# Density = 1.948554 g / cm^3
# Si number density = 19.529986 Si / 1000 Ang^3
#
#
#
# Elastic Constant Matrix: (Units=GPa)
#
#
# Indices 1 2 3 4 5 6 
#
# 1 89.0914 10.3771 7.0517 0.0000 0.0000 0.0000
# 2 10.3771 56.1274 12.8154 0.0000 0.0000 0.0000
# 3 7.0517 12.8154 85.6596 0.0000 0.0000 0.0000
# 4 0.0000 0.0000 0.0000 19.9122 0.0000 0.0000
# 5 0.0000 0.0000 0.0000 0.0000 37.5204 0.0000
# 6 0.0000 0.0000 0.0000 0.0000 0.0000 12.9011
#
#
#
# Elastic Compliance Matrix: (Units=1/GPa)
#
#
# Indices 1 2 3 4 5 6 
#
# 1 0.011506 -0.001979 -0.000651 0.000000 0.000000 0.000000
# 2 -0.001979 0.018787 -0.002648 0.000000 0.000000 0.000000
# 3 -0.000651 -0.002648 0.012124 0.000000 0.000000 0.000000
# 4 0.000000 0.000000 0.000000 0.050220 0.000000 0.000000
# 5 0.000000 0.000000 0.000000 0.000000 0.026652 0.000000
# 6 0.000000 0.000000 0.000000 0.000000 0.000000 0.077513
#
#
# Mechanical properties :
#
#
# Convention : Reuss Voigt Hill
#
# Bulk Modulus (GPa) = 31.38543 32.37408 31.87975
# Shear Modulus (GPa) = 22.93800 27.44236 25.19018
#
# Velocity S-wave (km/s) = 3.43082 3.75259 3.59530
# Velocity P-wave (km/s) = 5.63909 5.94882 5.79602
#
# Compressibility (1/GPa) = 0.03186192
#
# Stress axis : x y z
#
# Youngs Moduli (GPa) = 86.90782 53.22830 82.48199
#
# Poissons Ratio (x) = 0.10532 0.05371
# Poissons Ratio (y) = 0.17196 0.21840
# Poissons Ratio (z) = 0.05659 0.14094
#
# Static dielectric constant tensor:
#      x y z
#    x 1.737000 0.000000 0.000000 
#    y 0.000000 1.740990 0.000000 
#    z 0.000000 0.000000 1.696060 
# 
# From -- ./inp_files/21099.got.cif
#   From: 2010.05.17/outbox.cif.g08.bks.cpg/sg38_11_cif.got.tgz:21099.got - 2010.06.03 18:07:57.
