data_PCOD9357921
_publ_section_title
;
Structure prediction by ZEFSAII (Michael W. Deem and Ramdas Pophale) SiO2 
 PCOD9357921
Probable space group: A M M 2
;
_chemical_formula_sum "Si O2"
_cell_formula_units_Z 56
_cell_length_a 20.345724
_cell_length_b 11.001760
_cell_length_c 13.761408
_cell_angle_alpha 90.000000
_cell_angle_beta 90.000000
_cell_angle_gamma 90.000000
_cell_volume 3080.336674
_symmetry_space_group_name_H-M "A M M 2"
_symmetry_group_IT_number 38
_symmetry_cell_setting 'orthorhombic'
loop_
_space_group_symop_operation_xyz
x,y,z
-x,-y,z
-x,y,z
x,-y,z
x,1/2+y,1/2+z
-x,1/2-y,1/2+z
-x,1/2+y,1/2+z
x,1/2-y,1/2+z
loop_
_atom_site_type_symbol
_atom_site_label
_atom_site_fract_x
_atom_site_fract_y
_atom_site_fract_z
Si Si1 0.236115 0.370699 0.886860
Si Si2 0.832107 0.636533 0.299814
Si Si3 0.574060 0.360086 0.446829
Si Si4 0.319652 0.358467 0.615622
Si Si5 0.073987 0.642991 0.474183
Si Si6 0.815112 0.288153 0.085874
Si Si7 0.381920 0.137409 0.326846
O O1 0.217674 0.500000 0.837714
O O2 0.213368 0.248005 0.834010
O O3 0.314576 0.367824 0.888923
O O4 0.204547 0.368335 0.993114
O O5 0.806932 0.500000 0.323987
O O6 0.897637 0.654124 0.364327
O O7 0.838033 0.647368 0.184290
O O8 0.500000 0.356249 0.488413
O O9 0.583965 0.500000 0.410373
O O10 0.629084 0.336908 0.528459
O O11 0.579360 0.252992 0.367637
O O12 0.301056 0.500000 0.611757
O O13 0.252657 0.283379 0.608111
O O14 0.357508 0.339235 0.717040
O O15 0.072391 0.500000 0.495703
O O16 0.126228 0.704269 0.545760
O O17 0.000000 0.692107 0.481977
O O18 0.411523 0.000000 0.331193
#
# Coordination Sequence:
#
# PCOD9357921 Si02
#       7
#     8   8   8   8   8   8   8
#     4  10  20  34  53  83 118 145 181 234 285 336
#     4  10  21  35  56  83 113 150 189 233 284 336
#     4  10  22  40  59  81 113 151 190 234 281 337
#     4  10  20  35  57  86 112 145 189 233 283 343
#     4   9  20  37  55  80 116 155 193 231 279 341
#     4  11  19  33  57  85 113 147 188 241 289 335
#     4  10  20  36  57  84 115 149 185 231 286 337
#
# _framework density 18.179829999999999
#
# number of rings (size 3 to 8) (size 9 to 14) (size 15 to 20)
#    0.000    2.000    2.857    0.857    0.000    3.143 
#    0.000    2.143    0.000   10.286    0.000    0.000 
#    0.000    0.000    0.000    0.000    0.000    0.000 
#
# Total GULP energy -155937.401034 kJ/mol
# GULP energy per Si atom -5569.192894 kJ/mol
# Density = 1.813845 g / cm^3
# Si number density = 18.179830 Si / 1000 Ang^3
#
#
#
# Elastic Constant Matrix: (Units=GPa)
#
#
# Indices 1 2 3 4 5 6 
#
# 1 84.6753 51.2363 21.9415 0.0000 0.0000 0.0000
# 2 51.2363 118.9794 50.8379 0.0000 0.0000 0.0000
# 3 21.9415 50.8379 77.2787 0.0000 0.0000 0.0000
# 4 0.0000 0.0000 0.0000 22.4467 0.0000 0.0000
# 5 0.0000 0.0000 0.0000 0.0000 12.6694 0.0000
# 6 0.0000 0.0000 0.0000 0.0000 0.0000 21.6931
#
#
#
# Elastic Compliance Matrix: (Units=1/GPa)
#
#
# Indices 1 2 3 4 5 6 
#
# 1 0.015972 -0.006872 -0.000014 0.000000 0.000000 0.000000
# 2 -0.006872 0.014648 -0.007685 0.000000 0.000000 0.000000
# 3 -0.000014 -0.007685 0.018000 0.000000 0.000000 0.000000
# 4 0.000000 0.000000 0.000000 0.044550 0.000000 0.000000
# 5 0.000000 0.000000 0.000000 0.000000 0.078930 0.000000
# 6 0.000000 0.000000 0.000000 0.000000 0.000000 0.046098
#
#
# Mechanical properties :
#
#
# Convention : Reuss Voigt Hill
#
# Bulk Modulus (GPa) = 51.34190 58.77385 55.05788
# Shear Modulus (GPa) = 19.69818 21.82304 20.76061
#
# Velocity S-wave (km/s) = 3.29525 3.46844 3.38295
# Velocity P-wave (km/s) = 6.54070 6.95984 6.75352
#
# Compressibility (1/GPa) = 0.01947727
#
# Stress axis : x y z
#
# Youngs Moduli (GPa) = 62.61127 68.27027 55.55652
#
# Poissons Ratio (x) = 0.46914 0.00078
# Poissons Ratio (y) = 0.43025 0.42695
# Poissons Ratio (z) = 0.00088 0.52465
#
# Static dielectric constant tensor:
#      x y z
#    x 1.612130 0.000000 0.000000 
#    y 0.000000 1.656120 0.000000 
#    z 0.000000 0.000000 1.636320 
# 
# From -- ./inp_files/15494.got.cif
#   From: 2010.05.17/outbox.cif.g08.bks.cpg/sg38_8_cif.got.tgz:15494.got - 2010.06.03 18:07:57.
