data_PCOD9357977
_publ_section_title
;
Structure prediction by ZEFSAII (Michael W. Deem and Ramdas Pophale) SiO2 
 PCOD9357977
Probable space group: A M M 2
;
_chemical_formula_sum "Si O2"
_cell_formula_units_Z 64
_cell_length_a 18.148992
_cell_length_b 22.921646
_cell_length_c 8.450566
_cell_angle_alpha 90.000000
_cell_angle_beta 90.000000
_cell_angle_gamma 90.000000
_cell_volume 3515.475764
_symmetry_space_group_name_H-M "A M M 2"
_symmetry_group_IT_number 38
_symmetry_cell_setting 'orthorhombic'
loop_
_space_group_symop_operation_xyz
x,y,z
-x,-y,z
-x,y,z
x,-y,z
x,1/2+y,1/2+z
-x,1/2-y,1/2+z
-x,1/2+y,1/2+z
x,1/2-y,1/2+z
loop_
_atom_site_type_symbol
_atom_site_label
_atom_site_fract_x
_atom_site_fract_y
_atom_site_fract_z
Si Si1 0.168248 0.255294 0.901100
Si Si2 0.323600 0.433223 0.114442
Si Si3 0.841270 0.065446 0.760916
Si Si4 0.780311 0.643258 0.511356
Si Si5 0.361993 0.830898 0.806184
Si Si6 0.414189 0.276730 0.631905
Si Si7 0.701720 0.653933 0.825870
Si Si8 0.085724 0.822144 0.639759
O O1 0.179969 0.204875 0.034033
O O2 0.242781 0.293638 0.878977
O O3 0.135461 0.215684 0.760907
O O4 0.108079 0.300176 0.966461
O O5 0.348158 0.500000 0.089212
O O6 0.240901 0.436120 0.186409
O O7 0.374748 0.395327 0.234483
O O8 0.314661 0.393539 0.958753
O O9 0.829718 0.093548 0.934493
O O10 0.890323 0.111119 0.665105
O O11 0.870231 0.000000 0.764961
O O12 0.719502 0.662477 0.379806
O O13 0.741333 0.625624 0.672729
O O14 0.373071 0.784941 0.663417
O O15 0.405407 0.804380 0.956756
O O16 0.500000 0.268991 0.665773
O O17 0.373072 0.318593 0.756145
O O18 0.000000 0.813891 0.672057
#
# Coordination Sequence:
#
# PCOD9357977 Si02
#       8
#     8   8   8   8   8   8   8   8
#     4  11  19  34  53  82 114 144 186 227 286 339
#     4  10  21  37  58  83 109 145 197 243 276 328
#     4   9  19  35  54  78 108 145 189 233 280 331
#     4   9  19  31  54  82 109 143 178 234 278 330
#     4  10  20  34  54  82 115 147 181 228 286 332
#     4  11  22  35  58  90 121 147 184 235 294 354
#     4  11  20  34  60  86 113 150 186 237 287 336
#     4  11  22  34  53  80 114 150 186 232 283 341
#
# _framework density 18.205217000000001
#
# number of rings (size 3 to 8) (size 9 to 14) (size 15 to 20)
#    0.000    1.750    3.750    1.500    1.750    0.750 
#    0.000    2.500    0.000    4.125    0.000    0.000 
#    0.000    0.000    0.000    0.000    0.000    0.000 
#
# Total GULP energy -178220.210202 kJ/mol
# GULP energy per Si atom -5569.381569 kJ/mol
# Density = 1.816378 g / cm^3
# Si number density = 18.205217 Si / 1000 Ang^3
#
#
#
# Elastic Constant Matrix: (Units=GPa)
#
#
# Indices 1 2 3 4 5 6 
#
# 1 42.5217 21.8167 13.4976 0.0000 0.0000 0.0000
# 2 21.8167 155.8259 58.3992 0.0000 0.0000 0.0000
# 3 13.4976 58.3992 61.9228 0.0000 0.0000 0.0000
# 4 0.0000 0.0000 0.0000 21.8144 0.0000 0.0000
# 5 0.0000 0.0000 0.0000 0.0000 18.0384 0.0000
# 6 0.0000 0.0000 0.0000 0.0000 0.0000 9.1944
#
#
#
# Elastic Compliance Matrix: (Units=1/GPa)
#
#
# Indices 1 2 3 4 5 6 
#
# 1 0.025800 -0.002327 -0.003429 0.000000 0.000000 0.000000
# 2 -0.002327 0.010135 -0.009052 0.000000 0.000000 0.000000
# 3 -0.003429 -0.009052 0.025433 0.000000 0.000000 0.000000
# 4 0.000000 0.000000 0.000000 0.045841 0.000000 0.000000
# 5 0.000000 0.000000 0.000000 0.000000 0.055437 0.000000
# 6 0.000000 0.000000 0.000000 0.000000 0.000000 0.108762
#
#
# Mechanical properties :
#
#
# Convention : Reuss Voigt Hill
#
# Bulk Modulus (GPa) = 31.49297 49.74414 40.61856
# Shear Modulus (GPa) = 16.04580 20.91325 18.47952
#
# Velocity S-wave (km/s) = 2.97203 3.39300 3.18947
# Velocity P-wave (km/s) = 5.39571 6.53708 5.99363
#
# Compressibility (1/GPa) = 0.03175311
#
# Stress axis : x y z
#
# Youngs Moduli (GPa) = 38.75996 98.66338 39.31890
#
# Poissons Ratio (x) = 0.22959 0.13483
# Poissons Ratio (y) = 0.09020 0.35590
# Poissons Ratio (z) = 0.13291 0.89305
#
# Static dielectric constant tensor:
#      x y z
#    x 1.609120 0.000000 0.000000 
#    y 0.000000 1.640320 0.000000 
#    z 0.000000 0.000000 1.699570 
# 
# From -- ./inp_files/6871.got.cif
#   From: 2010.05.17/outbox.cif.g08.bks.cpg/sg38_4_cif.got.tgz:6871.got - 2010.06.03 18:07:57.
