data_PCOD9357169
_publ_section_title
;
Structure prediction by ZEFSAII (Michael W. Deem and Ramdas Pophale) SiO2 
 PCOD9357169
Probable space group: A M M 2
;
_chemical_formula_sum "Si O2"
_cell_formula_units_Z 46
_cell_length_a 13.823702
_cell_length_b 7.536357
_cell_length_c 22.064921
_cell_angle_alpha 90.000000
_cell_angle_beta 90.000000
_cell_angle_gamma 90.000000
_cell_volume 2298.731266
_symmetry_space_group_name_H-M "A M M 2"
_symmetry_group_IT_number 38
_symmetry_cell_setting 'orthorhombic'
loop_
_space_group_symop_operation_xyz
x,y,z
-x,-y,z
-x,y,z
x,-y,z
x,1/2+y,1/2+z
-x,1/2-y,1/2+z
-x,1/2+y,1/2+z
x,1/2-y,1/2+z
loop_
_atom_site_type_symbol
_atom_site_label
_atom_site_fract_x
_atom_site_fract_y
_atom_site_fract_z
Si Si1 0.113954 0.195272 0.631860
Si Si2 0.613003 0.205283 0.633798
Si Si3 0.316515 0.284893 0.768927
Si Si4 0.111725 0.000000 0.033632
Si Si5 0.890756 0.294145 0.768908
Si Si6 0.500000 0.213075 0.351975
Si Si7 0.317430 0.500000 0.541933
Si Si8 0.500000 0.500000 0.454664
O O1 0.123162 0.329028 0.576737
O O2 0.131886 0.283138 0.696915
O O3 0.000000 0.168054 0.634180
O O4 0.160534 0.000000 0.626462
O O5 0.500000 0.261809 0.636149
O O6 0.656320 0.220929 0.701426
O O7 0.669375 0.331857 0.587351
O O8 0.615252 0.000000 0.614865
O O9 0.311663 0.500000 0.765692
O O10 0.211325 0.219893 0.793064
O O11 0.404893 0.239859 0.812936
O O12 0.217477 0.000000 0.002990
O O13 0.000000 0.000000 0.008804
O O14 0.896922 0.500000 0.786931
O O15 0.000000 0.218563 0.779340
O O16 0.500000 0.326498 0.412584
O O17 0.500000 0.000000 0.362021
O O18 0.406537 0.500000 0.496783
#
# Coordination Sequence:
#
# PCOD9357169 Si02
#       8
#     8   8   8   4   8   4   4   2
#     4   9  16  27  43  70 114 159 191 219 265 337
#     4  11  22  35  58  92 125 157 192 241 304 357
#     4  10  19  33  57  86 121 153 189 241 293 349
#     4  10  20  34  54  80 112 152 194 233 281 345
#     4   9  16  27  44  72 112 155 188 219 273 345
#     4  10  24  43  63  85 109 146 200 249 294 346
#     4  12  24  42  62  88 126 158 195 246 299 354
#     4  12  28  46  66  82 110 160 202 246 300 350
#
# _framework density 20.011037999999999
#
# number of rings (size 3 to 8) (size 9 to 14) (size 15 to 20)
#    0.000    1.913    3.478    1.043    1.217    3.478 
#    0.000    0.000    0.000    1.043    0.000    0.000 
#    0.000    0.000    0.000    0.000    0.000    0.000 
#
# Total GULP energy -128095.473669 kJ/mol
# GULP energy per Si atom -5569.368420 kJ/mol
# Density = 1.996549 g / cm^3
# Si number density = 20.011038 Si / 1000 Ang^3
#
#
#
# Elastic Constant Matrix: (Units=GPa)
#
#
# Indices 1 2 3 4 5 6 
#
# 1 178.3722 2.8471 16.0401 0.0000 0.0000 0.0000
# 2 2.8471 83.1892 14.9371 0.0000 0.0000 0.0000
# 3 16.0401 14.9371 49.0722 0.0000 0.0000 0.0000
# 4 0.0000 0.0000 0.0000 46.8356 0.0000 0.0000
# 5 0.0000 0.0000 0.0000 0.0000 -2.7705 0.0000
# 6 0.0000 0.0000 0.0000 0.0000 0.0000 -14.3676
#
#
#
# Elastic Compliance Matrix: (Units=1/GPa)
#
#
# Indices 1 2 3 4 5 6 
#
# 1 0.005778 0.000150 -0.001934 0.000000 0.000000 0.000000
# 2 0.000150 0.012720 -0.003921 0.000000 0.000000 0.000000
# 3 -0.001934 -0.003921 0.022204 0.000000 0.000000 0.000000
# 4 0.000000 0.000000 0.000000 0.021351 0.000000 0.000000
# 5 0.000000 0.000000 0.000000 0.000000 -0.360945 0.000000
# 6 0.000000 0.000000 0.000000 0.000000 0.000000 -0.069601
#
#
# Mechanical properties :
#
#
# Convention : Reuss Voigt Hill
#
# Bulk Modulus (GPa) = 34.14037 42.03135 38.08586
# Shear Modulus (GPa) = -14.39596 24.39345 4.99874
#
# Velocity S-wave (km/s) = -2.68507 3.49521 1.58222
# Velocity P-wave (km/s) = 2.73587 6.11051 4.73409
#
# Compressibility (1/GPa) = 0.02929084
#
# Stress axis : x y z
#
# Youngs Moduli (GPa) = 173.07658 78.61854 45.03750
#
# Poissons Ratio (x) = -0.01176 0.08711
# Poissons Ratio (y) = -0.02588 0.17657
# Poissons Ratio (z) = 0.33474 0.30823
#
# Static dielectric constant tensor:
#      x y z
#    x 1.825960 0.000000 0.000000 
#    y 0.000000 1.765000 0.000000 
#    z 0.000000 0.000000 1.663870 
# 
# From -- ./inp_files/20921.got.cif
#   From: 2010.05.17/outbox.cif.g08.bks.cpg/sg38_11_cif.got.tgz:20921.got - 2010.06.03 18:07:57.
