data_PCOD9357444
_publ_section_title
;
Structure prediction by ZEFSAII (Michael W. Deem and Ramdas Pophale) SiO2 
 PCOD9357444
Probable space group: A M M 2
;
_chemical_formula_sum "Si O2"
_cell_formula_units_Z 48
_cell_length_a 15.211432
_cell_length_b 13.077861
_cell_length_c 11.565726
_cell_angle_alpha 90.000000
_cell_angle_beta 90.000000
_cell_angle_gamma 90.000000
_cell_volume 2300.804493
_symmetry_space_group_name_H-M "A M M 2"
_symmetry_group_IT_number 38
_symmetry_cell_setting 'orthorhombic'
loop_
_space_group_symop_operation_xyz
x,y,z
-x,-y,z
-x,y,z
x,-y,z
x,1/2+y,1/2+z
-x,1/2-y,1/2+z
-x,1/2+y,1/2+z
x,1/2-y,1/2+z
loop_
_atom_site_type_symbol
_atom_site_label
_atom_site_fract_x
_atom_site_fract_y
_atom_site_fract_z
Si Si1 0.500000 0.329748 0.122550
Si Si2 0.000000 0.377704 0.254932
Si Si3 0.323565 0.885423 0.245257
Si Si4 0.000000 0.878661 0.498001
Si Si5 0.188103 0.614901 0.371099
Si Si6 0.500000 0.686727 0.853573
Si Si7 0.806708 0.670191 0.943725
Si Si8 0.308281 0.841769 0.655446
O O1 0.500000 0.269026 0.247247
O O2 0.405277 0.382830 0.129039
O O3 0.500000 0.280870 0.990055
O O4 0.907485 0.357311 0.316926
O O5 0.000000 0.500000 0.243545
O O6 0.000000 0.331423 0.126940
O O7 0.410907 0.874590 0.324975
O O8 0.241124 0.871673 0.330639
O O9 0.321245 0.782752 0.166485
O O10 0.323435 0.000000 0.192536
O O11 0.909509 0.849844 0.438913
O O12 0.000000 0.000000 0.507642
O O13 0.184062 0.500000 0.417858
O O14 0.207631 0.708068 0.454633
O O15 0.263387 0.621853 0.273616
O O16 0.759806 0.626585 0.056518
#
# Coordination Sequence:
#
# PCOD9357444 Si02
#       8
#     4   4   8   4   8   4   8   8
#     4  10  20  38  58  88 121 157 199 255 303 359
#     4   9  17  32  54  78 108 142 176 227 283 337
#     4  10  21  36  57  86 116 150 197 243 293 355
#     4  11  21  34  57  86 114 146 191 243 292 347
#     4  10  21  37  57  84 114 148 190 236 289 353
#     4  10  19  36  62  88 120 161 200 249 307 363
#     4  11  21  36  59  83 110 153 192 238 295 347
#     4  10  21  37  58  81 115 155 190 239 300 350
#
# _framework density 20.862266999999999
#
# number of rings (size 3 to 8) (size 9 to 14) (size 15 to 20)
#    0.000    1.833    3.333    1.250    0.000    1.333 
#    0.000    0.417    0.000    0.000    0.000    0.000 
#    0.000    0.000    0.000    0.000    0.000    0.000 
#
# Total GULP energy -133687.242416 kJ/mol
# GULP energy per Si atom -5570.301767 kJ/mol
# Density = 2.081478 g / cm^3
# Si number density = 20.862267 Si / 1000 Ang^3
#
#
#
# Elastic Constant Matrix: (Units=GPa)
#
#
# Indices 1 2 3 4 5 6 
#
# 1 164.8509 5.1225 33.3999 0.0000 0.0000 0.0000
# 2 5.1225 108.6978 8.8187 0.0000 0.0000 0.0000
# 3 33.3999 8.8187 54.6673 0.0000 0.0000 0.0000
# 4 0.0000 0.0000 0.0000 1.2556 0.0000 0.0000
# 5 0.0000 0.0000 0.0000 0.0000 -424.1183 0.0000
# 6 0.0000 0.0000 0.0000 0.0000 0.0000 -261.2896
#
#
#
# Elastic Compliance Matrix: (Units=1/GPa)
#
#
# Indices 1 2 3 4 5 6 
#
# 1 0.006923 0.000017 -0.004233 0.000000 0.000000 0.000000
# 2 0.000017 0.009322 -0.001514 0.000000 0.000000 0.000000
# 3 -0.004233 -0.001514 0.021123 0.000000 0.000000 0.000000
# 4 0.000000 0.000000 0.000000 0.796460 0.000000 0.000000
# 5 0.000000 0.000000 0.000000 0.000000 -0.002358 0.000000
# 6 0.000000 0.000000 0.000000 0.000000 0.000000 -0.003827
#
#
# Mechanical properties :
#
#
# Convention : Reuss Voigt Hill
#
# Bulk Modulus (GPa) = 38.59761 46.98870 42.79315
# Shear Modulus (GPa) = 5.89805 -118.10550 -56.10373
#
# Velocity S-wave (km/s) = 1.68323 -7.53226 -5.19142
# Velocity P-wave (km/s) = 4.72430 7.28522 3.92144
#
# Compressibility (1/GPa) = 0.02590834
#
# Stress axis : x y z
#
# Youngs Moduli (GPa) = 144.44400 107.27467 47.34248
#
# Poissons Ratio (x) = -0.00184 0.20038
# Poissons Ratio (y) = -0.00247 0.07169
# Poissons Ratio (z) = 0.61137 0.16244
#
# Static dielectric constant tensor:
#      x y z
#    x 1.752960 0.000000 0.000000 
#    y 0.000000 1.792760 0.000000 
#    z 0.000000 0.000000 1.726350 
# 
# From -- ./inp_files/10062.got.cif
#   From: 2010.05.17/outbox.cif.g08.bks.cpg/sg38_6_cif.got.tgz:10062.got - 2010.06.03 18:07:57.
