data_PCOD9357901
_publ_section_title
;
Structure prediction by ZEFSAII (Michael W. Deem and Ramdas Pophale) SiO2 
 PCOD9357901
Probable space group: A M M 2
;
_chemical_formula_sum "Si O2"
_cell_formula_units_Z 64
_cell_length_a 15.170628
_cell_length_b 7.983570
_cell_length_c 25.525460
_cell_angle_alpha 90.000000
_cell_angle_beta 90.000000
_cell_angle_gamma 90.000000
_cell_volume 3091.535757
_symmetry_space_group_name_H-M "A M M 2"
_symmetry_group_IT_number 38
_symmetry_cell_setting 'orthorhombic'
loop_
_space_group_symop_operation_xyz
x,y,z
-x,-y,z
-x,y,z
x,-y,z
x,1/2+y,1/2+z
-x,1/2-y,1/2+z
-x,1/2+y,1/2+z
x,1/2-y,1/2+z
loop_
_atom_site_type_symbol
_atom_site_label
_atom_site_fract_x
_atom_site_fract_y
_atom_site_fract_z
Si Si1 0.100402 0.697376 0.856140
Si Si2 0.789349 0.802366 0.956761
Si Si3 0.096000 0.203269 0.174097
Si Si4 0.405168 0.200497 0.483241
Si Si5 0.776353 0.805580 0.762021
Si Si6 0.153560 0.192833 0.066226
Si Si7 0.402406 0.204548 0.715027
Si Si8 0.344060 0.702925 0.098288
O O1 0.092925 0.500000 0.863968
O O2 0.154281 0.766497 0.905565
O O3 0.160697 0.725043 0.805163
O O4 0.000000 0.765651 0.851264
O O5 0.686575 0.750721 0.955984
O O6 0.787113 0.000000 0.965203
O O7 0.836708 0.727577 0.008830
O O8 0.172409 0.286910 0.207257
O O9 0.097792 0.263736 0.114069
O O10 0.000000 0.238194 0.197683
O O11 0.108133 0.000000 0.174735
O O12 0.500000 0.265987 0.463387
O O13 0.397194 0.242304 0.545222
O O14 0.407494 0.000000 0.479913
O O15 0.678468 0.735919 0.751099
O O16 0.767924 0.000000 0.776417
O O17 0.251984 0.204068 0.089787
O O18 0.124360 0.000000 0.059963
O O19 0.500000 0.259543 0.731012
O O20 0.385866 0.248949 0.653979
O O21 0.400378 0.000000 0.716541
O O22 0.330146 0.500000 0.098715
#
# Coordination Sequence:
#
# PCOD9357901 Si02
#       8
#     8   8   8   8   8   8   8   8
#     4  11  25  45  66  84 105 142 190 240 296 355
#     4  10  21  37  59  87 116 148 189 241 294 340
#     4  10  20  34  53  78 112 153 187 220 276 346
#     4   9  17  30  52  83 119 160 200 234 275 332
#     4  11  22  37  59  86 113 144 186 238 286 332
#     4   9  18  32  51  78 115 152 184 223 278 336
#     4   9  17  30  51  81 115 149 185 225 273 327
#     4   9  15  27  49  77 111 152 195 231 268 319
#
# _framework density 20.701684
#
# number of rings (size 3 to 8) (size 9 to 14) (size 15 to 20)
#    0.000    2.250    1.250    1.875    0.000    5.500 
#    0.000    1.875    0.000    6.375    0.000    0.000 
#    0.000    0.000    0.000    0.000    0.000    0.000 
#
# Total GULP energy -178414.025421 kJ/mol
# GULP energy per Si atom -5575.438294 kJ/mol
# Density = 2.065457 g / cm^3
# Si number density = 20.701684 Si / 1000 Ang^3
#
#
#
# Elastic Constant Matrix: (Units=GPa)
#
#
# Indices 1 2 3 4 5 6 
#
# 1 148.5465 2.9970 53.0173 0.0000 0.0000 0.0000
# 2 2.9970 16.1006 -6.5630 0.0000 0.0000 0.0000
# 3 53.0173 -6.5630 83.6097 0.0000 0.0000 0.0000
# 4 0.0000 0.0000 0.0000 18.6578 0.0000 0.0000
# 5 0.0000 0.0000 0.0000 0.0000 17.9169 0.0000
# 6 0.0000 0.0000 0.0000 0.0000 0.0000 12.3658
#
#
#
# Elastic Compliance Matrix: (Units=1/GPa)
#
#
# Indices 1 2 3 4 5 6 
#
# 1 0.008957 -0.004114 -0.006003 0.000000 0.000000 0.000000
# 2 -0.004114 0.066052 0.007794 0.000000 0.000000 0.000000
# 3 -0.006003 0.007794 0.016379 0.000000 0.000000 0.000000
# 4 0.000000 0.000000 0.000000 0.053597 0.000000 0.000000
# 5 0.000000 0.000000 0.000000 0.000000 0.055813 0.000000
# 6 0.000000 0.000000 0.000000 0.000000 0.000000 0.080868
#
#
# Mechanical properties :
#
#
# Convention : Reuss Voigt Hill
#
# Bulk Modulus (GPa) = 11.52856 38.57329 25.05092
# Shear Modulus (GPa) = 15.86159 23.04181 19.45170
#
# Velocity S-wave (km/s) = 2.77103 3.33985 3.06865
# Velocity P-wave (km/s) = 3.97733 5.79190 4.96816
#
# Compressibility (1/GPa) = 0.08674107
#
# Stress axis : x y z
#
# Youngs Moduli (GPa) = 111.63999 15.13957 61.05554
#
# Poissons Ratio (x) = 0.06229 0.36651
# Poissons Ratio (y) = 0.45931 -0.47584
# Poissons Ratio (z) = 0.67016 -0.11799
#
# Static dielectric constant tensor:
#      x y z
#    x 1.785790 0.000000 0.000000 
#    y 0.000000 1.755180 0.000000 
#    z 0.000000 0.000000 1.747980 
# 
# From -- ./inp_files/22954.got.cif
#   From: 2010.05.17/outbox.cif.g08.bks.cpg/sg38_12_cif.got.tgz:22954.got - 2010.06.03 18:07:57.
