data_PCOD9357841
_publ_section_title
;
Structure prediction by ZEFSAII (Michael W. Deem and Ramdas Pophale) SiO2 
 PCOD9357841
Probable space group: A M M 2
;
_chemical_formula_sum "Si O2"
_cell_formula_units_Z 64
_cell_length_a 14.368553
_cell_length_b 9.028581
_cell_length_c 31.694163
_cell_angle_alpha 90.000000
_cell_angle_beta 90.000000
_cell_angle_gamma 90.000000
_cell_volume 4111.609114
_symmetry_space_group_name_H-M "A M M 2"
_symmetry_group_IT_number 38
_symmetry_cell_setting 'orthorhombic'
loop_
_space_group_symop_operation_xyz
x,y,z
-x,-y,z
-x,y,z
x,-y,z
x,1/2+y,1/2+z
-x,1/2-y,1/2+z
-x,1/2+y,1/2+z
x,1/2-y,1/2+z
loop_
_atom_site_type_symbol
_atom_site_label
_atom_site_fract_x
_atom_site_fract_y
_atom_site_fract_z
Si Si1 0.710542 0.322737 0.853570
Si Si2 0.710132 0.676561 0.013589
Si Si3 0.892666 0.823884 0.983905
Si Si4 0.611447 0.174435 0.933331
Si Si5 0.106945 0.823707 0.883422
Si Si6 0.613038 0.170308 0.680019
Si Si7 0.388489 0.175433 0.092972
Si Si8 0.609517 0.822793 0.266714
O O1 0.705170 0.500000 0.858361
O O2 0.652850 0.245872 0.891066
O O3 0.815962 0.267096 0.858569
O O4 0.666735 0.282652 0.808395
O O5 0.704639 0.500000 0.012512
O O6 0.664149 0.740022 0.055884
O O7 0.816113 0.731711 0.008670
O O8 0.655341 0.745430 0.973735
O O9 0.880437 0.796857 0.933652
O O10 0.000000 0.789101 0.994374
O O11 0.878554 0.000000 0.990594
O O12 0.500000 0.188635 0.933949
O O13 0.635556 0.000000 0.934813
O O14 0.000000 0.786690 0.872909
O O15 0.119687 0.000000 0.876868
O O16 0.500000 0.172617 0.680674
O O17 0.640338 0.262798 0.638762
O O18 0.642380 0.241936 0.724290
O O19 0.642867 0.000000 0.676488
O O20 0.500000 0.199138 0.088406
O O21 0.371618 0.000000 0.090145
O O22 0.500000 0.787900 0.273532
O O23 0.616001 0.000000 0.260491
#
# Coordination Sequence:
#
# PCOD9357841 Si02
#       8
#     8   8   8   8   8   8   8   8
#     4  11  21  32  49  74 100 129 165 207 249 290
#     4  12  23  33  49  74 101 129 163 206 249 290
#     4   9  18  34  54  72  94 127 165 205 248 295
#     4  11  23  36  48  64  94 136 174 203 237 288
#     4   9  18  33  52  71  94 127 165 206 250 296
#     4   9  17  30  49  73  98 124 161 208 249 284
#     4  10  20  34  52  72  98 134 170 202 242 294
#     4   9  18  32  48  68  99 135 166 197 239 293
#
# _framework density 15.565682000000001
#
# number of rings (size 3 to 8) (size 9 to 14) (size 15 to 20)
#    0.000    2.000    1.250    4.125    0.000    6.750 
#    0.000    2.500    0.000    0.000    0.000    0.875 
#    0.000    3.000    0.000    0.000    0.000    0.000 
#
# Total GULP energy -178613.453534 kJ/mol
# GULP energy per Si atom -5581.670423 kJ/mol
# Density = 1.553025 g / cm^3
# Si number density = 15.565682 Si / 1000 Ang^3
#
#
#
# Elastic Constant Matrix: (Units=GPa)
#
#
# Indices 1 2 3 4 5 6 
#
# 1 82.2505 64.6294 62.8255 0.0000 0.0000 0.0000
# 2 64.6294 101.5457 79.5771 0.0000 0.0000 0.0000
# 3 62.8255 79.5771 135.8182 0.0000 0.0000 0.0000
# 4 0.0000 0.0000 0.0000 29.3275 0.0000 0.0000
# 5 0.0000 0.0000 0.0000 0.0000 5.9535 0.0000
# 6 0.0000 0.0000 0.0000 0.0000 0.0000 20.6469
#
#
#
# Elastic Compliance Matrix: (Units=1/GPa)
#
#
# Indices 1 2 3 4 5 6 
#
# 1 0.025577 -0.012956 -0.004240 0.000000 0.000000 0.000000
# 2 -0.012956 0.024771 -0.008520 0.000000 0.000000 0.000000
# 3 -0.004240 -0.008520 0.014316 0.000000 0.000000 0.000000
# 4 0.000000 0.000000 0.000000 0.034098 0.000000 0.000000
# 5 0.000000 0.000000 0.000000 0.000000 0.167968 0.000000
# 6 0.000000 0.000000 0.000000 0.000000 0.000000 0.048433
#
#
# Mechanical properties :
#
#
# Convention : Reuss Voigt Hill
#
# Bulk Modulus (GPa) = 75.57894 81.51981 78.54938
# Shear Modulus (GPa) = 13.47689 18.69108 16.08398
#
# Velocity S-wave (km/s) = 2.94565 3.46900 3.21798
# Velocity P-wave (km/s) = 7.76076 8.27831 8.02371
#
# Compressibility (1/GPa) = 0.01323120
#
# Stress axis : x y z
#
# Youngs Moduli (GPa) = 39.09778 40.37055 69.85002
#
# Poissons Ratio (x) = 0.52303 0.29618
# Poissons Ratio (y) = 0.50654 0.59515
# Poissons Ratio (z) = 0.16579 0.34397
#
# Static dielectric constant tensor:
#      x y z
#    x 1.512530 0.000000 0.000000 
#    y 0.000000 1.517760 0.000000 
#    z 0.000000 0.000000 1.494300 
# 
# From -- ./inp_files/25046.got.cif
#   From: 2010.05.17/outbox.cif.g08.bks.cpg/sg38_13_cif.got.tgz:25046.got - 2010.06.03 18:07:57.
