data_PCOD9357731
_publ_section_title
;
Structure prediction by ZEFSAII (Michael W. Deem and Ramdas Pophale) SiO2 
 PCOD9357731
Probable space group: A M M 2
;
_chemical_formula_sum "Si O2"
_cell_formula_units_Z 64
_cell_length_a 20.625332
_cell_length_b 8.838708
_cell_length_c 20.307887
_cell_angle_alpha 90.000000
_cell_angle_beta 90.000000
_cell_angle_gamma 90.000000
_cell_volume 3702.153935
_symmetry_space_group_name_H-M "A M M 2"
_symmetry_group_IT_number 38
_symmetry_cell_setting 'orthorhombic'
loop_
_space_group_symop_operation_xyz
x,y,z
-x,-y,z
-x,y,z
x,-y,z
x,1/2+y,1/2+z
-x,1/2-y,1/2+z
-x,1/2+y,1/2+z
x,1/2-y,1/2+z
loop_
_atom_site_type_symbol
_atom_site_label
_atom_site_fract_x
_atom_site_fract_y
_atom_site_fract_z
Si Si1 0.315405 0.182408 0.363120
Si Si2 0.075472 0.681094 0.607510
Si Si3 0.075604 0.819315 0.464633
Si Si4 0.682405 0.819300 0.209796
Si Si5 0.573308 0.184121 0.463122
Si Si6 0.575109 0.317747 0.114912
Si Si7 0.822577 0.318955 0.208473
Si Si8 0.175523 0.819167 0.862218
O O1 0.330351 0.218061 0.286745
O O2 0.372417 0.234058 0.411709
O O3 0.246652 0.256696 0.379915
O O4 0.309226 0.000000 0.368311
O O5 0.081246 0.500000 0.606107
O O6 0.091299 0.747467 0.535563
O O7 0.123215 0.749278 0.661553
O O8 0.000000 0.719681 0.621434
O O9 0.121879 0.753422 0.408854
O O10 0.000000 0.784403 0.450552
O O11 0.082651 0.000000 0.468453
O O12 0.625492 0.758094 0.163879
O O13 0.751478 0.745651 0.191901
O O14 0.687361 0.000000 0.204164
O O15 0.500000 0.234114 0.446763
O O16 0.587648 0.226599 0.538738
O O17 0.572664 0.000000 0.461626
O O18 0.500000 0.279401 0.129755
O O19 0.581101 0.500000 0.119037
O O20 0.821925 0.500000 0.202159
O O21 0.835473 0.280495 0.285209
O O22 0.174439 0.000000 0.868555
#
# Coordination Sequence:
#
# PCOD9357731 Si02
#       8
#     8   8   8   8   8   8   8   8
#     4   9  18  33  53  75 100 132 171 215 259 306
#     4  10  21  37  57  81 109 138 171 217 268 314
#     4  10  21  37  57  80 107 140 177 215 257 311
#     4  10  20  33  51  76 105 135 169 214 264 311
#     4   8  15  30  52  75  97 126 168 212 251 297
#     4   9  18  33  52  73 100 135 172 211 258 315
#     4  10  21  37  56  77 105 142 180 217 261 317
#     4  10  21  36  54  77 107 141 176 217 262 309
#
# _framework density 17.287234000000002
#
# number of rings (size 3 to 8) (size 9 to 14) (size 15 to 20)
#    0.000    2.500    0.000    2.625    0.000    5.750 
#    0.000    8.125    0.000    1.125    0.000    0.000 
#    0.000    0.000    0.000    0.000    0.000    0.000 
#
# Total GULP energy -178557.012462 kJ/mol
# GULP energy per Si atom -5579.906639 kJ/mol
# Density = 1.724789 g / cm^3
# Si number density = 17.287234 Si / 1000 Ang^3
#
#
#
# Elastic Constant Matrix: (Units=GPa)
#
#
# Indices 1 2 3 4 5 6 
#
# 1 152.8463 60.0284 123.5440 0.0000 0.0000 0.0000
# 2 60.0284 43.7087 53.1609 0.0000 0.0000 0.0000
# 3 123.5440 53.1609 120.5096 0.0000 0.0000 0.0000
# 4 0.0000 0.0000 0.0000 28.0403 0.0000 0.0000
# 5 0.0000 0.0000 0.0000 0.0000 44.9176 0.0000
# 6 0.0000 0.0000 0.0000 0.0000 0.0000 29.3271
#
#
#
# Elastic Compliance Matrix: (Units=1/GPa)
#
#
# Indices 1 2 3 4 5 6 
#
# 1 0.040515 -0.011058 -0.036657 0.000000 0.000000 0.000000
# 2 -0.011058 0.052382 -0.011772 0.000000 0.000000 0.000000
# 3 -0.036657 -0.011772 0.051071 0.000000 0.000000 0.000000
# 4 0.000000 0.000000 0.000000 0.035663 0.000000 0.000000
# 5 0.000000 0.000000 0.000000 0.000000 0.022263 0.000000
# 6 0.000000 0.000000 0.000000 0.000000 0.000000 0.034098
#
#
# Mechanical properties :
#
#
# Convention : Reuss Voigt Hill
#
# Bulk Modulus (GPa) = 40.00710 87.83679 63.92195
# Shear Modulus (GPa) = 13.76290 25.81241 19.78765
#
# Velocity S-wave (km/s) = 2.82464 3.86832 3.38692
# Velocity P-wave (km/s) = 5.81644 8.41857 7.23544
#
# Compressibility (1/GPa) = 0.02499556
#
# Stress axis : x y z
#
# Youngs Moduli (GPa) = 24.68249 19.09045 19.58065
#
# Poissons Ratio (x) = 0.21109 0.71776
# Poissons Ratio (y) = 0.27293 0.23050
# Poissons Ratio (z) = 0.90478 0.22473
#
# Static dielectric constant tensor:
#      x y z
#    x 1.561100 0.000000 0.000000 
#    y 0.000000 1.576660 0.000000 
#    z 0.000000 0.000000 1.567900 
# 
# From -- ./inp_files/18942.got.cif
#   From: 2010.05.17/outbox.cif.g08.bks.cpg/sg38_10_cif.got.tgz:18942.got - 2010.06.03 18:07:57.
