data_PCOD9357945
_publ_section_title
;
Structure prediction by ZEFSAII (Michael W. Deem and Ramdas Pophale) SiO2 
 PCOD9357945
Probable space group: A M M 2
;
_chemical_formula_sum "Si O2"
_cell_formula_units_Z 64
_cell_length_a 21.231662
_cell_length_b 8.941395
_cell_length_c 18.812684
_cell_angle_alpha 90.000000
_cell_angle_beta 90.000000
_cell_angle_gamma 90.000000
_cell_volume 3571.412656
_symmetry_space_group_name_H-M "A M M 2"
_symmetry_group_IT_number 38
_symmetry_cell_setting 'orthorhombic'
loop_
_space_group_symop_operation_xyz
x,y,z
-x,-y,z
-x,y,z
x,-y,z
x,1/2+y,1/2+z
-x,1/2-y,1/2+z
-x,1/2+y,1/2+z
x,1/2-y,1/2+z
loop_
_atom_site_type_symbol
_atom_site_label
_atom_site_fract_x
_atom_site_fract_y
_atom_site_fract_z
Si Si1 0.800798 0.322614 0.005060
Si Si2 0.205996 0.676698 0.175568
Si Si3 0.682283 0.322428 0.762385
Si Si4 0.573776 0.677785 0.170797
Si Si5 0.687754 0.820942 0.917225
Si Si6 0.930582 0.178373 0.009771
Si Si7 0.068166 0.322093 0.165104
Si Si8 0.427527 0.321306 0.518088
O O1 0.797469 0.500000 0.993367
O O2 0.793931 0.297260 0.090308
O O3 0.868912 0.260733 0.980889
O O4 0.745320 0.239734 0.964107
O O5 0.218372 0.500000 0.187075
O O6 0.258648 0.771201 0.214586
O O7 0.134672 0.711069 0.201948
O O8 0.679593 0.500000 0.766612
O O9 0.619754 0.259027 0.724994
O O10 0.689091 0.251974 0.840065
O O11 0.500000 0.708263 0.185342
O O12 0.583889 0.500000 0.174083
O O13 0.587001 0.736273 0.091218
O O14 0.691592 0.000000 0.911158
O O15 0.622814 0.782818 0.957977
O O16 0.932628 0.228555 0.092407
O O17 0.000000 0.218096 0.979832
O O18 0.922924 0.000000 0.004778
O O19 0.071594 0.500000 0.146479
O O20 0.000000 0.298279 0.201246
O O21 0.500000 0.287935 0.497975
O O22 0.423209 0.500000 0.531296
#
# Coordination Sequence:
#
# PCOD9357945 Si02
#       8
#     8   8   8   8   8   8   8   8
#     4  10  20  34  54  79 107 140 179 223 269 319
#     4   9  18  33  54  79 108 141 176 218 266 317
#     4  12  25  38  54  77 108 145 183 223 265 314
#     4  10  21  38  61  86 111 140 174 214 261 313
#     4  11  23  38  56  78 108 144 180 222 269 318
#     4   9  16  26  44  73 106 137 172 216 265 316
#     4   8  14  26  46  73 103 134 170 215 267 317
#     4   9  19  37  61  87 111 136 170 213 262 316
#
# _framework density 17.920079000000001
#
# number of rings (size 3 to 8) (size 9 to 14) (size 15 to 20)
#    0.000    2.250    0.000    4.125    0.000    7.500 
#    0.000    1.250    0.000    0.750    0.000    1.750 
#    0.000    0.000    0.000    0.000    0.000    0.000 
#
# Total GULP energy -178495.109411 kJ/mol
# GULP energy per Si atom -5577.972169 kJ/mol
# Density = 1.787929 g / cm^3
# Si number density = 17.920079 Si / 1000 Ang^3
#
#
#
# Elastic Constant Matrix: (Units=GPa)
#
#
# Indices 1 2 3 4 5 6 
#
# 1 129.6778 71.9074 67.0082 0.0000 0.0000 0.0000
# 2 71.9074 77.6210 49.1576 0.0000 0.0000 0.0000
# 3 67.0082 49.1576 62.3513 0.0000 0.0000 0.0000
# 4 0.0000 0.0000 0.0000 -30.9325 0.0000 0.0000
# 5 0.0000 0.0000 0.0000 0.0000 -7.0617 0.0000
# 6 0.0000 0.0000 0.0000 0.0000 0.0000 28.5688
#
#
#
# Elastic Compliance Matrix: (Units=1/GPa)
#
#
# Indices 1 2 3 4 5 6 
#
# 1 0.020704 -0.010163 -0.014238 0.000000 0.000000 0.000000
# 2 -0.010163 0.030719 -0.013296 0.000000 0.000000 0.000000
# 3 -0.014238 -0.013296 0.041822 0.000000 0.000000 0.000000
# 4 0.000000 0.000000 0.000000 -0.032328 0.000000 0.000000
# 5 0.000000 0.000000 0.000000 0.000000 -0.141609 0.000000
# 6 0.000000 0.000000 0.000000 0.000000 0.000000 0.035003
#
#
# Mechanical properties :
#
#
# Convention : Reuss Voigt Hill
#
# Bulk Modulus (GPa) = 56.02125 71.75516 63.88820
# Shear Modulus (GPa) = 140.22842 3.55337 71.89090
#
# Velocity S-wave (km/s) = 8.85562 1.40968 6.34071
# Velocity P-wave (km/s) = 11.65728 6.54051 9.45173
#
# Compressibility (1/GPa) = 0.01785037
#
# Stress axis : x y z
#
# Youngs Moduli (GPa) = 48.29955 32.55326 23.91083
#
# Poissons Ratio (x) = 0.33085 0.34044
# Poissons Ratio (y) = 0.49088 0.31792
# Poissons Ratio (z) = 0.68768 0.43284
#
# Static dielectric constant tensor:
#      x y z
#    x 1.648200 0.000000 0.000000 
#    y 0.000000 1.593850 0.000000 
#    z 0.000000 0.000000 1.575290 
# 
# From -- ./inp_files/18926.got.cif
#   From: 2010.05.17/outbox.cif.g08.bks.cpg/sg38_10_cif.got.tgz:18926.got - 2010.06.03 18:07:57.
