data_PCOD9357133
_publ_section_title
;
Structure prediction by ZEFSAII (Michael W. Deem and Ramdas Pophale) SiO2 
 PCOD9357133
Probable space group: A M M 2
;
_chemical_formula_sum "Si O2"
_cell_formula_units_Z 64
_cell_length_a 18.834169
_cell_length_b 18.350406
_cell_length_c 9.684490
_cell_angle_alpha 90.000000
_cell_angle_beta 90.000000
_cell_angle_gamma 90.000000
_cell_volume 3347.101601
_symmetry_space_group_name_H-M "A M M 2"
_symmetry_group_IT_number 38
_symmetry_cell_setting 'orthorhombic'
loop_
_space_group_symop_operation_xyz
x,y,z
-x,-y,z
-x,y,z
x,-y,z
x,1/2+y,1/2+z
-x,1/2-y,1/2+z
-x,1/2+y,1/2+z
x,1/2-y,1/2+z
loop_
_atom_site_type_symbol
_atom_site_label
_atom_site_fract_x
_atom_site_fract_y
_atom_site_fract_z
Si Si1 0.326887 0.839910 0.543280
Si Si2 0.673622 0.332857 0.536627
Si Si3 0.193306 0.086140 0.900060
Si Si4 0.914935 0.184918 0.392788
Si Si5 0.181280 0.413250 0.077962
Si Si6 0.578100 0.667931 0.284563
Si Si7 0.580429 0.842036 0.279143
Si Si8 0.914806 0.170980 0.070549
O O1 0.308818 0.753425 0.548109
O O2 0.255869 0.884250 0.518744
O O3 0.361335 0.863530 0.687476
O O4 0.388855 0.851077 0.431878
O O5 0.739475 0.372503 0.466084
O O6 0.604548 0.338571 0.439442
O O7 0.644294 0.365949 0.678760
O O8 0.178574 0.109087 0.740609
O O9 0.206835 0.000000 0.898521
O O10 0.127085 0.105502 0.998464
O O11 0.879029 0.122306 0.483646
O O12 0.893213 0.183718 0.230909
O O13 0.897209 0.259528 0.473770
O O14 0.000000 0.177619 0.394996
O O15 0.177363 0.500000 0.072660
O O16 0.500000 0.637429 0.261945
O O17 0.575526 0.754622 0.253472
O O18 0.500000 0.870992 0.261693
O O19 0.000000 0.160835 0.067841
#
# Coordination Sequence:
#
# PCOD9357133 Si02
#       8
#     8   8   8   8   8   8   8   8
#     4  10  19  33  55  82 113 149 191 246 299 355
#     4  10  19  33  55  82 113 149 191 246 299 355
#     4  11  24  40  58  83 120 163 205 247 290 344
#     4  10  22  41  67  96 123 152 190 238 290 348
#     4  11  24  40  58  83 120 163 205 247 290 344
#     4   9  16  30  53  79 110 145 186 241 299 352
#     4   9  18  30  51  85 112 139 188 247 309 362
#     4  10  22  41  67  96 123 152 190 238 290 348
#
# _framework density 19.121020999999999
#
# number of rings (size 3 to 8) (size 9 to 14) (size 15 to 20)
#    0.000    2.000    1.250    2.250    1.750    5.500 
#    0.000    2.500    0.000    4.500    0.000    0.000 
#    0.000    0.000    0.000    0.000    0.000    0.000 
#
# Total GULP energy -178447.202724 kJ/mol
# GULP energy per Si atom -5576.475085 kJ/mol
# Density = 1.907750 g / cm^3
# Si number density = 19.121021 Si / 1000 Ang^3
#
#
#
# Elastic Constant Matrix: (Units=GPa)
#
#
# Indices 1 2 3 4 5 6 
#
# 1 36.1445 17.5941 22.9630 0.0000 0.0000 0.0000
# 2 17.5941 30.3696 8.3880 0.0000 0.0000 0.0000
# 3 22.9630 8.3880 72.3016 0.0000 0.0000 0.0000
# 4 0.0000 0.0000 0.0000 21.6513 0.0000 0.0000
# 5 0.0000 0.0000 0.0000 0.0000 -44.3569 0.0000
# 6 0.0000 0.0000 0.0000 0.0000 0.0000 -18.3201
#
#
#
# Elastic Compliance Matrix: (Units=1/GPa)
#
#
# Indices 1 2 3 4 5 6 
#
# 1 0.047018 -0.023880 -0.012162 0.000000 0.000000 0.000000
# 2 -0.023880 0.046146 0.002231 0.000000 0.000000 0.000000
# 3 -0.012162 0.002231 0.017435 0.000000 0.000000 0.000000
# 4 0.000000 0.000000 0.000000 0.046187 0.000000 0.000000
# 5 0.000000 0.000000 0.000000 0.000000 -0.022544 0.000000
# 6 0.000000 0.000000 0.000000 0.000000 0.000000 -0.054585
#
#
# Mechanical properties :
#
#
# Convention : Reuss Voigt Hill
#
# Bulk Modulus (GPa) = 23.26907 26.30065 24.78486
# Shear Modulus (GPa) = 30.93991 -2.21375 14.36308
#
# Velocity S-wave (km/s) = 4.02694 -1.07716 2.74372
# Velocity P-wave (km/s) = 5.81527 3.49824 4.79870
#
# Compressibility (1/GPa) = 0.04297551
#
# Stress axis : x y z
#
# Youngs Moduli (GPa) = 21.26866 21.67042 57.35607
#
# Poissons Ratio (x) = 0.51748 0.69759
# Poissons Ratio (y) = 0.50789 -0.12794
# Poissons Ratio (z) = 0.25868 -0.04834
#
# Static dielectric constant tensor:
#      x y z
#    x 1.696830 0.000000 0.000000 
#    y 0.000000 1.647840 0.000000 
#    z 0.000000 0.000000 1.692470 
# 
# From -- ./inp_files/6472.got.cif
#   From: 2010.05.17/outbox.cif.g08.bks.cpg/sg38_4_cif.got.tgz:6472.got - 2010.06.03 18:07:57.
