data_PCOD9357551
_publ_section_title
;
Structure prediction by ZEFSAII (Michael W. Deem and Ramdas Pophale) SiO2 
 PCOD9357551
Probable space group: A M M 2
;
_chemical_formula_sum "Si O2"
_cell_formula_units_Z 64
_cell_length_a 7.865069
_cell_length_b 16.756059
_cell_length_c 23.022897
_cell_angle_alpha 90.000000
_cell_angle_beta 90.000000
_cell_angle_gamma 90.000000
_cell_volume 3034.131424
_symmetry_space_group_name_H-M "A M M 2"
_symmetry_group_IT_number 38
_symmetry_cell_setting 'orthorhombic'
loop_
_space_group_symop_operation_xyz
x,y,z
-x,-y,z
-x,y,z
x,-y,z
x,1/2+y,1/2+z
-x,1/2-y,1/2+z
-x,1/2+y,1/2+z
x,1/2-y,1/2+z
loop_
_atom_site_type_symbol
_atom_site_label
_atom_site_fract_x
_atom_site_fract_y
_atom_site_fract_z
Si Si1 0.209277 0.231937 0.167020
Si Si2 0.697431 0.585319 0.012579
Si Si3 0.689815 0.088377 0.815623
Si Si4 0.197321 0.699080 0.415570
Si Si5 0.193328 0.410332 0.190751
Si Si6 0.802589 0.616084 0.884555
Si Si7 0.207603 0.910721 0.253009
Si Si8 0.799677 0.762109 0.040125
O O1 0.269290 0.324241 0.173309
O O2 0.263081 0.165612 0.214446
O O3 0.263913 0.207970 0.101981
O O4 0.000000 0.234397 0.169591
O O5 0.500000 0.589188 0.028955
O O6 0.768979 0.500000 0.033079
O O7 0.711108 0.585963 0.942402
O O8 0.781946 0.666002 0.035214
O O9 0.500000 0.405326 0.290689
O O10 0.710574 0.147654 0.867983
O O11 0.810381 0.097775 0.760741
O O12 0.713925 0.000000 0.839548
O O13 0.198882 0.789004 0.392096
O O14 0.272385 0.701693 0.480537
O O15 0.000000 0.672957 0.417870
O O16 0.267619 0.500000 0.178846
O O17 0.000000 0.411920 0.168156
O O18 0.736930 0.595599 0.820507
O O19 0.000000 0.590182 0.888190
O O20 0.000000 0.907454 0.253877
O O21 0.254726 0.000000 0.231453
O O22 0.000000 0.779020 0.038495
#
# Coordination Sequence:
#
# PCOD9357551 Si02
#       8
#     8   8   8   8   8   8   8   8
#     4   9  17  31  49  70  97 126 162 204 238 282
#     4  10  20  32  47  71 102 131 158 193 239 289
#     4  10  20  32  47  70  98 126 158 197 242 294
#     4   9  17  30  48  70  94 122 159 202 245 285
#     4   9  17  30  50  74  99 128 159 195 242 289
#     4   9  17  30  50  75 100 126 158 194 235 291
#     4   9  16  26  45  74 103 128 154 192 244 291
#     4   9  19  34  51  70  93 125 165 204 239 280
#
# _framework density 21.093351999999999
#
# number of rings (size 3 to 8) (size 9 to 14) (size 15 to 20)
#    0.000    2.750    0.000    2.625    0.000    6.750 
#    0.000    2.500    0.000    4.500    0.000    0.000 
#    0.000    0.000    0.000    0.000    0.000    0.000 
#
# Total GULP energy -178315.356824 kJ/mol
# GULP energy per Si atom -5572.354901 kJ/mol
# Density = 2.104534 g / cm^3
# Si number density = 21.093352 Si / 1000 Ang^3
#
#
#
# Elastic Constant Matrix: (Units=GPa)
#
#
# Indices 1 2 3 4 5 6 
#
# 1 21.9458 6.8260 -1.5975 0.0000 0.0000 0.0000
# 2 6.8260 66.0526 37.9809 0.0000 0.0000 0.0000
# 3 -1.5975 37.9809 99.2953 0.0000 0.0000 0.0000
# 4 0.0000 0.0000 0.0000 -14.9256 0.0000 0.0000
# 5 0.0000 0.0000 0.0000 0.0000 -13.9604 0.0000
# 6 0.0000 0.0000 0.0000 0.0000 0.0000 7.8141
#
#
#
# Elastic Compliance Matrix: (Units=1/GPa)
#
#
# Indices 1 2 3 4 5 6 
#
# 1 0.047969 -0.006924 0.003420 0.000000 0.000000 0.000000
# 2 -0.006924 0.020407 -0.007917 0.000000 0.000000 0.000000
# 3 0.003420 -0.007917 0.013154 0.000000 0.000000 0.000000
# 4 0.000000 0.000000 0.000000 -0.066999 0.000000 0.000000
# 5 0.000000 0.000000 0.000000 0.000000 -0.071631 0.000000
# 6 0.000000 0.000000 0.000000 0.000000 0.000000 0.127974
#
#
# Mechanical properties :
#
#
# Convention : Reuss Voigt Hill
#
# Bulk Modulus (GPa) = 17.03893 30.41248 23.72571
# Shear Modulus (GPa) = 44.13818 5.39124 24.76471
#
# Velocity S-wave (km/s) = 4.57937 1.60045 3.43016
# Velocity P-wave (km/s) = 6.00468 4.22665 5.19234
#
# Compressibility (1/GPa) = 0.05868913
#
# Stress axis : x y z
#
# Youngs Moduli (GPa) = 20.84670 49.00159 76.02010
#
# Poissons Ratio (x) = 0.33928 -0.26000
# Poissons Ratio (y) = 0.14434 0.60188
# Poissons Ratio (z) = -0.07130 0.38796
#
# Static dielectric constant tensor:
#      x y z
#    x 1.790900 0.000000 0.000000 
#    y 0.000000 1.807090 0.000000 
#    z 0.000000 0.000000 1.764040 
# 
# From -- ./inp_files/20094.got.cif
#   From: 2010.05.17/outbox.cif.g08.bks.cpg/sg38_11_cif.got.tgz:20094.got - 2010.06.03 18:07:57.
