data_PCOD9357772
_publ_section_title
;
Structure prediction by ZEFSAII (Michael W. Deem and Ramdas Pophale) SiO2 
 PCOD9357772
Probable space group: A M M 2
;
_chemical_formula_sum "Si O2"
_cell_formula_units_Z 48
_cell_length_a 9.168320
_cell_length_b 7.459004
_cell_length_c 35.409501
_cell_angle_alpha 90.000000
_cell_angle_beta 90.000000
_cell_angle_gamma 90.000000
_cell_volume 2421.533099
_symmetry_space_group_name_H-M "A M M 2"
_symmetry_group_IT_number 38
_symmetry_cell_setting 'orthorhombic'
loop_
_space_group_symop_operation_xyz
x,y,z
-x,-y,z
-x,y,z
x,-y,z
x,1/2+y,1/2+z
-x,1/2-y,1/2+z
-x,1/2+y,1/2+z
x,1/2-y,1/2+z
loop_
_atom_site_type_symbol
_atom_site_label
_atom_site_fract_x
_atom_site_fract_y
_atom_site_fract_z
Si Si1 0.833080 0.281667 0.458820
Si Si2 0.672693 0.788783 0.685178
Si Si3 0.672729 0.285407 0.381433
Si Si4 0.664614 0.786194 0.032723
Si Si5 0.174691 0.000000 0.328817
Si Si6 0.325928 0.000000 0.248350
Si Si7 0.164922 0.715305 0.109600
O O1 0.836424 0.500000 0.459942
O O2 0.737336 0.234503 0.422396
O O3 0.759962 0.217767 0.497654
O O4 0.000000 0.220821 0.455129
O O5 0.500000 0.768925 0.677202
O O6 0.705412 0.671657 0.721931
O O7 0.760357 0.724365 0.648447
O O8 0.701743 0.000000 0.691425
O O9 0.500000 0.247675 0.379712
O O10 0.692444 0.500000 0.376530
O O11 0.758939 0.172130 0.350418
O O12 0.500000 0.714456 0.032601
O O13 0.741599 0.757356 0.072690
O O14 0.654964 0.000000 0.027404
O O15 0.233206 0.000000 0.286167
O O16 0.000000 0.000000 0.330579
O O17 0.500000 0.000000 0.257171
O O18 0.159498 0.500000 0.112065
O O19 0.000000 0.783031 0.105725
#
# Coordination Sequence:
#
# PCOD9357772 Si02
#       7
#     8   8   8   8   4   4   8
#     4   9  17  32  55  83 116 152 193 241 296 354
#     4   9  19  37  60  84 113 151 193 240 293 351
#     4  10  21  40  66  91 120 161 205 250 302 362
#     4  10  20  33  52  79 111 149 195 242 287 342
#     4  12  26  42  62  94 130 160 200 252 306 368
#     4  10  22  40  62  88 118 152 198 246 294 362
#     4  10  21  36  53  77 111 148 189 238 292 349
#
# _framework density 19.822154000000001
#
# number of rings (size 3 to 8) (size 9 to 14) (size 15 to 20)
#    0.000    2.167    0.000    2.750    1.167    6.333 
#    1.500    1.667    0.000    0.000    0.000    0.000 
#    0.000    0.000    0.000    0.000    0.000    0.000 
#
# Total GULP energy -134104.014907 kJ/mol
# GULP energy per Si atom -5587.667288 kJ/mol
# Density = 1.977704 g / cm^3
# Si number density = 19.822154 Si / 1000 Ang^3
#
#
#
# Elastic Constant Matrix: (Units=GPa)
#
#
# Indices 1 2 3 4 5 6 
#
# 1 174.6722 48.7913 115.0651 0.0000 0.0000 0.0000
# 2 48.7913 74.9053 44.1717 0.0000 0.0000 0.0000
# 3 115.0651 44.1717 175.2096 0.0000 0.0000 0.0000
# 4 0.0000 0.0000 0.0000 34.5432 0.0000 0.0000
# 5 0.0000 0.0000 0.0000 0.0000 58.6403 0.0000
# 6 0.0000 0.0000 0.0000 0.0000 0.0000 14.8790
#
#
#
# Elastic Compliance Matrix: (Units=1/GPa)
#
#
# Indices 1 2 3 4 5 6 
#
# 1 0.010756 -0.003337 -0.006223 0.000000 0.000000 0.000000
# 2 -0.003337 0.016717 -0.002023 0.000000 0.000000 0.000000
# 3 -0.006223 -0.002023 0.010304 0.000000 0.000000 0.000000
# 4 0.000000 0.000000 0.000000 0.028949 0.000000 0.000000
# 5 0.000000 0.000000 0.000000 0.000000 0.017053 0.000000
# 6 0.000000 0.000000 0.000000 0.000000 0.000000 0.067209
#
#
# Mechanical properties :
#
#
# Convention : Reuss Voigt Hill
#
# Bulk Modulus (GPa) = 68.43713 93.42704 80.93208
# Shear Modulus (GPa) = 27.92918 36.06307 31.99613
#
# Velocity S-wave (km/s) = 3.75772 4.26999 4.02202
# Velocity P-wave (km/s) = 7.30943 8.45845 7.90485
#
# Compressibility (1/GPa) = 0.01461195
#
# Stress axis : x y z
#
# Youngs Moduli (GPa) = 92.96872 59.82051 97.04855
#
# Poissons Ratio (x) = 0.19961 0.60391
# Poissons Ratio (y) = 0.31022 0.19633
# Poissons Ratio (z) = 0.57852 0.12102
#
# Static dielectric constant tensor:
#      x y z
#    x 1.678330 0.000000 0.000000 
#    y 0.000000 1.738350 0.000000 
#    z 0.000000 0.000000 1.645070 
# 
# From -- ./inp_files/24369.got.cif
#   From: 2010.05.17/outbox.cif.g08.bks.cpg/sg38_13_cif.got.tgz:24369.got - 2010.06.03 18:07:57.
