data_PCOD9357640
_publ_section_title
;
Structure prediction by ZEFSAII (Michael W. Deem and Ramdas Pophale) SiO2 
 PCOD9357640
Probable space group: A M M 2
;
_chemical_formula_sum "Si O2"
_cell_formula_units_Z 56
_cell_length_a 8.850467
_cell_length_b 21.205930
_cell_length_c 19.059024
_cell_angle_alpha 90.000000
_cell_angle_beta 90.000000
_cell_angle_gamma 90.000000
_cell_volume 3577.043055
_symmetry_space_group_name_H-M "A M M 2"
_symmetry_group_IT_number 38
_symmetry_cell_setting 'orthorhombic'
loop_
_space_group_symop_operation_xyz
x,y,z
-x,-y,z
-x,y,z
x,-y,z
x,1/2+y,1/2+z
-x,1/2-y,1/2+z
-x,1/2+y,1/2+z
x,1/2-y,1/2+z
loop_
_atom_site_type_symbol
_atom_site_label
_atom_site_fract_x
_atom_site_fract_y
_atom_site_fract_z
Si Si1 0.178845 0.685644 0.718490
Si Si2 0.178996 0.500000 0.083766
Si Si3 0.318566 0.748028 0.929833
Si Si4 0.679643 0.192379 0.789973
Si Si5 0.319715 0.379984 0.157796
Si Si6 0.181964 0.123525 0.358067
Si Si7 0.319431 0.500000 0.929003
Si Si8 0.681038 0.243835 0.089215
O O1 0.226404 0.750465 0.756964
O O2 0.224411 0.633295 0.775886
O O3 0.253697 0.692159 0.642561
O O4 0.000000 0.682659 0.710074
O O5 0.230353 0.438004 0.125934
O O6 0.000000 0.500000 0.072966
O O7 0.261587 0.500000 0.008858
O O8 0.500000 0.736893 0.931529
O O9 0.291301 0.803586 0.872935
O O10 0.240968 0.684837 0.900306
O O11 0.268553 0.762369 0.008814
O O12 0.500000 0.206031 0.779765
O O13 0.710814 0.132698 0.740496
O O14 0.500000 0.390550 0.148862
O O15 0.281390 0.314311 0.117789
O O16 0.255181 0.061815 0.390845
O O17 0.000000 0.120907 0.362775
O O18 0.500000 0.500000 0.927838
O O19 0.500000 0.239296 0.091648
#
# Coordination Sequence:
#
# PCOD9357640 Si02
#       8
#     8   4   8   8   8   8   4   8
#     4   9  17  28  44  65  90 118 147 180 221 265
#     4  12  24  34  46  66  91 120 153 190 225 262
#     4   9  16  28  47  71  95 120 150 185 225 267
#     4   8  15  28  46  65  87 116 150 185 222 263
#     4   9  17  30  45  63  90 124 156 184 218 264
#     4  10  20  33  47  66  92 121 152 187 223 264
#     4  12  24  36  50  66  87 120 155 186 221 264
#     4   9  17  28  45  68  93 119 147 181 221 264
#
# _framework density 15.655389
#
# number of rings (size 3 to 8) (size 9 to 14) (size 15 to 20)
#    0.000    2.571    0.000    3.857    0.000    5.714 
#    0.000    0.000    0.000    0.000    0.000    1.000 
#    0.000    2.286    0.000    0.000    0.000    0.000 
#
# Total GULP energy -155935.637379 kJ/mol
# GULP energy per Si atom -5569.129906 kJ/mol
# Density = 1.561976 g / cm^3
# Si number density = 15.655389 Si / 1000 Ang^3
#
#
#
# Elastic Constant Matrix: (Units=GPa)
#
#
# Indices 1 2 3 4 5 6 
#
# 1 41.9160 31.6525 45.1739 0.0000 0.0000 0.0000
# 2 31.6525 62.1198 58.8997 0.0000 0.0000 0.0000
# 3 45.1739 58.8997 165.0310 0.0000 0.0000 0.0000
# 4 0.0000 0.0000 0.0000 22.7342 0.0000 0.0000
# 5 0.0000 0.0000 0.0000 0.0000 21.7470 0.0000
# 6 0.0000 0.0000 0.0000 0.0000 0.0000 7.0649
#
#
#
# Elastic Compliance Matrix: (Units=1/GPa)
#
#
# Indices 1 2 3 4 5 6 
#
# 1 0.042226 -0.015956 -0.005864 0.000000 0.000000 0.000000
# 2 -0.015956 0.030361 -0.006468 0.000000 0.000000 0.000000
# 3 -0.005864 -0.006468 0.009973 0.000000 0.000000 0.000000
# 4 0.000000 0.000000 0.000000 0.043987 0.000000 0.000000
# 5 0.000000 0.000000 0.000000 0.000000 0.045983 0.000000
# 6 0.000000 0.000000 0.000000 0.000000 0.000000 0.141546
#
#
# Mechanical properties :
#
#
# Convention : Reuss Voigt Hill
#
# Bulk Modulus (GPa) = 38.48518 60.05766 49.27142
# Shear Modulus (GPa) = 13.18173 19.19859 16.19016
#
# Velocity S-wave (km/s) = 2.90486 3.50569 3.21932
# Velocity P-wave (km/s) = 5.99058 7.40487 6.73495
#
# Compressibility (1/GPa) = 0.02598403
#
# Stress axis : x y z
#
# Youngs Moduli (GPa) = 23.68225 32.93694 100.26978
#
# Poissons Ratio (x) = 0.52554 0.58796
# Poissons Ratio (y) = 0.37787 0.64857
# Poissons Ratio (z) = 0.13887 0.21305
#
# Static dielectric constant tensor:
#      x y z
#    x 1.523050 0.000000 0.000000 
#    y 0.000000 1.495190 0.000000 
#    z 0.000000 0.000000 1.566190 
# 
# From -- ./inp_files/20192.got.cif
#   From: 2010.05.17/outbox.cif.g08.bks.cpg/sg38_11_cif.got.tgz:20192.got - 2010.06.03 18:07:57.
