data_PCOD9357999
_publ_section_title
;
Structure prediction by ZEFSAII (Michael W. Deem and Ramdas Pophale) SiO2 
 PCOD9357999
Probable space group: A M M 2
;
_chemical_formula_sum "Si O2"
_cell_formula_units_Z 40
_cell_length_a 8.771256
_cell_length_b 26.770591
_cell_length_c 9.303308
_cell_angle_alpha 90.000000
_cell_angle_beta 90.000000
_cell_angle_gamma 90.000000
_cell_volume 2184.525632
_symmetry_space_group_name_H-M "A M M 2"
_symmetry_group_IT_number 38
_symmetry_cell_setting 'orthorhombic'
loop_
_space_group_symop_operation_xyz
x,y,z
-x,-y,z
-x,y,z
x,-y,z
x,1/2+y,1/2+z
-x,1/2-y,1/2+z
-x,1/2+y,1/2+z
x,1/2-y,1/2+z
loop_
_atom_site_type_symbol
_atom_site_label
_atom_site_fract_x
_atom_site_fract_y
_atom_site_fract_z
Si Si1 0.684932 0.391920 0.616850
Si Si2 0.324975 0.000000 0.788056
Si Si3 0.683151 0.706038 0.798146
Si Si4 0.183029 0.297541 0.116691
Si Si5 0.817888 0.604781 0.298236
Si Si6 0.675305 0.000000 0.138171
O O1 0.500000 0.394785 0.606324
O O2 0.724540 0.345331 0.716360
O O3 0.748932 0.385292 0.456381
O O4 0.741649 0.445808 0.676393
O O5 0.244123 0.948665 0.745161
O O6 0.500000 0.000000 0.740937
O O7 0.324536 0.000000 0.963342
O O8 0.500000 0.710255 0.799564
O O9 0.753161 0.752360 0.712029
O O10 0.746199 0.705325 0.958948
O O11 0.223190 0.349845 0.193405
O O12 0.000000 0.294002 0.108425
O O13 0.000000 0.602302 0.310779
O O14 0.500000 0.000000 0.188956
#
# Coordination Sequence:
#
# PCOD9357999 Si02
#       6
#     8   4   8   8   8   4
#     4   9  18  33  55  82 110 142 181 227 275 321
#     4   9  17  31  54  81 110 144 180 222 270 319
#     4  11  23  38  58  83 110 143 188 237 279 329
#     4  11  24  40  57  79 111 149 185 227 283 339
#     4  10  20  34  55  82 111 145 184 224 268 326
#     4   7  12  27  50  75 104 136 170 210 262 319
#
# _framework density 18.310611000000002
#
# number of rings (size 3 to 8) (size 9 to 14) (size 15 to 20)
#    0.000    2.200    0.000    4.500    0.000    8.000 
#    0.000    1.000    0.000    1.200    0.000    0.000 
#    0.000    0.000    0.000    0.000    0.000    0.000 
#
# Total GULP energy -111613.947794 kJ/mol
# GULP energy per Si atom -5580.697390 kJ/mol
# Density = 1.826894 g / cm^3
# Si number density = 18.310611 Si / 1000 Ang^3
#
#
#
# Elastic Constant Matrix: (Units=GPa)
#
#
# Indices 1 2 3 4 5 6 
#
# 1 37.4641 53.6532 31.3766 0.0000 0.0000 0.0000
# 2 53.6532 201.0165 87.9434 0.0000 0.0000 0.0000
# 3 31.3766 87.9434 103.8593 0.0000 0.0000 0.0000
# 4 0.0000 0.0000 0.0000 29.3803 0.0000 0.0000
# 5 0.0000 0.0000 0.0000 0.0000 31.2510 0.0000
# 6 0.0000 0.0000 0.0000 0.0000 0.0000 30.0997
#
#
#
# Elastic Compliance Matrix: (Units=1/GPa)
#
#
# Indices 1 2 3 4 5 6 
#
# 1 0.045069 -0.009646 -0.005448 0.000000 0.000000 0.000000
# 2 -0.009646 0.009966 -0.005525 0.000000 0.000000 0.000000
# 3 -0.005448 -0.005525 0.015953 0.000000 0.000000 0.000000
# 4 0.000000 0.000000 0.000000 0.034036 0.000000 0.000000
# 5 0.000000 0.000000 0.000000 0.000000 0.031999 0.000000
# 6 0.000000 0.000000 0.000000 0.000000 0.000000 0.033223
#
#
# Mechanical properties :
#
#
# Convention : Reuss Voigt Hill
#
# Bulk Modulus (GPa) = 33.61300 76.47627 55.04464
# Shear Modulus (GPa) = 22.58342 29.43732 26.01037
#
# Velocity S-wave (km/s) = 3.51572 4.01392 3.77305
# Velocity P-wave (km/s) = 5.90571 7.95857 7.00772
#
# Compressibility (1/GPa) = 0.02975039
#
# Stress axis : x y z
#
# Youngs Moduli (GPa) = 22.18811 100.33615 62.68551
#
# Poissons Ratio (x) = 0.96784 0.34151
# Poissons Ratio (y) = 0.21403 0.34634
# Poissons Ratio (z) = 0.12088 0.55436
#
# Static dielectric constant tensor:
#      x y z
#    x 1.614710 0.000000 0.000000 
#    y 0.000000 1.654390 0.000000 
#    z 0.000000 0.000000 1.589470 
# 
# From -- ./inp_files/3483.got.cif
#   From: 2010.05.17/outbox.cif.g08.bks.cpg/sg38_2_cif.got.tgz:3483.got - 2010.06.03 18:07:57.
