data_PCOD9357665
_publ_section_title
;
Structure prediction by ZEFSAII (Michael W. Deem and Ramdas Pophale) SiO2 
 PCOD9357665
Probable space group: A M M 2
;
_chemical_formula_sum "Si O2"
_cell_formula_units_Z 64
_cell_length_a 8.804499
_cell_length_b 14.673123
_cell_length_c 28.917542
_cell_angle_alpha 90.000000
_cell_angle_beta 90.000000
_cell_angle_gamma 90.000000
_cell_volume 3735.842699
_symmetry_space_group_name_H-M "A M M 2"
_symmetry_group_IT_number 38
_symmetry_cell_setting 'orthorhombic'
loop_
_space_group_symop_operation_xyz
x,y,z
-x,-y,z
-x,y,z
x,-y,z
x,1/2+y,1/2+z
-x,1/2-y,1/2+z
-x,1/2+y,1/2+z
x,1/2-y,1/2+z
loop_
_atom_site_type_symbol
_atom_site_label
_atom_site_fract_x
_atom_site_fract_y
_atom_site_fract_z
Si Si1 0.318382 0.106095 0.320790
Si Si2 0.819938 0.275578 0.366201
Si Si3 0.317786 0.786087 0.134094
Si Si4 0.315222 0.397431 0.178532
Si Si5 0.318052 0.894296 0.947894
Si Si6 0.178098 0.390788 0.720655
Si Si7 0.679453 0.608811 0.284242
Si Si8 0.181291 0.893980 0.048847
O O1 0.500000 0.114491 0.319133
O O2 0.250580 0.176047 0.357563
O O3 0.250826 0.130486 0.270398
O O4 0.280020 0.000000 0.329858
O O5 0.752556 0.326736 0.410593
O O6 0.771893 0.335488 0.321706
O O7 0.000000 0.269653 0.369600
O O8 0.500000 0.789894 0.130648
O O9 0.269464 0.681724 0.143683
O O10 0.264062 0.841734 0.179114
O O11 0.244907 0.830049 0.088892
O O12 0.500000 0.399610 0.179151
O O13 0.262750 0.500000 0.167904
O O14 0.271367 0.373500 0.231345
O O15 0.500000 0.887350 0.947098
O O16 0.277610 0.000000 0.936757
O O17 0.256528 0.875232 0.999249
O O18 0.189554 0.500000 0.714324
O O19 0.000000 0.366314 0.720409
O O20 0.500000 0.632020 0.288637
O O21 0.692866 0.500000 0.291838
O O22 0.000000 0.884867 0.045259
O O23 0.215212 0.000000 0.060658
#
# Coordination Sequence:
#
# PCOD9357665 Si02
#       8
#     8   8   8   8   8   8   8   8
#     4  10  21  37  55  74 100 137 180 222 259 300
#     4  12  23  33  51  78 108 140 171 208 257 313
#     4  11  20  30  51  78 102 135 177 215 252 304
#     4   8  16  31  49  70  98 133 173 215 254 289
#     4  10  21  38  59  81 105 133 168 211 256 307
#     4  10  20  33  49  73 107 141 171 209 259 310
#     4   9  17  31  51  74 103 140 180 219 256 298
#     4  10  21  37  55  76 105 136 164 204 261 316
#
# _framework density 17.131343000000001
#
# number of rings (size 3 to 8) (size 9 to 14) (size 15 to 20)
#    0.000    2.000    0.000    5.250    0.000    7.250 
#    0.000    0.625    0.000    3.750    0.000    1.750 
#    0.000    0.000    0.000    0.000    0.000    0.000 
#
# Total GULP energy -178732.806859 kJ/mol
# GULP energy per Si atom -5585.400214 kJ/mol
# Density = 1.709235 g / cm^3
# Si number density = 17.131343 Si / 1000 Ang^3
#
#
#
# Elastic Constant Matrix: (Units=GPa)
#
#
# Indices 1 2 3 4 5 6 
#
# 1 66.0894 45.8786 44.6484 0.0000 0.0000 0.0000
# 2 45.8786 100.1105 88.6925 0.0000 0.0000 0.0000
# 3 44.6484 88.6925 108.7089 0.0000 0.0000 0.0000
# 4 0.0000 0.0000 0.0000 34.1297 0.0000 0.0000
# 5 0.0000 0.0000 0.0000 0.0000 57.2325 0.0000
# 6 0.0000 0.0000 0.0000 0.0000 0.0000 18.7977
#
#
#
# Elastic Compliance Matrix: (Units=1/GPa)
#
#
# Indices 1 2 3 4 5 6 
#
# 1 0.022455 -0.007648 -0.002983 0.000000 0.000000 0.000000
# 2 -0.007648 0.038643 -0.028386 0.000000 0.000000 0.000000
# 3 -0.002983 -0.028386 0.033583 0.000000 0.000000 0.000000
# 4 0.000000 0.000000 0.000000 0.029300 0.000000 0.000000
# 5 0.000000 0.000000 0.000000 0.000000 0.017473 0.000000
# 6 0.000000 0.000000 0.000000 0.000000 0.000000 0.053198
#
#
# Mechanical properties :
#
#
# Convention : Reuss Voigt Hill
#
# Bulk Modulus (GPa) = 60.07068 70.37198 65.22133
# Shear Modulus (GPa) = 17.97038 28.41127 23.19083
#
# Velocity S-wave (km/s) = 3.24230 4.07681 3.68327
# Velocity P-wave (km/s) = 7.01125 7.95786 7.49951
#
# Compressibility (1/GPa) = 0.01664706
#
# Stress axis : x y z
#
# Youngs Moduli (GPa) = 44.53255 25.87817 29.77664
#
# Poissons Ratio (x) = 0.19793 0.08882
# Poissons Ratio (y) = 0.34060 0.84524
# Poissons Ratio (z) = 0.13283 0.73458
#
# Static dielectric constant tensor:
#      x y z
#    x 1.568520 0.000000 0.000000 
#    y 0.000000 1.596770 0.000000 
#    z 0.000000 0.000000 1.545550 
# 
# From -- ./inp_files/22147.got.cif
#   From: 2010.05.17/outbox.cif.g08.bks.cpg/sg38_12_cif.got.tgz:22147.got - 2010.06.03 18:07:57.
