data_PCOD9357050
_publ_section_title
;
Structure prediction by ZEFSAII (Michael W. Deem and Ramdas Pophale) SiO2 
 PCOD9357050
Probable space group: A M M 2
;
_chemical_formula_sum "Si O2"
_cell_formula_units_Z 64
_cell_length_a 7.544533
_cell_length_b 29.465636
_cell_length_c 12.939207
_cell_angle_alpha 90.000000
_cell_angle_beta 90.000000
_cell_angle_gamma 90.000000
_cell_volume 2876.443466
_symmetry_space_group_name_H-M "A M M 2"
_symmetry_group_IT_number 38
_symmetry_cell_setting 'orthorhombic'
loop_
_space_group_symop_operation_xyz
x,y,z
-x,-y,z
-x,y,z
x,-y,z
x,1/2+y,1/2+z
-x,1/2-y,1/2+z
-x,1/2+y,1/2+z
x,1/2-y,1/2+z
loop_
_atom_site_type_symbol
_atom_site_label
_atom_site_fract_x
_atom_site_fract_y
_atom_site_fract_z
Si Si1 0.784920 0.951699 0.606490
Si Si2 0.787355 0.675845 0.928018
Si Si3 0.787657 0.072958 0.383648
Si Si4 0.282483 0.551930 0.442350
Si Si5 0.294326 0.193840 0.204621
Si Si6 0.295149 0.377599 0.270025
Si Si7 0.709809 0.709369 0.155794
Si Si8 0.289831 0.907923 0.160137
O O1 0.727900 0.952104 0.486855
O O2 0.711863 0.909368 0.668625
O O3 0.000000 0.948089 0.608828
O O4 0.733801 0.000000 0.654908
O O5 0.730565 0.624335 0.907237
O O6 0.715977 0.701396 0.827920
O O7 0.000000 0.677275 0.925469
O O8 0.727703 0.691799 0.039334
O O9 0.734982 0.063838 0.266012
O O10 0.000000 0.070069 0.383914
O O11 0.500000 0.551568 0.438843
O O12 0.226107 0.500000 0.420877
O O13 0.220239 0.590081 0.360319
O O14 0.224793 0.567640 0.556886
O O15 0.500000 0.191787 0.172331
O O16 0.213530 0.239844 0.159408
O O17 0.218023 0.143789 0.177483
O O18 0.500000 0.369304 0.298490
O O19 0.217279 0.329042 0.234582
O O20 0.500000 0.712963 0.179100
O O21 0.500000 0.903375 0.147096
#
# Coordination Sequence:
#
# PCOD9357050 Si02
#       8
#     8   8   8   8   8   8   8   8
#     4  10  20  34  52  75 105 139 172 212 267 323
#     4  10  19  33  53  74 103 140 173 215 269 323
#     4   9  18  33  51  73 102 136 169 211 265 315
#     4   9  18  33  52  75 105 138 173 219 272 320
#     4   9  19  34  52  77 106 138 177 223 270 321
#     4  10  20  34  54  78 104 137 179 223 268 321
#     4  10  20  33  53  79 105 138 179 225 274 325
#     4   9  18  33  54  76 101 136 176 217 263 317
#
# _framework density 22.249697999999999
#
# number of rings (size 3 to 8) (size 9 to 14) (size 15 to 20)
#    0.000    2.500    1.250    0.750    0.000    3.750 
#    0.000    4.375    0.000    0.750    0.000    0.000 
#    0.000    0.000    0.000    0.000    0.000    0.000 
#
# Total GULP energy -178432.961830 kJ/mol
# GULP energy per Si atom -5576.030057 kJ/mol
# Density = 2.219906 g / cm^3
# Si number density = 22.249698 Si / 1000 Ang^3
#
#
#
# Elastic Constant Matrix: (Units=GPa)
#
#
# Indices 1 2 3 4 5 6 
#
# 1 51.4302 0.7904 -10.7908 0.0000 0.0000 0.0000
# 2 0.7904 53.8060 17.7746 0.0000 0.0000 0.0000
# 3 -10.7908 17.7746 110.2710 0.0000 0.0000 0.0000
# 4 0.0000 0.0000 0.0000 16.5106 0.0000 0.0000
# 5 0.0000 0.0000 0.0000 0.0000 32.7811 0.0000
# 6 0.0000 0.0000 0.0000 0.0000 0.0000 11.0309
#
#
#
# Elastic Compliance Matrix: (Units=1/GPa)
#
#
# Indices 1 2 3 4 5 6 
#
# 1 0.019901 -0.000988 0.002107 0.000000 0.000000 0.000000
# 2 -0.000988 0.019680 -0.003269 0.000000 0.000000 0.000000
# 3 0.002107 -0.003269 0.009802 0.000000 0.000000 0.000000
# 4 0.000000 0.000000 0.000000 0.060567 0.000000 0.000000
# 5 0.000000 0.000000 0.000000 0.000000 0.030505 0.000000
# 6 0.000000 0.000000 0.000000 0.000000 0.000000 0.090654
#
#
# Mechanical properties :
#
#
# Convention : Reuss Voigt Hill
#
# Bulk Modulus (GPa) = 22.18204 25.67284 23.92744
# Shear Modulus (GPa) = 19.96508 25.91338 22.93923
#
# Velocity S-wave (km/s) = 2.99878 3.41642 3.21439
# Velocity P-wave (km/s) = 4.68844 5.20827 4.95518
#
# Compressibility (1/GPa) = 0.04508152
#
# Stress axis : x y z
#
# Youngs Moduli (GPa) = 50.24855 50.81385 102.02371
#
# Poissons Ratio (x) = 0.05022 -0.21494
# Poissons Ratio (y) = 0.04966 0.33350
# Poissons Ratio (z) = -0.10586 0.16610
#
# Static dielectric constant tensor:
#      x y z
#    x 1.840320 0.000000 0.000000 
#    y 0.000000 1.859920 0.000000 
#    z 0.000000 0.000000 1.805990 
# 
# From -- ./inp_files/8658.got.cif
#   From: 2010.05.17/outbox.cif.g08.bks.cpg/sg38_5_cif.got.tgz:8658.got - 2010.06.03 18:07:57.
