data_PCOD9357484
_publ_section_title
;
Structure prediction by ZEFSAII (Michael W. Deem and Ramdas Pophale) SiO2 
 PCOD9357484
Probable space group: A M M 2
;
_chemical_formula_sum "Si O2"
_cell_formula_units_Z 48
_cell_length_a 7.620066
_cell_length_b 14.359677
_cell_length_c 24.714545
_cell_angle_alpha 90.000000
_cell_angle_beta 90.000000
_cell_angle_gamma 90.000000
_cell_volume 2704.307194
_symmetry_space_group_name_H-M "A M M 2"
_symmetry_group_IT_number 38
_symmetry_cell_setting 'orthorhombic'
loop_
_space_group_symop_operation_xyz
x,y,z
-x,-y,z
-x,y,z
x,-y,z
x,1/2+y,1/2+z
-x,1/2-y,1/2+z
-x,1/2+y,1/2+z
x,1/2-y,1/2+z
loop_
_atom_site_type_symbol
_atom_site_label
_atom_site_fract_x
_atom_site_fract_y
_atom_site_fract_z
Si Si1 0.790551 0.212293 0.569590
Si Si2 0.785778 0.604974 0.627064
Si Si3 0.785343 0.604948 0.175955
Si Si4 0.209242 0.894099 0.340280
Si Si5 0.708147 0.105310 0.461538
Si Si6 0.786018 0.287632 0.735796
O O1 0.726425 0.315907 0.584685
O O2 0.728352 0.142016 0.616785
O O3 0.754856 0.172674 0.510592
O O4 0.000000 0.215862 0.575617
O O5 0.723771 0.500000 0.617806
O O6 0.737346 0.643484 0.686524
O O7 0.000000 0.602505 0.625830
O O8 0.725614 0.500000 0.186119
O O9 0.729789 0.683973 0.218624
O O10 0.000000 0.603638 0.176093
O O11 0.238220 0.862159 0.401739
O O12 0.277101 0.827572 0.292886
O O13 0.000000 0.899877 0.332470
O O14 0.279547 0.000000 0.335749
O O15 0.500000 0.098059 0.461180
O O16 0.781379 0.000000 0.469838
O O17 0.000000 0.285668 0.736699
#
# Coordination Sequence:
#
# PCOD9357484 Si02
#       6
#     8   8   8   8   8   8
#     4   9  16  26  43  65  86 110 139 169 202 243
#     4   8  13  22  39  65  92 111 130 164 208 247
#     4   8  13  21  36  61  89 110 129 160 202 243
#     4   9  16  26  42  62  81 103 134 170 204 242
#     4  10  20  31  42  58  82 111 140 172 211 249
#     4   8  13  21  36  60  86 109 132 161 201 245
#
# _framework density 17.749462000000001
#
# number of rings (size 3 to 8) (size 9 to 14) (size 15 to 20)
#    0.000    3.333    0.000    3.500    0.000    3.667 
#    0.000    0.000    0.000    5.500    0.000    4.667 
#    0.000    0.000    0.000    0.000    0.000    0.000 
#
# Total GULP energy -133709.071503 kJ/mol
# GULP energy per Si atom -5571.211313 kJ/mol
# Density = 1.770906 g / cm^3
# Si number density = 17.749462 Si / 1000 Ang^3
#
#
#
# Elastic Constant Matrix: (Units=GPa)
#
#
# Indices 1 2 3 4 5 6 
#
# 1 32.4475 7.4472 -0.2906 0.0000 0.0000 0.0000
# 2 7.4472 163.1110 109.6140 0.0000 0.0000 0.0000
# 3 -0.2906 109.6140 166.0267 0.0000 0.0000 0.0000
# 4 0.0000 0.0000 0.0000 47.8593 0.0000 0.0000
# 5 0.0000 0.0000 0.0000 0.0000 -75.1061 0.0000
# 6 0.0000 0.0000 0.0000 0.0000 0.0000 -0.8688
#
#
#
# Elastic Compliance Matrix: (Units=1/GPa)
#
#
# Indices 1 2 3 4 5 6 
#
# 1 0.031443 -0.002647 0.001803 0.000000 0.000000 0.000000
# 2 -0.002647 0.011243 -0.007428 0.000000 0.000000 0.000000
# 3 0.001803 -0.007428 0.010930 0.000000 0.000000 0.000000
# 4 0.000000 0.000000 0.000000 0.020895 0.000000 0.000000
# 5 0.000000 0.000000 0.000000 0.000000 -0.013314 0.000000
# 6 0.000000 0.000000 0.000000 0.000000 0.000000 -1.150975
#
#
# Mechanical properties :
#
#
# Convention : Reuss Voigt Hill
#
# Bulk Modulus (GPa) = 26.97446 66.12514 46.54980
# Shear Modulus (GPa) = -4.71308 10.69785 2.99239
#
# Velocity S-wave (km/s) = -1.63129 2.45769 1.29983
# Velocity P-wave (km/s) = 3.41792 6.73715 5.34188
#
# Compressibility (1/GPa) = 0.03707210
#
# Stress axis : x y z
#
# Youngs Moduli (GPa) = 31.80387 88.94338 91.49060
#
# Poissons Ratio (x) = 0.23543 -0.16492
# Poissons Ratio (y) = 0.08418 0.67955
# Poissons Ratio (z) = -0.05733 0.66063
#
# Static dielectric constant tensor:
#      x y z
#    x 1.649390 0.000000 0.000000 
#    y 0.000000 1.602400 0.000000 
#    z 0.000000 0.000000 1.603980 
# 
# From -- ./inp_files/19628.got.cif
#   From: 2010.05.17/outbox.cif.g08.bks.cpg/sg38_10_cif.got.tgz:19628.got - 2010.06.03 18:07:57.
