data_PCOD9357220
_publ_section_title
;
Structure prediction by ZEFSAII (Michael W. Deem and Ramdas Pophale) SiO2 
 PCOD9357220
Probable space group: A M M 2
;
_chemical_formula_sum "Si O2"
_cell_formula_units_Z 56
_cell_length_a 16.599085
_cell_length_b 22.264445
_cell_length_c 7.992571
_cell_angle_alpha 90.000000
_cell_angle_beta 90.000000
_cell_angle_gamma 90.000000
_cell_volume 2953.809789
_symmetry_space_group_name_H-M "A M M 2"
_symmetry_group_IT_number 38
_symmetry_cell_setting 'orthorhombic'
loop_
_space_group_symop_operation_xyz
x,y,z
-x,-y,z
-x,y,z
x,-y,z
x,1/2+y,1/2+z
-x,1/2-y,1/2+z
-x,1/2+y,1/2+z
x,1/2-y,1/2+z
loop_
_atom_site_type_symbol
_atom_site_label
_atom_site_fract_x
_atom_site_fract_y
_atom_site_fract_z
Si Si1 0.187118 0.068525 0.721580
Si Si2 0.739768 0.876096 0.383248
Si Si3 0.354547 0.689478 0.430858
Si Si4 0.090636 0.817230 0.754378
Si Si5 0.306309 0.931359 0.041893
Si Si6 0.185579 0.255758 0.972211
Si Si7 0.591410 0.185414 0.549658
O O1 0.228751 0.088786 0.547278
O O2 0.113994 0.113426 0.757580
O O3 0.161353 0.000000 0.707009
O O4 0.248364 0.072965 0.878839
O O5 0.738091 0.915631 0.216288
O O6 0.792625 0.815243 0.363656
O O7 0.650588 0.851200 0.427869
O O8 0.366635 0.624714 0.514949
O O9 0.263759 0.713181 0.469802
O O10 0.407226 0.744686 0.496817
O O11 0.369973 0.682715 0.234037
O O12 0.107766 0.783264 0.926225
O O13 0.161469 0.786347 0.646139
O O14 0.000000 0.808631 0.695076
O O15 0.337233 0.000000 0.048060
O O16 0.500000 0.163172 0.550606
#
# Coordination Sequence:
#
# PCOD9357220 Si02
#       7
#     8   8   8   8   8   8   8
#     4  10  21  38  59  84 113 153 205 247 283 347
#     4  10  20  38  62  86 115 150 198 251 292 346
#     4  11  19  37  58  86 118 155 197 244 294 356
#     4  11  21  34  54  83 118 153 188 244 309 352
#     4  11  21  35  61  87 110 150 203 247 284 339
#     4  10  19  34  55  83 111 150 194 238 293 359
#     4  11  22  36  61  91 121 152 188 252 316 356
#
# _framework density 18.958566999999999
#
# number of rings (size 3 to 8) (size 9 to 14) (size 15 to 20)
#    0.000    1.429    2.857    5.571    0.000    0.286 
#    0.000    0.714    0.000    6.857    0.000    2.000 
#    0.000    0.000    0.000    0.000    0.000    0.000 
#
# Total GULP energy -156111.224839 kJ/mol
# GULP energy per Si atom -5575.400887 kJ/mol
# Density = 1.891542 g / cm^3
# Si number density = 18.958567 Si / 1000 Ang^3
#
#
#
# Elastic Constant Matrix: (Units=GPa)
#
#
# Indices 1 2 3 4 5 6 
#
# 1 72.7112 17.6138 3.6033 0.0000 0.0000 0.0000
# 2 17.6138 129.4205 32.3001 0.0000 0.0000 0.0000
# 3 3.6033 32.3001 87.6219 0.0000 0.0000 0.0000
# 4 0.0000 0.0000 0.0000 26.6518 0.0000 0.0000
# 5 0.0000 0.0000 0.0000 0.0000 7.7953 0.0000
# 6 0.0000 0.0000 0.0000 0.0000 0.0000 14.2501
#
#
#
# Elastic Compliance Matrix: (Units=1/GPa)
#
#
# Indices 1 2 3 4 5 6 
#
# 1 0.014224 -0.001971 0.000142 0.000000 0.000000 0.000000
# 2 -0.001971 0.008783 -0.003157 0.000000 0.000000 0.000000
# 3 0.000142 -0.003157 0.012570 0.000000 0.000000 0.000000
# 4 0.000000 0.000000 0.000000 0.037521 0.000000 0.000000
# 5 0.000000 0.000000 0.000000 0.000000 0.128282 0.000000
# 6 0.000000 0.000000 0.000000 0.000000 0.000000 0.070175
#
#
# Mechanical properties :
#
#
# Convention : Reuss Voigt Hill
#
# Bulk Modulus (GPa) = 39.05518 44.08755 41.57136
# Shear Modulus (GPa) = 17.23771 25.48854 21.36313
#
# Velocity S-wave (km/s) = 3.01862 3.67063 3.36047
# Velocity P-wave (km/s) = 5.72664 6.42416 6.08540
#
# Compressibility (1/GPa) = 0.02560480
#
# Stress axis : x y z
#
# Youngs Moduli (GPa) = 70.30608 113.85875 79.55167
#
# Poissons Ratio (x) = 0.22443 -0.01127
# Poissons Ratio (y) = 0.13858 0.25111
# Poissons Ratio (z) = -0.00996 0.35940
#
# Static dielectric constant tensor:
#      x y z
#    x 1.643220 0.000000 0.000000 
#    y 0.000000 1.683350 0.000000 
#    z 0.000000 0.000000 1.732060 
# 
# From -- ./inp_files/6412.got.cif
#   From: 2010.05.17/outbox.cif.g08.bks.cpg/sg38_4_cif.got.tgz:6412.got - 2010.06.03 18:07:57.
