data_PCOD9357357
_publ_section_title
;
Structure prediction by ZEFSAII (Michael W. Deem and Ramdas Pophale) SiO2 
 PCOD9357357
Probable space group: A M M 2
;
_chemical_formula_sum "Si O2"
_cell_formula_units_Z 48
_cell_length_a 19.615437
_cell_length_b 7.735968
_cell_length_c 15.578130
_cell_angle_alpha 90.000000
_cell_angle_beta 90.000000
_cell_angle_gamma 90.000000
_cell_volume 2363.893880
_symmetry_space_group_name_H-M "A M M 2"
_symmetry_group_IT_number 38
_symmetry_cell_setting 'orthorhombic'
loop_
_space_group_symop_operation_xyz
x,y,z
-x,-y,z
-x,y,z
x,-y,z
x,1/2+y,1/2+z
-x,1/2-y,1/2+z
-x,1/2+y,1/2+z
x,1/2-y,1/2+z
loop_
_atom_site_type_symbol
_atom_site_label
_atom_site_fract_x
_atom_site_fract_y
_atom_site_fract_z
Si Si1 0.168164 0.205281 0.718860
Si Si2 0.322305 0.791140 0.272867
Si Si3 0.577032 0.292943 0.624244
Si Si4 0.329387 0.208458 0.466385
Si Si5 0.178846 0.287814 0.025290
Si Si6 0.076611 0.295011 0.878136
O O1 0.244712 0.245282 0.750086
O O2 0.160790 0.269978 0.621341
O O3 0.114313 0.273245 0.787517
O O4 0.160062 0.000000 0.716689
O O5 0.373711 0.725433 0.199817
O O6 0.339442 0.729995 0.368916
O O7 0.326066 0.000000 0.273256
O O8 0.500000 0.224899 0.628339
O O9 0.573652 0.500000 0.634884
O O10 0.612700 0.259077 0.533334
O O11 0.255419 0.267451 0.500678
O O12 0.327245 0.000000 0.464034
O O13 0.179289 0.500000 0.024820
O O14 0.125606 0.226782 0.953545
O O15 0.071545 0.500000 0.893586
O O16 0.000000 0.222984 0.878245
#
# Coordination Sequence:
#
# PCOD9357357 Si02
#       6
#     8   8   8   8   8   8
#     4  11  21  34  57  86 115 143 181 233 281 324
#     4  10  20  36  59  82 109 147 190 227 268 332
#     4  10  22  38  55  82 118 147 177 229 289 332
#     4  10  19  35  59  83 108 143 190 231 266 326
#     4   9  18  34  56  83 110 142 184 225 270 327
#     4  10  21  39  60  81 111 150 187 225 274 333
#
# _framework density 20.305479999999999
#
# number of rings (size 3 to 8) (size 9 to 14) (size 15 to 20)
#    0.000    2.000    3.333    0.500    0.000    2.667 
#    0.000    5.000    0.000    0.000    0.000    0.000 
#    0.000    0.000    0.000    0.000    0.000    0.000 
#
# Total GULP energy -134046.962659 kJ/mol
# GULP energy per Si atom -5585.290111 kJ/mol
# Density = 2.025926 g / cm^3
# Si number density = 20.305480 Si / 1000 Ang^3
#
#
#
# Elastic Constant Matrix: (Units=GPa)
#
#
# Indices 1 2 3 4 5 6 
#
# 1 120.6451 -5.4646 18.6179 0.0000 0.0000 0.0000
# 2 -5.4646 27.7106 -8.9681 0.0000 0.0000 0.0000
# 3 18.6179 -8.9681 90.4907 0.0000 0.0000 0.0000
# 4 0.0000 0.0000 0.0000 22.1854 0.0000 0.0000
# 5 0.0000 0.0000 0.0000 0.0000 21.9587 0.0000
# 6 0.0000 0.0000 0.0000 0.0000 0.0000 13.5615
#
#
#
# Elastic Compliance Matrix: (Units=1/GPa)
#
#
# Indices 1 2 3 4 5 6 
#
# 1 0.008597 0.001160 -0.001654 0.000000 0.000000 0.000000
# 2 0.001160 0.037440 0.003472 0.000000 0.000000 0.000000
# 3 -0.001654 0.003472 0.011735 0.000000 0.000000 0.000000
# 4 0.000000 0.000000 0.000000 0.045075 0.000000 0.000000
# 5 0.000000 0.000000 0.000000 0.000000 0.045540 0.000000
# 6 0.000000 0.000000 0.000000 0.000000 0.000000 0.073738
#
#
# Mechanical properties :
#
#
# Convention : Reuss Voigt Hill
#
# Bulk Modulus (GPa) = 15.69180 27.46853 21.58016
# Shear Modulus (GPa) = 21.06059 27.18522 24.12290
#
# Velocity S-wave (km/s) = 3.22403 3.66295 3.45048
# Velocity P-wave (km/s) = 4.64799 5.60773 5.15026
#
# Compressibility (1/GPa) = 0.06372757
#
# Stress axis : x y z
#
# Youngs Moduli (GPa) = 116.32619 26.70968 85.21396
#
# Poissons Ratio (x) = -0.03098 0.14092
# Poissons Ratio (y) = -0.13494 -0.29585
# Poissons Ratio (z) = 0.19237 -0.09273
#
# Static dielectric constant tensor:
#      x y z
#    x 1.692200 0.000000 0.000000 
#    y 0.000000 1.764550 0.000000 
#    z 0.000000 0.000000 1.715030 
# 
# From -- ./inp_files/10486.got.cif
#   From: 2010.05.17/outbox.cif.g08.bks.cpg/sg38_6_cif.got.tgz:10486.got - 2010.06.03 18:07:57.
