data_PCOD9357388
_publ_section_title
;
Structure prediction by ZEFSAII (Michael W. Deem and Ramdas Pophale) SiO2 
 PCOD9357388
Probable space group: A M M 2
;
_chemical_formula_sum "Si O2"
_cell_formula_units_Z 58
_cell_length_a 7.516885
_cell_length_b 22.840043
_cell_length_c 14.962840
_cell_angle_alpha 90.000000
_cell_angle_beta 90.000000
_cell_angle_gamma 90.000000
_cell_volume 2568.909798
_symmetry_space_group_name_H-M "A M M 2"
_symmetry_group_IT_number 38
_symmetry_cell_setting 'orthorhombic'
loop_
_space_group_symop_operation_xyz
x,y,z
-x,-y,z
-x,y,z
x,-y,z
x,1/2+y,1/2+z
-x,1/2-y,1/2+z
-x,1/2+y,1/2+z
x,1/2-y,1/2+z
loop_
_atom_site_type_symbol
_atom_site_label
_atom_site_fract_x
_atom_site_fract_y
_atom_site_fract_z
Si Si1 0.205640 0.099999 0.207010
Si Si2 0.782183 0.433296 0.271775
Si Si3 0.798153 0.930272 0.577040
Si Si4 0.784719 0.817881 0.861312
Si Si5 0.793915 0.233811 0.202774
Si Si6 0.500000 0.000000 0.166689
Si Si7 0.702056 0.125894 0.399303
Si Si8 0.706901 0.766713 0.508119
O O1 0.272356 0.167200 0.191446
O O2 0.342296 0.051687 0.171830
O O3 0.203452 0.096787 0.315704
O O4 0.000000 0.093645 0.174690
O O5 0.724096 0.500000 0.288761
O O6 0.726860 0.383929 0.340898
O O7 0.000000 0.434659 0.268165
O O8 0.723690 0.412070 0.173056
O O9 0.700091 0.913483 0.487518
O O10 0.000000 0.907461 0.568866
O O11 0.806317 0.000000 0.583508
O O12 0.718579 0.774152 0.782306
O O13 0.727158 0.794243 0.957064
O O14 0.000000 0.817755 0.858697
O O15 0.000000 0.225574 0.226266
O O16 0.783457 0.265340 0.106999
O O17 0.500000 0.136886 0.369320
O O18 0.783272 0.185958 0.438056
O O19 0.500000 0.781642 0.518318
#
# Coordination Sequence:
#
# PCOD9357388 Si02
#       8
#     8   8   8   8   8   2   8   8
#     4  11  24  42  66  94 125 170 221 272 333 394
#     4   8  15  30  53  82 115 152 195 247 310 369
#     4   9  18  31  51  79 112 152 197 245 299 373
#     4  10  19  35  61  89 117 156 203 256 313 374
#     4  10  22  40  65  93 122 160 214 274 325 385
#     4  12  26  44  68  90 128 172 214 276 332 402
#     4  11  22  36  52  84 125 165 205 257 321 386
#     4  11  24  37  59  88 123 164 205 260 330 393
#
# _framework density 22.577670000000001
#
# number of rings (size 3 to 8) (size 9 to 14) (size 15 to 20)
#    0.000    1.931    2.069    2.690    1.931    3.586 
#    0.000    0.690    1.517    1.241    0.000    0.000 
#    0.000    0.000    0.000    0.000    0.000    0.000 
#
# Total GULP energy -161641.909835 kJ/mol
# GULP energy per Si atom -5573.858960 kJ/mol
# Density = 2.252628 g / cm^3
# Si number density = 22.577670 Si / 1000 Ang^3
#
#
#
# Elastic Constant Matrix: (Units=GPa)
#
#
# Indices 1 2 3 4 5 6 
#
# 1 87.4175 16.2943 -10.6943 0.0000 0.0000 0.0000
# 2 16.2943 83.5293 -2.0291 0.0000 0.0000 0.0000
# 3 -10.6943 -2.0291 48.0068 0.0000 0.0000 0.0000
# 4 0.0000 0.0000 0.0000 30.0062 0.0000 0.0000
# 5 0.0000 0.0000 0.0000 0.0000 -332.9997 0.0000
# 6 0.0000 0.0000 0.0000 0.0000 0.0000 11.4822
#
#
#
# Elastic Compliance Matrix: (Units=1/GPa)
#
#
# Indices 1 2 3 4 5 6 
#
# 1 0.012191 -0.002315 0.002618 0.000000 0.000000 0.000000
# 2 -0.002315 0.012424 0.000010 0.000000 0.000000 0.000000
# 3 0.002618 0.000010 0.021414 0.000000 0.000000 0.000000
# 4 0.000000 0.000000 0.000000 0.033326 0.000000 0.000000
# 5 0.000000 0.000000 0.000000 0.000000 -0.003003 0.000000
# 6 0.000000 0.000000 0.000000 0.000000 0.000000 0.087091
#
#
# Mechanical properties :
#
#
# Convention : Reuss Voigt Hill
#
# Bulk Modulus (GPa) = 21.43422 25.12171 23.27797
# Shear Modulus (GPa) = 28.03175 -43.94342 -7.95584
#
# Velocity S-wave (km/s) = 3.52741 -4.41650 -1.87921
# Velocity P-wave (km/s) = 5.10924 3.85439 2.37150
#
# Compressibility (1/GPa) = 0.04665436
#
# Stress axis : x y z
#
# Youngs Moduli (GPa) = 82.02742 80.49214 46.69851
#
# Poissons Ratio (x) = 0.18630 -0.12225
# Poissons Ratio (y) = 0.18986 -0.00044
# Poissons Ratio (z) = -0.21474 -0.00077
#
# Static dielectric constant tensor:
#      x y z
#    x 2.095710 0.000000 0.000000 
#    y 0.000000 1.888080 0.000000 
#    z 0.000000 0.000000 1.817670 
# 
# From -- ./inp_files/12647.got.cif
#   From: 2010.05.17/outbox.cif.g08.bks.cpg/sg38_7_cif.got.tgz:12647.got - 2010.06.03 18:07:57.
