data_PCOD9357315
_publ_section_title
;
Structure prediction by ZEFSAII (Michael W. Deem and Ramdas Pophale) SiO2 
 PCOD9357315
Probable space group: A M M 2
;
_chemical_formula_sum "Si O2"
_cell_formula_units_Z 58
_cell_length_a 25.456919
_cell_length_b 7.714554
_cell_length_c 14.347928
_cell_angle_alpha 90.000000
_cell_angle_beta 90.000000
_cell_angle_gamma 90.000000
_cell_volume 2817.772022
_symmetry_space_group_name_H-M "A M M 2"
_symmetry_group_IT_number 38
_symmetry_cell_setting 'orthorhombic'
loop_
_space_group_symop_operation_xyz
x,y,z
-x,-y,z
-x,y,z
x,-y,z
x,1/2+y,1/2+z
-x,1/2-y,1/2+z
-x,1/2+y,1/2+z
x,1/2-y,1/2+z
loop_
_atom_site_type_symbol
_atom_site_label
_atom_site_fract_x
_atom_site_fract_y
_atom_site_fract_z
Si Si1 0.637712 0.700476 0.745980
Si Si2 0.154695 0.207199 0.088958
Si Si3 0.000000 0.000000 0.490860
Si Si4 0.559269 0.798731 0.596131
Si Si5 0.728172 0.287425 0.610700
Si Si6 0.351410 0.300237 0.455497
Si Si7 0.080481 0.700248 0.435503
Si Si8 0.940066 0.789031 0.221800
O O1 0.632985 0.500000 0.719031
O O2 0.588265 0.787913 0.695826
O O3 0.691552 0.765110 0.697562
O O4 0.639726 0.714213 0.856337
O O5 0.212154 0.276575 0.112183
O O6 0.106009 0.269004 0.152580
O O7 0.156858 0.000000 0.105719
O O8 0.137570 0.229047 0.981401
O O9 0.955489 0.846442 0.480504
O O10 0.500000 0.729709 0.599079
O O11 0.597483 0.711080 0.521222
O O12 0.557146 0.000000 0.569347
O O13 0.729711 0.500000 0.609164
O O14 0.696493 0.230616 0.518414
O O15 0.339955 0.500000 0.435261
O O16 0.065679 0.500000 0.459122
O O17 0.074153 0.725007 0.325197
O O18 0.000000 0.730731 0.198098
O O19 0.941483 0.000000 0.223670
#
# Coordination Sequence:
#
# PCOD9357315 Si02
#       8
#     8   8   2   8   8   8   8   8
#     4  10  20  35  59  84 114 154 196 236 284 339
#     4   9  20  36  60  85 115 149 184 231 290 340
#     4  12  22  40  60  82 120 142 190 240 274 358
#     4  10  21  37  57  84 118 150 189 240 288 339
#     4   8  17  36  56  82 113 148 189 236 285 334
#     4  10  20  35  59  84 116 157 195 235 283 337
#     4  11  22  39  61  84 112 153 187 231 291 345
#     4  10  19  35  55  81 114 147 182 231 280 341
#
# _framework density 20.583639000000002
#
# number of rings (size 3 to 8) (size 9 to 14) (size 15 to 20)
#    0.000    2.207    1.379    2.276    0.966    2.759 
#    1.241    0.000    9.103    0.000    0.000    0.000 
#    0.000    0.000    0.000    0.000    0.000    0.000 
#
# Total GULP energy -161520.939960 kJ/mol
# GULP energy per Si atom -5569.687585 kJ/mol
# Density = 2.053679 g / cm^3
# Si number density = 20.583639 Si / 1000 Ang^3
#
#
#
# Elastic Constant Matrix: (Units=GPa)
#
#
# Indices 1 2 3 4 5 6 
#
# 1 180.1771 8.8022 71.7940 0.0000 0.0000 0.0000
# 2 8.8022 64.8576 -2.0045 0.0000 0.0000 0.0000
# 3 71.7940 -2.0045 109.9456 0.0000 0.0000 0.0000
# 4 0.0000 0.0000 0.0000 16.2902 0.0000 0.0000
# 5 0.0000 0.0000 0.0000 0.0000 9.7416 0.0000
# 6 0.0000 0.0000 0.0000 0.0000 0.0000 29.4074
#
#
#
# Elastic Compliance Matrix: (Units=1/GPa)
#
#
# Indices 1 2 3 4 5 6 
#
# 1 0.007592 -0.001184 -0.004979 0.000000 0.000000 0.000000
# 2 -0.001184 0.015612 0.001058 0.000000 0.000000 0.000000
# 3 -0.004979 0.001058 0.012366 0.000000 0.000000 0.000000
# 4 0.000000 0.000000 0.000000 0.061387 0.000000 0.000000
# 5 0.000000 0.000000 0.000000 0.000000 0.102653 0.000000
# 6 0.000000 0.000000 0.000000 0.000000 0.000000 0.034005
#
#
# Mechanical properties :
#
#
# Convention : Reuss Voigt Hill
#
# Bulk Modulus (GPa) = 39.43374 56.90708 48.17041
# Shear Modulus (GPa) = 19.81941 29.51373 24.66657
#
# Velocity S-wave (km/s) = 3.10638 3.79072 3.46549
# Velocity P-wave (km/s) = 5.66265 6.84589 6.28219
#
# Compressibility (1/GPa) = 0.02535899
#
# Stress axis : x y z
#
# Youngs Moduli (GPa) = 131.71869 64.05403 80.86670
#
# Poissons Ratio (x) = 0.07586 0.40264
# Poissons Ratio (y) = 0.15599 -0.08555
# Poissons Ratio (z) = 0.65584 -0.06777
#
# Static dielectric constant tensor:
#      x y z
#    x 1.766730 0.000000 0.000000 
#    y 0.000000 1.743450 0.000000 
#    z 0.000000 0.000000 1.728760 
# 
# From -- ./inp_files/15907.got.cif
#   From: 2010.05.17/outbox.cif.g08.bks.cpg/sg38_8_cif.got.tgz:15907.got - 2010.06.03 18:07:57.
