data_PCOD9357201
_publ_section_title
;
Structure prediction by ZEFSAII (Michael W. Deem and Ramdas Pophale) SiO2 
 PCOD9357201
Probable space group: A M M 2
;
_chemical_formula_sum "Si O2"
_cell_formula_units_Z 48
_cell_length_a 17.457161
_cell_length_b 7.578565
_cell_length_c 16.518225
_cell_angle_alpha 90.000000
_cell_angle_beta 90.000000
_cell_angle_gamma 90.000000
_cell_volume 2185.364956
_symmetry_space_group_name_H-M "A M M 2"
_symmetry_group_IT_number 38
_symmetry_cell_setting 'orthorhombic'
loop_
_space_group_symop_operation_xyz
x,y,z
-x,-y,z
-x,y,z
x,-y,z
x,1/2+y,1/2+z
-x,1/2-y,1/2+z
-x,1/2+y,1/2+z
x,1/2-y,1/2+z
loop_
_atom_site_type_symbol
_atom_site_label
_atom_site_fract_x
_atom_site_fract_y
_atom_site_fract_z
Si Si1 0.678911 0.710469 0.290930
Si Si2 0.000000 0.790868 0.606027
Si Si3 0.679386 0.788025 0.110771
Si Si4 0.000000 0.216237 0.789517
Si Si5 0.166347 0.710040 0.538806
Si Si6 0.411532 0.283955 0.450438
Si Si7 0.836833 0.215919 0.856445
O O1 0.681317 0.500000 0.300367
O O2 0.650111 0.744044 0.200315
O O3 0.629971 0.775973 0.367658
O O4 0.766655 0.775054 0.300457
O O5 0.079005 0.741199 0.563330
O O6 0.000000 0.721418 0.697262
O O7 0.000000 0.000000 0.611439
O O8 0.767042 0.722193 0.097956
O O9 0.679192 0.000000 0.107179
O O10 0.631116 0.726541 0.032797
O O11 0.078764 0.274342 0.830751
O O12 0.000000 0.000000 0.791066
O O13 0.175955 0.500000 0.535985
O O14 0.179949 0.774395 0.447783
O O15 0.500000 0.230773 0.451057
O O16 0.409298 0.500000 0.450337
O O17 0.838417 0.000000 0.855226
#
# Coordination Sequence:
#
# PCOD9357201 Si02
#       7
#     8   4   8   4   8   8   8
#     4  10  19  34  57  82 108 144 188 231 273 328
#     4  11  22  33  47  77 112 139 174 227 283 322
#     4  10  20  35  56  84 113 145 185 231 281 331
#     4   9  17  27  43  69  98 127 166 215 259 302
#     4  10  19  34  55  75 100 141 189 227 265 323
#     4   9  18  35  58  82 111 148 189 230 273 332
#     4   9  16  30  52  74  96 132 184 224 254 308
#
# _framework density 21.964295
#
# number of rings (size 3 to 8) (size 9 to 14) (size 15 to 20)
#    0.000    2.333    1.667    1.750    0.000    4.000 
#    0.000    1.667    0.000    7.000    0.000    0.000 
#    0.000    0.000    0.000    0.000    0.000    0.000 
#
# Total GULP energy -134000.051110 kJ/mol
# GULP energy per Si atom -5583.335463 kJ/mol
# Density = 2.191430 g / cm^3
# Si number density = 21.964295 Si / 1000 Ang^3
#
#
#
# Elastic Constant Matrix: (Units=GPa)
#
#
# Indices 1 2 3 4 5 6 
#
# 1 149.9011 3.7280 81.2821 0.0000 0.0000 0.0000
# 2 3.7280 44.3258 1.6999 0.0000 0.0000 0.0000
# 3 81.2821 1.6999 182.4492 0.0000 0.0000 0.0000
# 4 0.0000 0.0000 0.0000 15.6351 0.0000 0.0000
# 5 0.0000 0.0000 0.0000 0.0000 17.6375 0.0000
# 6 0.0000 0.0000 0.0000 0.0000 0.0000 -4.8156
#
#
#
# Elastic Compliance Matrix: (Units=1/GPa)
#
#
# Indices 1 2 3 4 5 6 
#
# 1 0.008811 -0.000591 -0.003920 0.000000 0.000000 0.000000
# 2 -0.000591 0.022608 0.000053 0.000000 0.000000 0.000000
# 3 -0.003920 0.000053 0.007227 0.000000 0.000000 0.000000
# 4 0.000000 0.000000 0.000000 0.063959 0.000000 0.000000
# 5 0.000000 0.000000 0.000000 0.000000 0.056697 0.000000
# 6 0.000000 0.000000 0.000000 0.000000 0.000000 -0.207659
#
#
# Mechanical properties :
#
#
# Convention : Reuss Voigt Hill
#
# Bulk Modulus (GPa) = 33.63638 61.12176 47.37907
# Shear Modulus (GPa) = -169.31680 25.02248 -72.14716
#
# Velocity S-wave (km/s) = -8.78946 3.37892 -5.73749
# Velocity P-wave (km/s) = 9.36263 6.56589 4.71953
#
# Compressibility (1/GPa) = 0.02972972
#
# Stress axis : x y z
#
# Youngs Moduli (GPa) = 113.49035 44.23233 138.37262
#
# Poissons Ratio (x) = 0.02613 0.54242
# Poissons Ratio (y) = 0.06704 -0.00727
# Poissons Ratio (z) = 0.44488 -0.00232
#
# Static dielectric constant tensor:
#      x y z
#    x 1.778940 0.000000 0.000000 
#    y 0.000000 1.835030 0.000000 
#    z 0.000000 0.000000 1.798580 
# 
# From -- ./inp_files/15016.got.cif
#   From: 2010.05.17/outbox.cif.g08.bks.cpg/sg38_8_cif.got.tgz:15016.got - 2010.06.03 18:07:57.
