data_PCOD9357470
_publ_section_title
;
Structure prediction by ZEFSAII (Michael W. Deem and Ramdas Pophale) SiO2 
 PCOD9357470
Probable space group: A M M 2
;
_chemical_formula_sum "Si O2"
_cell_formula_units_Z 56
_cell_length_a 21.369570
_cell_length_b 8.916984
_cell_length_c 15.722252
_cell_angle_alpha 90.000000
_cell_angle_beta 90.000000
_cell_angle_gamma 90.000000
_cell_volume 2995.908352
_symmetry_space_group_name_H-M "A M M 2"
_symmetry_group_IT_number 38
_symmetry_cell_setting 'orthorhombic'
loop_
_space_group_symop_operation_xyz
x,y,z
-x,-y,z
-x,y,z
x,-y,z
x,1/2+y,1/2+z
-x,1/2-y,1/2+z
-x,1/2+y,1/2+z
x,1/2-y,1/2+z
loop_
_atom_site_type_symbol
_atom_site_label
_atom_site_fract_x
_atom_site_fract_y
_atom_site_fract_z
Si Si1 0.634805 0.821066 0.801370
Si Si2 0.628316 0.821392 0.476911
Si Si3 0.925371 0.322221 0.292321
Si Si4 0.500000 0.321367 0.537924
Si Si5 0.282286 0.820293 0.635580
Si Si6 0.925425 0.177945 0.474465
Si Si7 0.500000 0.679862 0.224727
Si Si8 0.146006 0.321187 0.633392
O O1 0.652985 0.733829 0.886140
O O2 0.678341 0.786603 0.720691
O O3 0.563169 0.784813 0.775717
O O4 0.637944 0.000000 0.816772
O O5 0.562165 0.742325 0.494136
O O6 0.675243 0.783676 0.553774
O O7 0.619344 0.000000 0.477370
O O8 0.912696 0.500000 0.293356
O O9 0.909439 0.250156 0.383416
O O10 0.888203 0.244737 0.216416
O O11 0.000000 0.301472 0.279073
O O12 0.500000 0.500000 0.533874
O O13 0.500000 0.264142 0.635120
O O14 0.217494 0.733223 0.633905
O O15 0.270469 0.000000 0.634329
O O16 0.887956 0.254636 0.550362
O O17 0.000000 0.199666 0.487927
O O18 0.913221 0.000000 0.473161
O O19 0.500000 0.500000 0.207649
O O20 0.141931 0.500000 0.633130
#
# Coordination Sequence:
#
# PCOD9357470 Si02
#       8
#     8   8   8   4   8   8   4   8
#     4  10  21  39  64  90 119 155 194 244 302 358
#     4  11  23  41  64  89 118 155 198 246 300 357
#     4  10  21  39  64  93 124 158 199 249 303 360
#     4  12  23  36  61  92 122 154 193 245 298 355
#     4  10  23  43  62  82 118 164 203 249 302 353
#     4  10  21  39  64  93 124 158 200 252 305 357
#     4  10  19  38  63  88 120 154 191 239 302 357
#     4  12  25  39  60  89 124 165 206 249 298 359
#
# _framework density 18.692160000000001
#
# number of rings (size 3 to 8) (size 9 to 14) (size 15 to 20)
#    0.000    1.429    1.429    4.071    0.000    7.429 
#    0.000    2.857    0.000    0.000    0.000    0.000 
#    0.000    0.000    0.000    0.000    0.000    0.000 
#
# Total GULP energy -156589.917501 kJ/mol
# GULP energy per Si atom -5592.497054 kJ/mol
# Density = 1.864962 g / cm^3
# Si number density = 18.692160 Si / 1000 Ang^3
#
#
#
# Elastic Constant Matrix: (Units=GPa)
#
#
# Indices 1 2 3 4 5 6 
#
# 1 106.0771 86.4043 94.0052 0.0000 0.0000 0.0000
# 2 86.4043 109.8286 96.9378 0.0000 0.0000 0.0000
# 3 94.0052 96.9378 185.8856 0.0000 0.0000 0.0000
# 4 0.0000 0.0000 0.0000 36.6849 0.0000 0.0000
# 5 0.0000 0.0000 0.0000 0.0000 4.5349 0.0000
# 6 0.0000 0.0000 0.0000 0.0000 0.0000 24.5441
#
#
#
# Elastic Compliance Matrix: (Units=1/GPa)
#
#
# Indices 1 2 3 4 5 6 
#
# 1 0.028601 -0.018037 -0.005058 0.000000 0.000000 0.000000
# 2 -0.018037 0.028245 -0.005608 0.000000 0.000000 0.000000
# 3 -0.005058 -0.005608 0.010862 0.000000 0.000000 0.000000
# 4 0.000000 0.000000 0.000000 0.027259 0.000000 0.000000
# 5 0.000000 0.000000 0.000000 0.000000 0.220513 0.000000
# 6 0.000000 0.000000 0.000000 0.000000 0.000000 0.040743
#
#
# Mechanical properties :
#
#
# Convention : Reuss Voigt Hill
#
# Bulk Modulus (GPa) = 97.06355 106.27621 101.66988
# Shear Modulus (GPa) = 11.98859 21.44904 16.71882
#
# Velocity S-wave (km/s) = 2.53528 3.39114 2.99395
# Velocity P-wave (km/s) = 7.78526 8.50368 8.15239
#
# Compressibility (1/GPa) = 0.01030253
#
# Stress axis : x y z
#
# Youngs Moduli (GPa) = 34.96344 35.40486 92.06355
#
# Poissons Ratio (x) = 0.63859 0.46566
# Poissons Ratio (y) = 0.63063 0.51628
# Poissons Ratio (z) = 0.17685 0.19855
#
# Static dielectric constant tensor:
#      x y z
#    x 1.622150 0.000000 0.000000 
#    y 0.000000 1.620110 0.000000 
#    z 0.000000 0.000000 1.625550 
# 
# From -- ./inp_files/15582.got.cif
#   From: 2010.05.17/outbox.cif.g08.bks.cpg/sg38_8_cif.got.tgz:15582.got - 2010.06.03 18:07:57.
