data_PCOD9357247
_publ_section_title
;
Structure prediction by ZEFSAII (Michael W. Deem and Ramdas Pophale) SiO2 
 PCOD9357247
Probable space group: A M M 2
;
_chemical_formula_sum "Si O2"
_cell_formula_units_Z 64
_cell_length_a 20.031524
_cell_length_b 8.962981
_cell_length_c 20.527057
_cell_angle_alpha 90.000000
_cell_angle_beta 90.000000
_cell_angle_gamma 90.000000
_cell_volume 3685.472337
_symmetry_space_group_name_H-M "A M M 2"
_symmetry_group_IT_number 38
_symmetry_cell_setting 'orthorhombic'
loop_
_space_group_symop_operation_xyz
x,y,z
-x,-y,z
-x,y,z
x,-y,z
x,1/2+y,1/2+z
-x,1/2-y,1/2+z
-x,1/2+y,1/2+z
x,1/2-y,1/2+z
loop_
_atom_site_type_symbol
_atom_site_label
_atom_site_fract_x
_atom_site_fract_y
_atom_site_fract_z
Si Si1 0.844466 0.676379 0.241160
Si Si2 0.317806 0.178991 0.068497
Si Si3 0.078540 0.677479 0.624644
Si Si4 0.178281 0.820933 0.522314
Si Si5 0.688715 0.177200 0.706267
Si Si6 0.656689 0.177336 0.340053
Si Si7 0.577025 0.820929 0.956164
Si Si8 0.811298 0.322806 0.873222
O O1 0.856875 0.500000 0.237946
O O2 0.893587 0.762906 0.193293
O O3 0.768397 0.703444 0.216375
O O4 0.846455 0.734135 0.315168
O O5 0.248247 0.249451 0.044413
O O6 0.332367 0.243501 0.139858
O O7 0.311511 0.000000 0.071414
O O8 0.375435 0.218177 0.016850
O O9 0.089439 0.500000 0.620502
O O10 0.120679 0.758482 0.568503
O O11 0.000000 0.707783 0.618620
O O12 0.166713 0.784834 0.446269
O O13 0.183077 0.000000 0.528769
O O14 0.653461 0.244705 0.769843
O O15 0.678449 0.000000 0.702537
O O16 0.605173 0.242486 0.391821
O O17 0.731760 0.206689 0.367106
O O18 0.649080 0.000000 0.333286
O O19 0.500000 0.781946 0.968069
O O20 0.581432 0.000000 0.947377
O O21 0.820862 0.500000 0.862874
#
# Coordination Sequence:
#
# PCOD9357247 Si02
#       8
#     8   8   8   8   8   8   8   8
#     4  10  20  34  56  84 112 145 186 232 281 335
#     4  11  21  34  57  85 114 151 192 238 288 339
#     4  11  24  40  58  82 115 154 193 234 285 344
#     4  11  21  36  58  86 116 148 188 237 287 340
#     4  10  20  34  55  84 115 145 185 235 285 335
#     4  10  19  34  56  83 113 146 188 234 282 338
#     4  10  22  39  57  81 116 155 193 235 288 347
#     4   9  19  34  55  83 115 145 182 232 283 333
#
# _framework density 17.365480999999999
#
# number of rings (size 3 to 8) (size 9 to 14) (size 15 to 20)
#    0.000    1.750    2.500    2.250    0.000    4.250 
#    0.000    1.250    0.000    3.000    0.000    0.000 
#    0.000    0.000    0.000    0.000    0.000    0.000 
#
# Total GULP energy -178730.156383 kJ/mol
# GULP energy per Si atom -5585.317387 kJ/mol
# Density = 1.732596 g / cm^3
# Si number density = 17.365481 Si / 1000 Ang^3
#
#
#
# Elastic Constant Matrix: (Units=GPa)
#
#
# Indices 1 2 3 4 5 6 
#
# 1 97.3061 63.7401 79.9728 0.0000 0.0000 0.0000
# 2 63.7401 68.5703 76.5466 0.0000 0.0000 0.0000
# 3 79.9728 76.5466 172.1913 0.0000 0.0000 0.0000
# 4 0.0000 0.0000 0.0000 37.0893 0.0000 0.0000
# 5 0.0000 0.0000 0.0000 0.0000 24.0802 0.0000
# 6 0.0000 0.0000 0.0000 0.0000 0.0000 20.2369
#
#
#
# Elastic Compliance Matrix: (Units=1/GPa)
#
#
# Indices 1 2 3 4 5 6 
#
# 1 0.026911 -0.021961 -0.002736 0.000000 0.000000 0.000000
# 2 -0.021961 0.046872 -0.010637 0.000000 0.000000 0.000000
# 3 -0.002736 -0.010637 0.011807 0.000000 0.000000 0.000000
# 4 0.000000 0.000000 0.000000 0.026962 0.000000 0.000000
# 5 0.000000 0.000000 0.000000 0.000000 0.041528 0.000000
# 6 0.000000 0.000000 0.000000 0.000000 0.000000 0.049415
#
#
# Mechanical properties :
#
#
# Convention : Reuss Voigt Hill
#
# Bulk Modulus (GPa) = 67.01653 86.50964 76.76309
# Shear Modulus (GPa) = 17.91238 24.13516 21.02377
#
# Velocity S-wave (km/s) = 3.21517 3.73209 3.48324
# Velocity P-wave (km/s) = 7.24284 8.27626 7.77674
#
# Compressibility (1/GPa) = 0.01492169
#
# Stress axis : x y z
#
# Youngs Moduli (GPa) = 37.15949 21.33463 84.69727
#
# Poissons Ratio (x) = 0.46854 0.23172
# Poissons Ratio (y) = 0.81607 0.90092
# Poissons Ratio (z) = 0.10166 0.22694
#
# Static dielectric constant tensor:
#      x y z
#    x 1.566450 0.000000 0.000000 
#    y 0.000000 1.576420 0.000000 
#    z 0.000000 0.000000 1.576700 
# 
# From -- ./inp_files/21362.got.cif
#   From: 2010.05.17/outbox.cif.g08.bks.cpg/sg38_11_cif.got.tgz:21362.got - 2010.06.03 18:07:57.
