data_PCOD9357946
_publ_section_title
;
Structure prediction by ZEFSAII (Michael W. Deem and Ramdas Pophale) SiO2 
 PCOD9357946
Probable space group: A M M 2
;
_chemical_formula_sum "Si O2"
_cell_formula_units_Z 56
_cell_length_a 14.533146
_cell_length_b 8.844096
_cell_length_c 26.223488
_cell_angle_alpha 90.000000
_cell_angle_beta 90.000000
_cell_angle_gamma 90.000000
_cell_volume 3370.571478
_symmetry_space_group_name_H-M "A M M 2"
_symmetry_group_IT_number 38
_symmetry_cell_setting 'orthorhombic'
loop_
_space_group_symop_operation_xyz
x,y,z
-x,-y,z
-x,y,z
x,-y,z
x,1/2+y,1/2+z
-x,1/2-y,1/2+z
-x,1/2+y,1/2+z
x,1/2-y,1/2+z
loop_
_atom_site_type_symbol
_atom_site_label
_atom_site_fract_x
_atom_site_fract_y
_atom_site_fract_z
Si Si1 0.212611 0.680055 0.226220
Si Si2 0.109004 0.180013 0.130557
Si Si3 0.891624 0.819602 0.520767
Si Si4 0.603812 0.180271 0.874985
Si Si5 0.394364 0.820019 0.263286
Si Si6 0.109465 0.819614 0.323927
Si Si7 0.206055 0.818959 0.923331
O O1 0.207717 0.500000 0.228935
O O2 0.165951 0.740536 0.174926
O O3 0.317607 0.735541 0.230775
O O4 0.159028 0.750519 0.274599
O O5 0.132408 0.244370 0.074814
O O6 0.000000 0.208623 0.138858
O O7 0.123527 0.000000 0.132083
O O8 0.832802 0.753750 0.474569
O O9 0.000000 0.787515 0.510945
O O10 0.880879 0.000000 0.524046
O O11 0.500000 0.212033 0.893504
O O12 0.617647 0.267767 0.821958
O O13 0.686507 0.216707 0.913068
O O14 0.609515 0.000000 0.864003
O O15 0.500000 0.784250 0.249127
O O16 0.381256 0.000000 0.259864
O O17 0.150748 0.745306 0.374769
O O18 0.000000 0.793416 0.321213
O O19 0.125291 0.000000 0.325231
O O20 0.195497 0.000000 0.925284
#
# Coordination Sequence:
#
# PCOD9357946 Si02
#       7
#     8   8   8   8   8   8   8
#     4  12  23  35  54  80 110 144 178 219 270 325
#     4  10  21  38  59  81 106 139 181 228 272 319
#     4  10  21  37  56  78 106 142 182 224 269 320
#     4   9  18  33  52  76 107 141 178 220 268 321
#     4  10  20  34  54  79 107 141 181 223 267 319
#     4  11  23  36  50  73 108 146 180 219 268 321
#     4  11  21  33  53  80 108 142 179 221 271 323
#
# _framework density 16.614394000000001
#
# number of rings (size 3 to 8) (size 9 to 14) (size 15 to 20)
#    0.000    1.571    1.429    4.286    0.000    7.714 
#    0.000    0.000    0.000    0.857    0.000    2.000 
#    0.000    0.000    0.000    0.000    0.000    0.000 
#
# Total GULP energy -156424.524990 kJ/mol
# GULP energy per Si atom -5586.590178 kJ/mol
# Density = 1.657658 g / cm^3
# Si number density = 16.614394 Si / 1000 Ang^3
#
#
#
# Elastic Constant Matrix: (Units=GPa)
#
#
# Indices 1 2 3 4 5 6 
#
# 1 110.0220 65.6410 75.8611 0.0000 0.0000 0.0000
# 2 65.6410 77.4420 54.1425 0.0000 0.0000 0.0000
# 3 75.8611 54.1425 119.7261 0.0000 0.0000 0.0000
# 4 0.0000 0.0000 0.0000 33.9202 0.0000 0.0000
# 5 0.0000 0.0000 0.0000 0.0000 18.2189 0.0000
# 6 0.0000 0.0000 0.0000 0.0000 0.0000 25.8447
#
#
#
# Elastic Compliance Matrix: (Units=1/GPa)
#
#
# Indices 1 2 3 4 5 6 
#
# 1 0.023034 -0.013629 -0.008432 0.000000 0.000000 0.000000
# 2 -0.013629 0.026948 -0.003550 0.000000 0.000000 0.000000
# 3 -0.008432 -0.003550 0.015300 0.000000 0.000000 0.000000
# 4 0.000000 0.000000 0.000000 0.029481 0.000000 0.000000
# 5 0.000000 0.000000 0.000000 0.000000 0.054888 0.000000
# 6 0.000000 0.000000 0.000000 0.000000 0.000000 0.038693
#
#
# Mechanical properties :
#
#
# Convention : Reuss Voigt Hill
#
# Bulk Modulus (GPa) = 71.12567 77.60882 74.36725
# Shear Modulus (GPa) = 20.47060 23.03313 21.75186
#
# Velocity S-wave (km/s) = 3.51394 3.72739 3.62224
# Velocity P-wave (km/s) = 7.70495 8.08318 7.89633
#
# Compressibility (1/GPa) = 0.01405962
#
# Stress axis : x y z
#
# Youngs Moduli (GPa) = 43.41372 37.10919 65.35803
#
# Poissons Ratio (x) = 0.50577 0.55107
# Poissons Ratio (y) = 0.59170 0.23204
# Poissons Ratio (z) = 0.36604 0.13175
#
# Static dielectric constant tensor:
#      x y z
#    x 1.569230 0.000000 0.000000 
#    y 0.000000 1.552210 0.000000 
#    z 0.000000 0.000000 1.515090 
# 
# From -- ./inp_files/21042.got.cif
#   From: 2010.05.17/outbox.cif.g08.bks.cpg/sg38_11_cif.got.tgz:21042.got - 2010.06.03 18:07:57.
