data_PCOD9357673
_publ_section_title
;
Structure prediction by ZEFSAII (Michael W. Deem and Ramdas Pophale) SiO2 
 PCOD9357673
Probable space group: A M M 2
;
_chemical_formula_sum "Si O2"
_cell_formula_units_Z 64
_cell_length_a 8.910403
_cell_length_b 14.034729
_cell_length_c 29.897643
_cell_angle_alpha 90.000000
_cell_angle_beta 90.000000
_cell_angle_gamma 90.000000
_cell_volume 3738.852478
_symmetry_space_group_name_H-M "A M M 2"
_symmetry_group_IT_number 38
_symmetry_cell_setting 'orthorhombic'
loop_
_space_group_symop_operation_xyz
x,y,z
-x,-y,z
-x,y,z
x,-y,z
x,1/2+y,1/2+z
-x,1/2-y,1/2+z
-x,1/2+y,1/2+z
x,1/2-y,1/2+z
loop_
_atom_site_type_symbol
_atom_site_label
_atom_site_fract_x
_atom_site_fract_y
_atom_site_fract_z
Si Si1 0.824694 0.106665 0.875000
Si Si2 0.322168 0.303839 0.870606
Si Si3 0.327441 0.757617 0.208814
Si Si4 0.335063 0.602694 0.285545
Si Si5 0.830956 0.886868 0.454858
Si Si6 0.820807 0.386813 0.779403
Si Si7 0.179818 0.611601 0.139291
Si Si8 0.670717 0.384905 0.044290
O O1 0.729220 0.198919 0.887439
O O2 0.795301 0.106013 0.821583
O O3 0.000000 0.119899 0.884817
O O4 0.779339 0.000000 0.890668
O O5 0.500000 0.309307 0.866275
O O6 0.260237 0.370816 0.909612
O O7 0.250614 0.333698 0.822764
O O8 0.500000 0.781182 0.196759
O O9 0.330063 0.684101 0.250024
O O10 0.243179 0.846171 0.232343
O O11 0.249254 0.694398 0.170391
O O12 0.500000 0.607997 0.308734
O O13 0.328261 0.500000 0.262584
O O14 0.747657 0.848258 0.498913
O O15 0.000000 0.847929 0.450470
O O16 0.843231 0.000000 0.461357
O O17 0.790519 0.500000 0.783299
O O18 0.000000 0.371686 0.780706
O O19 0.225923 0.500000 0.149437
O O20 0.233481 0.632571 0.088769
O O21 0.000000 0.614308 0.142709
O O22 0.500000 0.349848 0.049007
O O23 0.662774 0.500000 0.040486
#
# Coordination Sequence:
#
# PCOD9357673 Si02
#       8
#     8   8   8   8   8   8   8   8
#     4  10  20  33  50  71  97 131 169 209 254 303
#     4  12  23  35  53  77 104 137 177 218 260 309
#     4  11  21  33  51  75 101 134 173 213 256 305
#     4   9  17  29  45  67  96 128 162 201 247 296
#     4  10  20  34  53  77 106 140 177 217 261 310
#     4  11  24  40  55  72  99 135 175 221 267 309
#     4  10  20  33  51  77 110 145 177 211 255 310
#     4   9  17  31  51  76 107 139 172 213 261 311
#
# _framework density 17.117553000000001
#
# number of rings (size 3 to 8) (size 9 to 14) (size 15 to 20)
#    0.000    1.750    1.250    4.125    0.000    7.250 
#    0.000    1.250    0.000    0.000    0.000    0.875 
#    0.000    7.000    0.000    0.000    0.000    0.000 
#
# Total GULP energy -178254.467354 kJ/mol
# GULP energy per Si atom -5570.452105 kJ/mol
# Density = 1.707859 g / cm^3
# Si number density = 17.117553 Si / 1000 Ang^3
#
#
#
# Elastic Constant Matrix: (Units=GPa)
#
#
# Indices 1 2 3 4 5 6 
#
# 1 106.3175 35.3719 39.2932 0.0000 0.0000 0.0000
# 2 35.3719 57.7093 19.6855 0.0000 0.0000 0.0000
# 3 39.2932 19.6855 84.9351 0.0000 0.0000 0.0000
# 4 0.0000 0.0000 0.0000 16.9601 0.0000 0.0000
# 5 0.0000 0.0000 0.0000 0.0000 26.7301 0.0000
# 6 0.0000 0.0000 0.0000 0.0000 0.0000 21.0790
#
#
#
# Elastic Compliance Matrix: (Units=1/GPa)
#
#
# Indices 1 2 3 4 5 6 
#
# 1 0.013305 -0.006575 -0.004631 0.000000 0.000000 0.000000
# 2 -0.006575 0.022065 -0.002072 0.000000 0.000000 0.000000
# 3 -0.004631 -0.002072 0.014397 0.000000 0.000000 0.000000
# 4 0.000000 0.000000 0.000000 0.058962 0.000000 0.000000
# 5 0.000000 0.000000 0.000000 0.000000 0.037411 0.000000
# 6 0.000000 0.000000 0.000000 0.000000 0.000000 0.047441
#
#
# Mechanical properties :
#
#
# Convention : Reuss Voigt Hill
#
# Bulk Modulus (GPa) = 43.08618 48.62923 45.85771
# Shear Modulus (GPa) = 21.94191 23.26125 22.60158
#
# Velocity S-wave (km/s) = 3.58416 3.69034 3.63764
# Velocity P-wave (km/s) = 6.50797 6.82853 6.67018
#
# Compressibility (1/GPa) = 0.02320930
#
# Stress axis : x y z
#
# Youngs Moduli (GPa) = 75.15951 45.32006 69.46114
#
# Poissons Ratio (x) = 0.29799 0.32170
# Poissons Ratio (y) = 0.49419 0.14394
# Poissons Ratio (z) = 0.34809 0.09391
#
# Static dielectric constant tensor:
#      x y z
#    x 1.593850 0.000000 0.000000 
#    y 0.000000 1.626330 0.000000 
#    z 0.000000 0.000000 1.562330 
# 
# From -- ./inp_files/24768.got.cif
#   From: 2010.05.17/outbox.cif.g08.bks.cpg/sg38_13_cif.got.tgz:24768.got - 2010.06.03 18:07:57.
