data_PCOD9357580
_publ_section_title
;
Structure prediction by ZEFSAII (Michael W. Deem and Ramdas Pophale) SiO2 
 PCOD9357580
Probable space group: A M M 2
;
_chemical_formula_sum "Si O2"
_cell_formula_units_Z 48
_cell_length_a 9.423104
_cell_length_b 7.571221
_cell_length_c 35.700509
_cell_angle_alpha 90.000000
_cell_angle_beta 90.000000
_cell_angle_gamma 90.000000
_cell_volume 2547.031497
_symmetry_space_group_name_H-M "A M M 2"
_symmetry_group_IT_number 38
_symmetry_cell_setting 'orthorhombic'
loop_
_space_group_symop_operation_xyz
x,y,z
-x,-y,z
-x,y,z
x,-y,z
x,1/2+y,1/2+z
-x,1/2-y,1/2+z
-x,1/2+y,1/2+z
x,1/2-y,1/2+z
loop_
_atom_site_type_symbol
_atom_site_label
_atom_site_fract_x
_atom_site_fract_y
_atom_site_fract_z
Si Si1 0.327364 0.702117 0.626400
Si Si2 0.160196 0.711077 0.970337
Si Si3 0.831917 0.708102 0.824415
Si Si4 0.337252 0.715683 0.898898
Si Si5 0.169225 0.500000 0.263198
Si Si6 0.671656 0.500000 0.184832
Si Si7 0.338486 0.212414 0.043912
O O1 0.500000 0.699671 0.625186
O O2 0.279321 0.500000 0.631678
O O3 0.286362 0.830258 0.659930
O O4 0.285720 0.770172 0.585006
O O5 0.151320 0.500000 0.965417
O O6 0.252522 0.778565 0.935447
O O7 0.000000 0.781442 0.970430
O O8 0.239088 0.742203 0.009417
O O9 0.805779 0.500000 0.817230
O O10 0.742902 0.764117 0.860738
O O11 0.000000 0.728592 0.832608
O O12 0.798274 0.829469 0.788902
O O13 0.500000 0.774509 0.899369
O O14 0.338081 0.500000 0.899798
O O15 0.255383 0.500000 0.224943
O O16 0.000000 0.500000 0.255694
O O17 0.500000 0.500000 0.188642
O O18 0.500000 0.277590 0.037574
O O19 0.345799 0.000000 0.046418
#
# Coordination Sequence:
#
# PCOD9357580 Si02
#       7
#     8   8   8   8   4   4   8
#     4   8  16  32  53  78 106 136 174 220 267 318
#     4  10  20  32  48  74 107 142 179 218 261 316
#     4   9  18  35  57  76 101 140 177 213 264 322
#     4   9  17  31  52  77 103 134 176 221 263 309
#     4  10  22  38  54  80 112 138 172 218 266 322
#     4  10  20  34  56  82 106 138 176 216 268 322
#     4   9  18  33  52  74 101 134 177 225 269 314
#
# _framework density 18.845468
#
# number of rings (size 3 to 8) (size 9 to 14) (size 15 to 20)
#    0.000    2.833    0.000    2.000    1.167    4.667 
#    1.500    0.833    0.000    1.000    0.000    0.000 
#    0.000    0.000    0.000    0.000    0.000    0.000 
#
# Total GULP energy -133900.429614 kJ/mol
# GULP energy per Si atom -5579.184567 kJ/mol
# Density = 1.880258 g / cm^3
# Si number density = 18.845468 Si / 1000 Ang^3
#
#
#
# Elastic Constant Matrix: (Units=GPa)
#
#
# Indices 1 2 3 4 5 6 
#
# 1 95.9674 36.9896 102.9022 0.0000 0.0000 0.0000
# 2 36.9896 71.6152 61.4411 0.0000 0.0000 0.0000
# 3 102.9022 61.4411 212.9465 0.0000 0.0000 0.0000
# 4 0.0000 0.0000 0.0000 40.1957 0.0000 0.0000
# 5 0.0000 0.0000 0.0000 0.0000 859.9159 0.0000
# 6 0.0000 0.0000 0.0000 0.0000 0.0000 11.0235
#
#
#
# Elastic Compliance Matrix: (Units=1/GPa)
#
#
# Indices 1 2 3 4 5 6 
#
# 1 0.022098 -0.002993 -0.009815 0.000000 0.000000 0.000000
# 2 -0.002993 0.018963 -0.004025 0.000000 0.000000 0.000000
# 3 -0.009815 -0.004025 0.010600 0.000000 0.000000 0.000000
# 4 0.000000 0.000000 0.000000 0.024878 0.000000 0.000000
# 5 0.000000 0.000000 0.000000 0.000000 0.001163 0.000000
# 6 0.000000 0.000000 0.000000 0.000000 0.000000 0.090715
#
#
# Mechanical properties :
#
#
# Convention : Reuss Voigt Hill
#
# Bulk Modulus (GPa) = 55.57126 87.02166 71.29646
# Shear Modulus (GPa) = 24.02912 194.17344 109.10128
#
# Velocity S-wave (km/s) = 3.57467 10.16161 7.61697
# Velocity P-wave (km/s) = 6.82566 13.56298 10.73648
#
# Compressibility (1/GPa) = 0.01799491
#
# Stress axis : x y z
#
# Youngs Moduli (GPa) = 45.25315 52.73550 94.33910
#
# Poissons Ratio (x) = 0.15785 0.92591
# Poissons Ratio (y) = 0.13546 0.37970
# Poissons Ratio (z) = 0.44415 0.21225
#
# Static dielectric constant tensor:
#      x y z
#    x 1.630820 0.000000 0.000000 
#    y 0.000000 1.689670 0.000000 
#    z 0.000000 0.000000 1.621640 
# 
# From -- ./inp_files/24367.got.cif
#   From: 2010.05.17/outbox.cif.g08.bks.cpg/sg38_13_cif.got.tgz:24367.got - 2010.06.03 18:07:57.
