data_PCOD9357029
_publ_section_title
;
Structure prediction by ZEFSAII (Michael W. Deem and Ramdas Pophale) SiO2 
 PCOD9357029
Probable space group: A M M 2
;
_chemical_formula_sum "Si O2"
_cell_formula_units_Z 28
_cell_length_a 12.159143
_cell_length_b 5.527960
_cell_length_c 17.452283
_cell_angle_alpha 90.000000
_cell_angle_beta 90.000000
_cell_angle_gamma 90.000000
_cell_volume 1173.059672
_symmetry_space_group_name_H-M "A M M 2"
_symmetry_group_IT_number 38
_symmetry_cell_setting 'orthorhombic'
loop_
_space_group_symop_operation_xyz
x,y,z
-x,-y,z
-x,y,z
x,-y,z
x,1/2+y,1/2+z
-x,1/2-y,1/2+z
-x,1/2+y,1/2+z
x,1/2-y,1/2+z
loop_
_atom_site_type_symbol
_atom_site_label
_atom_site_fract_x
_atom_site_fract_y
_atom_site_fract_z
Si Si1 0.161748 0.500000 0.724431
Si Si2 0.129343 0.000000 0.404967
Si Si3 0.353092 0.500000 0.061097
Si Si4 0.754323 0.500000 0.459792
Si Si5 0.500000 0.500000 0.912405
Si Si6 0.118054 0.500000 0.135554
Si Si7 0.338784 0.500000 0.619051
Si Si8 0.500000 0.500000 0.398563
O O1 0.136390 0.500000 0.812853
O O2 0.123501 0.754117 0.686359
O O3 0.290746 0.500000 0.703550
O O4 0.187670 0.254300 0.430162
O O5 0.000000 0.000000 0.425467
O O6 0.222411 0.500000 0.079394
O O7 0.391570 0.254932 0.100852
O O8 0.399451 0.500000 0.974501
O O9 0.756633 0.500000 0.552275
O O10 0.621175 0.500000 0.440982
O O11 0.500000 0.261646 0.861927
O O12 0.000000 0.500000 0.095796
#
# Coordination Sequence:
#
# PCOD9357029 Si02
#       8
#     4   4   4   4   2   4   4   2
#     4  10  22  40  67  91 125 174 226 260 333 407
#     4  12  26  45  67  97 141 185 223 279 341 410
#     4  10  19  32  57  90 126 155 210 257 331 368
#     4  12  24  44  70 102 135 172 238 279 344 394
#     4  12  18  36  62  91 127 166 216 266 326 408
#     4  10  19  34  57  89 123 163 214 261 314 398
#     4  10  20  40  63  96 126 161 216 276 328 391
#     4  12  24  40  74  91 131 184 228 278 332 416
#
# _framework density 23.869205000000001
#
# number of rings (size 3 to 8) (size 9 to 14) (size 15 to 20)
#    0.000    1.143    2.857    4.286    0.000    0.000 
#    0.000   18.571    0.000   22.286    0.000    0.000 
#    0.000    0.000    0.000    0.000    0.000    0.000 
#
# Total GULP energy -77984.244967 kJ/mol
# GULP energy per Si atom -5570.303212 kJ/mol
# Density = 2.381488 g / cm^3
# Si number density = 23.869205 Si / 1000 Ang^3
#
#
#
# Elastic Constant Matrix: (Units=GPa)
#
#
# Indices 1 2 3 4 5 6 
#
# 1 191.5745 65.2526 38.7644 0.0000 0.0000 0.0000
# 2 65.2526 297.2685 41.3301 0.0000 0.0000 0.0000
# 3 38.7644 41.3301 92.5224 0.0000 0.0000 0.0000
# 4 0.0000 0.0000 0.0000 30.4183 0.0000 0.0000
# 5 0.0000 0.0000 0.0000 0.0000 -7.1133 0.0000
# 6 0.0000 0.0000 0.0000 0.0000 0.0000 -4.3882
#
#
#
# Elastic Compliance Matrix: (Units=1/GPa)
#
#
# Indices 1 2 3 4 5 6 
#
# 1 0.005985 -0.001029 -0.002048 0.000000 0.000000 0.000000
# 2 -0.001029 0.003764 -0.001250 0.000000 0.000000 0.000000
# 3 -0.002048 -0.001250 0.012225 0.000000 0.000000 0.000000
# 4 0.000000 0.000000 0.000000 0.032875 0.000000 0.000000
# 5 0.000000 0.000000 0.000000 0.000000 -0.140582 0.000000
# 6 0.000000 0.000000 0.000000 0.000000 0.000000 -0.227883
#
#
# Mechanical properties :
#
#
# Convention : Reuss Voigt Hill
#
# Bulk Modulus (GPa) = 75.07961 96.89549 85.98755
# Shear Modulus (GPa) = -16.63763 32.85125 8.10681
#
# Velocity S-wave (km/s) = -2.64300 3.71388 1.84492
# Velocity P-wave (km/s) = 4.71263 7.68590 6.37503
#
# Compressibility (1/GPa) = 0.01331920
#
# Stress axis : x y z
#
# Youngs Moduli (GPa) = 167.09134 265.70037 81.80228
#
# Poissons Ratio (x) = 0.27340 0.16751
# Poissons Ratio (y) = 0.17193 0.10226
# Poissons Ratio (z) = 0.34217 0.33216
#
# Static dielectric constant tensor:
#      x y z
#    x 1.993540 0.000000 0.000000 
#    y 0.000000 1.964840 0.000000 
#    z 0.000000 0.000000 1.831250 
# 
# From -- ./inp_files/20342.got.cif
#   From: 2010.05.17/outbox.cif.g08.bks.cpg/sg38_11_cif.got.tgz:20342.got - 2010.06.03 18:07:57.
