data_PCOD9357364
_publ_section_title
;
Structure prediction by ZEFSAII (Michael W. Deem and Ramdas Pophale) SiO2 
 PCOD9357364
Probable space group: A M M 2
;
_chemical_formula_sum "Si O2"
_cell_formula_units_Z 64
_cell_length_a 9.135317
_cell_length_b 28.576853
_cell_length_c 12.839356
_cell_angle_alpha 90.000000
_cell_angle_beta 90.000000
_cell_angle_gamma 90.000000
_cell_volume 3351.824444
_symmetry_space_group_name_H-M "A M M 2"
_symmetry_group_IT_number 38
_symmetry_cell_setting 'orthorhombic'
loop_
_space_group_symop_operation_xyz
x,y,z
-x,-y,z
-x,y,z
x,-y,z
x,1/2+y,1/2+z
-x,1/2-y,1/2+z
-x,1/2+y,1/2+z
x,1/2-y,1/2+z
loop_
_atom_site_type_symbol
_atom_site_label
_atom_site_fract_x
_atom_site_fract_y
_atom_site_fract_z
Si Si1 0.667186 0.569758 0.824420
Si Si2 0.830024 0.947282 0.114261
Si Si3 0.175874 0.445554 0.264073
Si Si4 0.172805 0.197250 0.483640
Si Si5 0.323875 0.615178 0.442873
Si Si6 0.175355 0.090010 0.531425
Si Si7 0.325520 0.290699 0.546220
Si Si8 0.665157 0.819599 0.280514
O O1 0.500000 0.552729 0.821585
O O2 0.765503 0.551164 0.730427
O O3 0.661885 0.625240 0.801637
O O4 0.740481 0.564544 0.937402
O O5 0.000000 0.932434 0.116021
O O6 0.823929 0.000000 0.070380
O O7 0.734593 0.913554 0.042542
O O8 0.217066 0.500000 0.281676
O O9 0.254959 0.410221 0.342943
O O10 0.207288 0.431167 0.144586
O O11 0.000000 0.441915 0.279269
O O12 0.214845 0.145451 0.525548
O O13 0.250275 0.240796 0.537107
O O14 0.221905 0.200262 0.363398
O O15 0.000000 0.201217 0.494271
O O16 0.500000 0.613027 0.439256
O O17 0.280333 0.669382 0.462998
O O18 0.000000 0.086538 0.513379
O O19 0.500000 0.284906 0.535778
O O20 0.296353 0.310464 0.661491
O O21 0.500000 0.801102 0.299880
#
# Coordination Sequence:
#
# PCOD9357364 Si02
#       8
#     8   8   8   8   8   8   8   8
#     4  10  19  35  59  86 114 146 189 240 292 345
#     4  11  23  37  56  84 117 152 189 231 289 357
#     4  10  22  41  63  86 119 164 206 248 304 367
#     4  10  21  35  55  87 118 150 196 247 298 348
#     4  11  23  40  60  85 116 151 198 252 301 355
#     4   9  20  39  59  83 120 159 199 245 296 356
#     4  10  21  38  58  82 114 154 198 240 297 362
#     4   9  18  36  57  77 110 151 188 231 288 351
#
# _framework density 19.094079000000001
#
# number of rings (size 3 to 8) (size 9 to 14) (size 15 to 20)
#    0.000    2.000    1.250    1.875    0.000    7.250 
#    0.000    3.750    0.000    0.000    0.000    0.000 
#    0.000    0.000    0.000    0.000    0.000    0.000 
#
# Total GULP energy -178615.354153 kJ/mol
# GULP energy per Si atom -5581.729817 kJ/mol
# Density = 1.905062 g / cm^3
# Si number density = 19.094079 Si / 1000 Ang^3
#
#
#
# Elastic Constant Matrix: (Units=GPa)
#
#
# Indices 1 2 3 4 5 6 
#
# 1 33.5540 16.2070 24.7388 0.0000 0.0000 0.0000
# 2 16.2070 51.6323 14.5907 0.0000 0.0000 0.0000
# 3 24.7388 14.5907 77.4295 0.0000 0.0000 0.0000
# 4 0.0000 0.0000 0.0000 17.6217 0.0000 0.0000
# 5 0.0000 0.0000 0.0000 0.0000 39.7973 0.0000
# 6 0.0000 0.0000 0.0000 0.0000 0.0000 17.5463
#
#
#
# Elastic Compliance Matrix: (Units=1/GPa)
#
#
# Indices 1 2 3 4 5 6 
#
# 1 0.043624 -0.010303 -0.011996 0.000000 0.000000 0.000000
# 2 -0.010303 0.022891 -0.001022 0.000000 0.000000 0.000000
# 3 -0.011996 -0.001022 0.016940 0.000000 0.000000 0.000000
# 4 0.000000 0.000000 0.000000 0.056748 0.000000 0.000000
# 5 0.000000 0.000000 0.000000 0.000000 0.025127 0.000000
# 6 0.000000 0.000000 0.000000 0.000000 0.000000 0.056992
#
#
# Mechanical properties :
#
#
# Convention : Reuss Voigt Hill
#
# Bulk Modulus (GPa) = 27.16468 30.40986 28.78727
# Shear Modulus (GPa) = 17.77869 22.13169 19.95519
#
# Velocity S-wave (km/s) = 3.05472 3.40823 3.23631
# Velocity P-wave (km/s) = 5.16715 5.60794 5.39205
#
# Compressibility (1/GPa) = 0.03681251
#
# Stress axis : x y z
#
# Youngs Moduli (GPa) = 22.92314 43.68616 59.03075
#
# Poissons Ratio (x) = 0.45011 0.70816
# Poissons Ratio (y) = 0.23618 0.06030
# Poissons Ratio (z) = 0.27499 0.04463
#
# Static dielectric constant tensor:
#      x y z
#    x 1.639260 0.000000 0.000000 
#    y 0.000000 1.679220 0.000000 
#    z 0.000000 0.000000 1.645870 
# 
# From -- ./inp_files/8641.got.cif
#   From: 2010.05.17/outbox.cif.g08.bks.cpg/sg38_5_cif.got.tgz:8641.got - 2010.06.03 18:07:57.
