data_PCOD9357654
_publ_section_title
;
Structure prediction by ZEFSAII (Michael W. Deem and Ramdas Pophale) SiO2 
 PCOD9357654
Probable space group: A M M 2
;
_chemical_formula_sum "Si O2"
_cell_formula_units_Z 64
_cell_length_a 7.648021
_cell_length_b 18.250232
_cell_length_c 21.436170
_cell_angle_alpha 90.000000
_cell_angle_beta 90.000000
_cell_angle_gamma 90.000000
_cell_volume 2992.021114
_symmetry_space_group_name_H-M "A M M 2"
_symmetry_group_IT_number 38
_symmetry_cell_setting 'orthorhombic'
loop_
_space_group_symop_operation_xyz
x,y,z
-x,-y,z
-x,y,z
x,-y,z
x,1/2+y,1/2+z
-x,1/2-y,1/2+z
-x,1/2+y,1/2+z
x,1/2-y,1/2+z
loop_
_atom_site_type_symbol
_atom_site_label
_atom_site_fract_x
_atom_site_fract_y
_atom_site_fract_z
Si Si1 0.291850 0.628862 0.073880
Si Si2 0.205918 0.124075 0.301263
Si Si3 0.288470 0.703900 0.301521
Si Si4 0.286486 0.297168 0.573169
Si Si5 0.711378 0.212213 0.937503
Si Si6 0.799665 0.383506 0.936673
Si Si7 0.705477 0.420829 0.664735
Si Si8 0.714188 0.079792 0.707125
O O1 0.500000 0.633318 0.079926
O O2 0.225455 0.712957 0.077720
O O3 0.227873 0.587997 0.135381
O O4 0.263369 0.594714 0.005436
O O5 0.228880 0.212119 0.295520
O O6 0.279922 0.098000 0.368666
O O7 0.281843 0.090305 0.238743
O O8 0.000000 0.108060 0.301364
O O9 0.500000 0.706067 0.298073
O O10 0.238106 0.678087 0.371367
O O11 0.226283 0.648085 0.248818
O O12 0.500000 0.294047 0.576963
O O13 0.239680 0.323527 0.503239
O O14 0.221903 0.351695 0.626534
O O15 0.500000 0.219209 0.937676
O O16 0.783756 0.294923 0.937790
O O17 0.000000 0.405958 0.933966
O O18 0.500000 0.423014 0.649063
O O19 0.782558 0.500000 0.648133
O O20 0.500000 0.081477 0.707919
O O21 0.767094 0.000000 0.731438
#
# Coordination Sequence:
#
# PCOD9357654 Si02
#       8
#     8   8   8   8   8   8   8   8
#     4   9  16  28  48  69  92 124 156 189 230 278
#     4  10  20  33  50  71  95 123 155 196 243 284
#     4   9  16  29  51  74  96 125 160 195 229 274
#     4   8  14  27  46  68  92 118 152 191 230 270
#     4   8  14  26  46  70  94 121 152 187 229 275
#     4   9  17  29  46  69  93 115 147 195 242 279
#     4  10  20  33  49  69  95 128 162 194 230 277
#     4   9  17  29  46  71 101 129 158 194 235 275
#
# _framework density 21.390224
#
# number of rings (size 3 to 8) (size 9 to 14) (size 15 to 20)
#    0.000    3.000    0.000    2.250    0.000    3.750 
#    0.000    6.875    0.000    7.500    0.000    0.000 
#    0.000    9.000    0.000    0.000    0.000    0.000 
#
# Total GULP energy -178312.716871 kJ/mol
# GULP energy per Si atom -5572.272402 kJ/mol
# Density = 2.134154 g / cm^3
# Si number density = 21.390224 Si / 1000 Ang^3
#
#
#
# Elastic Constant Matrix: (Units=GPa)
#
#
# Indices 1 2 3 4 5 6 
#
# 1 35.1885 -0.7615 1.2579 0.0000 0.0000 0.0000
# 2 -0.7615 60.3526 31.1582 0.0000 0.0000 0.0000
# 3 1.2579 31.1582 103.7579 0.0000 0.0000 0.0000
# 4 0.0000 0.0000 0.0000 -19.9299 0.0000 0.0000
# 5 0.0000 0.0000 0.0000 0.0000 -21.3135 0.0000
# 6 0.0000 0.0000 0.0000 0.0000 0.0000 25.4142
#
#
#
# Elastic Compliance Matrix: (Units=1/GPa)
#
#
# Indices 1 2 3 4 5 6 
#
# 1 0.028451 0.000636 -0.000536 0.000000 0.000000 0.000000
# 2 0.000636 0.019624 -0.005901 0.000000 0.000000 0.000000
# 3 -0.000536 -0.005901 0.011416 0.000000 0.000000 0.000000
# 4 0.000000 0.000000 0.000000 -0.050176 0.000000 0.000000
# 5 0.000000 0.000000 0.000000 0.000000 -0.046919 0.000000
# 6 0.000000 0.000000 0.000000 0.000000 0.000000 0.039348
#
#
# Mechanical properties :
#
#
# Convention : Reuss Voigt Hill
#
# Bulk Modulus (GPa) = 20.88137 29.17867 25.03002
# Shear Modulus (GPa) = 170.59255 8.01046 89.30151
#
# Velocity S-wave (km/s) = 8.94012 1.93728 6.46834
# Velocity P-wave (km/s) = 10.78661 4.32143 8.21662
#
# Compressibility (1/GPa) = 0.04788958
#
# Stress axis : x y z
#
# Youngs Moduli (GPa) = 35.14778 50.95905 87.59448
#
# Poissons Ratio (x) = -0.03239 0.04693
# Poissons Ratio (y) = -0.02234 0.51686
# Poissons Ratio (z) = 0.01883 0.30069
#
# Static dielectric constant tensor:
#      x y z
#    x 1.802530 0.000000 0.000000 
#    y 0.000000 1.755650 0.000000 
#    z 0.000000 0.000000 1.816540 
# 
# From -- ./inp_files/20018.got.cif
#   From: 2010.05.17/outbox.cif.g08.bks.cpg/sg38_11_cif.got.tgz:20018.got - 2010.06.03 18:07:57.
