data_PCOD9357974
_publ_section_title
;
Structure prediction by ZEFSAII (Michael W. Deem and Ramdas Pophale) SiO2 
 PCOD9357974
Probable space group: A M M 2
;
_chemical_formula_sum "Si O2"
_cell_formula_units_Z 40
_cell_length_a 8.242644
_cell_length_b 30.658013
_cell_length_c 7.578405
_cell_angle_alpha 90.000000
_cell_angle_beta 90.000000
_cell_angle_gamma 90.000000
_cell_volume 1915.086337
_symmetry_space_group_name_H-M "A M M 2"
_symmetry_group_IT_number 38
_symmetry_cell_setting 'orthorhombic'
loop_
_space_group_symop_operation_xyz
x,y,z
-x,-y,z
-x,y,z
x,-y,z
x,1/2+y,1/2+z
-x,1/2-y,1/2+z
-x,1/2+y,1/2+z
x,1/2-y,1/2+z
loop_
_atom_site_type_symbol
_atom_site_label
_atom_site_fract_x
_atom_site_fract_y
_atom_site_fract_z
Si Si1 0.191343 0.882494 0.579730
Si Si2 0.305728 0.951399 0.864632
Si Si3 0.811123 0.709187 0.976804
Si Si4 0.315424 0.799197 0.100780
Si Si5 0.302941 0.607050 0.676596
O O1 0.270749 0.916347 0.712707
O O2 0.230629 0.830833 0.607692
O O3 0.236699 0.892472 0.375395
O O4 0.000000 0.887190 0.600992
O O5 0.500000 0.954126 0.877642
O O6 0.242017 0.000000 0.827156
O O7 0.248683 0.932646 0.053360
O O8 0.692640 0.703819 0.812445
O O9 0.000000 0.702527 0.924405
O O10 0.789611 0.758314 0.040655
O O11 0.500000 0.794548 0.036301
O O12 0.254937 0.848410 0.072925
O O13 0.500000 0.607790 0.687993
#
# Coordination Sequence:
#
# PCOD9357974 Si02
#       5
#     8   8   8   8   8
#     4  10  22  39  59  86 120 157 194 240 296 352
#     4  10  22  40  63  89 116 152 198 247 299 352
#     4  10  21  36  53  80 116 155 192 233 290 352
#     4  10  20  34  54  82 112 150 196 241 285 341
#     4   9  20  39  60  85 117 154 197 244 293 348
#
# _framework density 20.886787999999999
#
# number of rings (size 3 to 8) (size 9 to 14) (size 15 to 20)
#    0.000    2.200    0.000    1.800    2.800    5.200 
#    0.000    2.000    0.000    0.000    0.000    0.000 
#    0.000    0.000    0.000    0.000    0.000    0.000 
#
# Total GULP energy -111544.199175 kJ/mol
# GULP energy per Si atom -5577.209959 kJ/mol
# Density = 2.083925 g / cm^3
# Si number density = 20.886788 Si / 1000 Ang^3
#
#
#
# Elastic Constant Matrix: (Units=GPa)
#
#
# Indices 1 2 3 4 5 6 
#
# 1 27.7533 18.0890 -6.5867 0.0000 0.0000 0.0000
# 2 18.0890 93.2329 5.7308 0.0000 0.0000 0.0000
# 3 -6.5867 5.7308 22.7627 0.0000 0.0000 0.0000
# 4 0.0000 0.0000 0.0000 30.5811 0.0000 0.0000
# 5 0.0000 0.0000 0.0000 0.0000 -28.6087 0.0000
# 6 0.0000 0.0000 0.0000 0.0000 0.0000 18.0072
#
#
#
# Elastic Compliance Matrix: (Units=1/GPa)
#
#
# Indices 1 2 3 4 5 6 
#
# 1 0.046298 -0.009960 0.015905 0.000000 0.000000 0.000000
# 2 -0.009960 0.013037 -0.006165 0.000000 0.000000 0.000000
# 3 0.015905 -0.006165 0.050086 0.000000 0.000000 0.000000
# 4 0.000000 0.000000 0.000000 0.032700 0.000000 0.000000
# 5 0.000000 0.000000 0.000000 0.000000 -0.034954 0.000000
# 6 0.000000 0.000000 0.000000 0.000000 0.000000 0.055533
#
#
# Mechanical properties :
#
#
# Convention : Reuss Voigt Hill
#
# Bulk Modulus (GPa) = 9.17589 19.80169 14.48879
# Shear Modulus (GPa) = 25.06671 12.43031 18.74851
#
# Velocity S-wave (km/s) = 3.46804 2.44217 2.99929
# Velocity P-wave (km/s) = 4.52096 4.17772 4.35272
#
# Compressibility (1/GPa) = 0.10898125
#
# Stress axis : x y z
#
# Youngs Moduli (GPa) = 21.59900 76.70323 19.96571
#
# Poissons Ratio (x) = 0.76400 -0.31755
# Poissons Ratio (y) = 0.21514 0.12308
# Poissons Ratio (z) = -0.34353 0.47284
#
# Static dielectric constant tensor:
#      x y z
#    x 1.709210 0.000000 0.000000 
#    y 0.000000 1.826560 0.000000 
#    z 0.000000 0.000000 1.745330 
# 
# From -- ./inp_files/3316.got.cif
#   From: 2010.05.17/outbox.cif.g08.bks.cpg/sg38_2_cif.got.tgz:3316.got - 2010.06.03 18:07:57.
