data_PCOD9357994
_publ_section_title
;
Structure prediction by ZEFSAII (Michael W. Deem and Ramdas Pophale) SiO2 
 PCOD9357994
Probable space group: A M M 2
;
_chemical_formula_sum "Si O2"
_cell_formula_units_Z 64
_cell_length_a 9.188272
_cell_length_b 33.403918
_cell_length_c 11.940858
_cell_angle_alpha 90.000000
_cell_angle_beta 90.000000
_cell_angle_gamma 90.000000
_cell_volume 3664.939297
_symmetry_space_group_name_H-M "A M M 2"
_symmetry_group_IT_number 38
_symmetry_cell_setting 'orthorhombic'
loop_
_space_group_symop_operation_xyz
x,y,z
-x,-y,z
-x,y,z
x,-y,z
x,1/2+y,1/2+z
-x,1/2-y,1/2+z
-x,1/2+y,1/2+z
x,1/2-y,1/2+z
loop_
_atom_site_type_symbol
_atom_site_label
_atom_site_fract_x
_atom_site_fract_y
_atom_site_fract_z
Si Si1 0.825934 0.723202 0.309300
Si Si2 0.324775 0.623721 0.929062
Si Si3 0.329758 0.305164 0.756616
Si Si4 0.329637 0.676379 0.495745
Si Si5 0.825933 0.645476 0.161354
Si Si6 0.677453 0.046204 0.293006
Si Si7 0.334755 0.547785 0.541883
Si Si8 0.826777 0.101839 0.885103
O O1 0.768670 0.766410 0.274942
O O2 0.748144 0.711084 0.424930
O O3 0.788019 0.688406 0.218393
O O4 0.000000 0.722384 0.322537
O O5 0.500000 0.622493 0.940841
O O6 0.290635 0.658122 0.837990
O O7 0.277437 0.580289 0.880820
O O8 0.254082 0.635728 0.046578
O O9 0.500000 0.294920 0.778198
O O10 0.317832 0.318032 0.627865
O O11 0.500000 0.674602 0.465756
O O12 0.247887 0.636515 0.457877
O O13 0.791206 0.612335 0.256546
O O14 0.000000 0.645548 0.143561
O O15 0.500000 0.045670 0.291143
O O16 0.720850 0.058894 0.166420
O O17 0.723723 0.000000 0.314755
O O18 0.500000 0.563741 0.529187
O O19 0.342429 0.500000 0.543590
O O20 0.237123 0.562181 0.439778
O O21 0.000000 0.103774 0.895899
#
# Coordination Sequence:
#
# PCOD9357994 Si02
#       8
#     8   8   8   8   8   8   8   8
#     4  10  22  38  55  76 105 140 180 224 273 327
#     4  10  20  34  55  82 107 138 182 226 269 322
#     4  10  22  36  53  80 109 137 174 224 275 326
#     4  10  20  36  57  78 103 135 175 221 268 320
#     4   9  21  39  53  71 103 144 183 220 267 323
#     4   8  15  31  55  82 112 142 174 220 276 326
#     4   9  17  31  55  84 111 140 176 221 273 328
#     4  10  20  35  54  76 106 142 179 219 269 325
#
# _framework density 17.462771
#
# number of rings (size 3 to 8) (size 9 to 14) (size 15 to 20)
#    0.000    2.500    0.000    3.375    1.750    6.750 
#    0.000    2.500    0.000    3.375    0.000    0.000 
#    0.000    0.000    0.000    0.000    0.000    0.000 
#
# Total GULP energy -178427.773048 kJ/mol
# GULP energy per Si atom -5575.867908 kJ/mol
# Density = 1.742303 g / cm^3
# Si number density = 17.462771 Si / 1000 Ang^3
#
#
#
# Elastic Constant Matrix: (Units=GPa)
#
#
# Indices 1 2 3 4 5 6 
#
# 1 51.6600 32.0814 58.9554 0.0000 0.0000 0.0000
# 2 32.0814 71.5288 62.9169 0.0000 0.0000 0.0000
# 3 58.9554 62.9169 125.9299 0.0000 0.0000 0.0000
# 4 0.0000 0.0000 0.0000 11.7165 0.0000 0.0000
# 5 0.0000 0.0000 0.0000 0.0000 -174.8338 0.0000
# 6 0.0000 0.0000 0.0000 0.0000 0.0000 19.7048
#
#
#
# Elastic Compliance Matrix: (Units=1/GPa)
#
#
# Indices 1 2 3 4 5 6 
#
# 1 0.041863 -0.002742 -0.018229 0.000000 0.000000 0.000000
# 2 -0.002742 0.025121 -0.011267 0.000000 0.000000 0.000000
# 3 -0.018229 -0.011267 0.022104 0.000000 0.000000 0.000000
# 4 0.000000 0.000000 0.000000 0.085350 0.000000 0.000000
# 5 0.000000 0.000000 0.000000 0.000000 -0.005720 0.000000
# 6 0.000000 0.000000 0.000000 0.000000 0.000000 0.050749
#
#
# Mechanical properties :
#
#
# Convention : Reuss Voigt Hill
#
# Bulk Modulus (GPa) = 40.62995 61.89181 51.26088
# Shear Modulus (GPa) = 17.11467 -22.33817 -2.61175
#
# Velocity S-wave (km/s) = 3.13400 -3.58045 -1.22428
# Velocity P-wave (km/s) = 6.03432 4.29258 5.23638
#
# Compressibility (1/GPa) = 0.02461238
#
# Stress axis : x y z
#
# Youngs Moduli (GPa) = 23.88733 39.80769 45.24034
#
# Poissons Ratio (x) = 0.10915 0.82467
# Poissons Ratio (y) = 0.06550 0.50973
# Poissons Ratio (z) = 0.43544 0.44852
#
# Static dielectric constant tensor:
#      x y z
#    x 1.587820 0.000000 0.000000 
#    y 0.000000 1.631020 0.000000 
#    z 0.000000 0.000000 1.586380 
# 
# From -- ./inp_files/8582.got.cif
#   From: 2010.05.17/outbox.cif.g08.bks.cpg/sg38_5_cif.got.tgz:8582.got - 2010.06.03 18:07:57.
