data_PCOD9357429
_publ_section_title
;
Structure prediction by ZEFSAII (Michael W. Deem and Ramdas Pophale) SiO2 
 PCOD9357429
Probable space group: A M M 2
;
_chemical_formula_sum "Si O2"
_cell_formula_units_Z 48
_cell_length_a 7.825799
_cell_length_b 29.334520
_cell_length_c 10.580674
_cell_angle_alpha 90.000000
_cell_angle_beta 90.000000
_cell_angle_gamma 90.000000
_cell_volume 2428.963614
_symmetry_space_group_name_H-M "A M M 2"
_symmetry_group_IT_number 38
_symmetry_cell_setting 'orthorhombic'
loop_
_space_group_symop_operation_xyz
x,y,z
-x,-y,z
-x,y,z
x,-y,z
x,1/2+y,1/2+z
-x,1/2-y,1/2+z
-x,1/2+y,1/2+z
x,1/2-y,1/2+z
loop_
_atom_site_type_symbol
_atom_site_label
_atom_site_fract_x
_atom_site_fract_y
_atom_site_fract_z
Si Si1 0.206431 0.051146 0.220330
Si Si2 0.699848 0.148297 0.128699
Si Si3 0.798348 0.196232 0.872050
Si Si4 0.209941 0.856083 0.626468
Si Si5 0.204615 0.201022 0.383598
Si Si6 0.791587 0.449434 0.013719
O O1 0.266533 0.094295 0.140762
O O2 0.259012 0.057908 0.367146
O O3 0.000000 0.051546 0.218266
O O4 0.261871 0.000000 0.181758
O O5 0.500000 0.156236 0.119646
O O6 0.763055 0.172636 0.256621
O O7 0.780541 0.171066 0.005344
O O8 0.729360 0.166016 0.756767
O O9 0.726212 0.247524 0.875568
O O10 0.000000 0.201439 0.845847
O O11 0.266763 0.825669 0.507288
O O12 0.265881 0.907739 0.599660
O O13 0.000000 0.856765 0.626925
O O14 0.000000 0.203972 0.398836
O O15 0.735479 0.500000 0.052367
O O16 0.000000 0.449457 0.013759
#
# Coordination Sequence:
#
# PCOD9357429 Si02
#       6
#     8   8   8   8   8   8
#     4   9  17  33  59  84 106 139 187 239 280 320
#     4  12  24  36  53  81 119 156 182 219 278 342
#     4  10  21  36  56  80 108 145 188 232 274 321
#     4   9  16  29  52  79 103 130 174 234 283 313
#     4  10  19  36  60  81 103 138 191 242 274 314
#     4   8  13  24  48  80 106 127 161 220 281 320
#
# _framework density 19.761513000000001
#
# number of rings (size 3 to 8) (size 9 to 14) (size 15 to 20)
#    0.000    2.333    1.667    3.500    0.000    3.667 
#    0.000    1.667    0.000    3.000    0.000    0.000 
#    0.000    0.000    0.000    0.000    0.000    0.000 
#
# Total GULP energy -133936.431696 kJ/mol
# GULP energy per Si atom -5580.684654 kJ/mol
# Density = 1.971654 g / cm^3
# Si number density = 19.761513 Si / 1000 Ang^3
#
#
#
# Elastic Constant Matrix: (Units=GPa)
#
#
# Indices 1 2 3 4 5 6 
#
# 1 14.2483 -3.3167 -10.7356 0.0000 0.0000 0.0000
# 2 -3.3167 173.1579 61.6717 0.0000 0.0000 0.0000
# 3 -10.7356 61.6717 100.8754 0.0000 0.0000 0.0000
# 4 0.0000 0.0000 0.0000 4.8639 0.0000 0.0000
# 5 0.0000 0.0000 0.0000 0.0000 -46.1513 0.0000
# 6 0.0000 0.0000 0.0000 0.0000 0.0000 -320.0766
#
#
#
# Elastic Compliance Matrix: (Units=1/GPa)
#
#
# Indices 1 2 3 4 5 6 
#
# 1 0.076758 -0.001840 0.009294 0.000000 0.000000 0.000000
# 2 -0.001840 0.007427 -0.004736 0.000000 0.000000 0.000000
# 3 0.009294 -0.004736 0.013798 0.000000 0.000000 0.000000
# 4 0.000000 0.000000 0.000000 0.205595 0.000000 0.000000
# 5 0.000000 0.000000 0.000000 0.000000 -0.021668 0.000000
# 6 0.000000 0.000000 0.000000 0.000000 0.000000 -0.003124
#
#
# Mechanical properties :
#
#
# Convention : Reuss Voigt Hill
#
# Bulk Modulus (GPa) = 9.66948 42.61338 26.14143
# Shear Modulus (GPa) = 16.24312 -56.22864 -19.99276
#
# Velocity S-wave (km/s) = 2.87009 -5.33998 -3.18418
# Velocity P-wave (km/s) = 3.98584 4.05091 0.51134
#
# Compressibility (1/GPa) = 0.10341821
#
# Stress axis : x y z
#
# Youngs Moduli (GPa) = 13.02792 134.64970 72.47502
#
# Poissons Ratio (x) = 0.24773 -0.67356
# Poissons Ratio (y) = 0.02397 0.34326
# Poissons Ratio (z) = -0.12108 0.63773
#
# Static dielectric constant tensor:
#      x y z
#    x 1.713760 0.000000 0.000000 
#    y 0.000000 1.709690 0.000000 
#    z 0.000000 0.000000 1.698030 
# 
# From -- ./inp_files/3795.got.cif
#   From: 2010.05.17/outbox.cif.g08.bks.cpg/sg38_2_cif.got.tgz:3795.got - 2010.06.03 18:07:57.
