data_PCOD9357872
_publ_section_title
;
Structure prediction by ZEFSAII (Michael W. Deem and Ramdas Pophale) SiO2 
 PCOD9357872
Probable space group: A M M 2
;
_chemical_formula_sum "Si O2"
_cell_formula_units_Z 48
_cell_length_a 17.588013
_cell_length_b 8.175194
_cell_length_c 17.909914
_cell_angle_alpha 90.000000
_cell_angle_beta 90.000000
_cell_angle_gamma 90.000000
_cell_volume 2575.184477
_symmetry_space_group_name_H-M "A M M 2"
_symmetry_group_IT_number 38
_symmetry_cell_setting 'orthorhombic'
loop_
_space_group_symop_operation_xyz
x,y,z
-x,-y,z
-x,y,z
x,-y,z
x,1/2+y,1/2+z
-x,1/2-y,1/2+z
-x,1/2+y,1/2+z
x,1/2-y,1/2+z
loop_
_atom_site_type_symbol
_atom_site_label
_atom_site_fract_x
_atom_site_fract_y
_atom_site_fract_z
Si Si1 0.352698 0.808274 0.298910
Si Si2 0.344287 0.187235 0.964018
Si Si3 0.816697 0.314998 0.779667
Si Si4 0.500000 0.803654 0.710632
Si Si5 0.500000 0.195496 0.537698
Si Si6 0.911901 0.000000 0.961761
Si Si7 0.912239 0.500000 0.279351
Si Si8 0.817610 0.819028 0.461955
O O1 0.353817 0.706216 0.374968
O O2 0.271354 0.782208 0.259494
O O3 0.424721 0.764301 0.249692
O O4 0.355349 0.000000 0.320000
O O5 0.269976 0.291547 0.985215
O O6 0.327433 0.000000 0.982476
O O7 0.423200 0.240044 0.000213
O O8 0.838016 0.500000 0.755787
O O9 0.869552 0.165784 0.754913
O O10 0.817735 0.316298 0.870818
O O11 0.500000 0.757282 0.624182
O O12 0.500000 0.000000 0.716801
O O13 0.500000 0.000000 0.531410
O O14 0.868485 0.834879 0.986134
O O15 0.910115 0.000000 0.870555
O O16 0.000000 0.000000 0.984312
O O17 0.000000 0.500000 0.256670
O O18 0.844024 0.000000 0.485082
#
# Coordination Sequence:
#
# PCOD9357872 Si02
#       8
#     8   8   8   4   4   4   4   8
#     4  10  20  34  53  74  99 135 175 216 257 303
#     4  11  20  33  54  76  98 135 182 218 256 308
#     4   8  16  27  42  65  92 128 167 204 245 295
#     4  11  24  37  52  73 101 137 168 217 265 311
#     4  11  24  39  50  71 105 137 168 216 268 314
#     4   9  16  26  40  65  99 133 167 206 256 309
#     4   9  16  24  40  63  95 133 159 202 254 295
#     4   9  16  28  44  66  96 131 170 211 254 300
#
# _framework density 18.639441000000001
#
# number of rings (size 3 to 8) (size 9 to 14) (size 15 to 20)
#    0.000    2.333    0.833    4.000    4.667    2.000 
#    0.000    3.333    0.000    0.000    0.000    0.000 
#    0.000    1.333    0.667    0.000    0.000    0.000 
#
# Total GULP energy -133871.999213 kJ/mol
# GULP energy per Si atom -5577.999967 kJ/mol
# Density = 1.859702 g / cm^3
# Si number density = 18.639441 Si / 1000 Ang^3
#
#
#
# Elastic Constant Matrix: (Units=GPa)
#
#
# Indices 1 2 3 4 5 6 
#
# 1 149.9084 91.6552 16.7306 0.0000 0.0000 0.0000
# 2 91.6552 137.3918 16.2849 0.0000 0.0000 0.0000
# 3 16.7306 16.2849 5.9773 0.0000 0.0000 0.0000
# 4 0.0000 0.0000 0.0000 8.7576 0.0000 0.0000
# 5 0.0000 0.0000 0.0000 0.0000 -7.1345 0.0000
# 6 0.0000 0.0000 0.0000 0.0000 0.0000 22.3754
#
#
#
# Elastic Compliance Matrix: (Units=1/GPa)
#
#
# Indices 1 2 3 4 5 6 
#
# 1 0.012460 -0.006171 -0.018062 0.000000 0.000000 0.000000
# 2 -0.006171 0.013806 -0.020342 0.000000 0.000000 0.000000
# 3 -0.018062 -0.020342 0.273276 0.000000 0.000000 0.000000
# 4 0.000000 0.000000 0.000000 0.114186 0.000000 0.000000
# 5 0.000000 0.000000 0.000000 0.000000 -0.140164 0.000000
# 6 0.000000 0.000000 0.000000 0.000000 0.000000 0.044692
#
#
# Mechanical properties :
#
#
# Convention : Reuss Voigt Hill
#
# Bulk Modulus (GPa) = 4.75303 60.29098 32.52201
# Shear Modulus (GPa) = 10.47044 16.04017 13.25531
#
# Velocity S-wave (km/s) = 2.37267 2.93670 2.66962
# Velocity P-wave (km/s) = 3.17200 6.62684 5.19503
#
# Compressibility (1/GPa) = 0.21039206
#
# Stress axis : x y z
#
# Youngs Moduli (GPa) = 80.25969 72.43080 3.65931
#
# Poissons Ratio (x) = 0.44697 0.06609
# Poissons Ratio (y) = 0.49528 0.07444
# Poissons Ratio (z) = 1.44964 1.47337
#
# Static dielectric constant tensor:
#      x y z
#    x 1.642950 0.000000 0.000000 
#    y 0.000000 1.661350 0.000000 
#    z 0.000000 0.000000 1.605210 
# 
# From -- ./inp_files/18272.got.cif
#   From: 2010.05.17/outbox.cif.g08.bks.cpg/sg38_10_cif.got.tgz:18272.got - 2010.06.03 18:07:57.
