data_PCOD9357699
_publ_section_title
;
Structure prediction by ZEFSAII (Michael W. Deem and Ramdas Pophale) SiO2 
 PCOD9357699
Probable space group: A M M 2
;
_chemical_formula_sum "Si O2"
_cell_formula_units_Z 64
_cell_length_a 20.475097
_cell_length_b 8.558189
_cell_length_c 20.792295
_cell_angle_alpha 90.000000
_cell_angle_beta 90.000000
_cell_angle_gamma 90.000000
_cell_volume 3643.428653
_symmetry_space_group_name_H-M "A M M 2"
_symmetry_group_IT_number 38
_symmetry_cell_setting 'orthorhombic'
loop_
_space_group_symop_operation_xyz
x,y,z
-x,-y,z
-x,y,z
x,-y,z
x,1/2+y,1/2+z
-x,1/2-y,1/2+z
-x,1/2+y,1/2+z
x,1/2-y,1/2+z
loop_
_atom_site_type_symbol
_atom_site_label
_atom_site_fract_x
_atom_site_fract_y
_atom_site_fract_z
Si Si1 0.820543 0.812824 0.340750
Si Si2 0.074537 0.190634 0.088920
Si Si3 0.924655 0.311391 0.441723
Si Si4 0.424594 0.187019 0.589935
Si Si5 0.424752 0.811256 0.949276
Si Si6 0.177838 0.190073 0.194203
Si Si7 0.327196 0.312701 0.697163
Si Si8 0.675795 0.687507 0.339320
O O1 0.874104 0.757756 0.391357
O O2 0.838034 0.763335 0.267538
O O3 0.748852 0.744875 0.355089
O O4 0.815971 0.000000 0.341234
O O5 0.126506 0.246591 0.141302
O O6 0.000000 0.238586 0.103488
O O7 0.075100 0.000000 0.089820
O O8 0.090109 0.236459 0.015477
O O9 0.921131 0.500000 0.439176
O O10 0.000000 0.266879 0.428056
O O11 0.500000 0.236851 0.600852
O O12 0.405568 0.247191 0.519157
O O13 0.377557 0.251694 0.644703
O O14 0.422544 0.000000 0.590493
O O15 0.500000 0.763503 0.936727
O O16 0.375797 0.760112 0.893236
O O17 0.423239 0.000000 0.951896
O O18 0.252670 0.237342 0.181116
O O19 0.176381 0.000000 0.192569
O O20 0.328415 0.500000 0.698414
O O21 0.341670 0.251138 0.768720
O O22 0.675438 0.500000 0.337247
#
# Coordination Sequence:
#
# PCOD9357699 Si02
#       8
#     8   8   8   8   8   8   8   8
#     4  10  20  33  50  74 103 134 169 211 257 307
#     4   8  14  27  48  71  94 123 162 205 245 290
#     4   9  18  32  50  73 100 130 166 209 257 310
#     4  10  21  36  54  77 105 136 171 212 258 311
#     4   9  19  36  56  77 101 131 170 215 261 311
#     4   8  16  30  47  70  98 126 162 206 246 288
#     4  10  20  34  52  76 107 139 173 215 258 305
#     4  10  20  35  55  77 104 139 175 214 262 314
#
# _framework density 17.565871000000001
#
# number of rings (size 3 to 8) (size 9 to 14) (size 15 to 20)
#    0.000    2.750    0.000    3.000    0.000    4.000 
#    0.000    5.000    0.000    3.750    0.000    0.000 
#    0.000    0.000    0.000    0.000    0.000    0.000 
#
# Total GULP energy -178452.500284 kJ/mol
# GULP energy per Si atom -5576.640634 kJ/mol
# Density = 1.752589 g / cm^3
# Si number density = 17.565871 Si / 1000 Ang^3
#
#
#
# Elastic Constant Matrix: (Units=GPa)
#
#
# Indices 1 2 3 4 5 6 
#
# 1 134.1254 32.2377 139.6730 0.0000 0.0000 0.0000
# 2 32.2377 25.7550 35.4573 0.0000 0.0000 0.0000
# 3 139.6730 35.4573 173.0831 0.0000 0.0000 0.0000
# 4 0.0000 0.0000 0.0000 29.3056 0.0000 0.0000
# 5 0.0000 0.0000 0.0000 0.0000 44.5779 0.0000
# 6 0.0000 0.0000 0.0000 0.0000 0.0000 21.6922
#
#
#
# Elastic Compliance Matrix: (Units=1/GPa)
#
#
# Indices 1 2 3 4 5 6 
#
# 1 0.048303 -0.009468 -0.037039 0.000000 0.000000 0.000000
# 2 -0.009468 0.055936 -0.003818 0.000000 0.000000 0.000000
# 3 -0.037039 -0.003818 0.036449 0.000000 0.000000 0.000000
# 4 0.000000 0.000000 0.000000 0.034123 0.000000 0.000000
# 5 0.000000 0.000000 0.000000 0.000000 0.022433 0.000000
# 6 0.000000 0.000000 0.000000 0.000000 0.000000 0.046099
#
#
# Mechanical properties :
#
#
# Convention : Reuss Voigt Hill
#
# Bulk Modulus (GPa) = 24.97741 83.07775 54.02758
# Shear Modulus (GPa) = 13.99229 27.48816 20.74022
#
# Velocity S-wave (km/s) = 2.82540 3.96013 3.43988
# Velocity P-wave (km/s) = 4.98939 8.26485 6.82648
#
# Compressibility (1/GPa) = 0.04003618
#
# Stress axis : x y z
#
# Youngs Moduli (GPa) = 20.70276 17.87771 27.43534
#
# Poissons Ratio (x) = 0.16927 1.01618
# Poissons Ratio (y) = 0.19602 0.10475
# Poissons Ratio (z) = 0.76681 0.06826
#
# Static dielectric constant tensor:
#      x y z
#    x 1.586150 0.000000 0.000000 
#    y 0.000000 1.601300 0.000000 
#    z 0.000000 0.000000 1.577080 
# 
# From -- ./inp_files/18971.got.cif
#   From: 2010.05.17/outbox.cif.g08.bks.cpg/sg38_10_cif.got.tgz:18971.got - 2010.06.03 18:07:57.
