data_PCOD9357184
_publ_section_title
;
Structure prediction by ZEFSAII (Michael W. Deem and Ramdas Pophale) SiO2 
 PCOD9357184
Probable space group: A M M 2
;
_chemical_formula_sum "Si O2"
_cell_formula_units_Z 36
_cell_length_a 10.072821
_cell_length_b 12.956546
_cell_length_c 16.429063
_cell_angle_alpha 90.000000
_cell_angle_beta 90.000000
_cell_angle_gamma 90.000000
_cell_volume 2144.140068
_symmetry_space_group_name_H-M "A M M 2"
_symmetry_group_IT_number 38
_symmetry_cell_setting 'orthorhombic'
loop_
_space_group_symop_operation_xyz
x,y,z
-x,-y,z
-x,y,z
x,-y,z
x,1/2+y,1/2+z
-x,1/2-y,1/2+z
-x,1/2+y,1/2+z
x,1/2-y,1/2+z
loop_
_atom_site_type_symbol
_atom_site_label
_atom_site_fract_x
_atom_site_fract_y
_atom_site_fract_z
Si Si1 0.500000 0.882268 0.401791
Si Si2 0.273985 0.192502 0.525731
Si Si3 0.500000 0.164882 0.826239
Si Si4 0.000000 0.378268 0.103370
Si Si5 0.769477 0.382513 0.414610
Si Si6 0.000000 0.125449 0.790710
Si Si7 0.500000 0.622099 0.138264
O O1 0.632983 0.863032 0.456908
O O2 0.500000 0.789422 0.336971
O O3 0.500000 0.000000 0.372567
O O4 0.243276 0.305641 0.490436
O O5 0.371164 0.179288 0.602587
O O6 0.132325 0.149007 0.553167
O O7 0.372038 0.121546 0.871361
O O8 0.500000 0.129861 0.734209
O O9 0.000000 0.335678 0.197138
O O10 0.000000 0.500000 0.113393
O O11 0.804098 0.500000 0.437613
O O12 0.873897 0.344969 0.346118
O O13 0.000000 0.000000 0.786744
O O14 0.500000 0.500000 0.113940
#
# Coordination Sequence:
#
# PCOD9357184 Si02
#       7
#     4   8   4   4   8   4   4
#     4   9  18  35  50  69 102 137 163 195 240 295
#     4  10  20  31  50  75  99 129 165 198 248 297
#     4  10  20  31  53  77  96 127 170 202 241 290
#     4  11  19  30  49  77 101 123 160 211 250 287
#     4  10  19  34  51  72  99 131 165 203 241 291
#     4   9  19  32  50  71  97 127 157 197 251 287
#     4  11  20  34  51  74 102 126 155 207 257 289
#
# _framework density 16.789947000000002
#
# number of rings (size 3 to 8) (size 9 to 14) (size 15 to 20)
#    0.000    2.000    0.000    6.333    0.000    1.778 
#    0.000    1.111    0.000    0.000    0.000    9.333 
#    0.000    0.000    0.000    0.000    0.000    0.000 
#
# Total GULP energy -100252.360574 kJ/mol
# GULP energy per Si atom -5569.575587 kJ/mol
# Density = 1.675173 g / cm^3
# Si number density = 16.789947 Si / 1000 Ang^3
#
#
#
# Elastic Constant Matrix: (Units=GPa)
#
#
# Indices 1 2 3 4 5 6 
#
# 1 146.0270 20.4682 36.0972 0.0000 0.0000 0.0000
# 2 20.4682 99.0146 41.1848 0.0000 0.0000 0.0000
# 3 36.0972 41.1848 75.2722 0.0000 0.0000 0.0000
# 4 0.0000 0.0000 0.0000 19.9873 0.0000 0.0000
# 5 0.0000 0.0000 0.0000 0.0000 16.9136 0.0000
# 6 0.0000 0.0000 0.0000 0.0000 0.0000 15.4376
#
#
#
# Elastic Compliance Matrix: (Units=1/GPa)
#
#
# Indices 1 2 3 4 5 6 
#
# 1 0.007769 -0.000073 -0.003686 0.000000 0.000000 0.000000
# 2 -0.000073 0.013076 -0.007119 0.000000 0.000000 0.000000
# 3 -0.003686 -0.007119 0.018948 0.000000 0.000000 0.000000
# 4 0.000000 0.000000 0.000000 0.050032 0.000000 0.000000
# 5 0.000000 0.000000 0.000000 0.000000 0.059124 0.000000
# 6 0.000000 0.000000 0.000000 0.000000 0.000000 0.064777
#
#
# Mechanical properties :
#
#
# Convention : Reuss Voigt Hill
#
# Bulk Modulus (GPa) = 55.44234 57.31272 56.37753
# Shear Modulus (GPa) = 20.70435 25.30527 23.00481
#
# Velocity S-wave (km/s) = 3.51542 3.88644 3.70557
# Velocity P-wave (km/s) = 7.04062 7.37214 7.20829
#
# Compressibility (1/GPa) = 0.01803676
#
# Stress axis : x y z
#
# Youngs Moduli (GPa) = 128.70958 76.47653 52.77570
#
# Poissons Ratio (x) = 0.00558 0.19453
# Poissons Ratio (y) = 0.00939 0.37573
# Poissons Ratio (z) = 0.47442 0.54447
#
# Static dielectric constant tensor:
#      x y z
#    x 1.578680 0.000000 0.000000 
#    y 0.000000 1.577650 0.000000 
#    z 0.000000 0.000000 1.555590 
# 
# From -- ./inp_files/11635.got.cif
#   From: 2010.05.17/outbox.cif.g08.bks.cpg/sg38_6_cif.got.tgz:11635.got - 2010.06.03 18:07:57.
