data_PCOD9357898
_publ_section_title
;
Structure prediction by ZEFSAII (Michael W. Deem and Ramdas Pophale) SiO2 
 PCOD9357898
Probable space group: A M M 2
;
_chemical_formula_sum "Si O2"
_cell_formula_units_Z 40
_cell_length_a 13.153383
_cell_length_b 8.296757
_cell_length_c 18.972948
_cell_angle_alpha 90.000000
_cell_angle_beta 90.000000
_cell_angle_gamma 90.000000
_cell_volume 2070.525831
_symmetry_space_group_name_H-M "A M M 2"
_symmetry_group_IT_number 38
_symmetry_cell_setting 'orthorhombic'
loop_
_space_group_symop_operation_xyz
x,y,z
-x,-y,z
-x,y,z
x,-y,z
x,1/2+y,1/2+z
-x,1/2-y,1/2+z
-x,1/2+y,1/2+z
x,1/2-y,1/2+z
loop_
_atom_site_type_symbol
_atom_site_label
_atom_site_fract_x
_atom_site_fract_y
_atom_site_fract_z
Si Si1 0.384956 0.194646 0.105150
Si Si2 0.000000 0.302811 0.765057
Si Si3 0.000000 0.696910 0.602624
Si Si4 0.803722 0.192593 0.353495
Si Si5 0.196038 0.805111 0.013618
Si Si6 0.615843 0.192940 0.763073
O O1 0.500000 0.251916 0.090297
O O2 0.300392 0.251570 0.050240
O O3 0.358179 0.245399 0.184676
O O4 0.385972 0.000000 0.103130
O O5 0.000000 0.250110 0.683788
O O6 0.100866 0.249516 0.806499
O O7 0.000000 0.500000 0.764695
O O8 0.899693 0.748859 0.560505
O O9 0.000000 0.500000 0.603350
O O10 0.813026 0.250897 0.433414
O O11 0.698823 0.248284 0.318287
O O12 0.806141 0.000000 0.352945
O O13 0.196625 0.000000 0.014589
O O14 0.500000 0.247754 0.778791
O O15 0.615985 0.000000 0.762252
#
# Coordination Sequence:
#
# PCOD9357898 Si02
#       6
#     8   4   4   8   8   8
#     4   9  18  34  56  79 104 139 182 224 268 320
#     4   9  19  36  57  81 108 141 182 225 270 320
#     4   9  17  32  55  77 100 137 182 223 266 320
#     4  11  22  36  56  81 112 147 182 223 270 322
#     4  10  20  34  53  78 109 143 179 221 269 320
#     4  10  21  37  57  81 110 143 181 227 274 321
#
# _framework density 19.318764000000002
#
# number of rings (size 3 to 8) (size 9 to 14) (size 15 to 20)
#    0.000    2.200    0.000    3.000    0.000    6.000 
#    0.000    3.500    0.000    2.400    0.000    0.000 
#    0.000    0.000    0.000    0.000    0.000    0.000 
#
# Total GULP energy -111695.552328 kJ/mol
# GULP energy per Si atom -5584.777616 kJ/mol
# Density = 1.927479 g / cm^3
# Si number density = 19.318764 Si / 1000 Ang^3
#
#
#
# Elastic Constant Matrix: (Units=GPa)
#
#
# Indices 1 2 3 4 5 6 
#
# 1 137.2415 16.2889 123.7473 0.0000 0.0000 0.0000
# 2 16.2889 7.8007 12.9667 0.0000 0.0000 0.0000
# 3 123.7473 12.9667 198.3710 0.0000 0.0000 0.0000
# 4 0.0000 0.0000 0.0000 34.8644 0.0000 0.0000
# 5 0.0000 0.0000 0.0000 0.0000 8.9356 0.0000
# 6 0.0000 0.0000 0.0000 0.0000 0.0000 14.4779
#
#
#
# Elastic Compliance Matrix: (Units=1/GPa)
#
#
# Indices 1 2 3 4 5 6 
#
# 1 0.019851 -0.023411 -0.010853 0.000000 0.000000 0.000000
# 2 -0.023411 0.171431 0.003399 0.000000 0.000000 0.000000
# 3 -0.010853 0.003399 0.011589 0.000000 0.000000 0.000000
# 4 0.000000 0.000000 0.000000 0.028683 0.000000 0.000000
# 5 0.000000 0.000000 0.000000 0.000000 0.111911 0.000000
# 6 0.000000 0.000000 0.000000 0.000000 0.000000 0.069071
#
#
# Mechanical properties :
#
#
# Convention : Reuss Voigt Hill
#
# Bulk Modulus (GPa) = 7.08518 72.15765 39.62141
# Shear Modulus (GPa) = 9.59115 24.34960 16.97038
#
# Velocity S-wave (km/s) = 2.23057 3.55408 2.96706
# Velocity P-wave (km/s) = 3.21083 7.36710 5.68259
#
# Compressibility (1/GPa) = 0.14113975
#
# Stress axis : x y z
#
# Youngs Moduli (GPa) = 50.37518 5.83326 86.28650
#
# Poissons Ratio (x) = 0.13656 0.93648
# Poissons Ratio (y) = 1.17934 -0.29325
# Poissons Ratio (z) = 0.54673 -0.01982
#
# Static dielectric constant tensor:
#      x y z
#    x 1.684680 0.000000 0.000000 
#    y 0.000000 1.674380 0.000000 
#    z 0.000000 0.000000 1.625700 
# 
# From -- ./inp_files/14288.got.cif
#   From: 2010.05.17/outbox.cif.g08.bks.cpg/sg38_8_cif.got.tgz:14288.got - 2010.06.03 18:07:57.
