data_PCOD9357529
_publ_section_title
;
Structure prediction by ZEFSAII (Michael W. Deem and Ramdas Pophale) SiO2 
 PCOD9357529
Probable space group: A M M 2
;
_chemical_formula_sum "Si O2"
_cell_formula_units_Z 64
_cell_length_a 13.880755
_cell_length_b 29.049201
_cell_length_c 10.288389
_cell_angle_alpha 90.000000
_cell_angle_beta 90.000000
_cell_angle_gamma 90.000000
_cell_volume 4148.534029
_symmetry_space_group_name_H-M "A M M 2"
_symmetry_group_IT_number 38
_symmetry_cell_setting 'orthorhombic'
loop_
_space_group_symop_operation_xyz
x,y,z
-x,-y,z
-x,y,z
x,-y,z
x,1/2+y,1/2+z
-x,1/2-y,1/2+z
-x,1/2+y,1/2+z
x,1/2-y,1/2+z
loop_
_atom_site_type_symbol
_atom_site_label
_atom_site_fract_x
_atom_site_fract_y
_atom_site_fract_z
Si Si1 0.194675 0.353375 0.329620
Si Si2 0.885868 0.642737 0.812319
Si Si3 0.117122 0.448752 0.940659
Si Si4 0.609382 0.274292 0.075552
Si Si5 0.884217 0.446871 0.245916
Si Si6 0.811420 0.694953 0.057694
Si Si7 0.390539 0.803476 0.863934
Si Si8 0.885370 0.201491 0.070546
O O1 0.168411 0.407066 0.326091
O O2 0.167196 0.332470 0.189176
O O3 0.306807 0.341107 0.353635
O O4 0.136902 0.325010 0.437766
O O5 0.846804 0.592424 0.850083
O O6 0.847318 0.669345 0.687224
O O7 0.000000 0.637404 0.790543
O O8 0.868620 0.674166 0.937883
O O9 0.148924 0.500000 0.902726
O O10 0.000000 0.448364 0.936335
O O11 0.141043 0.441206 0.092673
O O12 0.500000 0.290558 0.049799
O O13 0.696526 0.307101 0.032646
O O14 0.619464 0.272012 0.232780
O O15 0.621118 0.227696 0.992395
O O16 0.862606 0.500000 0.281562
O O17 0.000000 0.440741 0.257561
O O18 0.837282 0.748490 0.074229
O O19 0.500000 0.821636 0.862632
O O20 0.000000 0.208146 0.085067
#
# Coordination Sequence:
#
# PCOD9357529 Si02
#       8
#     8   8   8   8   8   8   8   8
#     4  11  20  32  50  70  95 127 161 199 239 283
#     4  10  20  32  45  66  95 125 159 195 229 273
#     4   8  14  28  49  68  85 113 157 201 234 267
#     4   9  18  31  46  66  90 120 157 194 231 272
#     4   9  17  30  49  71  93 122 164 205 235 274
#     4  11  20  31  48  66  91 130 162 189 227 275
#     4   9  18  32  50  70  93 123 158 199 242 282
#     4  11  23  32  41  65 100 130 157 190 230 281
#
# _framework density 15.427136000000001
#
# number of rings (size 3 to 8) (size 9 to 14) (size 15 to 20)
#    0.000    2.250    2.500    2.250    1.750    2.500 
#    0.000    0.625    0.000    2.625    0.000    0.000 
#    0.000    0.500    0.000    0.000    0.000    0.000 
#
# Total GULP energy -178213.088956 kJ/mol
# GULP energy per Si atom -5569.159030 kJ/mol
# Density = 1.539202 g / cm^3
# Si number density = 15.427136 Si / 1000 Ang^3
#
#
#
# Elastic Constant Matrix: (Units=GPa)
#
#
# Indices 1 2 3 4 5 6 
#
# 1 21.0158 9.8738 4.6790 0.0000 0.0000 0.0000
# 2 9.8738 101.4830 26.2968 0.0000 0.0000 0.0000
# 3 4.6790 26.2968 41.3839 0.0000 0.0000 0.0000
# 4 0.0000 0.0000 0.0000 5.4847 0.0000 0.0000
# 5 0.0000 0.0000 0.0000 0.0000 14.8357 0.0000
# 6 0.0000 0.0000 0.0000 0.0000 0.0000 7.7138
#
#
#
# Elastic Compliance Matrix: (Units=1/GPa)
#
#
# Indices 1 2 3 4 5 6 
#
# 1 0.050188 -0.004085 -0.003078 0.000000 0.000000 0.000000
# 2 -0.004085 0.012129 -0.007245 0.000000 0.000000 0.000000
# 3 -0.003078 -0.007245 0.029116 0.000000 0.000000 0.000000
# 4 0.000000 0.000000 0.000000 0.182326 0.000000 0.000000
# 5 0.000000 0.000000 0.000000 0.000000 0.067405 0.000000
# 6 0.000000 0.000000 0.000000 0.000000 0.000000 0.129638
#
#
# Mechanical properties :
#
#
# Convention : Reuss Voigt Hill
#
# Bulk Modulus (GPa) = 15.97068 27.28691 21.62880
# Shear Modulus (GPa) = 9.60632 13.80904 11.70768
#
# Velocity S-wave (km/s) = 2.49808 2.99509 2.75781
# Velocity P-wave (km/s) = 4.32381 5.44856 4.91844
#
# Compressibility (1/GPa) = 0.06261473
#
# Stress axis : x y z
#
# Youngs Moduli (GPa) = 19.92505 82.44871 34.34554
#
# Poissons Ratio (x) = 0.33683 0.10573
# Poissons Ratio (y) = 0.08140 0.24884
# Poissons Ratio (z) = 0.06134 0.59735
#
# Static dielectric constant tensor:
#      x y z
#    x 1.528960 0.000000 0.000000 
#    y 0.000000 1.512220 0.000000 
#    z 0.000000 0.000000 1.524740 
# 
# From -- ./inp_files/5981.got.cif
#   From: 2010.05.17/outbox.cif.g08.bks.cpg/sg38_3_cif.got.tgz:5981.got - 2010.06.03 18:07:57.
