data_PCOD9357376
_publ_section_title
;
Structure prediction by ZEFSAII (Michael W. Deem and Ramdas Pophale) SiO2 
 PCOD9357376
Probable space group: A M M 2
;
_chemical_formula_sum "Si O2"
_cell_formula_units_Z 64
_cell_length_a 24.214813
_cell_length_b 7.929144
_cell_length_c 15.847311
_cell_angle_alpha 90.000000
_cell_angle_beta 90.000000
_cell_angle_gamma 90.000000
_cell_volume 3042.727121
_symmetry_space_group_name_H-M "A M M 2"
_symmetry_group_IT_number 38
_symmetry_cell_setting 'orthorhombic'
loop_
_space_group_symop_operation_xyz
x,y,z
-x,-y,z
-x,y,z
x,-y,z
x,1/2+y,1/2+z
-x,1/2-y,1/2+z
-x,1/2+y,1/2+z
x,1/2-y,1/2+z
loop_
_atom_site_type_symbol
_atom_site_label
_atom_site_fract_x
_atom_site_fract_y
_atom_site_fract_z
Si Si1 0.739472 0.295719 0.702310
Si Si2 0.241058 0.695931 0.508087
Si Si3 0.124311 0.805406 0.447548
Si Si4 0.621547 0.802960 0.771889
Si Si5 0.140482 0.206984 0.262566
Si Si6 0.356801 0.802983 0.453582
Si Si7 0.437096 0.293535 0.102783
Si Si8 0.061966 0.300201 0.612671
O O1 0.734625 0.500000 0.707292
O O2 0.745276 0.249357 0.603743
O O3 0.684747 0.219219 0.742008
O O4 0.795974 0.243423 0.747949
O O5 0.224411 0.500000 0.512039
O O6 0.189104 0.793176 0.470798
O O7 0.297209 0.715287 0.455808
O O8 0.118587 0.735118 0.353185
O O9 0.089559 0.721947 0.521628
O O10 0.107431 0.000000 0.445822
O O11 0.615530 0.717536 0.862505
O O12 0.584683 0.737543 0.694300
O O13 0.609271 0.000000 0.783028
O O14 0.102861 0.266714 0.185055
O O15 0.140716 0.000000 0.262915
O O16 0.395769 0.737571 0.528775
O O17 0.346186 0.000000 0.469199
O O18 0.500000 0.241163 0.087973
O O19 0.435868 0.500000 0.102541
O O20 0.058159 0.500000 0.628328
O O21 0.000000 0.229379 0.615812
#
# Coordination Sequence:
#
# PCOD9357376 Si02
#       8
#     8   8   8   8   8   8   8   8
#     4  10  19  35  60  85 116 151 189 237 290 350
#     4  11  21  36  61  89 119 153 192 237 290 351
#     4  11  22  36  60  90 120 150 188 239 293 349
#     4  11  22  37  59  88 118 151 194 239 292 351
#     4   9  19  37  58  83 111 149 191 229 281 342
#     4  11  22  38  60  87 119 155 195 238 292 351
#     4   9  20  39  60  82 114 156 199 245 294 344
#     4  10  21  40  62  81 110 155 201 242 289 344
#
# _framework density 21.033763
#
# number of rings (size 3 to 8) (size 9 to 14) (size 15 to 20)
#    0.000    1.750    2.500    2.250    0.000    2.750 
#    0.000    3.125    0.000    5.250    0.000    0.000 
#    0.000    0.000    0.000    0.000    0.000    0.000 
#
# Total GULP energy -178840.545900 kJ/mol
# GULP energy per Si atom -5588.767059 kJ/mol
# Density = 2.098589 g / cm^3
# Si number density = 21.033763 Si / 1000 Ang^3
#
#
#
# Elastic Constant Matrix: (Units=GPa)
#
#
# Indices 1 2 3 4 5 6 
#
# 1 79.8535 -10.3703 0.0715 0.0000 0.0000 0.0000
# 2 -10.3703 20.3049 -7.4312 0.0000 0.0000 0.0000
# 3 0.0715 -7.4312 89.0537 0.0000 0.0000 0.0000
# 4 0.0000 0.0000 0.0000 15.3176 0.0000 0.0000
# 5 0.0000 0.0000 0.0000 0.0000 4.7516 0.0000
# 6 0.0000 0.0000 0.0000 0.0000 0.0000 21.4364
#
#
#
# Elastic Compliance Matrix: (Units=1/GPa)
#
#
# Indices 1 2 3 4 5 6 
#
# 1 0.013441 0.007077 0.000580 0.000000 0.000000 0.000000
# 2 0.007077 0.054527 0.004544 0.000000 0.000000 0.000000
# 3 0.000580 0.004544 0.011608 0.000000 0.000000 0.000000
# 4 0.000000 0.000000 0.000000 0.065285 0.000000 0.000000
# 5 0.000000 0.000000 0.000000 0.000000 0.210458 0.000000
# 6 0.000000 0.000000 0.000000 0.000000 0.000000 0.046650
#
#
# Mechanical properties :
#
#
# Convention : Reuss Voigt Hill
#
# Bulk Modulus (GPa) = 9.61737 17.08359 13.35048
# Shear Modulus (GPa) = 12.12930 22.09723 17.11327
#
# Velocity S-wave (km/s) = 2.40398 3.24475 2.85548
# Velocity P-wave (km/s) = 3.50539 4.70930 4.15122
#
# Compressibility (1/GPa) = 0.10397856
#
# Stress axis : x y z
#
# Youngs Moduli (GPa) = 74.39657 18.33964 86.14806
#
# Poissons Ratio (x) = -0.12979 -0.04995
# Poissons Ratio (y) = -0.52651 -0.39149
# Poissons Ratio (z) = -0.04313 -0.08334
#
# Static dielectric constant tensor:
#      x y z
#    x 1.721150 0.000000 0.000000 
#    y 0.000000 1.762940 0.000000 
#    z 0.000000 0.000000 1.754170 
# 
# From -- ./inp_files/15820.got.cif
#   From: 2010.05.17/outbox.cif.g08.bks.cpg/sg38_8_cif.got.tgz:15820.got - 2010.06.03 18:07:57.
