data_PCOD9357401
_publ_section_title
;
Structure prediction by ZEFSAII (Michael W. Deem and Ramdas Pophale) SiO2 
 PCOD9357401
Probable space group: A M M 2
;
_chemical_formula_sum "Si O2"
_cell_formula_units_Z 56
_cell_length_a 14.592913
_cell_length_b 20.900752
_cell_length_c 8.188624
_cell_angle_alpha 90.000000
_cell_angle_beta 90.000000
_cell_angle_gamma 90.000000
_cell_volume 2497.553703
_symmetry_space_group_name_H-M "A M M 2"
_symmetry_group_IT_number 38
_symmetry_cell_setting 'orthorhombic'
loop_
_space_group_symop_operation_xyz
x,y,z
-x,-y,z
-x,y,z
x,-y,z
x,1/2+y,1/2+z
-x,1/2-y,1/2+z
-x,1/2+y,1/2+z
x,1/2-y,1/2+z
loop_
_atom_site_type_symbol
_atom_site_label
_atom_site_fract_x
_atom_site_fract_y
_atom_site_fract_z
Si Si1 0.398948 0.428011 0.389830
Si Si2 0.852745 0.574664 0.079231
Si Si3 0.395620 0.694731 0.808160
Si Si4 0.107650 0.928944 0.214010
Si Si5 0.706998 0.695288 0.486032
Si Si6 0.892725 0.657518 0.401761
Si Si7 0.363523 0.569931 0.017039
O O1 0.500000 0.413808 0.461052
O O2 0.371781 0.500000 0.439138
O O3 0.325755 0.374431 0.428586
O O4 0.407681 0.427702 0.194724
O O5 0.882864 0.500000 0.101767
O O6 0.883178 0.617565 0.232735
O O7 0.743608 0.574800 0.061493
O O8 0.882772 0.597008 0.898318
O O9 0.500000 0.704321 0.746661
O O10 0.314042 0.693831 0.676863
O O11 0.365898 0.753164 0.921761
O O12 0.392394 0.628217 0.905205
O O13 0.133165 0.886207 0.059507
O O14 0.000000 0.936747 0.189881
O O15 0.151841 0.000000 0.210792
O O16 0.809434 0.708271 0.418585
O O17 0.000000 0.678151 0.415850
O O18 0.381110 0.500000 0.941842
#
# Coordination Sequence:
#
# PCOD9357401 Si02
#       7
#     8   8   8   8   8   8   8
#     4  10  20  37  62  93 134 177 217 275 345 411
#     4  10  19  35  62  99 140 184 227 278 347 416
#     4  12  26  45  72 100 133 180 231 290 358 430
#     4   9  18  32  54  90 134 179 231 285 337 404
#     4  12  26  45  67  97 134 176 240 291 346 424
#     4  11  23  40  64  96 136 185 237 291 352 411
#     4  10  21  39  66 102 140 173 214 272 345 425
#
# _framework density 22.421939999999999
#
# number of rings (size 3 to 8) (size 9 to 14) (size 15 to 20)
#    0.000    1.429    1.429    4.286    0.000    3.429 
#    0.000    0.714    0.000    0.000    0.000    0.000 
#    0.000    0.000    0.000    0.000    0.000    0.000 
#
# Total GULP energy -156263.066198 kJ/mol
# GULP energy per Si atom -5580.823793 kJ/mol
# Density = 2.237091 g / cm^3
# Si number density = 22.421940 Si / 1000 Ang^3
#
#
#
# Elastic Constant Matrix: (Units=GPa)
#
#
# Indices 1 2 3 4 5 6 
#
# 1 129.5502 38.9347 6.3843 0.0000 0.0000 0.0000
# 2 38.9347 66.1809 24.0102 0.0000 0.0000 0.0000
# 3 6.3843 24.0102 91.4060 0.0000 0.0000 0.0000
# 4 0.0000 0.0000 0.0000 26.6127 0.0000 0.0000
# 5 0.0000 0.0000 0.0000 0.0000 20.3719 0.0000
# 6 0.0000 0.0000 0.0000 0.0000 0.0000 44.9276
#
#
#
# Elastic Compliance Matrix: (Units=1/GPa)
#
#
# Indices 1 2 3 4 5 6 
#
# 1 0.009441 -0.005875 0.000884 0.000000 0.000000 0.000000
# 2 -0.005875 0.020358 -0.004937 0.000000 0.000000 0.000000
# 3 0.000884 -0.004937 0.012175 0.000000 0.000000 0.000000
# 4 0.000000 0.000000 0.000000 0.037576 0.000000 0.000000
# 5 0.000000 0.000000 0.000000 0.000000 0.049087 0.000000
# 6 0.000000 0.000000 0.000000 0.000000 0.000000 0.022258
#
#
# Mechanical properties :
#
#
# Convention : Reuss Voigt Hill
#
# Bulk Modulus (GPa) = 45.21309 47.31061 46.26185
# Shear Modulus (GPa) = 28.07029 32.90296 30.48662
#
# Velocity S-wave (km/s) = 3.54208 3.83488 3.69138
# Velocity P-wave (km/s) = 6.07757 6.38391 6.23262
#
# Compressibility (1/GPa) = 0.02211749
#
# Stress axis : x y z
#
# Youngs Moduli (GPa) = 105.91990 49.12190 82.13325
#
# Poissons Ratio (x) = 0.28859 -0.07259
# Poissons Ratio (y) = 0.62227 0.40550
# Poissons Ratio (z) = -0.09361 0.24252
#
# Static dielectric constant tensor:
#      x y z
#    x 1.378150 0.000000 0.000000 
#    y 0.000000 1.853080 0.000000 
#    z 0.000000 0.000000 1.856010 
# 
# From -- ./inp_files/5721.got.cif
#   From: 2010.05.17/outbox.cif.g08.bks.cpg/sg38_3_cif.got.tgz:5721.got - 2010.06.03 18:07:57.
