data_PCOD9357752
_publ_section_title
;
Structure prediction by ZEFSAII (Michael W. Deem and Ramdas Pophale) SiO2 
 PCOD9357752
Probable space group: A M M 2
;
_chemical_formula_sum "Si O2"
_cell_formula_units_Z 56
_cell_length_a 9.212249
_cell_length_b 20.048583
_cell_length_c 15.650389
_cell_angle_alpha 90.000000
_cell_angle_beta 90.000000
_cell_angle_gamma 90.000000
_cell_volume 2890.510076
_symmetry_space_group_name_H-M "A M M 2"
_symmetry_group_IT_number 38
_symmetry_cell_setting 'orthorhombic'
loop_
_space_group_symop_operation_xyz
x,y,z
-x,-y,z
-x,y,z
x,-y,z
x,1/2+y,1/2+z
-x,1/2-y,1/2+z
-x,1/2+y,1/2+z
x,1/2-y,1/2+z
loop_
_atom_site_type_symbol
_atom_site_label
_atom_site_fract_x
_atom_site_fract_y
_atom_site_fract_z
Si Si1 0.333514 0.254463 0.987080
Si Si2 0.840892 0.076443 0.896035
Si Si3 0.827813 0.689408 0.147556
Si Si4 0.171919 0.076578 0.233438
Si Si5 0.173351 0.781788 0.310917
Si Si6 0.664295 0.919867 0.738042
Si Si7 0.665889 0.395941 0.557772
O O1 0.500000 0.276561 0.977415
O O2 0.255122 0.256881 0.895428
O O3 0.247504 0.296106 0.057834
O O4 0.334923 0.181125 0.029412
O O5 0.717507 0.101982 0.832442
O O6 0.000000 0.109324 0.889348
O O7 0.858450 0.000000 0.868837
O O8 0.779665 0.074836 0.990616
O O9 0.784841 0.741256 0.224155
O O10 0.776846 0.616700 0.177304
O O11 0.000000 0.694461 0.138846
O O12 0.200207 0.138966 0.296233
O O13 0.271729 0.089874 0.151064
O O14 0.000000 0.081512 0.209857
O O15 0.195753 0.000000 0.263782
O O16 0.000000 0.772623 0.321632
O O17 0.500000 0.896755 0.722765
O O18 0.665014 0.000000 0.730160
O O19 0.500000 0.420452 0.549193
#
# Coordination Sequence:
#
# PCOD9357752 Si02
#       7
#     8   8   8   8   8   8   8
#     4  11  24  39  59  87 119 158 202 252 310 370
#     4  10  20  33  51  78 113 153 195 237 287 352
#     4  11  22  39  64  90 118 156 202 253 303 362
#     4  10  21  39  62  87 120 162 206 256 314 374
#     4  10  22  40  62  90 121 159 206 258 311 367
#     4  10  21  37  57  83 118 156 193 241 302 364
#     4  11  22  35  54  84 118 154 197 249 308 369
#
# _framework density 19.373743999999999
#
# number of rings (size 3 to 8) (size 9 to 14) (size 15 to 20)
#    0.000    1.571    1.429    3.429    0.000    9.429 
#    0.000    0.714    0.000    2.571    0.000    0.000 
#    0.000    0.000    0.000    0.000    0.000    0.000 
#
# Total GULP energy -156207.965944 kJ/mol
# GULP energy per Si atom -5578.855927 kJ/mol
# Density = 1.932965 g / cm^3
# Si number density = 19.373744 Si / 1000 Ang^3
#
#
#
# Elastic Constant Matrix: (Units=GPa)
#
#
# Indices 1 2 3 4 5 6 
#
# 1 69.6065 19.3476 31.2023 0.0000 0.0000 0.0000
# 2 19.3476 76.2069 16.0767 0.0000 0.0000 0.0000
# 3 31.2023 16.0767 75.0292 0.0000 0.0000 0.0000
# 4 0.0000 0.0000 0.0000 25.7521 0.0000 0.0000
# 5 0.0000 0.0000 0.0000 0.0000 199.1329 0.0000
# 6 0.0000 0.0000 0.0000 0.0000 0.0000 8.3767
#
#
#
# Elastic Compliance Matrix: (Units=1/GPa)
#
#
# Indices 1 2 3 4 5 6 
#
# 1 0.018373 -0.003197 -0.006956 0.000000 0.000000 0.000000
# 2 -0.003197 0.014300 -0.001734 0.000000 0.000000 0.000000
# 3 -0.006956 -0.001734 0.016592 0.000000 0.000000 0.000000
# 4 0.000000 0.000000 0.000000 0.038832 0.000000 0.000000
# 5 0.000000 0.000000 0.000000 0.000000 0.005022 0.000000
# 6 0.000000 0.000000 0.000000 0.000000 0.000000 0.119379
#
#
# Mechanical properties :
#
#
# Convention : Reuss Voigt Hill
#
# Bulk Modulus (GPa) = 39.23013 39.34399 39.28706
# Shear Modulus (GPa) = 20.42734 56.93340 38.68037
#
# Velocity S-wave (km/s) = 3.25065 5.42685 4.47311
# Velocity P-wave (km/s) = 5.86362 7.72137 6.85571
#
# Compressibility (1/GPa) = 0.02549061
#
# Stress axis : x y z
#
# Youngs Moduli (GPa) = 54.42711 69.93110 60.26835
#
# Poissons Ratio (x) = 0.22359 0.41921
# Poissons Ratio (y) = 0.17402 0.10453
# Poissons Ratio (z) = 0.37858 0.12129
#
# Static dielectric constant tensor:
#      x y z
#    x 1.549990 0.000000 0.000000 
#    y 0.000000 2.853800 0.000000 
#    z 0.000000 0.000000 1.653710 
# 
# From -- ./inp_files/12354.got.cif
#   From: 2010.05.17/outbox.cif.g08.bks.cpg/sg38_7_cif.got.tgz:12354.got - 2010.06.03 18:07:57.
