data_PCOD9357490
_publ_section_title
;
Structure prediction by ZEFSAII (Michael W. Deem and Ramdas Pophale) SiO2 
 PCOD9357490
Probable space group: A M M 2
;
_chemical_formula_sum "Si O2"
_cell_formula_units_Z 48
_cell_length_a 7.451172
_cell_length_b 14.184551
_cell_length_c 18.503681
_cell_angle_alpha 90.000000
_cell_angle_beta 90.000000
_cell_angle_gamma 90.000000
_cell_volume 1955.682342
_symmetry_space_group_name_H-M "A M M 2"
_symmetry_group_IT_number 38
_symmetry_cell_setting 'orthorhombic'
loop_
_space_group_symop_operation_xyz
x,y,z
-x,-y,z
-x,y,z
x,-y,z
x,1/2+y,1/2+z
-x,1/2-y,1/2+z
-x,1/2+y,1/2+z
x,1/2-y,1/2+z
loop_
_atom_site_type_symbol
_atom_site_label
_atom_site_fract_x
_atom_site_fract_y
_atom_site_fract_z
Si Si1 0.709742 0.316847 0.975350
Si Si2 0.705167 0.638607 0.665137
Si Si3 0.706165 0.860170 0.628238
Si Si4 0.719672 0.599687 0.284086
Si Si5 0.279509 0.311618 0.818910
Si Si6 0.795724 0.898843 0.005761
O O1 0.500000 0.341810 0.975706
O O2 0.781298 0.346038 0.897295
O O3 0.788772 0.362029 0.048396
O O4 0.715085 0.201976 0.982848
O O5 0.500000 0.604427 0.665075
O O6 0.699162 0.750123 0.649248
O O7 0.778877 0.633053 0.746667
O O8 0.796420 0.600333 0.593460
O O9 0.500000 0.893393 0.622856
O O10 0.783404 0.903000 0.700814
O O11 0.500000 0.602237 0.283978
O O12 0.773615 0.500000 0.318740
O O13 0.775096 0.701074 0.314336
O O14 0.500000 0.313278 0.816795
O O15 0.000000 0.896516 0.980138
O O16 0.712797 0.000000 0.983798
#
# Coordination Sequence:
#
# PCOD9357490 Si02
#       6
#     8   8   8   8   8   8
#     4   9  16  27  44  63  84 110 137 168 210 259
#     4   8  14  27  45  61  79 106 141 177 211 250
#     4   7  11  20  34  52  74 102 132 157 186 231
#     4   8  12  18  30  51  79 105 126 153 192 236
#     4   8  14  24  40  63  85 104 133 174 212 246
#     4  10  20  31  42  60  87 115 145 183 219 250
#
# _framework density 24.543861
#
# number of rings (size 3 to 8) (size 9 to 14) (size 15 to 20)
#    0.000    3.667    0.000    3.500    0.000    2.000 
#    0.000    2.500    0.000    1.000    0.000    4.667 
#    0.000   42.667    0.000    0.000    0.000    0.667 
#
# Total GULP energy -133685.113751 kJ/mol
# GULP energy per Si atom -5570.213073 kJ/mol
# Density = 2.448800 g / cm^3
# Si number density = 24.543861 Si / 1000 Ang^3
#
#
#
# Elastic Constant Matrix: (Units=GPa)
#
#
# Indices 1 2 3 4 5 6 
#
# 1 72.9127 -8.4555 0.7988 0.0000 0.0000 0.0000
# 2 -8.4555 47.2374 -13.3261 0.0000 0.0000 0.0000
# 3 0.7988 -13.3261 192.8923 0.0000 0.0000 0.0000
# 4 0.0000 0.0000 0.0000 -7.5496 0.0000 0.0000
# 5 0.0000 0.0000 0.0000 0.0000 -121.3373 0.0000
# 6 0.0000 0.0000 0.0000 0.0000 0.0000 10.5458
#
#
#
# Elastic Compliance Matrix: (Units=1/GPa)
#
#
# Indices 1 2 3 4 5 6 
#
# 1 0.014008 0.002541 0.000118 0.000000 0.000000 0.000000
# 2 0.002541 0.022051 0.001513 0.000000 0.000000 0.000000
# 3 0.000118 0.001513 0.005288 0.000000 0.000000 0.000000
# 4 0.000000 0.000000 0.000000 -0.132458 0.000000 0.000000
# 5 0.000000 0.000000 0.000000 0.000000 -0.008241 0.000000
# 6 0.000000 0.000000 0.000000 0.000000 0.000000 0.094824
#
#
# Mechanical properties :
#
#
# Convention : Reuss Voigt Hill
#
# Bulk Modulus (GPa) = 20.12476 30.11966 25.12221
# Shear Modulus (GPa) = 1353.52366 -1.39986 676.06190
#
# Velocity S-wave (km/s) = 23.50890 -0.75603 16.61471
# Velocity P-wave (km/s) = 27.29668 3.39651 19.45051
#
# Compressibility (1/GPa) = 0.04969004
#
# Stress axis : x y z
#
# Youngs Moduli (GPa) = 71.38581 45.34892 189.09770
#
# Poissons Ratio (x) = -0.11522 -0.02222
# Poissons Ratio (y) = -0.18137 -0.28609
# Poissons Ratio (z) = -0.00839 -0.06861
#
# Static dielectric constant tensor:
#      x y z
#    x 2.019490 0.000000 0.000000 
#    y 0.000000 1.958470 0.000000 
#    z 0.000000 0.000000 2.001950 
# 
# From -- ./inp_files/16852.got.cif
#   From: 2010.05.17/outbox.cif.g08.bks.cpg/sg38_9_cif.got.tgz:16852.got - 2010.06.03 18:07:57.
