data_PCOD9357204
_publ_section_title
;
Structure prediction by ZEFSAII (Michael W. Deem and Ramdas Pophale) SiO2 
 PCOD9357204
Probable space group: A M M 2
;
_chemical_formula_sum "Si O2"
_cell_formula_units_Z 64
_cell_length_a 15.179652
_cell_length_b 24.687075
_cell_length_c 9.356054
_cell_angle_alpha 90.000000
_cell_angle_beta 90.000000
_cell_angle_gamma 90.000000
_cell_volume 3506.098972
_symmetry_space_group_name_H-M "A M M 2"
_symmetry_group_IT_number 38
_symmetry_cell_setting 'orthorhombic'
loop_
_space_group_symop_operation_xyz
x,y,z
-x,-y,z
-x,y,z
x,-y,z
x,1/2+y,1/2+z
-x,1/2-y,1/2+z
-x,1/2+y,1/2+z
x,1/2-y,1/2+z
loop_
_atom_site_type_symbol
_atom_site_label
_atom_site_fract_x
_atom_site_fract_y
_atom_site_fract_z
Si Si1 0.597112 0.772107 0.547880
Si Si2 0.245494 0.371196 0.364911
Si Si3 0.101326 0.435190 0.197642
Si Si4 0.894605 0.563892 0.866396
Si Si5 0.599803 0.107780 0.414390
Si Si6 0.395490 0.437864 0.212732
Si Si7 0.714129 0.243794 0.802001
Si Si8 0.755908 0.862995 0.206716
O O1 0.500000 0.749028 0.522240
O O2 0.596539 0.833947 0.494552
O O3 0.624996 0.764092 0.710148
O O4 0.677736 0.746885 0.461986
O O5 0.166667 0.408064 0.308081
O O6 0.335101 0.397385 0.302492
O O7 0.232786 0.311756 0.294784
O O8 0.249021 0.367950 0.536072
O O9 0.105378 0.500000 0.211066
O O10 0.000000 0.418483 0.219950
O O11 0.125709 0.422813 0.032694
O O12 0.874367 0.500000 0.843045
O O13 0.837924 0.602815 0.766693
O O14 0.000000 0.570225 0.847158
O O15 0.500000 0.095236 0.365994
O O16 0.626030 0.068080 0.543640
O O17 0.669117 0.113076 0.286804
O O18 0.500000 0.425813 0.226440
O O19 0.380059 0.500000 0.256799
O O20 0.759011 0.299775 0.755348
#
# Coordination Sequence:
#
# PCOD9357204 Si02
#       8
#     8   8   8   8   8   8   8   8
#     4  10  19  34  55  77 106 149 200 246 285 327
#     4  12  23  36  57  85 120 155 188 238 298 346
#     4   9  20  40  66  92 113 142 190 240 286 344
#     4   9  20  41  68  92 113 145 190 236 285 347
#     4   9  19  36  56  79 110 152 200 240 280 336
#     4  10  21  37  57  81 111 154 203 242 284 343
#     4  11  22  37  51  83 117 153 193 241 290 345
#     4  11  24  37  56  88 120 153 189 239 295 345
#
# _framework density 18.253905
#
# number of rings (size 3 to 8) (size 9 to 14) (size 15 to 20)
#    0.000    1.875    2.500    2.250    1.750    4.500 
#    0.000    1.875    0.000    1.500    0.000    0.000 
#    0.000    0.000    0.000    0.000    0.000    0.000 
#
# Total GULP energy -178475.789801 kJ/mol
# GULP energy per Si atom -5577.368431 kJ/mol
# Density = 1.821236 g / cm^3
# Si number density = 18.253905 Si / 1000 Ang^3
#
#
#
# Elastic Constant Matrix: (Units=GPa)
#
#
# Indices 1 2 3 4 5 6 
#
# 1 66.9757 45.1227 55.5153 0.0000 0.0000 0.0000
# 2 45.1227 73.2007 54.2752 0.0000 0.0000 0.0000
# 3 55.5153 54.2752 102.3601 0.0000 0.0000 0.0000
# 4 0.0000 0.0000 0.0000 20.6906 0.0000 0.0000
# 5 0.0000 0.0000 0.0000 0.0000 6.9202 0.0000
# 6 0.0000 0.0000 0.0000 0.0000 0.0000 21.4624
#
#
#
# Elastic Compliance Matrix: (Units=1/GPa)
#
#
# Indices 1 2 3 4 5 6 
#
# 1 0.031921 -0.011272 -0.011335 0.000000 0.000000 0.000000
# 2 -0.011272 0.026492 -0.007934 0.000000 0.000000 0.000000
# 3 -0.011335 -0.007934 0.020124 0.000000 0.000000 0.000000
# 4 0.000000 0.000000 0.000000 0.048331 0.000000 0.000000
# 5 0.000000 0.000000 0.000000 0.000000 0.144504 0.000000
# 6 0.000000 0.000000 0.000000 0.000000 0.000000 0.046593
#
#
# Mechanical properties :
#
#
# Convention : Reuss Voigt Hill
#
# Bulk Modulus (GPa) = 57.29197 61.37365 59.33281
# Shear Modulus (GPa) = 12.99158 15.65619 14.32389
#
# Velocity S-wave (km/s) = 2.67069 2.93181 2.80429
# Velocity P-wave (km/s) = 6.40035 6.71981 6.56202
#
# Compressibility (1/GPa) = 0.01745445
#
# Stress axis : x y z
#
# Youngs Moduli (GPa) = 31.32761 37.74752 49.69209
#
# Poissons Ratio (x) = 0.42549 0.56328
# Poissons Ratio (y) = 0.35312 0.39424
# Poissons Ratio (z) = 0.35511 0.29947
#
# Static dielectric constant tensor:
#      x y z
#    x 1.622900 0.000000 0.000000 
#    y 0.000000 1.647610 0.000000 
#    z 0.000000 0.000000 1.606470 
# 
# From -- ./inp_files/5887.got.cif
#   From: 2010.05.17/outbox.cif.g08.bks.cpg/sg38_3_cif.got.tgz:5887.got - 2010.06.03 18:07:57.
