data_PCOD9357793
_publ_section_title
;
Structure prediction by ZEFSAII (Michael W. Deem and Ramdas Pophale) SiO2 
 PCOD9357793
Probable space group: A M M 2
;
_chemical_formula_sum "Si O2"
_cell_formula_units_Z 64
_cell_length_a 14.452125
_cell_length_b 7.903579
_cell_length_c 27.083936
_cell_angle_alpha 90.000000
_cell_angle_beta 90.000000
_cell_angle_gamma 90.000000
_cell_volume 3093.622279
_symmetry_space_group_name_H-M "A M M 2"
_symmetry_group_IT_number 38
_symmetry_cell_setting 'orthorhombic'
loop_
_space_group_symop_operation_xyz
x,y,z
-x,-y,z
-x,y,z
x,-y,z
x,1/2+y,1/2+z
-x,1/2-y,1/2+z
-x,1/2+y,1/2+z
x,1/2-y,1/2+z
loop_
_atom_site_type_symbol
_atom_site_label
_atom_site_fract_x
_atom_site_fract_y
_atom_site_fract_z
Si Si1 0.604750 0.699486 0.591110
Si Si2 0.788610 0.792200 0.351312
Si Si3 0.790834 0.201193 0.548841
Si Si4 0.603569 0.700240 0.809046
Si Si5 0.106136 0.796622 0.253223
Si Si6 0.106855 0.703787 0.146297
Si Si7 0.612445 0.806555 0.700636
Si Si8 0.892722 0.207375 0.450399
O O1 0.500000 0.769550 0.585828
O O2 0.600226 0.500000 0.583672
O O3 0.681632 0.771054 0.554606
O O4 0.637207 0.730879 0.647644
O O5 0.682687 0.733998 0.345316
O O6 0.841225 0.736206 0.301709
O O7 0.841061 0.738023 0.400540
O O8 0.788664 0.000000 0.351329
O O9 0.839105 0.269633 0.598588
O O10 0.838075 0.266435 0.499047
O O11 0.806967 0.000000 0.548778
O O12 0.500000 0.773992 0.813680
O O13 0.596226 0.500000 0.817466
O O14 0.637854 0.721702 0.752406
O O15 0.146935 0.750500 0.199827
O O16 0.000000 0.733725 0.254130
O O17 0.103885 0.000000 0.255711
O O18 0.106008 0.500000 0.144061
O O19 0.000000 0.763291 0.144548
O O20 0.500000 0.801835 0.700836
O O21 0.643750 0.000000 0.701611
O O22 0.000000 0.259212 0.451301
O O23 0.892193 0.000000 0.450266
#
# Coordination Sequence:
#
# PCOD9357793 Si02
#       8
#     8   8   8   8   8   8   8   8
#     4  10  21  36  53  74 104 142 179 214 259 314
#     4   9  17  29  48  74 101 133 175 219 263 310
#     4  10  20  33  53  80 105 134 176 220 265 313
#     4   9  17  29  45  69 104 141 175 213 260 314
#     4   9  17  29  46  70  98 127 164 211 259 308
#     4   9  18  32  48  70 103 137 167 205 259 320
#     4   9  17  30  49  73 102 136 174 216 258 303
#     4   9  17  32  55  80 105 135 175 224 273 319
#
# _framework density 20.687722999999998
#
# number of rings (size 3 to 8) (size 9 to 14) (size 15 to 20)
#    0.000    2.750    0.000    1.500    1.750    5.750 
#    0.000    0.625    0.000    4.875    0.000    1.750 
#    0.000    0.000    0.000    0.000    0.000    0.000 
#
# Total GULP energy -178548.097942 kJ/mol
# GULP energy per Si atom -5579.628061 kJ/mol
# Density = 2.064064 g / cm^3
# Si number density = 20.687723 Si / 1000 Ang^3
#
#
#
# Elastic Constant Matrix: (Units=GPa)
#
#
# Indices 1 2 3 4 5 6 
#
# 1 138.3427 -0.6280 107.8448 0.0000 0.0000 0.0000
# 2 -0.6280 14.9034 5.5717 0.0000 0.0000 0.0000
# 3 107.8448 5.5717 175.9592 0.0000 0.0000 0.0000
# 4 0.0000 0.0000 0.0000 15.9172 0.0000 0.0000
# 5 0.0000 0.0000 0.0000 0.0000 52.9490 0.0000
# 6 0.0000 0.0000 0.0000 0.0000 0.0000 9.5773
#
#
#
# Elastic Compliance Matrix: (Units=1/GPa)
#
#
# Indices 1 2 3 4 5 6 
#
# 1 0.014058 0.003859 -0.008738 0.000000 0.000000 0.000000
# 2 0.003859 0.068962 -0.004549 0.000000 0.000000 0.000000
# 3 -0.008738 -0.004549 0.011183 0.000000 0.000000 0.000000
# 4 0.000000 0.000000 0.000000 0.062825 0.000000 0.000000
# 5 0.000000 0.000000 0.000000 0.000000 0.018886 0.000000
# 6 0.000000 0.000000 0.000000 0.000000 0.000000 0.104413
#
#
# Mechanical properties :
#
#
# Convention : Reuss Voigt Hill
#
# Bulk Modulus (GPa) = 13.27200 61.64248 37.45724
# Shear Modulus (GPa) = 15.41792 30.11650 22.76721
#
# Velocity S-wave (km/s) = 2.73292 3.81959 3.32100
# Velocity P-wave (km/s) = 4.04819 7.02237 5.73156
#
# Compressibility (1/GPa) = 0.07534661
#
# Stress axis : x y z
#
# Youngs Moduli (GPa) = 71.13513 14.50076 89.42341
#
# Poissons Ratio (x) = -0.05596 0.78139
# Poissons Ratio (y) = -0.27452 0.40678
# Poissons Ratio (z) = 0.62159 0.06596
#
# Static dielectric constant tensor:
#      x y z
#    x 1.775860 0.000000 0.000000 
#    y 0.000000 1.754160 0.000000 
#    z 0.000000 0.000000 1.719530 
# 
# From -- ./inp_files/22877.got.cif
#   From: 2010.05.17/outbox.cif.g08.bks.cpg/sg38_12_cif.got.tgz:22877.got - 2010.06.03 18:07:57.
