data_PCOD9357690
_publ_section_title
;
Structure prediction by ZEFSAII (Michael W. Deem and Ramdas Pophale) SiO2 
 PCOD9357690
Probable space group: A M M 2
;
_chemical_formula_sum "Si O2"
_cell_formula_units_Z 40
_cell_length_a 8.911241
_cell_length_b 26.326803
_cell_length_c 9.904818
_cell_angle_alpha 90.000000
_cell_angle_beta 90.000000
_cell_angle_gamma 90.000000
_cell_volume 2323.714739
_symmetry_space_group_name_H-M "A M M 2"
_symmetry_group_IT_number 38
_symmetry_cell_setting 'orthorhombic'
loop_
_space_group_symop_operation_xyz
x,y,z
-x,-y,z
-x,y,z
x,-y,z
x,1/2+y,1/2+z
-x,1/2-y,1/2+z
-x,1/2+y,1/2+z
x,1/2-y,1/2+z
loop_
_atom_site_type_symbol
_atom_site_label
_atom_site_fract_x
_atom_site_fract_y
_atom_site_fract_z
Si Si1 0.178988 0.864432 0.676560
Si Si2 0.319440 0.941500 0.883808
Si Si3 0.679862 0.142247 0.100068
Si Si4 0.320705 0.168099 0.399908
Si Si5 0.820982 0.279354 0.397047
O O1 0.245769 0.911528 0.759724
O O2 0.248451 0.858353 0.529405
O O3 0.213859 0.814054 0.766023
O O4 0.000000 0.868603 0.668979
O O5 0.500000 0.940092 0.868209
O O6 0.272252 0.000000 0.892357
O O7 0.282802 0.908888 0.017836
O O8 0.500000 0.150569 0.087762
O O9 0.717209 0.141479 0.257706
O O10 0.763724 0.188097 0.024546
O O11 0.500000 0.168821 0.414727
O O12 0.259755 0.225519 0.391884
O O13 0.000000 0.272260 0.405032
#
# Coordination Sequence:
#
# PCOD9357690 Si02
#       5
#     8   8   8   8   8
#     4  10  21  35  52  76 106 138 172 210 252 303
#     4   9  18  36  60  79  97 127 169 216 262 307
#     4   9  19  34  52  76 103 133 171 212 255 303
#     4  11  21  32  49  75 107 139 170 208 253 301
#     4  10  20  33  50  73 102 139 177 209 248 300
#
# _framework density 17.213816000000001
#
# number of rings (size 3 to 8) (size 9 to 14) (size 15 to 20)
#    0.000    2.200    0.000    3.000    0.000    7.600 
#    0.000    1.000    0.000    3.600    0.000    0.000 
#    0.000    0.000    0.000    0.000    0.000    0.000 
#
# Total GULP energy -111660.216622 kJ/mol
# GULP energy per Si atom -5583.010831 kJ/mol
# Density = 1.717464 g / cm^3
# Si number density = 17.213816 Si / 1000 Ang^3
#
#
#
# Elastic Constant Matrix: (Units=GPa)
#
#
# Indices 1 2 3 4 5 6 
#
# 1 36.9184 43.6544 59.1828 0.0000 0.0000 0.0000
# 2 43.6544 134.9275 81.4160 0.0000 0.0000 0.0000
# 3 59.1828 81.4160 178.0649 0.0000 0.0000 0.0000
# 4 0.0000 0.0000 0.0000 3.1328 0.0000 0.0000
# 5 0.0000 0.0000 0.0000 0.0000 22.4287 0.0000
# 6 0.0000 0.0000 0.0000 0.0000 0.0000 10.3127
#
#
#
# Elastic Compliance Matrix: (Units=1/GPa)
#
#
# Indices 1 2 3 4 5 6 
#
# 1 0.069303 -0.011771 -0.017652 0.000000 0.000000 0.000000
# 2 -0.011771 0.012234 -0.001682 0.000000 0.000000 0.000000
# 3 -0.017652 -0.001682 0.012252 0.000000 0.000000 0.000000
# 4 0.000000 0.000000 0.000000 0.319201 0.000000 0.000000
# 5 0.000000 0.000000 0.000000 0.000000 0.044586 0.000000
# 6 0.000000 0.000000 0.000000 0.000000 0.000000 0.096967
#
#
# Mechanical properties :
#
#
# Convention : Reuss Voigt Hill
#
# Bulk Modulus (GPa) = 31.66573 79.82413 55.74493
# Shear Modulus (GPa) = 7.97094 18.21869 13.09482
#
# Velocity S-wave (km/s) = 2.15421 3.25680 2.76110
# Velocity P-wave (km/s) = 4.96215 7.78557 6.52833
#
# Compressibility (1/GPa) = 0.03157988
#
# Stress axis : x y z
#
# Youngs Moduli (GPa) = 14.42947 81.73634 81.62106
#
# Poissons Ratio (x) = 0.96211 1.44077
# Poissons Ratio (y) = 0.16985 0.13726
# Poissons Ratio (z) = 0.25471 0.13745
#
# Static dielectric constant tensor:
#      x y z
#    x 1.571160 0.000000 0.000000 
#    y 0.000000 1.554730 0.000000 
#    z 0.000000 0.000000 1.579530 
# 
# From -- ./inp_files/3292.got.cif
#   From: 2010.05.17/outbox.cif.g08.bks.cpg/sg38_2_cif.got.tgz:3292.got - 2010.06.03 18:07:57.
