data_PCOD9357630
_publ_section_title
;
Structure prediction by ZEFSAII (Michael W. Deem and Ramdas Pophale) SiO2 
 PCOD9357630
Probable space group: A M M 2
;
_chemical_formula_sum "Si O2"
_cell_formula_units_Z 48
_cell_length_a 10.890638
_cell_length_b 22.298694
_cell_length_c 9.836947
_cell_angle_alpha 90.000000
_cell_angle_beta 90.000000
_cell_angle_gamma 90.000000
_cell_volume 2388.873110
_symmetry_space_group_name_H-M "A M M 2"
_symmetry_group_IT_number 38
_symmetry_cell_setting 'orthorhombic'
loop_
_space_group_symop_operation_xyz
x,y,z
-x,-y,z
-x,y,z
x,-y,z
x,1/2+y,1/2+z
-x,1/2-y,1/2+z
-x,1/2+y,1/2+z
x,1/2-y,1/2+z
loop_
_atom_site_type_symbol
_atom_site_label
_atom_site_fract_x
_atom_site_fract_y
_atom_site_fract_z
Si Si1 0.863372 0.380832 0.630440
Si Si2 0.355758 0.070042 0.639490
Si Si3 0.360926 0.883554 0.946592
Si Si4 0.131365 0.738378 0.120441
Si Si5 0.766358 0.651424 0.915251
Si Si6 0.364585 0.761544 0.808973
O O1 0.748660 0.404418 0.543417
O O2 0.869172 0.309512 0.597626
O O3 0.828624 0.382075 0.789469
O O4 0.000000 0.405869 0.604787
O O5 0.500000 0.078080 0.607744
O O6 0.340074 0.092028 0.794348
O O7 0.278125 0.107318 0.531941
O O8 0.326203 0.000000 0.631777
O O9 0.500000 0.900534 0.989632
O O10 0.359744 0.811009 0.928452
O O11 0.251409 0.725011 0.209629
O O12 0.000000 0.722693 0.186746
O O13 0.144175 0.700507 0.983190
O O14 0.656782 0.693928 0.859624
O O15 0.500000 0.767992 0.745114
#
# Coordination Sequence:
#
# PCOD9357630 Si02
#       6
#     8   8   8   8   8   8
#     4  10  22  37  56  88 126 162 198 243 304 368
#     4  10  22  41  64  89 118 159 209 254 299 355
#     4  10  20  37  59  87 121 156 198 250 302 360
#     4  10  20  33  53  83 122 161 194 233 292 362
#     4  11  20  36  58  89 122 160 197 254 299 363
#     4  10  20  32  53  87 121 153 191 241 305 357
#
# _framework density 20.093157000000001
#
# number of rings (size 3 to 8) (size 9 to 14) (size 15 to 20)
#    0.000    1.833    3.333    1.000    0.000    5.333 
#    0.000    0.833    0.000    7.500    0.000    0.000 
#    0.000    0.000    0.000    0.000    0.000    0.000 
#
# Total GULP energy -133936.002085 kJ/mol
# GULP energy per Si atom -5580.666754 kJ/mol
# Density = 2.004742 g / cm^3
# Si number density = 20.093157 Si / 1000 Ang^3
#
#
#
# Elastic Constant Matrix: (Units=GPa)
#
#
# Indices 1 2 3 4 5 6 
#
# 1 175.2552 12.0324 74.2261 0.0000 0.0000 0.0000
# 2 12.0324 34.8554 14.5155 0.0000 0.0000 0.0000
# 3 74.2261 14.5155 85.5084 0.0000 0.0000 0.0000
# 4 0.0000 0.0000 0.0000 10.7648 0.0000 0.0000
# 5 0.0000 0.0000 0.0000 0.0000 22.9072 0.0000
# 6 0.0000 0.0000 0.0000 0.0000 0.0000 2.2265
#
#
#
# Elastic Compliance Matrix: (Units=1/GPa)
#
#
# Indices 1 2 3 4 5 6 
#
# 1 0.009024 0.000158 -0.007860 0.000000 0.000000 0.000000
# 2 0.000158 0.030875 -0.005379 0.000000 0.000000 0.000000
# 3 -0.007860 -0.005379 0.019431 0.000000 0.000000 0.000000
# 4 0.000000 0.000000 0.000000 0.092895 0.000000 0.000000
# 5 0.000000 0.000000 0.000000 0.000000 0.043654 0.000000
# 6 0.000000 0.000000 0.000000 0.000000 0.000000 0.449144
#
#
# Mechanical properties :
#
#
# Convention : Reuss Voigt Hill
#
# Bulk Modulus (GPa) = 30.14859 55.24077 42.69468
# Shear Modulus (GPa) = 7.32877 20.16936 13.74907
#
# Velocity S-wave (km/s) = 1.91189 3.17171 2.61869
# Velocity P-wave (km/s) = 4.46214 6.40039 5.51705
#
# Compressibility (1/GPa) = 0.03316905
#
# Stress axis : x y z
#
# Youngs Moduli (GPa) = 110.81283 32.38836 51.46396
#
# Poissons Ratio (x) = -0.00512 0.40453
# Poissons Ratio (y) = -0.01753 0.27680
# Poissons Ratio (z) = 0.87103 0.17420
#
# Static dielectric constant tensor:
#      x y z
#    x 1.755120 0.000000 0.000000 
#    y 0.000000 1.693810 0.000000 
#    z 0.000000 0.000000 1.734250 
# 
# From -- ./inp_files/4650.got.cif
#   From: 2010.05.17/outbox.cif.g08.bks.cpg/sg38_3_cif.got.tgz:4650.got - 2010.06.03 18:07:57.
