data_PCOD9357878
_publ_section_title
;
Structure prediction by ZEFSAII (Michael W. Deem and Ramdas Pophale) SiO2 
 PCOD9357878
Probable space group: A M M 2
;
_chemical_formula_sum "Si O2"
_cell_formula_units_Z 64
_cell_length_a 19.242380
_cell_length_b 7.384996
_cell_length_c 20.471956
_cell_angle_alpha 90.000000
_cell_angle_beta 90.000000
_cell_angle_gamma 90.000000
_cell_volume 2909.165246
_symmetry_space_group_name_H-M "A M M 2"
_symmetry_group_IT_number 38
_symmetry_cell_setting 'orthorhombic'
loop_
_space_group_symop_operation_xyz
x,y,z
-x,-y,z
-x,y,z
x,-y,z
x,1/2+y,1/2+z
-x,1/2-y,1/2+z
-x,1/2+y,1/2+z
x,1/2-y,1/2+z
loop_
_atom_site_type_symbol
_atom_site_label
_atom_site_fract_x
_atom_site_fract_y
_atom_site_fract_z
Si Si1 0.841442 0.281335 0.574320
Si Si2 0.298218 0.710074 0.903084
Si Si3 0.920427 0.280647 0.445012
Si Si4 0.830711 0.706382 0.823031
Si Si5 0.920406 0.278344 0.703963
Si Si6 0.579969 0.281180 0.305163
Si Si7 0.580391 0.220818 0.657940
Si Si8 0.685707 0.289794 0.049010
O O1 0.840726 0.500000 0.574087
O O2 0.872998 0.221349 0.505362
O O3 0.890660 0.224899 0.633622
O O4 0.762284 0.219774 0.579825
O O5 0.277727 0.500000 0.913811
O O6 0.236315 0.790670 0.858725
O O7 0.367871 0.717164 0.860662
O O8 0.308759 0.788994 0.975623
O O9 0.917680 0.500000 0.441789
O O10 0.889988 0.207020 0.378064
O O11 0.000000 0.228396 0.455443
O O12 0.810948 0.500000 0.805307
O O13 0.866520 0.786380 0.759008
O O14 0.921302 0.500000 0.706473
O O15 0.000000 0.220073 0.714374
O O16 0.500000 0.225257 0.315909
O O17 0.581287 0.500000 0.306158
O O18 0.600790 0.223116 0.231636
O O19 0.500000 0.271947 0.647474
O O20 0.630438 0.286873 0.600461
O O21 0.582707 0.000000 0.658347
O O22 0.665530 0.500000 0.040300
#
# Coordination Sequence:
#
# PCOD9357878 Si02
#       8
#     8   8   8   8   8   8   8   8
#     4  10  20  34  53  76 102 135 174 218 262 308
#     4  10  21  34  51  79 113 141 172 214 259 310
#     4  10  20  34  53  76 102 134 174 219 264 309
#     4  10  20  35  53  77 107 139 175 215 259 313
#     4   9  18  33  53  75 100 135 178 218 260 313
#     4   9  19  36  57  80 105 136 176 216 254 305
#     4   8  16  33  56  79 102 134 176 214 252 303
#     4  10  20  35  54  78 107 138 173 214 256 307
#
# _framework density 21.999438000000001
#
# number of rings (size 3 to 8) (size 9 to 14) (size 15 to 20)
#    0.000    2.500    1.250    1.500    1.750    4.000 
#    0.000    1.875    0.000    3.000    0.000    0.000 
#    0.000    0.000    0.000    0.000    0.000    0.000 
#
# Total GULP energy -178721.497709 kJ/mol
# GULP energy per Si atom -5585.046803 kJ/mol
# Density = 2.194937 g / cm^3
# Si number density = 21.999438 Si / 1000 Ang^3
#
#
#
# Elastic Constant Matrix: (Units=GPa)
#
#
# Indices 1 2 3 4 5 6 
#
# 1 88.1184 -7.5183 28.0121 0.0000 0.0000 0.0000
# 2 -7.5183 75.0044 -1.7925 0.0000 0.0000 0.0000
# 3 28.0121 -1.7925 86.4776 0.0000 0.0000 0.0000
# 4 0.0000 0.0000 0.0000 -39.6150 0.0000 0.0000
# 5 0.0000 0.0000 0.0000 0.0000 47.4419 0.0000
# 6 0.0000 0.0000 0.0000 0.0000 0.0000 13.4301
#
#
#
# Elastic Compliance Matrix: (Units=1/GPa)
#
#
# Indices 1 2 3 4 5 6 
#
# 1 0.012755 0.001180 -0.004107 0.000000 0.000000 0.000000
# 2 0.001180 0.013448 -0.000104 0.000000 0.000000 0.000000
# 3 -0.004107 -0.000104 0.012892 0.000000 0.000000 0.000000
# 4 0.000000 0.000000 0.000000 -0.025243 0.000000 0.000000
# 5 0.000000 0.000000 0.000000 0.000000 0.021078 0.000000
# 6 0.000000 0.000000 0.000000 0.000000 0.000000 0.074459
#
#
# Mechanical properties :
#
#
# Convention : Reuss Voigt Hill
#
# Bulk Modulus (GPa) = 30.27149 31.88922 31.08036
# Shear Modulus (GPa) = 39.53758 19.64468 29.59113
#
# Velocity S-wave (km/s) = 4.24395 2.99149 3.67152
# Velocity P-wave (km/s) = 6.14856 5.14383 5.66850
#
# Compressibility (1/GPa) = 0.03303438
#
# Stress axis : x y z
#
# Youngs Moduli (GPa) = 78.40257 74.35834 77.56792
#
# Poissons Ratio (x) = -0.08777 0.31858
# Poissons Ratio (y) = -0.09254 0.00803
# Poissons Ratio (z) = 0.32201 0.00770
#
# Static dielectric constant tensor:
#      x y z
#    x 1.755500 0.000000 0.000000 
#    y 0.000000 1.987570 0.000000 
#    z 0.000000 0.000000 1.773240 
# 
# From -- ./inp_files/18905.got.cif
#   From: 2010.05.17/outbox.cif.g08.bks.cpg/sg38_10_cif.got.tgz:18905.got - 2010.06.03 18:07:57.
