data_PCOD9357922
_publ_section_title
;
Structure prediction by ZEFSAII (Michael W. Deem and Ramdas Pophale) SiO2 
 PCOD9357922
Probable space group: A M M 2
;
_chemical_formula_sum "Si O2"
_cell_formula_units_Z 64
_cell_length_a 24.660641
_cell_length_b 7.506806
_cell_length_c 16.037297
_cell_angle_alpha 90.000000
_cell_angle_beta 90.000000
_cell_angle_gamma 90.000000
_cell_volume 2968.866885
_symmetry_space_group_name_H-M "A M M 2"
_symmetry_group_IT_number 38
_symmetry_cell_setting 'orthorhombic'
loop_
_space_group_symop_operation_xyz
x,y,z
-x,-y,z
-x,y,z
x,-y,z
x,1/2+y,1/2+z
-x,1/2-y,1/2+z
-x,1/2+y,1/2+z
x,1/2-y,1/2+z
loop_
_atom_site_type_symbol
_atom_site_label
_atom_site_fract_x
_atom_site_fract_y
_atom_site_fract_z
Si Si1 0.864827 0.789501 0.033790
Si Si2 0.327940 0.785967 0.385631
Si Si3 0.321791 0.292068 0.706594
Si Si4 0.937949 0.785229 0.692919
Si Si5 0.062574 0.217512 0.881064
Si Si6 0.559182 0.216802 0.455293
Si Si7 0.559623 0.285146 0.150743
Si Si8 0.742946 0.714014 0.547507
O O1 0.898705 0.769861 0.118711
O O2 0.804244 0.716114 0.043785
O O3 0.858964 0.000000 0.017839
O O4 0.898552 0.717776 0.954763
O O5 0.307780 0.715144 0.296909
O O6 0.388282 0.718177 0.406850
O O7 0.288918 0.749693 0.462541
O O8 0.332371 0.000000 0.378410
O O9 0.307048 0.500000 0.708326
O O10 0.386735 0.280796 0.695887
O O11 0.291521 0.214786 0.626117
O O12 0.922105 0.727458 0.786759
O O13 0.000000 0.725145 0.677477
O O14 0.938659 0.000000 0.693792
O O15 0.000000 0.270740 0.895838
O O16 0.062967 0.000000 0.882013
O O17 0.500000 0.275896 0.424551
O O18 0.563982 0.265784 0.552974
O O19 0.559429 0.000000 0.453083
O O20 0.500000 0.225620 0.181168
O O21 0.560456 0.500000 0.154164
O O22 0.745541 0.500000 0.555839
#
# Coordination Sequence:
#
# PCOD9357922 Si02
#       8
#     8   8   8   8   8   8   8   8
#     4  10  20  34  54  76 102 141 182 213 250 306
#     4  10  20  35  56  76  96 134 180 213 252 313
#     4  10  21  35  52  76 106 136 169 215 269 315
#     4   9  18  33  53  79 109 134 162 210 263 303
#     4   8  15  30  52  76 102 133 169 207 248 300
#     4   8  14  27  49  74  96 120 158 208 252 297
#     4   9  17  31  53  78 102 129 165 211 259 311
#     4  10  22  38  51  72 108 140 171 220 267 298
#
# _framework density 21.557044000000001
#
# number of rings (size 3 to 8) (size 9 to 14) (size 15 to 20)
#    0.000    2.750    1.250    1.875    0.000    3.500 
#    0.000    1.875    0.000    1.125    0.000    0.000 
#    0.000    0.000    0.000    0.000    0.000    0.000 
#
# Total GULP energy -178629.323866 kJ/mol
# GULP energy per Si atom -5582.166371 kJ/mol
# Density = 2.150798 g / cm^3
# Si number density = 21.557044 Si / 1000 Ang^3
#
#
#
# Elastic Constant Matrix: (Units=GPa)
#
#
# Indices 1 2 3 4 5 6 
#
# 1 150.7340 -3.5690 118.4918 0.0000 0.0000 0.0000
# 2 -3.5690 54.4909 -1.5706 0.0000 0.0000 0.0000
# 3 118.4918 -1.5706 180.9082 0.0000 0.0000 0.0000
# 4 0.0000 0.0000 0.0000 5.4545 0.0000 0.0000
# 5 0.0000 0.0000 0.0000 0.0000 -10.8549 0.0000
# 6 0.0000 0.0000 0.0000 0.0000 0.0000 -3.4947
#
#
#
# Elastic Compliance Matrix: (Units=1/GPa)
#
#
# Indices 1 2 3 4 5 6 
#
# 1 0.013698 0.000639 -0.008966 0.000000 0.000000 0.000000
# 2 0.000639 0.018386 -0.000259 0.000000 0.000000 0.000000
# 3 -0.008966 -0.000259 0.011398 0.000000 0.000000 0.000000
# 4 0.000000 0.000000 0.000000 0.183334 0.000000 0.000000
# 5 0.000000 0.000000 0.000000 0.000000 -0.092125 0.000000
# 6 0.000000 0.000000 0.000000 0.000000 0.000000 -0.286150
#
#
# Mechanical properties :
#
#
# Convention : Reuss Voigt Hill
#
# Bulk Modulus (GPa) = 38.00918 68.09307 53.05112
# Shear Modulus (GPa) = -39.83525 16.40639 -11.71443
#
# Velocity S-wave (km/s) = -4.30338 2.76174 -2.33366
# Velocity P-wave (km/s) = 2.64990 6.46727 4.17155
#
# Compressibility (1/GPa) = 0.02630943
#
# Stress axis : x y z
#
# Youngs Moduli (GPa) = 73.00538 54.38904 87.73386
#
# Poissons Ratio (x) = -0.03474 0.78664
# Poissons Ratio (y) = -0.04663 0.02270
# Poissons Ratio (z) = 0.65458 0.01407
#
# Static dielectric constant tensor:
#      x y z
#    x 1.761540 0.000000 0.000000 
#    y 0.000000 1.814970 0.000000 
#    z 0.000000 0.000000 1.781050 
# 
# From -- ./inp_files/15759.got.cif
#   From: 2010.05.17/outbox.cif.g08.bks.cpg/sg38_8_cif.got.tgz:15759.got - 2010.06.03 18:07:57.
