data_PCOD9357009
_publ_section_title
;
Structure prediction by ZEFSAII (Michael W. Deem and Ramdas Pophale) SiO2 
 PCOD9357009
Probable space group: A M M 2
;
_chemical_formula_sum "Si O2"
_cell_formula_units_Z 64
_cell_length_a 24.771078
_cell_length_b 7.637276
_cell_length_c 15.763506
_cell_angle_alpha 90.000000
_cell_angle_beta 90.000000
_cell_angle_gamma 90.000000
_cell_volume 2982.196175
_symmetry_space_group_name_H-M "A M M 2"
_symmetry_group_IT_number 38
_symmetry_cell_setting 'orthorhombic'
loop_
_space_group_symop_operation_xyz
x,y,z
-x,-y,z
-x,y,z
x,-y,z
x,1/2+y,1/2+z
-x,1/2-y,1/2+z
-x,1/2+y,1/2+z
x,1/2-y,1/2+z
loop_
_atom_site_type_symbol
_atom_site_label
_atom_site_fract_x
_atom_site_fract_y
_atom_site_fract_z
Si Si1 0.860882 0.710882 0.173150
Si Si2 0.439521 0.705859 0.257717
Si Si3 0.626004 0.298845 0.594773
Si Si4 0.641175 0.785651 0.902216
Si Si5 0.239337 0.712435 0.426653
Si Si6 0.253927 0.701664 0.121071
Si Si7 0.876341 0.786297 0.856241
Si Si8 0.060253 0.710061 0.518741
O O1 0.856248 0.500000 0.175569
O O2 0.799193 0.776848 0.165971
O O3 0.887655 0.770869 0.260678
O O4 0.897033 0.753916 0.092548
O O5 0.500000 0.780595 0.259304
O O6 0.443819 0.500000 0.276856
O O7 0.412741 0.718905 0.165143
O O8 0.399473 0.778276 0.330027
O O9 0.609906 0.500000 0.587394
O O10 0.626665 0.226387 0.498327
O O11 0.687673 0.288398 0.628246
O O12 0.703582 0.737065 0.885166
O O13 0.640400 0.000000 0.903484
O O14 0.238946 0.500000 0.434663
O O15 0.239502 0.788291 0.521322
O O16 0.185008 0.763813 0.379312
O O17 0.261234 0.500000 0.147935
O O18 0.878133 0.000000 0.857578
O O19 0.916076 0.723265 0.929594
O O20 0.057017 0.500000 0.511912
O O21 0.000000 0.722950 0.036595
#
# Coordination Sequence:
#
# PCOD9357009 Si02
#       8
#     8   8   8   8   8   8   8   8
#     4  10  21  35  56  85 111 144 184 227 276 327
#     4  10  21  37  57  81 109 143 183 228 278 329
#     4  10  21  37  57  82 111 148 188 227 273 324
#     4   8  17  33  55  79 105 142 184 220 264 324
#     4   9  16  31  56  79 106 143 183 224 270 325
#     4  10  19  32  54  83 116 144 178 225 280 334
#     4   9  18  33  55  81 107 141 184 224 268 327
#     4  10  21  38  58  78 106 145 185 228 277 329
#
# _framework density 21.460692999999999
#
# number of rings (size 3 to 8) (size 9 to 14) (size 15 to 20)
#    0.000    2.500    1.250    1.500    1.750    2.000 
#    0.000    6.875    0.000    0.000    0.000    0.000 
#    0.000    0.000    0.000    0.000    0.000    0.000 
#
# Total GULP energy -178600.523523 kJ/mol
# GULP energy per Si atom -5581.266360 kJ/mol
# Density = 2.141185 g / cm^3
# Si number density = 21.460693 Si / 1000 Ang^3
#
#
#
# Elastic Constant Matrix: (Units=GPa)
#
#
# Indices 1 2 3 4 5 6 
#
# 1 74.3821 -2.7475 12.9217 0.0000 0.0000 0.0000
# 2 -2.7475 38.7599 -7.0138 0.0000 0.0000 0.0000
# 3 12.9217 -7.0138 52.5289 0.0000 0.0000 0.0000
# 4 0.0000 0.0000 0.0000 17.4559 0.0000 0.0000
# 5 0.0000 0.0000 0.0000 0.0000 14.9665 0.0000
# 6 0.0000 0.0000 0.0000 0.0000 0.0000 12.9792
#
#
#
# Elastic Compliance Matrix: (Units=1/GPa)
#
#
# Indices 1 2 3 4 5 6 
#
# 1 0.014050 0.000380 -0.003405 0.000000 0.000000 0.000000
# 2 0.000380 0.026449 0.003438 0.000000 0.000000 0.000000
# 3 -0.003405 0.003438 0.020334 0.000000 0.000000 0.000000
# 4 0.000000 0.000000 0.000000 0.057287 0.000000 0.000000
# 5 0.000000 0.000000 0.000000 0.000000 0.066816 0.000000
# 6 0.000000 0.000000 0.000000 0.000000 0.000000 0.077046
#
#
# Mechanical properties :
#
#
# Convention : Reuss Voigt Hill
#
# Bulk Modulus (GPa) = 16.21868 19.11019 17.66444
# Shear Modulus (GPa) = 17.74878 19.91436 18.83157
#
# Velocity S-wave (km/s) = 2.87894 3.04952 2.96546
# Velocity P-wave (km/s) = 4.31566 4.61774 4.46925
#
# Compressibility (1/GPa) = 0.06165731
#
# Stress axis : x y z
#
# Youngs Moduli (GPa) = 71.17585 37.80875 49.17891
#
# Poissons Ratio (x) = -0.01436 0.16748
# Poissons Ratio (y) = -0.02703 -0.16908
# Poissons Ratio (z) = 0.24238 -0.12999
#
# Static dielectric constant tensor:
#      x y z
#    x 1.767850 0.000000 0.000000 
#    y 0.000000 1.831000 0.000000 
#    z 0.000000 0.000000 1.765550 
# 
# From -- ./inp_files/15823.got.cif
#   From: 2010.05.17/outbox.cif.g08.bks.cpg/sg38_8_cif.got.tgz:15823.got - 2010.06.03 18:07:57.
