data_PCOD9357413
_publ_section_title
;
Structure prediction by ZEFSAII (Michael W. Deem and Ramdas Pophale) SiO2 
 PCOD9357413
Probable space group: A M M 2
;
_chemical_formula_sum "Si O2"
_cell_formula_units_Z 48
_cell_length_a 10.566757
_cell_length_b 8.529032
_cell_length_c 29.050151
_cell_angle_alpha 90.000000
_cell_angle_beta 90.000000
_cell_angle_gamma 90.000000
_cell_volume 2618.121868
_symmetry_space_group_name_H-M "A M M 2"
_symmetry_group_IT_number 38
_symmetry_cell_setting 'orthorhombic'
loop_
_space_group_symop_operation_xyz
x,y,z
-x,-y,z
-x,y,z
x,-y,z
x,1/2+y,1/2+z
-x,1/2-y,1/2+z
-x,1/2+y,1/2+z
x,1/2-y,1/2+z
loop_
_atom_site_type_symbol
_atom_site_label
_atom_site_fract_x
_atom_site_fract_y
_atom_site_fract_z
Si Si1 0.351902 0.811373 0.139690
Si Si2 0.500000 0.811805 0.788853
Si Si3 0.000000 0.312234 0.895999
Si Si4 0.500000 0.809166 0.894979
Si Si5 0.000000 0.308561 0.789393
Si Si6 0.646834 0.187126 0.539453
Si Si7 0.253078 0.189709 0.236762
Si Si8 0.247114 0.812272 0.947543
O O1 0.500000 0.771632 0.148903
O O2 0.316299 0.737272 0.090948
O O3 0.269384 0.761306 0.183526
O O4 0.344777 0.000000 0.135539
O O5 0.500000 0.760129 0.842016
O O6 0.375332 0.749088 0.763925
O O7 0.500000 0.000000 0.787467
O O8 0.876031 0.254101 0.922663
O O9 0.000000 0.500000 0.895407
O O10 0.000000 0.257125 0.842664
O O11 0.373328 0.756526 0.920768
O O12 0.500000 0.000000 0.896042
O O13 0.125635 0.257637 0.762207
O O14 0.000000 0.500000 0.789601
O O15 0.500000 0.240854 0.532591
O O16 0.734056 0.259658 0.500098
O O17 0.648951 0.000000 0.535723
O O18 0.254847 0.000000 0.237201
O O19 0.242481 0.000000 0.945563
#
# Coordination Sequence:
#
# PCOD9357413 Si02
#       8
#     8   4   4   4   4   8   8   8
#     4   9  17  31  53  80 111 148 187 229 278 333
#     4  11  21  33  52  81 112 143 182 235 288 335
#     4  11  23  39  56  83 118 153 190 237 288 339
#     4   9  20  35  54  81 110 139 184 239 284 333
#     4   9  20  37  60  83 112 151 192 233 282 335
#     4  10  20  34  55  85 117 147 182 231 291 342
#     4  10  19  36  57  82 111 148 192 234 278 333
#     4  11  21  38  60  82 110 151 194 234 281 341
#
# _framework density 18.333752
#
# number of rings (size 3 to 8) (size 9 to 14) (size 15 to 20)
#    0.000    2.000    1.667    2.500    0.000    1.333 
#    0.000    4.583    0.000    2.000    0.000    0.000 
#    0.000    0.000    0.000    0.000    0.000    0.000 
#
# Total GULP energy -134009.952571 kJ/mol
# GULP energy per Si atom -5583.748024 kJ/mol
# Density = 1.829202 g / cm^3
# Si number density = 18.333752 Si / 1000 Ang^3
#
#
#
# Elastic Constant Matrix: (Units=GPa)
#
#
# Indices 1 2 3 4 5 6 
#
# 1 155.5893 30.8579 101.5182 0.0000 0.0000 0.0000
# 2 30.8579 28.2493 38.2504 0.0000 0.0000 0.0000
# 3 101.5182 38.2504 187.9292 0.0000 0.0000 0.0000
# 4 0.0000 0.0000 0.0000 24.0085 0.0000 0.0000
# 5 0.0000 0.0000 0.0000 0.0000 30.5174 0.0000
# 6 0.0000 0.0000 0.0000 0.0000 0.0000 8.5520
#
#
#
# Elastic Compliance Matrix: (Units=1/GPa)
#
#
# Indices 1 2 3 4 5 6 
#
# 1 0.010453 -0.005208 -0.004586 0.000000 0.000000 0.000000
# 2 -0.005208 0.051461 -0.007661 0.000000 0.000000 0.000000
# 3 -0.004586 -0.007661 0.009358 0.000000 0.000000 0.000000
# 4 0.000000 0.000000 0.000000 0.041652 0.000000 0.000000
# 5 0.000000 0.000000 0.000000 0.000000 0.032768 0.000000
# 6 0.000000 0.000000 0.000000 0.000000 0.000000 0.116932
#
#
# Mechanical properties :
#
#
# Convention : Reuss Voigt Hill
#
# Bulk Modulus (GPa) = 27.50182 79.22454 53.36318
# Shear Modulus (GPa) = 16.14705 26.02500 21.08603
#
# Velocity S-wave (km/s) = 2.97093 3.77173 3.39502
# Velocity P-wave (km/s) = 5.17704 7.89140 6.67368
#
# Compressibility (1/GPa) = 0.03636123
#
# Stress axis : x y z
#
# Youngs Moduli (GPa) = 95.67043 19.43228 106.85995
#
# Poissons Ratio (x) = 0.10119 0.49011
# Poissons Ratio (y) = 0.49821 0.81866
# Poissons Ratio (z) = 0.43879 0.14887
#
# Static dielectric constant tensor:
#      x y z
#    x 1.605290 0.000000 0.000000 
#    y 0.000000 1.618200 0.000000 
#    z 0.000000 0.000000 1.625330 
# 
# From -- ./inp_files/24482.got.cif
#   From: 2010.05.17/outbox.cif.g08.bks.cpg/sg38_13_cif.got.tgz:24482.got - 2010.06.03 18:07:57.
