data_PCOD9357495
_publ_section_title
;
Structure prediction by ZEFSAII (Michael W. Deem and Ramdas Pophale) SiO2 
 PCOD9357495
Probable space group: A M M 2
;
_chemical_formula_sum "Si O2"
_cell_formula_units_Z 64
_cell_length_a 21.534899
_cell_length_b 7.374045
_cell_length_c 19.407340
_cell_angle_alpha 90.000000
_cell_angle_beta 90.000000
_cell_angle_gamma 90.000000
_cell_volume 3081.872284
_symmetry_space_group_name_H-M "A M M 2"
_symmetry_group_IT_number 38
_symmetry_cell_setting 'orthorhombic'
loop_
_space_group_symop_operation_xyz
x,y,z
-x,-y,z
-x,y,z
x,-y,z
x,1/2+y,1/2+z
-x,1/2-y,1/2+z
-x,1/2+y,1/2+z
x,1/2-y,1/2+z
loop_
_atom_site_type_symbol
_atom_site_label
_atom_site_fract_x
_atom_site_fract_y
_atom_site_fract_z
Si Si1 0.433367 0.718150 0.331750
Si Si2 0.297670 0.719412 0.493502
Si Si3 0.929295 0.721122 0.980563
Si Si4 0.176651 0.288387 0.081834
Si Si5 0.070385 0.218948 0.323380
Si Si6 0.810607 0.210744 0.734198
Si Si7 0.702667 0.221927 0.833739
Si Si8 0.433287 0.218317 0.996590
O O1 0.500000 0.786279 0.304495
O O2 0.434020 0.500000 0.323313
O O3 0.365705 0.780545 0.307552
O O4 0.433160 0.752000 0.414160
O O5 0.298584 0.500000 0.493098
O O6 0.240612 0.777779 0.540015
O O7 0.289349 0.777426 0.413695
O O8 0.365532 0.782062 0.520314
O O9 0.927912 0.500000 0.979876
O O10 0.915522 0.777447 0.901908
O O11 0.000000 0.774112 0.997263
O O12 0.878442 0.787723 0.034425
O O13 0.160406 0.500000 0.091543
O O14 0.184601 0.208726 0.157928
O O15 0.123209 0.280814 0.271693
O O16 0.000000 0.277048 0.306408
O O17 0.070717 0.000000 0.322825
O O18 0.758053 0.286584 0.785148
O O19 0.793033 0.000000 0.725327
O O20 0.702791 0.000000 0.835141
O O21 0.500000 0.286122 0.023825
O O22 0.433880 0.000000 0.005139
#
# Coordination Sequence:
#
# PCOD9357495 Si02
#       8
#     8   8   8   8   8   8   8   8
#     4   7   9  15  31  56  83 108 136 176 224 264
#     4   9  16  27  46  67  86 113 147 185 226 261
#     4   8  15  30  50  67  83 109 147 183 213 254
#     4  10  20  31  44  64  91 122 150 176 209 255
#     4   9  18  33  52  70  86 107 140 184 225 257
#     4  10  20  31  44  65  94 124 148 175 214 259
#     4   8  14  25  41  63  89 113 143 186 228 260
#     4   7  10  18  35  61  86 104 133 181 227 260
#
# _framework density 20.766597000000001
#
# number of rings (size 3 to 8) (size 9 to 14) (size 15 to 20)
#    0.000    3.500    0.000    3.750    0.000    1.250 
#    0.000    1.250    0.000    2.250    0.000    1.750 
#    0.000    1.500    0.000    0.000    0.000    0.000 
#
# Total GULP energy -178315.162632 kJ/mol
# GULP energy per Si atom -5572.348832 kJ/mol
# Density = 2.071933 g / cm^3
# Si number density = 20.766597 Si / 1000 Ang^3
#
#
#
# Elastic Constant Matrix: (Units=GPa)
#
#
# Indices 1 2 3 4 5 6 
#
# 1 176.7400 -11.4396 100.8492 0.0000 0.0000 0.0000
# 2 -11.4396 67.5152 -1.3518 0.0000 0.0000 0.0000
# 3 100.8492 -1.3518 103.8787 0.0000 0.0000 0.0000
# 4 0.0000 0.0000 0.0000 43.6484 0.0000 0.0000
# 5 0.0000 0.0000 0.0000 0.0000 -6.9925 0.0000
# 6 0.0000 0.0000 0.0000 0.0000 0.0000 35.6658
#
#
#
# Elastic Compliance Matrix: (Units=1/GPa)
#
#
# Indices 1 2 3 4 5 6 
#
# 1 0.012935 0.001941 -0.012532 0.000000 0.000000 0.000000
# 2 0.001941 0.015107 -0.001688 0.000000 0.000000 0.000000
# 3 -0.012532 -0.001688 0.021771 0.000000 0.000000 0.000000
# 4 0.000000 0.000000 0.000000 0.022910 0.000000 0.000000
# 5 0.000000 0.000000 0.000000 0.000000 -0.143011 0.000000
# 6 0.000000 0.000000 0.000000 0.000000 0.000000 0.028038
#
#
# Mechanical properties :
#
#
# Convention : Reuss Voigt Hill
#
# Bulk Modulus (GPa) = 39.59688 58.24995 48.92341
# Shear Modulus (GPa) = -539.13857 31.80275 -253.66791
#
# Velocity S-wave (km/s) = -16.13015 3.91760 -11.06422
# Velocity P-wave (km/s) = 18.10525 6.96952 11.81579
#
# Compressibility (1/GPa) = 0.02525452
#
# Stress axis : x y z
#
# Youngs Moduli (GPa) = 77.31234 66.19660 45.93212
#
# Poissons Ratio (x) = -0.12847 0.57562
# Poissons Ratio (y) = -0.15004 0.07751
# Poissons Ratio (z) = 0.96888 0.11171
#
# Static dielectric constant tensor:
#      x y z
#    x 1.767320 0.000000 0.000000 
#    y 0.000000 1.803930 0.000000 
#    z 0.000000 0.000000 1.700430 
# 
# From -- ./inp_files/21476.got.cif
#   From: 2010.05.17/outbox.cif.g08.bks.cpg/sg38_11_cif.got.tgz:21476.got - 2010.06.03 18:07:57.
