data_PCOD9357520
_publ_section_title
;
Structure prediction by ZEFSAII (Michael W. Deem and Ramdas Pophale) SiO2 
 PCOD9357520
Probable space group: A M M 2
;
_chemical_formula_sum "Si O2"
_cell_formula_units_Z 48
_cell_length_a 7.815766
_cell_length_b 8.846902
_cell_length_c 36.262571
_cell_angle_alpha 90.000000
_cell_angle_beta 90.000000
_cell_angle_gamma 90.000000
_cell_volume 2507.386926
_symmetry_space_group_name_H-M "A M M 2"
_symmetry_group_IT_number 38
_symmetry_cell_setting 'orthorhombic'
loop_
_space_group_symop_operation_xyz
x,y,z
-x,-y,z
-x,y,z
x,-y,z
x,1/2+y,1/2+z
-x,1/2-y,1/2+z
-x,1/2+y,1/2+z
x,1/2-y,1/2+z
loop_
_atom_site_type_symbol
_atom_site_label
_atom_site_fract_x
_atom_site_fract_y
_atom_site_fract_z
Si Si1 0.500000 0.184140 0.256510
Si Si2 0.802253 0.682014 0.703130
Si Si3 0.702971 0.829012 0.051021
Si Si4 0.201251 0.316214 0.391190
Si Si5 0.204777 0.672296 0.472358
Si Si6 0.205145 0.669644 0.126947
Si Si7 0.500000 0.682212 0.841923
O O1 0.669449 0.233468 0.234328
O O2 0.500000 0.229564 0.299062
O O3 0.500000 0.000000 0.255964
O O4 0.803028 0.500000 0.702739
O O5 0.740422 0.737889 0.663029
O O6 0.000000 0.731459 0.709299
O O7 0.500000 0.839745 0.051080
O O8 0.754096 0.743331 0.087830
O O9 0.777217 0.000000 0.052296
O O10 0.752338 0.755870 0.011720
O O11 0.211964 0.500000 0.390876
O O12 0.256080 0.264124 0.432595
O O13 0.331599 0.246522 0.362132
O O14 0.000000 0.277803 0.385149
O O15 0.274796 0.500000 0.474246
O O16 0.000000 0.662970 0.470308
O O17 0.274288 0.500000 0.128562
O O18 0.000000 0.663836 0.129238
O O19 0.500000 0.500000 0.843875
#
# Coordination Sequence:
#
# PCOD9357520 Si02
#       7
#     4   8   8   8   8   8   4
#     4   9  20  37  57  82 109 138 179 222 269 333
#     4   9  18  35  59  81 102 135 180 229 272 314
#     4  10  20  31  49  79 107 136 178 226 268 309
#     4   9  19  37  61  86 113 150 194 238 282 331
#     4   8  15  30  53  78 102 134 181 232 273 308
#     4  10  21  36  52  73 105 143 177 214 266 324
#     4  11  23  37  57  88 121 152 181 224 287 349
#
# _framework density 19.143436000000001
#
# number of rings (size 3 to 8) (size 9 to 14) (size 15 to 20)
#    0.000    2.667    0.000    2.250    2.333    3.000 
#    0.000    4.167    0.000    3.000    0.000    0.000 
#    0.000    0.000    0.000    0.000    0.000    0.000 
#
# Total GULP energy -133760.514736 kJ/mol
# GULP energy per Si atom -5573.354781 kJ/mol
# Density = 1.909986 g / cm^3
# Si number density = 19.143436 Si / 1000 Ang^3
#
#
#
# Elastic Constant Matrix: (Units=GPa)
#
#
# Indices 1 2 3 4 5 6 
#
# 1 84.9997 25.8790 80.8333 0.0000 0.0000 0.0000
# 2 25.8790 24.2153 37.2095 0.0000 0.0000 0.0000
# 3 80.8333 37.2095 215.6616 0.0000 0.0000 0.0000
# 4 0.0000 0.0000 0.0000 21.1859 0.0000 0.0000
# 5 0.0000 0.0000 0.0000 0.0000 39.3778 0.0000
# 6 0.0000 0.0000 0.0000 0.0000 0.0000 15.4470
#
#
#
# Elastic Compliance Matrix: (Units=1/GPa)
#
#
# Indices 1 2 3 4 5 6 
#
# 1 0.021413 -0.014358 -0.005549 0.000000 0.000000 0.000000
# 2 -0.014358 0.065822 -0.005975 0.000000 0.000000 0.000000
# 3 -0.005549 -0.005975 0.007748 0.000000 0.000000 0.000000
# 4 0.000000 0.000000 0.000000 0.047201 0.000000 0.000000
# 5 0.000000 0.000000 0.000000 0.000000 0.025395 0.000000
# 6 0.000000 0.000000 0.000000 0.000000 0.000000 0.064738
#
#
# Mechanical properties :
#
#
# Convention : Reuss Voigt Hill
#
# Bulk Modulus (GPa) = 23.13792 68.08002 45.60897
# Shear Modulus (GPa) = 16.75121 27.26580 22.00851
#
# Velocity S-wave (km/s) = 2.96131 3.77807 3.39435
# Velocity P-wave (km/s) = 4.87907 7.39406 6.26408
#
# Compressibility (1/GPa) = 0.04321909
#
# Stress axis : x y z
#
# Youngs Moduli (GPa) = 46.70113 15.19246 129.07376
#
# Poissons Ratio (x) = 0.21813 0.71617
# Poissons Ratio (y) = 0.67053 0.77123
# Poissons Ratio (z) = 0.25912 0.09078
#
# Static dielectric constant tensor:
#      x y z
#    x 1.671750 0.000000 0.000000 
#    y 0.000000 1.686860 0.000000 
#    z 0.000000 0.000000 1.679710 
# 
# From -- ./inp_files/24391.got.cif
#   From: 2010.05.17/outbox.cif.g08.bks.cpg/sg38_13_cif.got.tgz:24391.got - 2010.06.03 18:07:57.
