data_PCOD9357154
_publ_section_title
;
Structure prediction by ZEFSAII (Michael W. Deem and Ramdas Pophale) SiO2 
 PCOD9357154
Probable space group: A M M 2
;
_chemical_formula_sum "Si O2"
_cell_formula_units_Z 48
_cell_length_a 15.809581
_cell_length_b 8.491438
_cell_length_c 19.344358
_cell_angle_alpha 90.000000
_cell_angle_beta 90.000000
_cell_angle_gamma 90.000000
_cell_volume 2596.904171
_symmetry_space_group_name_H-M "A M M 2"
_symmetry_group_IT_number 38
_symmetry_cell_setting 'orthorhombic'
loop_
_space_group_symop_operation_xyz
x,y,z
-x,-y,z
-x,y,z
x,-y,z
x,1/2+y,1/2+z
-x,1/2-y,1/2+z
-x,1/2+y,1/2+z
x,1/2-y,1/2+z
loop_
_atom_site_type_symbol
_atom_site_label
_atom_site_fract_x
_atom_site_fract_y
_atom_site_fract_z
Si Si1 0.500000 0.329520 0.598861
Si Si2 0.642562 0.675418 0.023692
Si Si3 0.694226 0.187530 0.762717
Si Si4 0.233580 0.684378 0.902068
Si Si5 0.095859 0.688338 0.510761
Si Si6 0.500000 0.316766 0.243884
Si Si7 0.225875 0.186436 0.123932
O O1 0.500000 0.500000 0.632580
O O2 0.577930 0.304362 0.548787
O O3 0.500000 0.205389 0.660857
O O4 0.606115 0.500000 0.028277
O O5 0.717477 0.697343 0.078066
O O6 0.682689 0.699079 0.949340
O O7 0.745124 0.221632 0.832938
O O8 0.594580 0.243988 0.765920
O O9 0.746933 0.271756 0.701504
O O10 0.691218 0.000000 0.748982
O O11 0.220817 0.500000 0.886041
O O12 0.157174 0.741806 0.951479
O O13 0.095641 0.500000 0.500115
O O14 0.134452 0.712420 0.588060
O O15 0.000000 0.747662 0.505601
O O16 0.500000 0.500000 0.263649
O O17 0.245090 0.000000 0.112630
#
# Coordination Sequence:
#
# PCOD9357154 Si02
#       7
#     4   8   8   8   8   4   8
#     4  12  22  31  52  81 107 143 191 241 282 327
#     4  10  20  35  53  75 107 145 185 230 282 332
#     4  11  22  37  57  81 115 157 194 235 286 336
#     4  10  22  38  57  82 113 150 189 234 284 339
#     4   9  19  38  63  88 114 145 183 231 287 346
#     4  10  22  37  54  77 111 153 195 239 284 331
#     4  10  19  33  56  84 111 142 185 232 279 335
#
# _framework density 18.483547999999999
#
# number of rings (size 3 to 8) (size 9 to 14) (size 15 to 20)
#    0.000    1.833    1.667    2.750    0.000    4.333 
#    0.000    2.500    0.000    3.000    0.000    0.000 
#    0.000    0.000    0.000    0.000    0.000    0.000 
#
# Total GULP energy -133616.495711 kJ/mol
# GULP energy per Si atom -5567.353988 kJ/mol
# Density = 1.844148 g / cm^3
# Si number density = 18.483548 Si / 1000 Ang^3
#
#
#
# Elastic Constant Matrix: (Units=GPa)
#
#
# Indices 1 2 3 4 5 6 
#
# 1 113.6593 15.5691 35.5607 0.0000 0.0000 0.0000
# 2 15.5691 21.6697 14.0355 0.0000 0.0000 0.0000
# 3 35.5607 14.0355 93.5953 0.0000 0.0000 0.0000
# 4 0.0000 0.0000 0.0000 20.5016 0.0000 0.0000
# 5 0.0000 0.0000 0.0000 0.0000 97.9999 0.0000
# 6 0.0000 0.0000 0.0000 0.0000 0.0000 20.5983
#
#
#
# Elastic Compliance Matrix: (Units=1/GPa)
#
#
# Indices 1 2 3 4 5 6 
#
# 1 0.010549 -0.005519 -0.003180 0.000000 0.000000 0.000000
# 2 -0.005519 0.054000 -0.006001 0.000000 0.000000 0.000000
# 3 -0.003180 -0.006001 0.012793 0.000000 0.000000 0.000000
# 4 0.000000 0.000000 0.000000 0.048777 0.000000 0.000000
# 5 0.000000 0.000000 0.000000 0.000000 0.010204 0.000000
# 6 0.000000 0.000000 0.000000 0.000000 0.000000 0.048548
#
#
# Mechanical properties :
#
#
# Convention : Reuss Voigt Hill
#
# Bulk Modulus (GPa) = 20.85925 39.91720 30.38823
# Shear Modulus (GPa) = 21.71540 38.73722 30.22631
#
# Velocity S-wave (km/s) = 3.43133 4.58292 4.04828
# Velocity P-wave (km/s) = 5.19697 7.04608 6.19095
#
# Compressibility (1/GPa) = 0.04794036
#
# Stress axis : x y z
#
# Youngs Moduli (GPa) = 94.79254 18.51864 78.17064
#
# Poissons Ratio (x) = 0.10221 0.24862
# Poissons Ratio (y) = 0.52321 0.46908
# Poissons Ratio (z) = 0.30148 0.11112
#
# Static dielectric constant tensor:
#      x y z
#    x 0.984540 0.000000 0.000000 
#    y 0.000000 1.650020 0.000000 
#    z 0.000000 0.000000 1.626900 
# 
# From -- ./inp_files/18190.got.cif
#   From: 2010.05.17/outbox.cif.g08.bks.cpg/sg38_10_cif.got.tgz:18190.got - 2010.06.03 18:07:57.
