data_PCOD9357757
_publ_section_title
;
Structure prediction by ZEFSAII (Michael W. Deem and Ramdas Pophale) SiO2 
 PCOD9357757
Probable space group: A M M 2
;
_chemical_formula_sum "Si O2"
_cell_formula_units_Z 64
_cell_length_a 20.033320
_cell_length_b 7.877458
_cell_length_c 21.256035
_cell_angle_alpha 90.000000
_cell_angle_beta 90.000000
_cell_angle_gamma 90.000000
_cell_volume 3354.449677
_symmetry_space_group_name_H-M "A M M 2"
_symmetry_group_IT_number 38
_symmetry_cell_setting 'orthorhombic'
loop_
_space_group_symop_operation_xyz
x,y,z
-x,-y,z
-x,y,z
x,-y,z
x,1/2+y,1/2+z
-x,1/2-y,1/2+z
-x,1/2+y,1/2+z
x,1/2-y,1/2+z
loop_
_atom_site_type_symbol
_atom_site_label
_atom_site_fract_x
_atom_site_fract_y
_atom_site_fract_z
Si Si1 0.426153 0.702966 0.028430
Si Si2 0.074433 0.204491 0.259435
Si Si3 0.787324 0.800640 0.457487
Si Si4 0.712877 0.197679 0.082844
Si Si5 0.924599 0.703215 0.405162
Si Si6 0.788224 0.208650 0.205514
Si Si7 0.712298 0.292550 0.831511
Si Si8 0.574401 0.207181 0.383815
O O1 0.500000 0.765843 0.048359
O O2 0.430241 0.500000 0.024872
O O3 0.362275 0.741050 0.070507
O O4 0.414125 0.761944 0.956330
O O5 0.088583 0.246712 0.332521
O O6 0.135443 0.264889 0.216558
O O7 0.000000 0.269587 0.244453
O O8 0.072632 0.000000 0.255073
O O9 0.755559 0.721587 0.519440
O O10 0.866097 0.774266 0.448578
O O11 0.752869 0.735572 0.393303
O O12 0.772159 0.000000 0.461491
O O13 0.706527 0.000000 0.095733
O O14 0.752670 0.271720 0.142347
O O15 0.923232 0.500000 0.409378
O O16 0.000000 0.761943 0.420285
O O17 0.746521 0.261403 0.267051
O O18 0.789568 0.000000 0.204625
O O19 0.714141 0.500000 0.831532
O O20 0.635860 0.238082 0.840985
O O21 0.500000 0.261492 0.364949
O O22 0.574746 0.000000 0.383924
#
# Coordination Sequence:
#
# PCOD9357757 Si02
#       8
#     8   8   8   8   8   8   8   8
#     4   9  17  32  54  77 101 134 180 224 263 318
#     4   9  16  30  54  78  99 133 182 221 253 308
#     4  11  20  34  57  78 101 137 183 224 257 309
#     4  11  22  34  50  76 114 146 174 219 273 322
#     4  10  20  33  51  80 114 139 165 213 277 328
#     4   9  18  32  48  73 108 142 174 215 262 313
#     4   9  15  27  50  75  98 127 170 220 257 295
#     4   8  13  23  44  74 100 123 163 218 261 292
#
# _framework density 19.079135999999998
#
# number of rings (size 3 to 8) (size 9 to 14) (size 15 to 20)
#    0.000    2.500    2.500    1.875    0.000    1.000 
#    0.000    2.500    0.000    4.500    0.000    0.000 
#    0.000    0.000    0.000    0.000    0.000    0.000 
#
# Total GULP energy -178440.605041 kJ/mol
# GULP energy per Si atom -5576.268908 kJ/mol
# Density = 1.903571 g / cm^3
# Si number density = 19.079136 Si / 1000 Ang^3
#
#
#
# Elastic Constant Matrix: (Units=GPa)
#
#
# Indices 1 2 3 4 5 6 
#
# 1 173.5123 -0.5746 77.0495 0.0000 0.0000 0.0000
# 2 -0.5746 14.7234 -2.2927 0.0000 0.0000 0.0000
# 3 77.0495 -2.2927 101.7919 0.0000 0.0000 0.0000
# 4 0.0000 0.0000 0.0000 15.4121 0.0000 0.0000
# 5 0.0000 0.0000 0.0000 0.0000 28.0851 0.0000
# 6 0.0000 0.0000 0.0000 0.0000 0.0000 18.2654
#
#
#
# Elastic Compliance Matrix: (Units=1/GPa)
#
#
# Indices 1 2 3 4 5 6 
#
# 1 0.008688 -0.000687 -0.006592 0.000000 0.000000 0.000000
# 2 -0.000687 0.068213 0.002057 0.000000 0.000000 0.000000
# 3 -0.006592 0.002057 0.014860 0.000000 0.000000 0.000000
# 4 0.000000 0.000000 0.000000 0.064884 0.000000 0.000000
# 5 0.000000 0.000000 0.000000 0.000000 0.035606 0.000000
# 6 0.000000 0.000000 0.000000 0.000000 0.000000 0.054748
#
#
# Mechanical properties :
#
#
# Convention : Reuss Voigt Hill
#
# Bulk Modulus (GPa) = 12.29776 48.71022 30.50399
# Shear Modulus (GPa) = 17.57164 26.74220 22.15692
#
# Velocity S-wave (km/s) = 3.03807 3.74792 3.41151
# Velocity P-wave (km/s) = 4.33199 6.65697 5.61611
#
# Compressibility (1/GPa) = 0.08131560
#
# Stress axis : x y z
#
# Youngs Moduli (GPa) = 115.09926 14.66004 67.29541
#
# Poissons Ratio (x) = 0.01008 0.44360
# Poissons Ratio (y) = 0.07912 -0.13841
# Poissons Ratio (z) = 0.75871 -0.03015
#
# Static dielectric constant tensor:
#      x y z
#    x 1.713500 0.000000 0.000000 
#    y 0.000000 1.699400 0.000000 
#    z 0.000000 0.000000 1.634800 
# 
# From -- ./inp_files/18913.got.cif
#   From: 2010.05.17/outbox.cif.g08.bks.cpg/sg38_10_cif.got.tgz:18913.got - 2010.06.03 18:07:57.
