data_PCOD9357070
_publ_section_title
;
Structure prediction by ZEFSAII (Michael W. Deem and Ramdas Pophale) SiO2 
 PCOD9357070
Probable space group: A M M 2
;
_chemical_formula_sum "Si O2"
_cell_formula_units_Z 64
_cell_length_a 7.836739
_cell_length_b 25.967685
_cell_length_c 15.380337
_cell_angle_alpha 90.000000
_cell_angle_beta 90.000000
_cell_angle_gamma 90.000000
_cell_volume 3129.928875
_symmetry_space_group_name_H-M "A M M 2"
_symmetry_group_IT_number 38
_symmetry_cell_setting 'orthorhombic'
loop_
_space_group_symop_operation_xyz
x,y,z
-x,-y,z
-x,y,z
x,-y,z
x,1/2+y,1/2+z
-x,1/2-y,1/2+z
-x,1/2+y,1/2+z
x,1/2-y,1/2+z
loop_
_atom_site_type_symbol
_atom_site_label
_atom_site_fract_x
_atom_site_fract_y
_atom_site_fract_z
Si Si1 0.291196 0.440731 0.295780
Si Si2 0.296767 0.233168 0.833385
Si Si3 0.301841 0.397162 0.111018
Si Si4 0.198013 0.216615 0.635337
Si Si5 0.705366 0.363371 0.443741
Si Si6 0.206889 0.652579 0.819405
Si Si7 0.799517 0.557234 0.931050
Si Si8 0.203801 0.829313 0.123896
O O1 0.500000 0.439270 0.295810
O O2 0.238692 0.500000 0.299283
O O3 0.235109 0.414707 0.205393
O O4 0.233802 0.407881 0.378801
O O5 0.500000 0.226871 0.821107
O O6 0.212280 0.221213 0.740175
O O7 0.237294 0.191119 0.902765
O O8 0.259812 0.292087 0.857705
O O9 0.500000 0.411706 0.106975
O O10 0.285894 0.335545 0.105035
O O11 0.214464 0.425324 0.030908
O O12 0.271282 0.271536 0.604204
O O13 0.000000 0.212262 0.609937
O O14 0.500000 0.363915 0.442211
O O15 0.758983 0.365954 0.543490
O O16 0.272779 0.603550 0.872460
O O17 0.265380 0.652836 0.718617
O O18 0.000000 0.651688 0.820698
O O19 0.725525 0.500000 0.918932
O O20 0.000000 0.554132 0.909380
O O21 0.000000 0.823676 0.131903
#
# Coordination Sequence:
#
# PCOD9357070 Si02
#       8
#     8   8   8   8   8   8   8   8
#     4   9  18  35  56  77 108 148 183 217 266 329
#     4  10  19  33  53  82 113 142 182 230 279 331
#     4  11  21  35  56  84 116 149 185 229 280 339
#     4  10  20  35  54  80 113 151 187 222 273 336
#     4  10  20  34  53  81 112 144 184 226 272 327
#     4   9  20  39  58  78 108 148 190 230 284 343
#     4  10  22  40  60  82 110 146 192 242 287 338
#     4   9  20  36  54  78 109 145 185 227 275 331
#
# _framework density 20.447749000000002
#
# number of rings (size 3 to 8) (size 9 to 14) (size 15 to 20)
#    0.000    2.250    1.250    2.250    1.750    4.750 
#    0.000    0.625    0.000    2.625    0.000    0.000 
#    0.000    0.000    0.000    0.000    0.000    0.000 
#
# Total GULP energy -178665.758239 kJ/mol
# GULP energy per Si atom -5583.304945 kJ/mol
# Density = 2.040121 g / cm^3
# Si number density = 20.447749 Si / 1000 Ang^3
#
#
#
# Elastic Constant Matrix: (Units=GPa)
#
#
# Indices 1 2 3 4 5 6 
#
# 1 25.1235 3.5136 -3.6155 0.0000 0.0000 0.0000
# 2 3.5136 134.3249 55.3611 0.0000 0.0000 0.0000
# 3 -3.6155 55.3611 79.6800 0.0000 0.0000 0.0000
# 4 0.0000 0.0000 0.0000 23.7465 0.0000 0.0000
# 5 0.0000 0.0000 0.0000 0.0000 27.4297 0.0000
# 6 0.0000 0.0000 0.0000 0.0000 0.0000 12.9259
#
#
#
# Elastic Compliance Matrix: (Units=1/GPa)
#
#
# Indices 1 2 3 4 5 6 
#
# 1 0.040682 -0.002557 0.003623 0.000000 0.000000 0.000000
# 2 -0.002557 0.010593 -0.007476 0.000000 0.000000 0.000000
# 3 0.003623 -0.007476 0.017909 0.000000 0.000000 0.000000
# 4 0.000000 0.000000 0.000000 0.042112 0.000000 0.000000
# 5 0.000000 0.000000 0.000000 0.000000 0.036457 0.000000
# 6 0.000000 0.000000 0.000000 0.000000 0.000000 0.077364
#
#
# Mechanical properties :
#
#
# Convention : Reuss Voigt Hill
#
# Bulk Modulus (GPa) = 17.74208 38.84963 28.29586
# Shear Modulus (GPa) = 19.47618 25.07836 22.27727
#
# Velocity S-wave (km/s) = 3.08958 3.50589 3.30430
# Velocity P-wave (km/s) = 4.62850 5.95223 5.33160
#
# Compressibility (1/GPa) = 0.05636318
#
# Stress axis : x y z
#
# Youngs Moduli (GPa) = 24.58070 94.40568 55.83896
#
# Poissons Ratio (x) = 0.24142 -0.20229
# Poissons Ratio (y) = 0.06286 0.41743
# Poissons Ratio (z) = -0.08905 0.70575
#
# Static dielectric constant tensor:
#      x y z
#    x 1.735470 0.000000 0.000000 
#    y 0.000000 1.726760 0.000000 
#    z 0.000000 0.000000 1.721120 
# 
# From -- ./inp_files/12748.got.cif
#   From: 2010.05.17/outbox.cif.g08.bks.cpg/sg38_7_cif.got.tgz:12748.got - 2010.06.03 18:07:57.
