data_PCOD9357823
_publ_section_title
;
Structure prediction by ZEFSAII (Michael W. Deem and Ramdas Pophale) SiO2 
 PCOD9357823
Probable space group: A M M 2
;
_chemical_formula_sum "Si O2"
_cell_formula_units_Z 58
_cell_length_a 9.286181
_cell_length_b 21.573117
_cell_length_c 14.936107
_cell_angle_alpha 90.000000
_cell_angle_beta 90.000000
_cell_angle_gamma 90.000000
_cell_volume 2992.178234
_symmetry_space_group_name_H-M "A M M 2"
_symmetry_group_IT_number 38
_symmetry_cell_setting 'orthorhombic'
loop_
_space_group_symop_operation_xyz
x,y,z
-x,-y,z
-x,y,z
x,-y,z
x,1/2+y,1/2+z
-x,1/2-y,1/2+z
-x,1/2+y,1/2+z
x,1/2-y,1/2+z
loop_
_atom_site_type_symbol
_atom_site_label
_atom_site_fract_x
_atom_site_fract_y
_atom_site_fract_z
Si Si1 0.828645 0.820702 0.719690
Si Si2 0.500000 0.500000 0.924911
Si Si3 0.828742 0.761595 0.397088
Si Si4 0.332449 0.074320 0.812273
Si Si5 0.334588 0.756463 0.075098
Si Si6 0.336615 0.892441 0.153491
Si Si7 0.340753 0.383527 0.857536
Si Si8 0.159166 0.926907 0.985446
O O1 0.798398 0.775563 0.805033
O O2 0.763354 0.887405 0.743377
O O3 0.750900 0.793643 0.632857
O O4 0.000000 0.823003 0.707926
O O5 0.375989 0.444280 0.915838
O O6 0.747012 0.732608 0.481948
O O7 0.769594 0.831907 0.389665
O O8 0.000000 0.760927 0.410910
O O9 0.500000 0.090957 0.804271
O O10 0.271676 0.093064 0.909833
O O11 0.320284 0.000000 0.801469
O O12 0.500000 0.737873 0.058661
O O13 0.335851 0.819210 0.133248
O O14 0.500000 0.915632 0.135736
O O15 0.302497 0.904820 0.256726
O O16 0.223583 0.918744 0.083482
O O17 0.500000 0.352063 0.848006
O O18 0.000000 0.898046 0.974788
O O19 0.144491 0.000000 0.970401
#
# Coordination Sequence:
#
# PCOD9357823 Si02
#       8
#     8   2   8   8   8   8   8   8
#     4  11  23  39  62  91 123 159 195 244 306 362
#     4   8  20  36  66  84 116 156 202 260 300 364
#     4  11  23  39  61  90 126 161 199 254 309 363
#     4  10  21  38  59  83 114 155 202 246 293 353
#     4  11  23  38  60  90 118 156 199 250 300 357
#     4  10  20  33  55  83 115 150 196 240 292 358
#     4   9  19  37  60  85 113 157 201 247 303 357
#     4  10  21  33  49  78 116 156 194 238 291 352
#
# _framework density 19.383870999999999
#
# number of rings (size 3 to 8) (size 9 to 14) (size 15 to 20)
#    0.414    1.379    1.379    2.897    0.966    7.172 
#    0.000    0.345    1.517    0.000    0.000    0.000 
#    0.000    0.000    0.000    0.000    0.000    0.000 
#
# Total GULP energy -161551.566172 kJ/mol
# GULP energy per Si atom -5570.743661 kJ/mol
# Density = 1.933975 g / cm^3
# Si number density = 19.383871 Si / 1000 Ang^3
#
#
#
# Elastic Constant Matrix: (Units=GPa)
#
#
# Indices 1 2 3 4 5 6 
#
# 1 95.5206 29.1150 25.6925 0.0000 0.0000 0.0000
# 2 29.1150 56.4653 -0.3548 0.0000 0.0000 0.0000
# 3 25.6925 -0.3548 37.7353 0.0000 0.0000 0.0000
# 4 0.0000 0.0000 0.0000 26.5958 0.0000 0.0000
# 5 0.0000 0.0000 0.0000 0.0000 27.1998 0.0000
# 6 0.0000 0.0000 0.0000 0.0000 0.0000 30.5208
#
#
#
# Elastic Compliance Matrix: (Units=1/GPa)
#
#
# Indices 1 2 3 4 5 6 
#
# 1 0.015933 -0.008284 -0.010926 0.000000 0.000000 0.000000
# 2 -0.008284 0.022018 0.005847 0.000000 0.000000 0.000000
# 3 -0.010926 0.005847 0.033994 0.000000 0.000000 0.000000
# 4 0.000000 0.000000 0.000000 0.037600 0.000000 0.000000
# 5 0.000000 0.000000 0.000000 0.000000 0.036765 0.000000
# 6 0.000000 0.000000 0.000000 0.000000 0.000000 0.032765
#
#
# Mechanical properties :
#
#
# Convention : Reuss Voigt Hill
#
# Bulk Modulus (GPa) = 22.11407 33.18072 27.64739
# Shear Modulus (GPa) = 22.63744 25.88118 24.25931
#
# Velocity S-wave (km/s) = 3.42109 3.65799 3.54152
# Velocity P-wave (km/s) = 5.19984 5.91575 5.56931
#
# Compressibility (1/GPa) = 0.04522008
#
# Stress axis : x y z
#
# Youngs Moduli (GPa) = 62.76412 45.41707 29.41669
#
# Poissons Ratio (x) = 0.37623 0.32140
# Poissons Ratio (y) = 0.51993 -0.17201
# Poissons Ratio (z) = 0.68575 -0.26556
#
# Static dielectric constant tensor:
#      x y z
#    x 1.671110 0.000000 0.000000 
#    y 0.000000 1.703250 0.000000 
#    z 0.000000 0.000000 1.679460 
# 
# From -- ./inp_files/12663.got.cif
#   From: 2010.05.17/outbox.cif.g08.bks.cpg/sg38_7_cif.got.tgz:12663.got - 2010.06.03 18:07:57.
