data_PCOD9357915
_publ_section_title
;
Structure prediction by ZEFSAII (Michael W. Deem and Ramdas Pophale) SiO2 
 PCOD9357915
Probable space group: A M M 2
;
_chemical_formula_sum "Si O2"
_cell_formula_units_Z 64
_cell_length_a 24.923480
_cell_length_b 7.831131
_cell_length_c 15.807012
_cell_angle_alpha 90.000000
_cell_angle_beta 90.000000
_cell_angle_gamma 90.000000
_cell_volume 3085.197378
_symmetry_space_group_name_H-M "A M M 2"
_symmetry_group_IT_number 38
_symmetry_cell_setting 'orthorhombic'
loop_
_space_group_symop_operation_xyz
x,y,z
-x,-y,z
-x,y,z
x,-y,z
x,1/2+y,1/2+z
-x,1/2-y,1/2+z
-x,1/2+y,1/2+z
x,1/2-y,1/2+z
loop_
_atom_site_type_symbol
_atom_site_label
_atom_site_fract_x
_atom_site_fract_y
_atom_site_fract_z
Si Si1 0.367545 0.700546 0.639590
Si Si2 0.751926 0.705577 0.145981
Si Si3 0.439440 0.203601 0.796607
Si Si4 0.364257 0.203629 0.946509
Si Si5 0.134076 0.795274 0.702982
Si Si6 0.244749 0.794769 0.447654
Si Si7 0.869413 0.794609 0.387540
Si Si8 0.938431 0.790555 0.547118
O O1 0.377755 0.500000 0.634131
O O2 0.306359 0.726977 0.670584
O O3 0.408382 0.771163 0.708541
O O4 0.370866 0.772054 0.543018
O O5 0.749381 0.500000 0.152764
O O6 0.804636 0.769494 0.194238
O O7 0.760248 0.749206 0.047041
O O8 0.500000 0.272513 0.794019
O O9 0.404725 0.272916 0.875711
O O10 0.442893 0.000000 0.809207
O O11 0.302695 0.231523 0.918585
O O12 0.372045 0.000000 0.951956
O O13 0.111771 0.752739 0.794599
O O14 0.096547 0.733094 0.627251
O O15 0.137122 0.000000 0.694137
O O16 0.191476 0.729796 0.401641
O O17 0.245658 0.000000 0.441746
O O18 0.908204 0.734701 0.462081
O O19 0.867194 0.000000 0.393908
O O20 0.000000 0.735210 0.550774
O O21 0.938507 0.000000 0.547538
#
# Coordination Sequence:
#
# PCOD9357915 Si02
#       8
#     8   8   8   8   8   8   8   8
#     4  10  21  36  56  84 113 141 178 227 277 320
#     4   9  17  33  55  77 108 146 182 219 267 330
#     4  10  22  40  59  79 108 148 188 221 262 325
#     4   9  20  37  56  80 109 143 180 219 268 323
#     4  10  20  34  54  81 108 142 185 227 271 323
#     4   9  17  32  54  78 108 142 178 221 268 322
#     4  10  20  34  53  81 111 142 180 225 277 326
#     4   9  18  36  59  78 105 149 193 226 265 328
#
# _framework density 20.744213999999999
#
# number of rings (size 3 to 8) (size 9 to 14) (size 15 to 20)
#    0.000    2.500    1.250    0.375    1.750    3.250 
#    0.000    1.875    0.000    0.750    0.000    0.000 
#    0.000    0.000    0.000    0.000    0.000    0.000 
#
# Total GULP energy -178614.563820 kJ/mol
# GULP energy per Si atom -5581.705119 kJ/mol
# Density = 2.069700 g / cm^3
# Si number density = 20.744214 Si / 1000 Ang^3
#
#
#
# Elastic Constant Matrix: (Units=GPa)
#
#
# Indices 1 2 3 4 5 6 
#
# 1 146.4022 5.7393 77.5555 0.0000 0.0000 0.0000
# 2 5.7393 19.6275 0.2011 0.0000 0.0000 0.0000
# 3 77.5555 0.2011 114.9967 0.0000 0.0000 0.0000
# 4 0.0000 0.0000 0.0000 19.0166 0.0000 0.0000
# 5 0.0000 0.0000 0.0000 0.0000 -16.3692 0.0000
# 6 0.0000 0.0000 0.0000 0.0000 0.0000 8.8292
#
#
#
# Elastic Compliance Matrix: (Units=1/GPa)
#
#
# Indices 1 2 3 4 5 6 
#
# 1 0.010811 -0.003087 -0.007286 0.000000 0.000000 0.000000
# 2 -0.003087 0.051831 0.001991 0.000000 0.000000 0.000000
# 3 -0.007286 0.001991 0.013606 0.000000 0.000000 0.000000
# 4 0.000000 0.000000 0.000000 0.052586 0.000000 0.000000
# 5 0.000000 0.000000 0.000000 0.000000 -0.061090 0.000000
# 6 0.000000 0.000000 0.000000 0.000000 0.000000 0.113261
#
#
# Mechanical properties :
#
#
# Convention : Reuss Voigt Hill
#
# Bulk Modulus (GPa) = 16.81084 49.77982 33.29533
# Shear Modulus (GPa) = 22.97844 15.46402 19.22123
#
# Velocity S-wave (km/s) = 3.33183 2.73328 3.04728
# Velocity P-wave (km/s) = 4.78779 5.83182 5.33540
#
# Compressibility (1/GPa) = 0.05948543
#
# Stress axis : x y z
#
# Youngs Moduli (GPa) = 92.49769 19.29346 73.49674
#
# Poissons Ratio (x) = 0.05955 0.53548
# Poissons Ratio (y) = 0.28551 -0.14633
# Poissons Ratio (z) = 0.67392 -0.03841
#
# Static dielectric constant tensor:
#      x y z
#    x 1.727750 0.000000 0.000000 
#    y 0.000000 1.768860 0.000000 
#    z 0.000000 0.000000 1.742820 
# 
# From -- ./inp_files/15737.got.cif
#   From: 2010.05.17/outbox.cif.g08.bks.cpg/sg38_8_cif.got.tgz:15737.got - 2010.06.03 18:07:57.
