data_PCOD9357925
_publ_section_title
;
Structure prediction by ZEFSAII (Michael W. Deem and Ramdas Pophale) SiO2 
 PCOD9357925
Probable space group: A M M 2
;
_chemical_formula_sum "Si O2"
_cell_formula_units_Z 40
_cell_length_a 9.244785
_cell_length_b 7.774783
_cell_length_c 30.658642
_cell_angle_alpha 90.000000
_cell_angle_beta 90.000000
_cell_angle_gamma 90.000000
_cell_volume 2203.626600
_symmetry_space_group_name_H-M "A M M 2"
_symmetry_group_IT_number 38
_symmetry_cell_setting 'orthorhombic'
loop_
_space_group_symop_operation_xyz
x,y,z
-x,-y,z
-x,y,z
x,-y,z
x,1/2+y,1/2+z
-x,1/2-y,1/2+z
-x,1/2+y,1/2+z
x,1/2-y,1/2+z
loop_
_atom_site_type_symbol
_atom_site_label
_atom_site_fract_x
_atom_site_fract_y
_atom_site_fract_z
Si Si1 0.175101 0.000000 0.897550
Si Si2 0.332252 0.208279 0.645280
Si Si3 0.675518 0.000000 0.804127
Si Si4 0.834156 0.709924 0.059314
Si Si5 0.176231 0.302346 0.962983
Si Si6 0.675944 0.308920 0.741069
O O1 0.250948 0.000000 0.850983
O O2 0.216783 0.168071 0.925790
O O3 0.000000 0.000000 0.892862
O O4 0.500000 0.258976 0.642067
O O5 0.251264 0.267463 0.601894
O O6 0.273576 0.273320 0.691636
O O7 0.326439 0.000000 0.646857
O O8 0.719852 0.834991 0.775405
O O9 0.500000 0.000000 0.808390
O O10 0.834256 0.500000 0.059445
O O11 0.000000 0.767338 0.062559
O O12 0.775473 0.756303 0.011402
O O13 0.222394 0.500000 0.955121
O O14 0.000000 0.304283 0.965062
O O15 0.500000 0.300222 0.739052
O O16 0.718102 0.500000 0.754673
#
# Coordination Sequence:
#
# PCOD9357925 Si02
#       6
#     4   8   4   8   8   8
#     4  10  20  34  54  76  94 124 166 204 245 290
#     4   9  15  26  46  70  95 125 160 196 232 276
#     4  10  20  36  54  72  96 126 162 206 247 288
#     4   8  14  26  45  68  95 129 161 190 231 281
#     4   8  15  30  50  70  96 129 163 195 232 288
#     4   9  17  31  51  71  94 128 165 195 234 293
#
# _framework density 18.151893999999999
#
# number of rings (size 3 to 8) (size 9 to 14) (size 15 to 20)
#    0.000    3.200    1.000    1.200    0.000    0.800 
#    1.800    2.000    0.000    2.400    0.000    0.000 
#    0.000    0.000    0.000    0.000    0.000    0.000 
#
# Total GULP energy -111429.309413 kJ/mol
# GULP energy per Si atom -5571.465471 kJ/mol
# Density = 1.811058 g / cm^3
# Si number density = 18.151894 Si / 1000 Ang^3
#
#
#
# Elastic Constant Matrix: (Units=GPa)
#
#
# Indices 1 2 3 4 5 6 
#
# 1 17.2276 22.5520 42.2241 0.0000 0.0000 0.0000
# 2 22.5520 105.1240 94.1271 0.0000 0.0000 0.0000
# 3 42.2241 94.1271 207.1592 0.0000 0.0000 0.0000
# 4 0.0000 0.0000 0.0000 -10.7281 0.0000 0.0000
# 5 0.0000 0.0000 0.0000 0.0000 35.6791 0.0000
# 6 0.0000 0.0000 0.0000 0.0000 0.0000 5.3801
#
#
#
# Elastic Compliance Matrix: (Units=1/GPa)
#
#
# Indices 1 2 3 4 5 6 
#
# 1 0.118489 -0.006397 -0.021244 0.000000 0.000000 0.000000
# 2 -0.006397 0.016383 -0.006140 0.000000 0.000000 0.000000
# 3 -0.021244 -0.006140 0.011947 0.000000 0.000000 0.000000
# 4 0.000000 0.000000 0.000000 -0.093213 0.000000 0.000000
# 5 0.000000 0.000000 0.000000 0.000000 0.028028 0.000000
# 6 0.000000 0.000000 0.000000 0.000000 0.000000 0.185871
#
#
# Mechanical properties :
#
#
# Convention : Reuss Voigt Hill
#
# Bulk Modulus (GPa) = 12.61731 71.92414 42.27073
# Shear Modulus (GPa) = 13.83177 17.44004 15.63591
#
# Velocity S-wave (km/s) = 2.76343 3.10301 2.93813
# Velocity P-wave (km/s) = 4.14103 7.24898 5.90322
#
# Compressibility (1/GPa) = 0.07925620
#
# Stress axis : x y z
#
# Youngs Moduli (GPa) = 8.43957 61.04071 83.70252
#
# Poissons Ratio (x) = 0.39049 1.77820
# Poissons Ratio (y) = 0.05399 0.51392
# Poissons Ratio (z) = 0.17929 0.37478
#
# Static dielectric constant tensor:
#      x y z
#    x 1.609640 0.000000 0.000000 
#    y 0.000000 1.651550 0.000000 
#    z 0.000000 0.000000 1.611730 
# 
# From -- ./inp_files/20493.got.cif
#   From: 2010.05.17/outbox.cif.g08.bks.cpg/sg38_11_cif.got.tgz:20493.got - 2010.06.03 18:07:57.
