data_PCOD9357147
_publ_section_title
;
Structure prediction by ZEFSAII (Michael W. Deem and Ramdas Pophale) SiO2 
 PCOD9357147
Probable space group: A M M 2
;
_chemical_formula_sum "Si O2"
_cell_formula_units_Z 64
_cell_length_a 8.148310
_cell_length_b 18.127325
_cell_length_c 21.190394
_cell_angle_alpha 90.000000
_cell_angle_beta 90.000000
_cell_angle_gamma 90.000000
_cell_volume 3129.970874
_symmetry_space_group_name_H-M "A M M 2"
_symmetry_group_IT_number 38
_symmetry_cell_setting 'orthorhombic'
loop_
_space_group_symop_operation_xyz
x,y,z
-x,-y,z
-x,y,z
x,-y,z
x,1/2+y,1/2+z
-x,1/2-y,1/2+z
-x,1/2+y,1/2+z
x,1/2-y,1/2+z
loop_
_atom_site_type_symbol
_atom_site_label
_atom_site_fract_x
_atom_site_fract_y
_atom_site_fract_z
Si Si1 0.193808 0.580084 0.965330
Si Si2 0.808846 0.279701 0.739649
Si Si3 0.699236 0.627082 0.375638
Si Si4 0.196792 0.290723 0.600533
Si Si5 0.690401 0.884511 0.739241
Si Si6 0.305299 0.122001 0.601350
Si Si7 0.693971 0.297541 0.870075
Si Si8 0.802788 0.920187 0.011314
O O1 0.258620 0.500000 0.944191
O O2 0.268095 0.648138 0.927179
O O3 0.000000 0.582241 0.954405
O O4 0.225904 0.587395 0.039788
O O5 0.777239 0.317609 0.672585
O O6 0.702221 0.204904 0.741135
O O7 0.772611 0.322668 0.803789
O O8 0.000000 0.256938 0.739567
O O9 0.500000 0.624852 0.374515
O O10 0.758690 0.594884 0.308135
O O11 0.751772 0.713228 0.381310
O O12 0.760041 0.587656 0.437988
O O13 0.275508 0.210032 0.595833
O O14 0.260235 0.350143 0.550616
O O15 0.000000 0.280903 0.591475
O O16 0.500000 0.907146 0.738303
O O17 0.760257 0.903829 0.670229
O O18 0.500000 0.107777 0.599890
O O19 0.500000 0.294350 0.861223
O O20 0.000000 0.919094 0.017893
O O21 0.742857 0.000000 0.034414
#
# Coordination Sequence:
#
# PCOD9357147 Si02
#       8
#     8   8   8   8   8   8   8   8
#     4  11  24  39  53  73 104 139 174 213 257 309
#     4   9  16  28  50  79 105 131 167 210 256 302
#     4   9  18  33  53  77 102 130 166 207 252 300
#     4   9  18  33  53  76 104 138 174 212 255 305
#     4   8  16  31  50  75 105 133 165 208 256 306
#     4  10  19  33  56  81 103 131 169 213 260 309
#     4  10  20  35  56  80 105 133 167 209 257 310
#     4  10  21  35  49  69 100 137 174 210 249 294
#
# _framework density 20.447474
#
# number of rings (size 3 to 8) (size 9 to 14) (size 15 to 20)
#    0.000    2.500    0.000    3.000    0.000    7.250 
#    0.000    1.250    0.000    6.000    0.000    0.000 
#    0.000    0.000    0.000    0.000    0.000    0.000 
#
# Total GULP energy -178454.229727 kJ/mol
# GULP energy per Si atom -5576.694679 kJ/mol
# Density = 2.040093 g / cm^3
# Si number density = 20.447474 Si / 1000 Ang^3
#
#
#
# Elastic Constant Matrix: (Units=GPa)
#
#
# Indices 1 2 3 4 5 6 
#
# 1 21.5287 5.6709 0.2162 0.0000 0.0000 0.0000
# 2 5.6709 65.8068 25.8834 0.0000 0.0000 0.0000
# 3 0.2162 25.8834 92.5875 0.0000 0.0000 0.0000
# 4 0.0000 0.0000 0.0000 -22.5412 0.0000 0.0000
# 5 0.0000 0.0000 0.0000 0.0000 30.4282 0.0000
# 6 0.0000 0.0000 0.0000 0.0000 0.0000 36.9093
#
#
#
# Elastic Compliance Matrix: (Units=1/GPa)
#
#
# Indices 1 2 3 4 5 6 
#
# 1 0.047640 -0.004563 0.001164 0.000000 0.000000 0.000000
# 2 -0.004563 0.017510 -0.004884 0.000000 0.000000 0.000000
# 3 0.001164 -0.004884 0.012163 0.000000 0.000000 0.000000
# 4 0.000000 0.000000 0.000000 -0.044363 0.000000 0.000000
# 5 0.000000 0.000000 0.000000 0.000000 0.032864 0.000000
# 6 0.000000 0.000000 0.000000 0.000000 0.000000 0.027093
#
#
# Mechanical properties :
#
#
# Convention : Reuss Voigt Hill
#
# Bulk Modulus (GPa) = 16.46170 27.05155 21.75663
# Shear Modulus (GPa) = 38.54331 18.83608 28.68970
#
# Velocity S-wave (km/s) = 4.34636 3.03841 3.74985
# Velocity P-wave (km/s) = 5.76680 5.05646 5.42327
#
# Compressibility (1/GPa) = 0.06074705
#
# Stress axis : x y z
#
# Youngs Moduli (GPa) = 20.99074 57.10882 82.21407
#
# Poissons Ratio (x) = 0.26061 -0.09574
# Poissons Ratio (y) = 0.09579 0.40157
# Poissons Ratio (z) = -0.02444 0.27895
#
# Static dielectric constant tensor:
#      x y z
#    x 1.721690 0.000000 0.000000 
#    y 0.000000 1.730100 0.000000 
#    z 0.000000 0.000000 1.761210 
# 
# From -- ./inp_files/20110.got.cif
#   From: 2010.05.17/outbox.cif.g08.bks.cpg/sg38_11_cif.got.tgz:20110.got - 2010.06.03 18:07:57.
