data_PCOD9357900
_publ_section_title
;
Structure prediction by ZEFSAII (Michael W. Deem and Ramdas Pophale) SiO2 
 PCOD9357900
Probable space group: A M M 2
;
_chemical_formula_sum "Si O2"
_cell_formula_units_Z 58
_cell_length_a 14.837890
_cell_length_b 7.267855
_cell_length_c 25.037058
_cell_angle_alpha 90.000000
_cell_angle_beta 90.000000
_cell_angle_gamma 90.000000
_cell_volume 2699.987147
_symmetry_space_group_name_H-M "A M M 2"
_symmetry_group_IT_number 38
_symmetry_cell_setting 'orthorhombic'
loop_
_space_group_symop_operation_xyz
x,y,z
-x,-y,z
-x,y,z
x,-y,z
x,1/2+y,1/2+z
-x,1/2-y,1/2+z
-x,1/2+y,1/2+z
x,1/2-y,1/2+z
loop_
_atom_site_type_symbol
_atom_site_label
_atom_site_fract_x
_atom_site_fract_y
_atom_site_fract_z
Si Si1 0.829558 0.726554 0.573530
Si Si2 0.000000 0.500000 0.058685
Si Si3 0.896808 0.723543 0.785727
Si Si4 0.602930 0.720954 0.259242
Si Si5 0.896840 0.777222 0.406645
Si Si6 0.605832 0.223147 0.877741
Si Si7 0.228094 0.285420 0.691622
Si Si8 0.725660 0.705914 0.473965
O O1 0.840724 0.500000 0.570413
O O2 0.920041 0.838308 0.559975
O O3 0.798089 0.780697 0.633184
O O4 0.750359 0.780696 0.531931
O O5 0.894001 0.500000 0.786861
O O6 0.874592 0.780161 0.846052
O O7 0.831685 0.793440 0.739872
O O8 0.000000 0.775385 0.774542
O O9 0.500000 0.783873 0.252029
O O10 0.600689 0.500000 0.261621
O O11 0.635812 0.784672 0.318276
O O12 0.669713 0.770439 0.211710
O O13 0.823466 0.700624 0.446105
O O14 0.000000 0.725233 0.418280
O O15 0.893346 0.000000 0.409927
O O16 0.500000 0.266907 0.882558
O O17 0.661939 0.292051 0.928536
O O18 0.614050 0.000000 0.877693
O O19 0.205270 0.500000 0.689773
O O20 0.689988 0.500000 0.482804
#
# Coordination Sequence:
#
# PCOD9357900 Si02
#       8
#     8   2   8   8   8   8   8   8
#     4  10  25  42  60  91 119 151 208 254 295 352
#     4  12  26  44  68  82 114 172 206 252 300 348
#     4   8  15  29  48  72 102 140 176 221 284 343
#     4   9  18  33  56  85 115 149 194 243 293 359
#     4   9  18  30  48  73 101 137 184 221 271 352
#     4   8  15  31  56  84 113 150 192 237 296 358
#     4  10  20  35  55  79 114 149 188 245 294 347
#     4  10  20  34  53  78 111 144 185 244 292 339
#
# _framework density 21.481584000000002
#
# number of rings (size 3 to 8) (size 9 to 14) (size 15 to 20)
#    0.000    2.759    0.000    2.690    3.862    0.552 
#    0.000    0.690    0.000    4.552    0.000    0.000 
#    0.000    0.000    0.000    0.000    0.000    0.000 
#
# Total GULP energy -161554.074796 kJ/mol
# GULP energy per Si atom -5570.830165 kJ/mol
# Density = 2.143269 g / cm^3
# Si number density = 21.481584 Si / 1000 Ang^3
#
#
#
# Elastic Constant Matrix: (Units=GPa)
#
#
# Indices 1 2 3 4 5 6 
#
# 1 37.1555 -3.9976 23.7550 0.0000 0.0000 0.0000
# 2 -3.9976 105.8815 2.9596 0.0000 0.0000 0.0000
# 3 23.7550 2.9596 68.5647 0.0000 0.0000 0.0000
# 4 0.0000 0.0000 0.0000 -5.4584 0.0000 0.0000
# 5 0.0000 0.0000 0.0000 0.0000 -2.2260 0.0000
# 6 0.0000 0.0000 0.0000 0.0000 0.0000 14.6408
#
#
#
# Elastic Compliance Matrix: (Units=1/GPa)
#
#
# Indices 1 2 3 4 5 6 
#
# 1 0.034859 0.001656 -0.012149 0.000000 0.000000 0.000000
# 2 0.001656 0.009535 -0.000985 0.000000 0.000000 0.000000
# 3 -0.012149 -0.000985 0.018836 0.000000 0.000000 0.000000
# 4 0.000000 0.000000 0.000000 -0.183203 0.000000 0.000000
# 5 0.000000 0.000000 0.000000 0.000000 -0.449230 0.000000
# 6 0.000000 0.000000 0.000000 0.000000 0.000000 0.068302
#
#
# Mechanical properties :
#
#
# Convention : Reuss Voigt Hill
#
# Bulk Modulus (GPa) = 24.83019 28.55953 26.69486
# Shear Modulus (GPa) = -10.76381 13.98359 1.60989
#
# Velocity S-wave (km/s) = -2.24089 2.55415 0.86663
# Velocity P-wave (km/s) = 2.21099 4.69276 3.66814
#
# Compressibility (1/GPa) = 0.04027356
#
# Stress axis : x y z
#
# Youngs Moduli (GPa) = 28.68675 104.88150 53.08872
#
# Poissons Ratio (x) = -0.17365 0.64497
# Poissons Ratio (y) = -0.04750 0.05230
# Poissons Ratio (z) = 0.34851 0.10333
#
# Static dielectric constant tensor:
#      x y z
#    x 1.745170 0.000000 0.000000 
#    y 0.000000 1.898390 0.000000 
#    z 0.000000 0.000000 1.799070 
# 
# From -- ./inp_files/22818.got.cif
#   From: 2010.05.17/outbox.cif.g08.bks.cpg/sg38_12_cif.got.tgz:22818.got - 2010.06.03 18:07:57.
