data_PCOD9357829
_publ_section_title
;
Structure prediction by ZEFSAII (Michael W. Deem and Ramdas Pophale) SiO2 
 PCOD9357829
Probable space group: A M M 2
;
_chemical_formula_sum "Si O2"
_cell_formula_units_Z 26
_cell_length_a 7.630389
_cell_length_b 7.477343
_cell_length_c 23.519703
_cell_angle_alpha 90.000000
_cell_angle_beta 90.000000
_cell_angle_gamma 90.000000
_cell_volume 1341.917496
_symmetry_space_group_name_H-M "A M M 2"
_symmetry_group_IT_number 38
_symmetry_cell_setting 'orthorhombic'
loop_
_space_group_symop_operation_xyz
x,y,z
-x,-y,z
-x,y,z
x,-y,z
x,1/2+y,1/2+z
-x,1/2-y,1/2+z
-x,1/2+y,1/2+z
x,1/2-y,1/2+z
loop_
_atom_site_type_symbol
_atom_site_label
_atom_site_fract_x
_atom_site_fract_y
_atom_site_fract_z
Si Si1 0.801015 0.281280 0.690060
Si Si2 0.211468 0.500000 0.406843
Si Si3 0.786772 0.796805 0.315599
Si Si4 0.500000 0.000000 0.001873
Si Si5 0.500000 0.207313 0.111250
O O1 0.810301 0.500000 0.690646
O O2 0.731923 0.232143 0.752879
O O3 0.673951 0.217671 0.640096
O O4 0.000000 0.218128 0.682871
O O5 0.258739 0.330623 0.367403
O O6 0.327674 0.500000 0.463128
O O7 0.000000 0.500000 0.417030
O O8 0.000000 0.798667 0.312723
O O9 0.726790 0.000000 0.324108
O O10 0.500000 0.826654 0.043932
O O11 0.500000 0.000000 0.131907
#
# Coordination Sequence:
#
# PCOD9357829 Si02
#       5
#     8   4   8   2   4
#     4   8  13  24  44  69  93 118 152 198 251 292
#     4  10  20  34  50  74 108 136 163 208 252 294
#     4   8  15  29  51  79 102 126 164 205 257 313
#     4  10  22  32  42  74 104 134 188 204 224 312
#     4   8  16  27  41  65  94 121 165 207 224 280
#
# _framework density 19.375259
#
# number of rings (size 3 to 8) (size 9 to 14) (size 15 to 20)
#    0.462    3.077    0.000    1.846    0.000    2.462 
#    0.000    2.308    0.000    0.000    8.000    0.000 
#    0.000    0.000    0.000    0.000    0.000    0.000 
#
# Total GULP energy -72373.010670 kJ/mol
# GULP energy per Si atom -5567.154667 kJ/mol
# Density = 1.933116 g / cm^3
# Si number density = 19.375259 Si / 1000 Ang^3
#
#
#
# Elastic Constant Matrix: (Units=GPa)
#
#
# Indices 1 2 3 4 5 6 
#
# 1 96.4312 18.2212 80.6595 0.0000 0.0000 0.0000
# 2 18.2212 65.1176 40.5257 0.0000 0.0000 0.0000
# 3 80.6595 40.5257 175.4880 0.0000 0.0000 0.0000
# 4 0.0000 0.0000 0.0000 -182.9950 0.0000 0.0000
# 5 0.0000 0.0000 0.0000 0.0000 40.7298 0.0000
# 6 0.0000 0.0000 0.0000 0.0000 0.0000 -1.9484
#
#
#
# Elastic Compliance Matrix: (Units=1/GPa)
#
#
# Indices 1 2 3 4 5 6 
#
# 1 0.016848 0.000123 -0.007772 0.000000 0.000000 0.000000
# 2 0.000123 0.017935 -0.004198 0.000000 0.000000 0.000000
# 3 -0.007772 -0.004198 0.010240 0.000000 0.000000 0.000000
# 4 0.000000 0.000000 0.000000 -0.005465 0.000000 0.000000
# 5 0.000000 0.000000 0.000000 0.000000 0.024552 0.000000
# 6 0.000000 0.000000 0.000000 0.000000 0.000000 -0.513236
#
#
# Mechanical properties :
#
#
# Convention : Reuss Voigt Hill
#
# Bulk Modulus (GPa) = 46.88688 68.42772 57.65730
# Shear Modulus (GPa) = -11.95254 -15.66736 -13.80995
#
# Velocity S-wave (km/s) = -2.48644 -2.84672 -2.67266
# Velocity P-wave (km/s) = 4.00109 4.95869 4.50541
#
# Compressibility (1/GPa) = 0.02132793
#
# Stress axis : x y z
#
# Youngs Moduli (GPa) = 59.35477 55.75615 97.65481
#
# Poissons Ratio (x) = -0.00683 0.75898
# Poissons Ratio (y) = -0.00727 0.40997
# Poissons Ratio (z) = 0.46131 0.23407
#
# Static dielectric constant tensor:
#      x y z
#    x 1.714200 0.000000 0.000000 
#    y 0.000000 1.764530 0.000000 
#    z 0.000000 0.000000 1.654540 
# 
# From -- ./inp_files/16101.got.cif
#   From: 2010.05.17/outbox.cif.g08.bks.cpg/sg38_9_cif.got.tgz:16101.got - 2010.06.03 18:07:57.
