data_PCOD9357293
_publ_section_title
;
Structure prediction by ZEFSAII (Michael W. Deem and Ramdas Pophale) SiO2 
 PCOD9357293
Probable space group: A M M 2
;
_chemical_formula_sum "Si O2"
_cell_formula_units_Z 48
_cell_length_a 8.564763
_cell_length_b 18.840820
_cell_length_c 15.214805
_cell_angle_alpha 90.000000
_cell_angle_beta 90.000000
_cell_angle_gamma 90.000000
_cell_volume 2455.169843
_symmetry_space_group_name_H-M "A M M 2"
_symmetry_group_IT_number 38
_symmetry_cell_setting 'orthorhombic'
loop_
_space_group_symop_operation_xyz
x,y,z
-x,-y,z
-x,y,z
x,-y,z
x,1/2+y,1/2+z
-x,1/2-y,1/2+z
-x,1/2+y,1/2+z
x,1/2-y,1/2+z
loop_
_atom_site_type_symbol
_atom_site_label
_atom_site_fract_x
_atom_site_fract_y
_atom_site_fract_z
Si Si1 0.315526 0.500000 0.834420
Si Si2 0.312641 0.847517 0.577401
Si Si3 0.681529 0.893638 0.180472
Si Si4 0.684266 0.764034 0.745147
Si Si5 0.184666 0.423406 0.497155
Si Si6 0.817622 0.500000 0.024465
Si Si7 0.186510 0.731087 0.439091
O O1 0.500000 0.500000 0.859371
O O2 0.286056 0.567144 0.771882
O O3 0.212366 0.500000 0.920087
O O4 0.500000 0.844698 0.575927
O O5 0.260250 0.822027 0.674504
O O6 0.254309 0.791959 0.503002
O O7 0.257234 0.927156 0.559122
O O8 0.500000 0.909364 0.158399
O O9 0.698921 0.810418 0.194503
O O10 0.786972 0.920001 0.101462
O O11 0.500000 0.775149 0.763923
O O12 0.771969 0.758137 0.837185
O O13 0.248502 0.500000 0.465260
O O14 0.248379 0.348301 0.462294
O O15 0.000000 0.423418 0.478457
O O16 0.000000 0.500000 0.044513
O O17 0.000000 0.731945 0.451266
#
# Coordination Sequence:
#
# PCOD9357293 Si02
#       7
#     4   8   8   8   8   4   8
#     4  10  20  34  58  91 126 159 196 249 306 366
#     4  11  23  43  68  90 123 165 209 261 314 371
#     4  10  19  34  58  88 117 151 197 246 299 358
#     4  10  22  39  62  90 120 161 209 255 309 369
#     4  10  21  37  57  85 124 162 195 241 302 363
#     4  12  26  42  62  91 124 161 206 255 316 374
#     4  11  23  39  63  93 125 163 209 258 312 371
#
# _framework density 19.550584000000001
#
# number of rings (size 3 to 8) (size 9 to 14) (size 15 to 20)
#    0.000    1.500    2.500    2.750    0.000    4.667 
#    1.500    0.000    0.000    0.000    0.000    0.000 
#    0.000    0.000    0.000    0.000    0.000    0.000 
#
# Total GULP energy -133990.960003 kJ/mol
# GULP energy per Si atom -5582.956667 kJ/mol
# Density = 1.950609 g / cm^3
# Si number density = 19.550584 Si / 1000 Ang^3
#
#
#
# Elastic Constant Matrix: (Units=GPa)
#
#
# Indices 1 2 3 4 5 6 
#
# 1 31.9967 21.9072 13.6196 0.0000 0.0000 0.0000
# 2 21.9072 132.4509 25.6175 0.0000 0.0000 0.0000
# 3 13.6196 25.6175 59.3153 0.0000 0.0000 0.0000
# 4 0.0000 0.0000 0.0000 6.5501 0.0000 0.0000
# 5 0.0000 0.0000 0.0000 0.0000 24.1502 0.0000
# 6 0.0000 0.0000 0.0000 0.0000 0.0000 15.4830
#
#
#
# Elastic Compliance Matrix: (Units=1/GPa)
#
#
# Indices 1 2 3 4 5 6 
#
# 1 0.037378 -0.004934 -0.006451 0.000000 0.000000 0.000000
# 2 -0.004934 0.008890 -0.002706 0.000000 0.000000 0.000000
# 3 -0.006451 -0.002706 0.019509 0.000000 0.000000 0.000000
# 4 0.000000 0.000000 0.000000 0.152670 0.000000 0.000000
# 5 0.000000 0.000000 0.000000 0.000000 0.041408 0.000000
# 6 0.000000 0.000000 0.000000 0.000000 0.000000 0.064587
#
#
# Mechanical properties :
#
#
# Convention : Reuss Voigt Hill
#
# Bulk Modulus (GPa) = 26.60112 38.45015 32.52563
# Shear Modulus (GPa) = 13.69276 20.07788 16.88532
#
# Velocity S-wave (km/s) = 2.64933 3.20811 2.94202
# Velocity P-wave (km/s) = 4.79525 5.78207 5.31163
#
# Compressibility (1/GPa) = 0.03759241
#
# Stress axis : x y z
#
# Youngs Moduli (GPa) = 26.75388 112.49172 51.25794
#
# Poissons Ratio (x) = 0.55509 0.33068
# Poissons Ratio (y) = 0.13202 0.13872
# Poissons Ratio (z) = 0.17260 0.30443
#
# Static dielectric constant tensor:
#      x y z
#    x 1.675990 0.000000 0.000000 
#    y 0.000000 1.733430 0.000000 
#    z 0.000000 0.000000 1.655230 
# 
# From -- ./inp_files/12059.got.cif
#   From: 2010.05.17/outbox.cif.g08.bks.cpg/sg38_7_cif.got.tgz:12059.got - 2010.06.03 18:07:57.
