data_PCOD9357914
_publ_section_title
;
Structure prediction by ZEFSAII (Michael W. Deem and Ramdas Pophale) SiO2 
 PCOD9357914
Probable space group: A M M 2
;
_chemical_formula_sum "Si O2"
_cell_formula_units_Z 64
_cell_length_a 17.341021
_cell_length_b 34.344985
_cell_length_c 5.211198
_cell_angle_alpha 90.000000
_cell_angle_beta 90.000000
_cell_angle_gamma 90.000000
_cell_volume 3103.670224
_symmetry_space_group_name_H-M "A M M 2"
_symmetry_group_IT_number 38
_symmetry_cell_setting 'orthorhombic'
loop_
_space_group_symop_operation_xyz
x,y,z
-x,-y,z
-x,y,z
x,-y,z
x,1/2+y,1/2+z
-x,1/2-y,1/2+z
-x,1/2+y,1/2+z
x,1/2-y,1/2+z
loop_
_atom_site_type_symbol
_atom_site_label
_atom_site_fract_x
_atom_site_fract_y
_atom_site_fract_z
Si Si1 0.591211 0.955307 0.944660
Si Si2 0.592329 0.669611 0.662976
Si Si3 0.723026 0.774959 0.264827
Si Si4 0.737694 0.436286 0.735973
Si Si5 0.090084 0.375645 0.197703
Si Si6 0.832496 0.042591 0.731743
Si Si7 0.817445 0.354015 0.698797
Si Si8 0.407748 0.877601 0.668975
O O1 0.500000 0.950055 0.011876
O O2 0.613958 0.921575 0.742593
O O3 0.600204 0.000000 0.856710
O O4 0.649487 0.947453 0.178398
O O5 0.500000 0.674694 0.651829
O O6 0.636041 0.709085 0.729779
O O7 0.620437 0.651375 0.393359
O O8 0.609965 0.639359 0.892030
O O9 0.736762 0.755985 0.540143
O O10 0.774662 0.813271 0.228444
O O11 0.786581 0.453757 0.498429
O O12 0.758803 0.390489 0.724281
O O13 0.771741 0.452165 0.000385
O O14 0.108309 0.421825 0.209624
O O15 0.140193 0.357287 0.426560
O O16 0.000000 0.368257 0.230086
O O17 0.121455 0.360147 0.927176
O O18 0.868628 0.000000 0.713421
O O19 0.500000 0.877108 0.686395
#
# Coordination Sequence:
#
# PCOD9357914 Si02
#       8
#     8   8   8   8   8   8   8   8
#     4  10  20  34  53  80 115 158 213 270 305 329
#     4  10  21  39  61  85 116 155 199 245 296 358
#     4  12  25  40  63  92 122 154 190 240 298 351
#     4  10  21  37  57  79 113 163 207 240 293 358
#     4  10  21  39  66  93 118 156 197 234 280 342
#     4  10  20  35  57  88 123 155 192 243 299 350
#     4  10  22  41  63  88 120 155 191 232 285 359
#     4   9  19  35  54  76 107 150 198 248 303 354
#
# _framework density 20.620747000000001
#
# number of rings (size 3 to 8) (size 9 to 14) (size 15 to 20)
#    0.000    1.875    0.000    3.750    0.000    4.750 
#    0.000    3.750    0.000   21.000    0.000    0.000 
#    0.000    0.000    0.000    0.000    0.000    0.000 
#
# Total GULP energy -178958.000911 kJ/mol
# GULP energy per Si atom -5592.437528 kJ/mol
# Density = 2.057381 g / cm^3
# Si number density = 20.620747 Si / 1000 Ang^3
#
#
#
# Elastic Constant Matrix: (Units=GPa)
#
#
# Indices 1 2 3 4 5 6 
#
# 1 49.5441 12.7044 -16.6615 0.0000 0.0000 0.0000
# 2 12.7044 75.6974 -17.5189 0.0000 0.0000 0.0000
# 3 -16.6615 -17.5189 37.3729 0.0000 0.0000 0.0000
# 4 0.0000 0.0000 0.0000 0.8779 0.0000 0.0000
# 5 0.0000 0.0000 0.0000 0.0000 17.3431 0.0000
# 6 0.0000 0.0000 0.0000 0.0000 0.0000 13.6508
#
#
#
# Elastic Compliance Matrix: (Units=1/GPa)
#
#
# Indices 1 2 3 4 5 6 
#
# 1 0.023946 -0.001737 0.009861 0.000000 0.000000 0.000000
# 2 -0.001737 0.014944 0.006231 0.000000 0.000000 0.000000
# 3 0.009861 0.006231 0.034075 0.000000 0.000000 0.000000
# 4 0.000000 0.000000 0.000000 1.139086 0.000000 0.000000
# 5 0.000000 0.000000 0.000000 0.000000 0.057660 0.000000
# 6 0.000000 0.000000 0.000000 0.000000 0.000000 0.073256
#
#
# Mechanical properties :
#
#
# Convention : Reuss Voigt Hill
#
# Bulk Modulus (GPa) = 9.83521 13.29584 11.56552
# Shear Modulus (GPa) = 3.70880 18.64704 11.17792
#
# Velocity S-wave (km/s) = 1.34256 3.01040 2.33077
# Velocity P-wave (km/s) = 2.68015 4.30640 3.58667
#
# Compressibility (1/GPa) = 0.10167554
#
# Stress axis : x y z
#
# Youngs Moduli (GPa) = 41.76117 66.91652 29.34745
#
# Poissons Ratio (x) = 0.11621 -0.28941
# Poissons Ratio (y) = 0.07252 -0.18286
# Poissons Ratio (z) = -0.41182 -0.41695
#
# Static dielectric constant tensor:
#      x y z
#    x 1.720660 0.000000 0.000000 
#    y 0.000000 1.737230 0.000000 
#    z 0.000000 0.000000 1.742830 
# 
# From -- ./inp_files/1738.got.cif
#   From: 2010.05.17/outbox.cif.g08.bks.cpg/sg38_1_cif.got.tgz:1738.got - 2010.06.03 18:07:57.
