data_PCOD9357062
_publ_section_title
;
Structure prediction by ZEFSAII (Michael W. Deem and Ramdas Pophale) SiO2 
 PCOD9357062
Probable space group: A M M 2
;
_chemical_formula_sum "Si O2"
_cell_formula_units_Z 64
_cell_length_a 15.179331
_cell_length_b 7.635818
_cell_length_c 25.893877
_cell_angle_alpha 90.000000
_cell_angle_beta 90.000000
_cell_angle_gamma 90.000000
_cell_volume 3001.271474
_symmetry_space_group_name_H-M "A M M 2"
_symmetry_group_IT_number 38
_symmetry_cell_setting 'orthorhombic'
loop_
_space_group_symop_operation_xyz
x,y,z
-x,-y,z
-x,y,z
x,-y,z
x,1/2+y,1/2+z
-x,1/2-y,1/2+z
-x,1/2+y,1/2+z
x,1/2-y,1/2+z
loop_
_atom_site_type_symbol
_atom_site_label
_atom_site_fract_x
_atom_site_fract_y
_atom_site_fract_z
Si Si1 0.094284 0.285869 0.704430
Si Si2 0.158935 0.204163 0.308930
Si Si3 0.362856 0.296635 0.778794
Si Si4 0.595390 0.202038 0.893859
Si Si5 0.205974 0.791270 0.419490
Si Si6 0.223492 0.788773 0.117056
Si Si7 0.597489 0.714292 0.662439
Si Si8 0.898798 0.290497 0.019362
O O1 0.099374 0.500000 0.706550
O O2 0.101580 0.220155 0.762877
O O3 0.171905 0.226024 0.667869
O O4 0.000000 0.239347 0.681360
O O5 0.257597 0.206783 0.285631
O O6 0.166155 0.282139 0.365881
O O7 0.132568 0.000000 0.315142
O O8 0.390787 0.500000 0.780739
O O9 0.398470 0.212564 0.831308
O O10 0.387670 0.228301 0.722174
O O11 0.500000 0.281502 0.908757
O O12 0.687819 0.271163 0.916488
O O13 0.593692 0.000000 0.908925
O O14 0.154121 0.721948 0.469113
O O15 0.192084 0.000000 0.418483
O O16 0.323910 0.728213 0.124721
O O17 0.164605 0.740771 0.068121
O O18 0.225353 0.000000 0.118003
O O19 0.500000 0.767211 0.645880
O O20 0.600323 0.500000 0.664071
O O21 0.905901 0.500000 0.013897
O O22 0.000000 0.223714 0.024541
#
# Coordination Sequence:
#
# PCOD9357062 Si02
#       8
#     8   8   8   8   8   8   8   8
#     4   9  15  23  41  72 104 128 156 204 263 313
#     4   8  13  24  43  69  99 127 158 204 254 298
#     4   9  15  27  48  73 103 141 181 216 253 304
#     4  10  20  32  48  76 113 146 175 211 259 312
#     4   9  19  35  56  77 100 135 181 223 261 309
#     4  10  19  33  53  78 107 137 177 222 262 311
#     4   9  16  27  48  77 107 140 179 223 264 302
#     4  10  22  40  59  79 103 133 173 221 272 323
#
# _framework density 21.324297999999999
#
# number of rings (size 3 to 8) (size 9 to 14) (size 15 to 20)
#    0.000    2.750    1.250    1.875    0.000    3.250 
#    0.000    3.750    0.000    3.375    0.000    0.000 
#    0.000    0.000    0.000    0.000    0.000    0.000 
#
# Total GULP energy -178344.113314 kJ/mol
# GULP energy per Si atom -5573.253541 kJ/mol
# Density = 2.127576 g / cm^3
# Si number density = 21.324298 Si / 1000 Ang^3
#
#
#
# Elastic Constant Matrix: (Units=GPa)
#
#
# Indices 1 2 3 4 5 6 
#
# 1 167.3577 8.5116 92.5851 0.0000 0.0000 0.0000
# 2 8.5116 39.3374 2.5080 0.0000 0.0000 0.0000
# 3 92.5851 2.5080 134.7899 0.0000 0.0000 0.0000
# 4 0.0000 0.0000 0.0000 9.1258 0.0000 0.0000
# 5 0.0000 0.0000 0.0000 0.0000 16.5429 0.0000
# 6 0.0000 0.0000 0.0000 0.0000 0.0000 2.5049
#
#
#
# Elastic Compliance Matrix: (Units=1/GPa)
#
#
# Indices 1 2 3 4 5 6 
#
# 1 0.009748 -0.001684 -0.006664 0.000000 0.000000 0.000000
# 2 -0.001684 0.025742 0.000678 0.000000 0.000000 0.000000
# 3 -0.006664 0.000678 0.011984 0.000000 0.000000 0.000000
# 4 0.000000 0.000000 0.000000 0.109579 0.000000 0.000000
# 5 0.000000 0.000000 0.000000 0.000000 0.060449 0.000000
# 6 0.000000 0.000000 0.000000 0.000000 0.000000 0.399217
#
#
# Mechanical properties :
#
#
# Convention : Reuss Voigt Hill
#
# Bulk Modulus (GPa) = 31.12088 60.96606 46.04347
# Shear Modulus (GPa) = 7.77882 21.49340 14.63611
#
# Velocity S-wave (km/s) = 1.91201 3.17824 2.62269
# Velocity P-wave (km/s) = 4.41590 6.49001 5.55069
#
# Compressibility (1/GPa) = 0.03213277
#
# Stress axis : x y z
#
# Youngs Moduli (GPa) = 102.58937 38.84655 83.44577
#
# Poissons Ratio (x) = 0.06543 0.55609
# Poissons Ratio (y) = 0.17279 -0.05657
# Poissons Ratio (z) = 0.68367 -0.02633
#
# Static dielectric constant tensor:
#      x y z
#    x 1.812310 0.000000 0.000000 
#    y 0.000000 1.821960 0.000000 
#    z 0.000000 0.000000 1.762390 
# 
# From -- ./inp_files/22978.got.cif
#   From: 2010.05.17/outbox.cif.g08.bks.cpg/sg38_12_cif.got.tgz:22978.got - 2010.06.03 18:07:57.
