data_PCOD9357486
_publ_section_title
;
Structure prediction by ZEFSAII (Michael W. Deem and Ramdas Pophale) SiO2 
 PCOD9357486
Probable space group: A M M 2
;
_chemical_formula_sum "Si O2"
_cell_formula_units_Z 56
_cell_length_a 7.640668
_cell_length_b 19.192267
_cell_length_c 21.770122
_cell_angle_alpha 90.000000
_cell_angle_beta 90.000000
_cell_angle_gamma 90.000000
_cell_volume 3192.408577
_symmetry_space_group_name_H-M "A M M 2"
_symmetry_group_IT_number 38
_symmetry_cell_setting 'orthorhombic'
loop_
_space_group_symop_operation_xyz
x,y,z
-x,-y,z
-x,y,z
x,-y,z
x,1/2+y,1/2+z
-x,1/2-y,1/2+z
-x,1/2+y,1/2+z
x,1/2-y,1/2+z
loop_
_atom_site_type_symbol
_atom_site_label
_atom_site_fract_x
_atom_site_fract_y
_atom_site_fract_z
Si Si1 0.712086 0.079219 0.331930
Si Si2 0.300254 0.792461 0.259710
Si Si3 0.791939 0.282408 0.384236
Si Si4 0.711091 0.844682 0.706339
Si Si5 0.210302 0.420687 0.079444
Si Si6 0.289133 0.078485 0.830295
Si Si7 0.791494 0.843268 0.459151
O O1 0.500000 0.079799 0.328657
O O2 0.778600 0.133583 0.280202
O O3 0.759039 0.109292 0.399018
O O4 0.772728 0.000000 0.324882
O O5 0.500000 0.805912 0.239971
O O6 0.299927 0.749890 0.324153
O O7 0.221334 0.734859 0.213964
O O8 0.759349 0.364544 0.381592
O O9 0.731099 0.234654 0.440906
O O10 0.000000 0.271184 0.376461
O O11 0.500000 0.840889 0.711421
O O12 0.753546 0.880829 0.642554
O O13 0.773260 0.890810 0.764483
O O14 0.277579 0.500000 0.081348
O O15 0.000000 0.424950 0.073146
O O16 0.280631 0.378840 0.020360
O O17 0.500000 0.076159 0.827699
O O18 0.225134 0.000000 0.840114
O O19 0.000000 0.838612 0.467538
#
# Coordination Sequence:
#
# PCOD9357486 Si02
#       7
#     8   8   8   8   8   8   8
#     4   9  16  26  43  66  86 105 134 171 207 244
#     4   8  15  28  42  57  82 111 135 164 208 254
#     4   9  16  26  42  62  81 104 138 174 203 238
#     4   9  17  29  43  58  80 111 142 168 196 237
#     4  10  20  31  42  58  82 112 142 170 200 234
#     4   9  17  29  44  62  86 113 135 162 208 255
#     4   9  18  31  43  57  83 116 142 165 201 247
#
# _framework density 17.541615
#
# number of rings (size 3 to 8) (size 9 to 14) (size 15 to 20)
#    0.000    3.000    0.000    2.143    0.000    5.429 
#    0.000    0.000    0.000    0.000    0.000    1.000 
#    0.000    3.429    0.000    0.000    0.000    0.000 
#
# Total GULP energy -155891.583990 kJ/mol
# GULP energy per Si atom -5567.556571 kJ/mol
# Density = 1.750169 g / cm^3
# Si number density = 17.541615 Si / 1000 Ang^3
#
#
#
# Elastic Constant Matrix: (Units=GPa)
#
#
# Indices 1 2 3 4 5 6 
#
# 1 34.6299 -0.6170 2.9832 0.0000 0.0000 0.0000
# 2 -0.6170 190.6107 85.0131 0.0000 0.0000 0.0000
# 3 2.9832 85.0131 90.5383 0.0000 0.0000 0.0000
# 4 0.0000 0.0000 0.0000 26.3898 0.0000 0.0000
# 5 0.0000 0.0000 0.0000 0.0000 14.8770 0.0000
# 6 0.0000 0.0000 0.0000 0.0000 0.0000 12.6703
#
#
#
# Elastic Compliance Matrix: (Units=1/GPa)
#
#
# Indices 1 2 3 4 5 6 
#
# 1 0.029048 0.000896 -0.001799 0.000000 0.000000 0.000000
# 2 0.000896 0.009054 -0.008531 0.000000 0.000000 0.000000
# 3 -0.001799 -0.008531 0.019115 0.000000 0.000000 0.000000
# 4 0.000000 0.000000 0.000000 0.037893 0.000000 0.000000
# 5 0.000000 0.000000 0.000000 0.000000 0.067218 0.000000
# 6 0.000000 0.000000 0.000000 0.000000 0.000000 0.078925
#
#
# Mechanical properties :
#
#
# Convention : Reuss Voigt Hill
#
# Bulk Modulus (GPa) = 26.07594 54.50419 40.29007
# Shear Modulus (GPa) = 18.32155 26.01406 22.16780
#
# Velocity S-wave (km/s) = 3.23532 3.85514 3.55875
# Velocity P-wave (km/s) = 5.37158 7.13827 6.31699
#
# Compressibility (1/GPa) = 0.03834953
#
# Stress axis : x y z
#
# Youngs Moduli (GPa) = 34.42614 110.44717 52.31551
#
# Poissons Ratio (x) = -0.09899 0.09410
# Poissons Ratio (y) = -0.03085 0.44631
# Poissons Ratio (z) = 0.06192 0.94224
#
# Static dielectric constant tensor:
#      x y z
#    x 1.657500 0.000000 0.000000 
#    y 0.000000 1.656120 0.000000 
#    z 0.000000 0.000000 1.570770 
# 
# From -- ./inp_files/19981.got.cif
#   From: 2010.05.17/outbox.cif.g08.bks.cpg/sg38_10_cif.got.tgz:19981.got - 2010.06.03 18:07:57.
