data_PCOD9357114
_publ_section_title
;
Structure prediction by ZEFSAII (Michael W. Deem and Ramdas Pophale) SiO2 
 PCOD9357114
Probable space group: A M M 2
;
_chemical_formula_sum "Si O2"
_cell_formula_units_Z 56
_cell_length_a 9.292469
_cell_length_b 17.177463
_cell_length_c 19.930755
_cell_angle_alpha 90.000000
_cell_angle_beta 90.000000
_cell_angle_gamma 90.000000
_cell_volume 3181.367889
_symmetry_space_group_name_H-M "A M M 2"
_symmetry_group_IT_number 38
_symmetry_cell_setting 'orthorhombic'
loop_
_space_group_symop_operation_xyz
x,y,z
-x,-y,z
-x,y,z
x,-y,z
x,1/2+y,1/2+z
-x,1/2-y,1/2+z
-x,1/2+y,1/2+z
x,1/2-y,1/2+z
loop_
_atom_site_type_symbol
_atom_site_label
_atom_site_fract_x
_atom_site_fract_y
_atom_site_fract_z
Si Si1 0.668099 0.913864 0.687660
Si Si2 0.671947 0.000000 0.919111
Si Si3 0.828353 0.843651 0.888318
Si Si4 0.673468 0.500000 0.580327
Si Si5 0.829791 0.759465 0.515718
Si Si6 0.827885 0.268356 0.251092
Si Si7 0.173562 0.847945 0.140691
Si Si8 0.332056 0.415029 0.025771
O O1 0.500000 0.905123 0.706014
O O2 0.758634 0.843125 0.715694
O O3 0.676097 0.913391 0.606878
O O4 0.716744 0.000000 0.710466
O O5 0.740186 0.923330 0.885767
O O6 0.500000 0.000000 0.912169
O O7 0.706267 0.000000 0.999810
O O8 0.795915 0.803437 0.958989
O O9 0.794383 0.782490 0.829147
O O10 0.000000 0.860434 0.885174
O O11 0.500000 0.500000 0.587010
O O12 0.742905 0.575826 0.615756
O O13 0.794121 0.720619 0.587056
O O14 0.750955 0.839800 0.501623
O O15 0.000000 0.773641 0.514964
O O16 0.784753 0.189034 0.212768
O O17 0.000000 0.272415 0.243188
O O18 0.000000 0.862514 0.138893
O O19 0.500000 0.409927 0.007879
O O20 0.276823 0.500000 0.003713
#
# Coordination Sequence:
#
# PCOD9357114 Si02
#       8
#     8   4   8   4   8   8   8   8
#     4   9  18  31  47  72 107 140 168 203 251 305
#     4  11  23  37  55  85 119 150 189 228 274 340
#     4  10  22  38  55  77 112 148 181 225 282 336
#     4  11  23  37  59  89 113 140 185 238 284 330
#     4  10  19  33  55  80 104 137 179 225 273 326
#     4  10  21  36  54  78 106 141 182 222 267 324
#     4  10  20  36  58  83 109 141 183 229 279 330
#     4   9  18  32  51  76 105 138 173 213 265 318
#
# _framework density 17.60249
#
# number of rings (size 3 to 8) (size 9 to 14) (size 15 to 20)
#    0.000    2.143    2.857    1.286    1.000    3.429 
#    0.000    1.429    1.571    0.000    0.000    0.000 
#    0.000    0.000    0.000    0.000    0.000    0.000 
#
# Total GULP energy -156119.184980 kJ/mol
# GULP energy per Si atom -5575.685178 kJ/mol
# Density = 1.756243 g / cm^3
# Si number density = 17.602490 Si / 1000 Ang^3
#
#
#
# Elastic Constant Matrix: (Units=GPa)
#
#
# Indices 1 2 3 4 5 6 
#
# 1 14.3481 30.6901 16.3463 0.0000 0.0000 0.0000
# 2 30.6901 89.8047 10.2403 0.0000 0.0000 0.0000
# 3 16.3463 10.2403 55.2134 0.0000 0.0000 0.0000
# 4 0.0000 0.0000 0.0000 16.5067 0.0000 0.0000
# 5 0.0000 0.0000 0.0000 0.0000 17.4740 0.0000
# 6 0.0000 0.0000 0.0000 0.0000 0.0000 45.2901
#
#
#
# Elastic Compliance Matrix: (Units=1/GPa)
#
#
# Indices 1 2 3 4 5 6 
#
# 1 1.240228 -0.390223 -0.294803 0.000000 0.000000 0.000000
# 2 -0.390223 0.134155 0.090647 0.000000 0.000000 0.000000
# 3 -0.294803 0.090647 0.088578 0.000000 0.000000 0.000000
# 4 0.000000 0.000000 0.000000 0.060581 0.000000 0.000000
# 5 0.000000 0.000000 0.000000 0.000000 0.057228 0.000000
# 6 0.000000 0.000000 0.000000 0.000000 0.000000 0.022080
#
#
# Mechanical properties :
#
#
# Convention : Reuss Voigt Hill
#
# Bulk Modulus (GPa) = 3.64696 30.43551 17.04124
# Shear Modulus (GPa) = 1.73430 22.66014 12.19722
#
# Velocity S-wave (km/s) = 0.99368 3.59182 2.63520
# Velocity P-wave (km/s) = 1.84197 5.87619 4.35445
#
# Compressibility (1/GPa) = 0.27420090
#
# Stress axis : x y z
#
# Youngs Moduli (GPa) = 0.80630 7.45406 11.28951
#
# Poissons Ratio (x) = 2.90875 3.32818
# Poissons Ratio (y) = 0.31464 -1.02336
# Poissons Ratio (z) = 0.23770 -0.67568
#
# Static dielectric constant tensor:
#      x y z
#    x 1.585360 0.000000 0.000000 
#    y 0.000000 1.592570 0.000000 
#    z 0.000000 0.000000 1.620300 
# 
# From -- ./inp_files/19851.got.cif
#   From: 2010.05.17/outbox.cif.g08.bks.cpg/sg38_10_cif.got.tgz:19851.got - 2010.06.03 18:07:57.
