data_PCOD9357918
_publ_section_title
;
Structure prediction by ZEFSAII (Michael W. Deem and Ramdas Pophale) SiO2 
 PCOD9357918
Probable space group: A M M 2
;
_chemical_formula_sum "Si O2"
_cell_formula_units_Z 64
_cell_length_a 15.236198
_cell_length_b 8.351115
_cell_length_c 25.271588
_cell_angle_alpha 90.000000
_cell_angle_beta 90.000000
_cell_angle_gamma 90.000000
_cell_volume 3215.537693
_symmetry_space_group_name_H-M "A M M 2"
_symmetry_group_IT_number 38
_symmetry_cell_setting 'orthorhombic'
loop_
_space_group_symop_operation_xyz
x,y,z
-x,-y,z
-x,y,z
x,-y,z
x,1/2+y,1/2+z
-x,1/2-y,1/2+z
-x,1/2+y,1/2+z
x,1/2-y,1/2+z
loop_
_atom_site_type_symbol
_atom_site_label
_atom_site_fract_x
_atom_site_fract_y
_atom_site_fract_z
Si Si1 0.321102 0.809100 0.192000
Si Si2 0.904078 0.193177 0.545317
Si Si3 0.277630 0.189738 0.005856
Si Si4 0.398888 0.307351 0.410033
Si Si5 0.286692 0.309052 0.811471
Si Si6 0.096277 0.194034 0.781527
Si Si7 0.595477 0.808937 0.594406
Si Si8 0.133975 0.311448 0.163419
O O1 0.325907 0.766845 0.253663
O O2 0.398616 0.756447 0.153899
O O3 0.237326 0.716853 0.168519
O O4 0.306914 0.000000 0.188312
O O5 0.820838 0.245923 0.511344
O O6 0.895454 0.253055 0.606439
O O7 0.000000 0.242608 0.525015
O O8 0.901596 0.000000 0.547597
O O9 0.328999 0.231554 0.059437
O O10 0.271738 0.000000 0.999979
O O11 0.338521 0.254577 0.958389
O O12 0.500000 0.247732 0.410425
O O13 0.403421 0.500000 0.414879
O O14 0.346025 0.266283 0.356903
O O15 0.288844 0.500000 0.817117
O O16 0.184302 0.255737 0.809853
O O17 0.099312 0.251325 0.719905
O O18 0.000000 0.238940 0.803371
O O19 0.101482 0.000000 0.781067
O O20 0.500000 0.768445 0.571357
O O21 0.605709 0.000000 0.594572
O O22 0.112637 0.500000 0.162961
#
# Coordination Sequence:
#
# PCOD9357918 Si02
#       8
#     8   8   8   8   8   8   8   8
#     4  10  20  34  53  81 119 156 188 231 288 344
#     4  10  20  34  55  85 121 159 197 236 282 338
#     4  11  23  40  62  87 117 149 189 244 297 345
#     4  10  23  44  67  87 108 144 196 247 296 352
#     4  10  22  38  58  87 120 151 189 240 297 348
#     4   9  17  31  54  84 118 159 202 238 279 335
#     4  11  23  37  56  84 116 153 194 234 285 351
#     4   9  16  29  51  79 115 156 197 236 276 330
#
# _framework density 19.903358000000001
#
# number of rings (size 3 to 8) (size 9 to 14) (size 15 to 20)
#    0.000    2.000    1.250    2.250    0.000    6.750 
#    0.000    3.125    0.000    3.000    0.000    0.000 
#    0.000    0.000    0.000    0.000    0.000    0.000 
#
# Total GULP energy -178511.943998 kJ/mol
# GULP energy per Si atom -5578.498250 kJ/mol
# Density = 1.985806 g / cm^3
# Si number density = 19.903358 Si / 1000 Ang^3
#
#
#
# Elastic Constant Matrix: (Units=GPa)
#
#
# Indices 1 2 3 4 5 6 
#
# 1 174.9912 19.4717 70.4304 0.0000 0.0000 0.0000
# 2 19.4717 10.9411 6.6261 0.0000 0.0000 0.0000
# 3 70.4304 6.6261 88.8201 0.0000 0.0000 0.0000
# 4 0.0000 0.0000 0.0000 23.1721 0.0000 0.0000
# 5 0.0000 0.0000 0.0000 0.0000 12.2139 0.0000
# 6 0.0000 0.0000 0.0000 0.0000 0.0000 13.3807
#
#
#
# Elastic Compliance Matrix: (Units=1/GPa)
#
#
# Indices 1 2 3 4 5 6 
#
# 1 0.010021 -0.013638 -0.006929 0.000000 0.000000 0.000000
# 2 -0.013638 0.114283 0.002288 0.000000 0.000000 0.000000
# 3 -0.006929 0.002288 0.016582 0.000000 0.000000 0.000000
# 4 0.000000 0.000000 0.000000 0.043155 0.000000 0.000000
# 5 0.000000 0.000000 0.000000 0.000000 0.081874 0.000000
# 6 0.000000 0.000000 0.000000 0.000000 0.000000 0.074734
#
#
# Mechanical properties :
#
#
# Convention : Reuss Voigt Hill
#
# Bulk Modulus (GPa) = 9.58493 51.97874 30.78184
# Shear Modulus (GPa) = 12.13645 21.63497 16.88571
#
# Velocity S-wave (km/s) = 2.47203 3.30055 2.91587
# Velocity P-wave (km/s) = 3.60196 6.37943 5.18031
#
# Compressibility (1/GPa) = 0.10433043
#
# Stress axis : x y z
#
# Youngs Moduli (GPa) = 99.79388 8.75017 60.30621
#
# Poissons Ratio (x) = 0.11933 0.41783
# Poissons Ratio (y) = 1.36095 -0.13800
# Poissons Ratio (z) = 0.69143 -0.02002
#
# Static dielectric constant tensor:
#      x y z
#    x 1.730880 0.000000 0.000000 
#    y 0.000000 1.692620 0.000000 
#    z 0.000000 0.000000 1.708960 
# 
# From -- ./inp_files/22891.got.cif
#   From: 2010.05.17/outbox.cif.g08.bks.cpg/sg38_12_cif.got.tgz:22891.got - 2010.06.03 18:07:57.
