data_PCOD9357642
_publ_section_title
;
Structure prediction by ZEFSAII (Michael W. Deem and Ramdas Pophale) SiO2 
 PCOD9357642
Probable space group: A M M 2
;
_chemical_formula_sum "Si O2"
_cell_formula_units_Z 64
_cell_length_a 14.719773
_cell_length_b 8.720728
_cell_length_c 32.066914
_cell_angle_alpha 90.000000
_cell_angle_beta 90.000000
_cell_angle_gamma 90.000000
_cell_volume 4116.337928
_symmetry_space_group_name_H-M "A M M 2"
_symmetry_group_IT_number 38
_symmetry_cell_setting 'orthorhombic'
loop_
_space_group_symop_operation_xyz
x,y,z
-x,-y,z
-x,y,z
x,-y,z
x,1/2+y,1/2+z
-x,1/2-y,1/2+z
-x,1/2+y,1/2+z
x,1/2-y,1/2+z
loop_
_atom_site_type_symbol
_atom_site_label
_atom_site_fract_x
_atom_site_fract_y
_atom_site_fract_z
Si Si1 0.396516 0.183491 0.859090
Si Si2 0.397828 0.685227 0.766215
Si Si3 0.217430 0.183847 0.393269
Si Si4 0.104506 0.813094 0.311507
Si Si5 0.889808 0.823304 0.558112
Si Si6 0.788635 0.186951 0.228378
Si Si7 0.893819 0.683110 0.470071
Si Si8 0.106214 0.314929 0.646153
O O1 0.500000 0.224992 0.871183
O O2 0.382158 0.247608 0.812300
O O3 0.318813 0.252484 0.888108
O O4 0.389520 0.000000 0.858305
O O5 0.500000 0.728735 0.752866
O O6 0.394678 0.500000 0.769693
O O7 0.315541 0.733188 0.736335
O O8 0.160752 0.234909 0.352204
O O9 0.166507 0.243064 0.434109
O O10 0.219527 0.000000 0.393383
O O11 0.153172 0.764280 0.268779
O O12 0.000000 0.762534 0.313374
O O13 0.104416 0.000000 0.311353
O O14 0.863028 0.735607 0.516087
O O15 0.860952 0.749754 0.601870
O O16 0.000000 0.817488 0.558890
O O17 0.861904 0.000000 0.555614
O O18 0.834411 0.238308 0.185434
O O19 0.790986 0.000000 0.227811
O O20 0.889867 0.500000 0.467292
O O21 0.000000 0.730199 0.464790
O O22 0.109112 0.500000 0.644356
O O23 0.000000 0.271831 0.652380
#
# Coordination Sequence:
#
# PCOD9357642 Si02
#       8
#     8   8   8   8   8   8   8   8
#     4  10  20  33  48  66  90 121 158 201 246 287
#     4   9  16  28  46  66  88 116 155 201 242 279
#     4  11  20  31  48  70  95 125 161 197 235 281
#     4   9  16  25  39  62  92 124 157 189 219 261
#     4   9  17  30  47  66  90 119 153 193 235 277
#     4   9  15  25  41  65  91 119 155 191 229 275
#     4  10  20  33  49  70  98 128 158 193 234 281
#     4   9  16  26  43  65  89 118 152 189 229 276
#
# _framework density 15.547800000000001
#
# number of rings (size 3 to 8) (size 9 to 14) (size 15 to 20)
#    0.000    2.500    1.250    2.250    0.000    5.000 
#    0.000    0.625    0.000    0.000    0.000    0.875 
#    0.000    5.000    0.000    0.000    0.000    0.000 
#
# Total GULP energy -178380.453952 kJ/mol
# GULP energy per Si atom -5574.389186 kJ/mol
# Density = 1.551241 g / cm^3
# Si number density = 15.547800 Si / 1000 Ang^3
#
#
#
# Elastic Constant Matrix: (Units=GPa)
#
#
# Indices 1 2 3 4 5 6 
#
# 1 112.4362 29.4057 74.4575 0.0000 0.0000 0.0000
# 2 29.4057 23.4247 30.5080 0.0000 0.0000 0.0000
# 3 74.4575 30.5080 134.9418 0.0000 0.0000 0.0000
# 4 0.0000 0.0000 0.0000 21.7739 0.0000 0.0000
# 5 0.0000 0.0000 0.0000 0.0000 10.0828 0.0000
# 6 0.0000 0.0000 0.0000 0.0000 0.0000 15.1418
#
#
#
# Elastic Compliance Matrix: (Units=1/GPa)
#
#
# Indices 1 2 3 4 5 6 
#
# 1 0.016184 -0.012311 -0.006147 0.000000 0.000000 0.000000
# 2 -0.012311 0.069871 -0.009004 0.000000 0.000000 0.000000
# 3 -0.006147 -0.009004 0.012838 0.000000 0.000000 0.000000
# 4 0.000000 0.000000 0.000000 0.045926 0.000000 0.000000
# 5 0.000000 0.000000 0.000000 0.000000 0.099179 0.000000
# 6 0.000000 0.000000 0.000000 0.000000 0.000000 0.066042
#
#
# Mechanical properties :
#
#
# Convention : Reuss Voigt Hill
#
# Bulk Modulus (GPa) = 22.74287 59.94946 41.34616
# Shear Modulus (GPa) = 13.17109 18.49514 15.83311
#
# Velocity S-wave (km/s) = 2.91372 3.45275 3.19462
# Velocity P-wave (km/s) = 5.09697 7.38493 6.34493
#
# Compressibility (1/GPa) = 0.04396983
#
# Stress axis : x y z
#
# Youngs Moduli (GPa) = 61.78887 14.31215 77.89526
#
# Poissons Ratio (x) = 0.17620 0.47880
# Poissons Ratio (y) = 0.76069 0.70134
# Poissons Ratio (z) = 0.37980 0.12886
#
# Static dielectric constant tensor:
#      x y z
#    x 1.521210 0.000000 0.000000 
#    y 0.000000 1.527250 0.000000 
#    z 0.000000 0.000000 1.498340 
# 
# From -- ./inp_files/25115.got.cif
#   From: 2010.05.17/outbox.cif.g08.bks.cpg/sg38_13_cif.got.tgz:25115.got - 2010.06.03 18:07:57.
