data_PCOD9357478
_publ_section_title
;
Structure prediction by ZEFSAII (Michael W. Deem and Ramdas Pophale) SiO2 
 PCOD9357478
Probable space group: A M M 2
;
_chemical_formula_sum "Si O2"
_cell_formula_units_Z 64
_cell_length_a 14.345245
_cell_length_b 25.440262
_cell_length_c 10.012157
_cell_angle_alpha 90.000000
_cell_angle_beta 90.000000
_cell_angle_gamma 90.000000
_cell_volume 3653.904571
_symmetry_space_group_name_H-M "A M M 2"
_symmetry_group_IT_number 38
_symmetry_cell_setting 'orthorhombic'
loop_
_space_group_symop_operation_xyz
x,y,z
-x,-y,z
-x,y,z
x,-y,z
x,1/2+y,1/2+z
-x,1/2-y,1/2+z
-x,1/2+y,1/2+z
x,1/2-y,1/2+z
loop_
_atom_site_type_symbol
_atom_site_label
_atom_site_fract_x
_atom_site_fract_y
_atom_site_fract_z
Si Si1 0.894121 0.683300 0.151740
Si Si2 0.610881 0.865400 0.485494
Si Si3 0.699009 0.164394 0.762849
Si Si4 0.105307 0.693189 0.615975
Si Si5 0.611531 0.279979 0.763592
Si Si6 0.297567 0.142358 0.053516
Si Si7 0.715443 0.562194 0.786781
Si Si8 0.895898 0.375587 0.872615
O O1 0.810490 0.667746 0.247857
O O2 0.881537 0.744342 0.111076
O O3 0.000000 0.678257 0.204352
O O4 0.885350 0.647639 0.019942
O O5 0.500000 0.865344 0.501113
O O6 0.658892 0.861885 0.628998
O O7 0.636838 0.814428 0.394617
O O8 0.644572 0.914263 0.396420
O O9 0.659775 0.223732 0.767001
O O10 0.670667 0.137239 0.901421
O O11 0.190693 0.662796 0.549750
O O12 0.110400 0.673151 0.769393
O O13 0.000000 0.681197 0.567644
O O14 0.500000 0.274150 0.759159
O O15 0.646043 0.313065 0.635556
O O16 0.303793 0.090763 0.145316
O O17 0.711775 0.500000 0.777914
O O18 0.816291 0.583537 0.834367
O O19 0.000000 0.398039 0.858561
#
# Coordination Sequence:
#
# PCOD9357478 Si02
#       8
#     8   8   8   8   8   8   8   8
#     4  10  20  30  48  78 117 153 177 210 262 321
#     4  10  22  39  58  82 110 143 188 231 272 327
#     4  12  21  32  54  83 118 151 177 216 267 327
#     4   9  18  30  48  76 113 155 185 210 250 312
#     4  10  21  36  54  78 113 154 187 217 259 320
#     4  10  22  34  54  82 114 146 183 228 268 326
#     4  10  21  41  63  80 101 137 186 240 291 330
#     4   9  18  34  54  81 111 143 189 227 257 315
#
# _framework density 17.515509000000002
#
# number of rings (size 3 to 8) (size 9 to 14) (size 15 to 20)
#    0.000    2.000    2.500    1.125    1.750    3.000 
#    0.000    0.625    0.000    0.000    0.000    0.000 
#    0.000    0.000    0.000    0.000    0.000    0.000 
#
# Total GULP energy -178596.765730 kJ/mol
# GULP energy per Si atom -5581.148929 kJ/mol
# Density = 1.747564 g / cm^3
# Si number density = 17.515509 Si / 1000 Ang^3
#
#
#
# Elastic Constant Matrix: (Units=GPa)
#
#
# Indices 1 2 3 4 5 6 
#
# 1 66.7859 26.6472 43.0577 0.0000 0.0000 0.0000
# 2 26.6472 95.8909 47.7580 0.0000 0.0000 0.0000
# 3 43.0577 47.7580 130.6772 0.0000 0.0000 0.0000
# 4 0.0000 0.0000 0.0000 4.7387 0.0000 0.0000
# 5 0.0000 0.0000 0.0000 0.0000 12.7799 0.0000
# 6 0.0000 0.0000 0.0000 0.0000 0.0000 7.5916
#
#
#
# Elastic Compliance Matrix: (Units=1/GPa)
#
#
# Indices 1 2 3 4 5 6 
#
# 1 0.019577 -0.002723 -0.005455 0.000000 0.000000 0.000000
# 2 -0.002723 0.013128 -0.003900 0.000000 0.000000 0.000000
# 3 -0.005455 -0.003900 0.010875 0.000000 0.000000 0.000000
# 4 0.000000 0.000000 0.000000 0.211027 0.000000 0.000000
# 5 0.000000 0.000000 0.000000 0.000000 0.078248 0.000000
# 6 0.000000 0.000000 0.000000 0.000000 0.000000 0.131725
#
#
# Mechanical properties :
#
#
# Convention : Reuss Voigt Hill
#
# Bulk Modulus (GPa) = 51.48754 58.69776 55.09265
# Shear Modulus (GPa) = 10.09668 16.74811 13.42239
#
# Velocity S-wave (km/s) = 2.40353 3.09558 2.77124
# Velocity P-wave (km/s) = 6.09605 6.80893 6.46232
#
# Compressibility (1/GPa) = 0.01942218
#
# Stress axis : x y z
#
# Youngs Moduli (GPa) = 51.08069 76.17362 91.95043
#
# Poissons Ratio (x) = 0.20744 0.50161
# Poissons Ratio (y) = 0.13911 0.35865
# Poissons Ratio (z) = 0.27866 0.29711
#
# Static dielectric constant tensor:
#      x y z
#    x 1.630820 0.000000 0.000000 
#    y 0.000000 1.544390 0.000000 
#    z 0.000000 0.000000 1.609070 
# 
# From -- ./inp_files/5883.got.cif
#   From: 2010.05.17/outbox.cif.g08.bks.cpg/sg38_3_cif.got.tgz:5883.got - 2010.06.03 18:07:57.
