data_PCOD9357655
_publ_section_title
;
Structure prediction by ZEFSAII (Michael W. Deem and Ramdas Pophale) SiO2 
 PCOD9357655
Probable space group: A M M 2
;
_chemical_formula_sum "Si O2"
_cell_formula_units_Z 64
_cell_length_a 14.469593
_cell_length_b 8.995701
_cell_length_c 31.804309
_cell_angle_alpha 90.000000
_cell_angle_beta 90.000000
_cell_angle_gamma 90.000000
_cell_volume 4139.780282
_symmetry_space_group_name_H-M "A M M 2"
_symmetry_group_IT_number 38
_symmetry_cell_setting 'orthorhombic'
loop_
_space_group_symop_operation_xyz
x,y,z
-x,-y,z
-x,y,z
x,-y,z
x,1/2+y,1/2+z
-x,1/2-y,1/2+z
-x,1/2+y,1/2+z
x,1/2-y,1/2+z
loop_
_atom_site_type_symbol
_atom_site_label
_atom_site_fract_x
_atom_site_fract_y
_atom_site_fract_z
Si Si1 0.393603 0.176849 0.975450
Si Si2 0.112252 0.171131 0.773003
Si Si3 0.890158 0.822890 0.185955
Si Si4 0.604423 0.323468 0.066412
Si Si5 0.891674 0.321911 0.859592
Si Si6 0.796133 0.322263 0.105672
Si Si7 0.785984 0.178290 0.444948
Si Si8 0.889687 0.823428 0.024106
O O1 0.500000 0.209061 0.963744
O O2 0.317869 0.260836 0.947984
O O3 0.379223 0.000000 0.973702
O O4 0.381335 0.233272 0.023382
O O5 0.139763 0.260348 0.731328
O O6 0.141697 0.243877 0.816955
O O7 0.000000 0.175082 0.773678
O O8 0.141235 0.000000 0.770116
O O9 0.835248 0.746715 0.148254
O O10 0.000000 0.790518 0.180832
O O11 0.878963 0.000000 0.184583
O O12 0.500000 0.293683 0.081750
O O13 0.610184 0.500000 0.056304
O O14 0.687458 0.290375 0.098101
O O15 0.886724 0.500000 0.853924
O O16 0.834237 0.281826 0.900940
O O17 0.000000 0.283889 0.866294
O O18 0.809010 0.500000 0.105762
O O19 0.849545 0.252058 0.065989
O O20 0.841779 0.250633 0.483592
O O21 0.787399 0.000000 0.449481
O O22 0.000000 0.802284 0.022241
O O23 0.870577 0.000000 0.025014
#
# Coordination Sequence:
#
# PCOD9357655 Si02
#       8
#     8   8   8   8   8   8   8   8
#     4  10  20  33  50  71  95 125 162 206 251 293
#     4   9  17  30  49  72  96 123 159 202 243 283
#     4  10  20  33  49  69  97 132 165 199 240 286
#     4   9  18  33  51  70  93 123 160 202 248 294
#     4   9  18  32  49  70  98 130 163 198 238 287
#     4  11  21  32  49  72  96 127 164 203 244 288
#     4  11  21  33  50  72  97 130 167 203 243 289
#     4  11  23  35  46  64  96 135 169 201 239 285
#
# _framework density 15.459757
#
# number of rings (size 3 to 8) (size 9 to 14) (size 15 to 20)
#    0.000    2.000    1.250    3.000    0.000    7.500 
#    0.000    1.250    0.000    0.000    0.000    0.875 
#    0.000    5.000    0.000    0.000    0.000    0.000 
#
# Total GULP energy -178567.394274 kJ/mol
# GULP energy per Si atom -5580.231071 kJ/mol
# Density = 1.542457 g / cm^3
# Si number density = 15.459757 Si / 1000 Ang^3
#
#
#
# Elastic Constant Matrix: (Units=GPa)
#
#
# Indices 1 2 3 4 5 6 
#
# 1 91.9331 58.0661 70.4670 0.0000 0.0000 0.0000
# 2 58.0661 71.7945 67.4330 0.0000 0.0000 0.0000
# 3 70.4670 67.4330 143.6281 0.0000 0.0000 0.0000
# 4 0.0000 0.0000 0.0000 30.0755 0.0000 0.0000
# 5 0.0000 0.0000 0.0000 0.0000 7.3878 0.0000
# 6 0.0000 0.0000 0.0000 0.0000 0.0000 22.2045
#
#
#
# Elastic Compliance Matrix: (Units=1/GPa)
#
#
# Indices 1 2 3 4 5 6 
#
# 1 0.023917 -0.014887 -0.004745 0.000000 0.000000 0.000000
# 2 -0.014887 0.034183 -0.008745 0.000000 0.000000 0.000000
# 3 -0.004745 -0.008745 0.013396 0.000000 0.000000 0.000000
# 4 0.000000 0.000000 0.000000 0.033250 0.000000 0.000000
# 5 0.000000 0.000000 0.000000 0.000000 0.135358 0.000000
# 6 0.000000 0.000000 0.000000 0.000000 0.000000 0.045036
#
#
# Mechanical properties :
#
#
# Convention : Reuss Voigt Hill
#
# Bulk Modulus (GPa) = 67.83167 77.69864 72.76515
# Shear Modulus (GPa) = 14.41721 19.35955 16.88838
#
# Velocity S-wave (km/s) = 3.05710 3.54256 3.30875
# Velocity P-wave (km/s) = 7.51217 8.19150 7.85918
#
# Compressibility (1/GPa) = 0.01474238
#
# Stress axis : x y z
#
# Youngs Moduli (GPa) = 41.81041 29.25459 74.64982
#
# Poissons Ratio (x) = 0.43553 0.35420
# Poissons Ratio (y) = 0.62245 0.65278
# Poissons Ratio (z) = 0.19838 0.25582
#
# Static dielectric constant tensor:
#      x y z
#    x 1.516710 0.000000 0.000000 
#    y 0.000000 1.516580 0.000000 
#    z 0.000000 0.000000 1.483950 
# 
# From -- ./inp_files/25067.got.cif
#   From: 2010.05.17/outbox.cif.g08.bks.cpg/sg38_13_cif.got.tgz:25067.got - 2010.06.03 18:07:57.
