data_PCOD9357526
_publ_section_title
;
Structure prediction by ZEFSAII (Michael W. Deem and Ramdas Pophale) SiO2 
 PCOD9357526
Probable space group: A M M 2
;
_chemical_formula_sum "Si O2"
_cell_formula_units_Z 48
_cell_length_a 9.426670
_cell_length_b 7.359230
_cell_length_c 32.471949
_cell_angle_alpha 90.000000
_cell_angle_beta 90.000000
_cell_angle_gamma 90.000000
_cell_volume 2252.677579
_symmetry_space_group_name_H-M "A M M 2"
_symmetry_group_IT_number 38
_symmetry_cell_setting 'orthorhombic'
loop_
_space_group_symop_operation_xyz
x,y,z
-x,-y,z
-x,y,z
x,-y,z
x,1/2+y,1/2+z
-x,1/2-y,1/2+z
-x,1/2+y,1/2+z
x,1/2-y,1/2+z
loop_
_atom_site_type_symbol
_atom_site_label
_atom_site_fract_x
_atom_site_fract_y
_atom_site_fract_z
Si Si1 0.327278 0.210536 0.527720
Si Si2 0.338109 0.718482 0.938349
Si Si3 0.335501 0.777731 0.617643
Si Si4 0.163001 0.221685 0.697682
Si Si5 0.336848 0.277885 0.278309
Si Si6 0.160005 0.784207 0.856883
O O1 0.500000 0.212727 0.527597
O O2 0.286778 0.287759 0.483145
O O3 0.286449 0.286340 0.572325
O O4 0.281168 0.000000 0.527977
O O5 0.500000 0.782341 0.930699
O O6 0.345449 0.500000 0.942001
O O7 0.237441 0.758814 0.900332
O O8 0.500000 0.725192 0.623955
O O9 0.238849 0.720364 0.655553
O O10 0.334581 0.000000 0.616542
O O11 0.252474 0.278236 0.737509
O O12 0.000000 0.279669 0.700126
O O13 0.163342 0.000000 0.697580
O O14 0.500000 0.219491 0.277773
O O15 0.338055 0.500000 0.278493
O O16 0.255679 0.215150 0.319277
O O17 0.000000 0.711113 0.856861
O O18 0.149614 0.000000 0.850324
#
# Coordination Sequence:
#
# PCOD9357526 Si02
#       6
#     8   8   8   8   8   8
#     4   7  11  21  37  56  78 105 137 173 211 249
#     4   9  17  30  48  68  89 115 149 187 224 262
#     4   8  12  19  32  49  71 102 137 167 198 244
#     4   9  15  21  30  48  76 106 134 167 208 253
#     4   9  16  26  40  56  75 104 142 179 215 257
#     4  10  20  32  45  63  89 119 149 183 224 267
#
# _framework density 21.307976
#
# number of rings (size 3 to 8) (size 9 to 14) (size 15 to 20)
#    0.000    3.333    0.000    3.500    0.000    5.333 
#    0.000    0.833    0.000    3.000    0.000    0.000 
#    0.000    1.333    0.000    7.000    0.000   13.167 
#
# Total GULP energy -133887.011623 kJ/mol
# GULP energy per Si atom -5578.625484 kJ/mol
# Density = 2.125948 g / cm^3
# Si number density = 21.307976 Si / 1000 Ang^3
#
#
#
# Elastic Constant Matrix: (Units=GPa)
#
#
# Indices 1 2 3 4 5 6 
#
# 1 168.3851 6.4639 140.8574 0.0000 0.0000 0.0000
# 2 6.4639 77.6872 5.3338 0.0000 0.0000 0.0000
# 3 140.8574 5.3338 262.0956 0.0000 0.0000 0.0000
# 4 0.0000 0.0000 0.0000 5.9883 0.0000 0.0000
# 5 0.0000 0.0000 0.0000 0.0000 -14.4926 0.0000
# 6 0.0000 0.0000 0.0000 0.0000 0.0000 -1.7820
#
#
#
# Elastic Compliance Matrix: (Units=1/GPa)
#
#
# Indices 1 2 3 4 5 6 
#
# 1 0.010809 -0.000501 -0.005799 0.000000 0.000000 0.000000
# 2 -0.000501 0.012913 0.000007 0.000000 0.000000 0.000000
# 3 -0.005799 0.000007 0.006932 0.000000 0.000000 0.000000
# 4 0.000000 0.000000 0.000000 0.166993 0.000000 0.000000
# 5 0.000000 0.000000 0.000000 0.000000 -0.069001 0.000000
# 6 0.000000 0.000000 0.000000 0.000000 0.000000 -0.561168
#
#
# Mechanical properties :
#
#
# Convention : Reuss Voigt Hill
#
# Bulk Modulus (GPa) = 55.34933 90.38646 72.86789
# Shear Modulus (GPa) = -12.07983 21.64358 4.78188
#
# Velocity S-wave (km/s) = -2.38358 3.19054 1.49968
# Velocity P-wave (km/s) = 4.29616 7.48892 6.10495
#
# Compressibility (1/GPa) = 0.01806707
#
# Stress axis : x y z
#
# Youngs Moduli (GPa) = 92.51766 77.43906 144.26559
#
# Poissons Ratio (x) = 0.03881 0.83656
# Poissons Ratio (y) = 0.04637 -0.00095
# Poissons Ratio (z) = 0.53648 -0.00051
#
# Static dielectric constant tensor:
#      x y z
#    x 1.711850 0.000000 0.000000 
#    y 0.000000 1.960450 0.000000 
#    z 0.000000 0.000000 1.766930 
# 
# From -- ./inp_files/23341.got.cif
#   From: 2010.05.17/outbox.cif.g08.bks.cpg/sg38_12_cif.got.tgz:23341.got - 2010.06.03 18:07:57.
