data_PCOD9357912
_publ_section_title
;
Structure prediction by ZEFSAII (Michael W. Deem and Ramdas Pophale) SiO2 
 PCOD9357912
Probable space group: A M M 2
;
_chemical_formula_sum "Si O2"
_cell_formula_units_Z 58
_cell_length_a 15.501155
_cell_length_b 8.170379
_cell_length_c 25.249101
_cell_angle_alpha 90.000000
_cell_angle_beta 90.000000
_cell_angle_gamma 90.000000
_cell_volume 3197.806501
_symmetry_space_group_name_H-M "A M M 2"
_symmetry_group_IT_number 38
_symmetry_cell_setting 'orthorhombic'
loop_
_space_group_symop_operation_xyz
x,y,z
-x,-y,z
-x,y,z
x,-y,z
x,1/2+y,1/2+z
-x,1/2-y,1/2+z
-x,1/2+y,1/2+z
x,1/2-y,1/2+z
loop_
_atom_site_type_symbol
_atom_site_label
_atom_site_fract_x
_atom_site_fract_y
_atom_site_fract_z
Si Si1 0.596916 0.697203 0.826630
Si Si2 0.901876 0.807460 0.698662
Si Si3 0.632009 0.312404 0.131759
Si Si4 0.500000 0.000000 0.129178
Si Si5 0.097296 0.190830 0.080988
Si Si6 0.256562 0.813694 0.525059
Si Si7 0.725583 0.306251 0.734477
Si Si8 0.595853 0.806318 0.947361
O O1 0.500000 0.740345 0.806428
O O2 0.599298 0.500000 0.831454
O O3 0.672232 0.746272 0.786465
O O4 0.605974 0.769478 0.885199
O O5 0.882743 0.783104 0.635974
O O6 0.827820 0.722614 0.733005
O O7 0.000000 0.746528 0.707061
O O8 0.899885 0.000000 0.709951
O O9 0.595563 0.500000 0.131761
O O10 0.572874 0.149721 0.129643
O O11 0.687022 0.291365 0.185024
O O12 0.691379 0.303012 0.079993
O O13 0.000000 0.236969 0.064581
O O14 0.097978 0.000000 0.095140
O O15 0.168208 0.218904 0.036033
O O16 0.324102 0.759860 0.480439
O O17 0.232295 0.000000 0.514684
O O18 0.708836 0.500000 0.727380
O O19 0.500000 0.740521 0.963527
O O20 0.593415 0.000000 0.955862
#
# Coordination Sequence:
#
# PCOD9357912 Si02
#       8
#     8   8   8   2   8   8   8   8
#     4   9  20  38  59  81 110 148 192 238 290 344
#     4  10  20  34  53  80 115 152 191 238 290 346
#     4  11  25  39  55  84 117 157 198 236 292 352
#     4  12  26  40  56  74 122 160 198 244 284 352
#     4  10  20  34  55  82 112 147 187 231 283 345
#     4  11  23  37  56  82 115 150 190 235 286 345
#     4  11  21  35  59  84 117 154 193 239 290 347
#     4  10  22  38  59  83 109 146 193 241 290 339
#
# _framework density 18.137433999999999
#
# number of rings (size 3 to 8) (size 9 to 14) (size 15 to 20)
#    0.000    1.655    2.069    2.276    3.862    3.586 
#    0.000    0.000    0.000    0.828    0.000    3.862 
#    0.000    0.000    0.000    0.000    0.000    0.000 
#
# Total GULP energy -161467.521434 kJ/mol
# GULP energy per Si atom -5567.845567 kJ/mol
# Density = 1.809615 g / cm^3
# Si number density = 18.137434 Si / 1000 Ang^3
#
#
#
# Elastic Constant Matrix: (Units=GPa)
#
#
# Indices 1 2 3 4 5 6 
#
# 1 118.4605 24.9119 37.5040 0.0000 0.0000 0.0000
# 2 24.9119 78.0771 4.8605 0.0000 0.0000 0.0000
# 3 37.5040 4.8605 47.6843 0.0000 0.0000 0.0000
# 4 0.0000 0.0000 0.0000 23.3663 0.0000 0.0000
# 5 0.0000 0.0000 0.0000 0.0000 26.4722 0.0000
# 6 0.0000 0.0000 0.0000 0.0000 0.0000 14.1292
#
#
#
# Elastic Compliance Matrix: (Units=1/GPa)
#
#
# Indices 1 2 3 4 5 6 
#
# 1 0.012015 -0.003266 -0.009117 0.000000 0.000000 0.000000
# 2 -0.003266 0.013777 0.001164 0.000000 0.000000 0.000000
# 3 -0.009117 0.001164 0.028023 0.000000 0.000000 0.000000
# 4 0.000000 0.000000 0.000000 0.042797 0.000000 0.000000
# 5 0.000000 0.000000 0.000000 0.000000 0.037775 0.000000
# 6 0.000000 0.000000 0.000000 0.000000 0.000000 0.070775
#
#
# Mechanical properties :
#
#
# Convention : Reuss Voigt Hill
#
# Bulk Modulus (GPa) = 31.86908 42.08609 36.97758
# Shear Modulus (GPa) = 21.00319 24.58990 22.79655
#
# Velocity S-wave (km/s) = 3.40664 3.68605 3.54909
# Velocity P-wave (km/s) = 5.75175 6.43198 6.10135
#
# Compressibility (1/GPa) = 0.03137838
#
# Stress axis : x y z
#
# Youngs Moduli (GPa) = 83.23074 72.58237 35.68502
#
# Poissons Ratio (x) = 0.23705 0.32533
# Poissons Ratio (y) = 0.27183 -0.04155
# Poissons Ratio (z) = 0.75880 -0.08451
#
# Static dielectric constant tensor:
#      x y z
#    x 1.665210 0.000000 0.000000 
#    y 0.000000 1.632110 0.000000 
#    z 0.000000 0.000000 1.591330 
# 
# From -- ./inp_files/22827.got.cif
#   From: 2010.05.17/outbox.cif.g08.bks.cpg/sg38_12_cif.got.tgz:22827.got - 2010.06.03 18:07:57.
