data_PCOD9357987
_publ_section_title
;
Structure prediction by ZEFSAII (Michael W. Deem and Ramdas Pophale) SiO2 
 PCOD9357987
Probable space group: A M M 2
;
_chemical_formula_sum "Si O2"
_cell_formula_units_Z 40
_cell_length_a 15.222463
_cell_length_b 7.448764
_cell_length_c 15.996499
_cell_angle_alpha 90.000000
_cell_angle_beta 90.000000
_cell_angle_gamma 90.000000
_cell_volume 1813.819577
_symmetry_space_group_name_H-M "A M M 2"
_symmetry_group_IT_number 38
_symmetry_cell_setting 'orthorhombic'
loop_
_space_group_symop_operation_xyz
x,y,z
-x,-y,z
-x,y,z
x,-y,z
x,1/2+y,1/2+z
-x,1/2-y,1/2+z
-x,1/2+y,1/2+z
x,1/2-y,1/2+z
loop_
_atom_site_type_symbol
_atom_site_label
_atom_site_fract_x
_atom_site_fract_y
_atom_site_fract_z
Si Si1 0.096104 0.715131 0.358510
Si Si2 0.283447 0.715853 0.419510
Si Si3 0.095674 0.214593 0.159963
Si Si4 0.715168 0.219994 0.103118
Si Si5 0.400918 0.213731 0.258164
O O1 0.094827 0.500000 0.370252
O O2 0.184609 0.783846 0.401234
O O3 0.103435 0.751188 0.259289
O O4 0.000000 0.783225 0.386178
O O5 0.277882 0.500000 0.422121
O O6 0.314669 0.775264 0.510862
O O7 0.347196 0.759491 0.343286
O O8 0.184291 0.280339 0.117117
O O9 0.000000 0.284690 0.132621
O O10 0.093983 0.000000 0.147410
O O11 0.654704 0.283300 0.179249
O O12 0.715655 0.000000 0.106104
O O13 0.500000 0.285402 0.262649
O O14 0.407159 0.000000 0.246181
#
# Coordination Sequence:
#
# PCOD9357987 Si02
#       5
#     8   8   8   8   8
#     4   9  17  29  47  74 108 140 168 204 253 302
#     4  10  20  34  55  81 106 136 173 213 256 305
#     4   9  16  28  50  76 101 134 175 212 245 294
#     4   9  18  33  53  78 105 134 170 209 255 310
#     4  10  21  38  57  75 101 136 171 215 269 314
#
# _framework density 22.052911999999999
#
# number of rings (size 3 to 8) (size 9 to 14) (size 15 to 20)
#    0.000    2.600    2.000    0.000    0.000    2.000 
#    0.000    8.000    0.000    0.000    0.000    5.600 
#    0.000    0.000    0.000    0.000    0.000    0.000 
#
# Total GULP energy -111655.756224 kJ/mol
# GULP energy per Si atom -5582.787811 kJ/mol
# Density = 2.200272 g / cm^3
# Si number density = 22.052912 Si / 1000 Ang^3
#
#
#
# Elastic Constant Matrix: (Units=GPa)
#
#
# Indices 1 2 3 4 5 6 
#
# 1 194.2621 9.5783 114.3404 0.0000 0.0000 0.0000
# 2 9.5783 68.9452 -2.2633 0.0000 0.0000 0.0000
# 3 114.3404 -2.2633 170.3094 0.0000 0.0000 0.0000
# 4 0.0000 0.0000 0.0000 18.6903 0.0000 0.0000
# 5 0.0000 0.0000 0.0000 0.0000 -2.1878 0.0000
# 6 0.0000 0.0000 0.0000 0.0000 0.0000 9.0862
#
#
#
# Elastic Compliance Matrix: (Units=1/GPa)
#
#
# Indices 1 2 3 4 5 6 
#
# 1 0.008642 -0.001392 -0.005821 0.000000 0.000000 0.000000
# 2 -0.001392 0.014735 0.001130 0.000000 0.000000 0.000000
# 3 -0.005821 0.001130 0.009794 0.000000 0.000000 0.000000
# 4 0.000000 0.000000 0.000000 0.053504 0.000000 0.000000
# 5 0.000000 0.000000 0.000000 0.000000 -0.457088 0.000000
# 6 0.000000 0.000000 0.000000 0.000000 0.000000 0.110057
#
#
# Mechanical properties :
#
#
# Convention : Reuss Voigt Hill
#
# Bulk Modulus (GPa) = 47.60297 75.20304 61.40300
# Shear Modulus (GPa) = -20.73058 25.90851 2.58897
#
# Velocity S-wave (km/s) = -3.06933 3.43130 1.08468
# Velocity P-wave (km/s) = 3.01191 7.06213 5.42887
#
# Compressibility (1/GPa) = 0.02100709
#
# Stress axis : x y z
#
# Youngs Moduli (GPa) = 115.71036 67.86696 102.09824
#
# Poissons Ratio (x) = 0.09445 0.59428
# Poissons Ratio (y) = 0.16104 -0.11539
# Poissons Ratio (z) = 0.67351 -0.07670
#
# Static dielectric constant tensor:
#      x y z
#    x 1.805260 0.000000 0.000000 
#    y 0.000000 1.732230 0.000000 
#    z 0.000000 0.000000 1.775970 
# 
# From -- ./inp_files/9873.got.cif
#   From: 2010.05.17/outbox.cif.g08.bks.cpg/sg38_5_cif.got.tgz:9873.got - 2010.06.03 18:07:57.
