data_PCOD9357108
_publ_section_title
;
Structure prediction by ZEFSAII (Michael W. Deem and Ramdas Pophale) SiO2 
 PCOD9357108
Probable space group: A M M 2
;
_chemical_formula_sum "Si O2"
_cell_formula_units_Z 64
_cell_length_a 8.685859
_cell_length_b 33.624787
_cell_length_c 12.026324
_cell_angle_alpha 90.000000
_cell_angle_beta 90.000000
_cell_angle_gamma 90.000000
_cell_volume 3512.410097
_symmetry_space_group_name_H-M "A M M 2"
_symmetry_group_IT_number 38
_symmetry_cell_setting 'orthorhombic'
loop_
_space_group_symop_operation_xyz
x,y,z
-x,-y,z
-x,y,z
x,-y,z
x,1/2+y,1/2+z
-x,1/2-y,1/2+z
-x,1/2+y,1/2+z
x,1/2-y,1/2+z
loop_
_atom_site_type_symbol
_atom_site_label
_atom_site_fract_x
_atom_site_fract_y
_atom_site_fract_z
Si Si1 0.687013 0.851347 0.088120
Si Si2 0.315165 0.045685 0.463985
Si Si3 0.180700 0.275016 0.463801
Si Si4 0.687352 0.623031 0.834947
Si Si5 0.821128 0.827788 0.751134
Si Si6 0.679905 0.599926 0.376297
Si Si7 0.316533 0.190318 0.513575
Si Si8 0.825544 0.452537 0.198715
O O1 0.500000 0.847772 0.085164
O O2 0.736079 0.864359 0.211209
O O3 0.757429 0.809793 0.045340
O O4 0.731636 0.884983 0.997474
O O5 0.500000 0.044284 0.456648
O O6 0.259828 0.079754 0.378956
O O7 0.271650 0.058740 0.589420
O O8 0.258371 0.000000 0.446099
O O9 0.195540 0.291992 0.338840
O O10 0.274227 0.234545 0.474827
O O11 0.000000 0.268048 0.486709
O O12 0.500000 0.621717 0.832627
O O13 0.730150 0.657204 0.923024
O O14 0.713083 0.862639 0.796481
O O15 0.771653 0.816796 0.628279
O O16 0.000000 0.840487 0.755559
O O17 0.500000 0.590902 0.381678
O O18 0.765764 0.564636 0.314362
O O19 0.500000 0.186921 0.530921
O O20 0.821368 0.500000 0.203864
O O21 0.000000 0.439142 0.179894
#
# Coordination Sequence:
#
# PCOD9357108 Si02
#       8
#     8   8   8   8   8   8   8   8
#     4   9  19  37  57  77 105 143 183 223 270 329
#     4   9  17  32  56  83 112 144 179 225 278 328
#     4  10  22  38  54  76 106 139 179 227 276 327
#     4   9  19  35  54  81 110 140 181 225 269 326
#     4  10  21  37  55  76 105 139 175 220 270 322
#     4  10  19  33  55  79 105 138 178 222 267 322
#     4  11  22  34  54  80 108 141 180 227 273 325
#     4  10  20  33  52  79 111 144 178 222 275 328
#
# _framework density 18.221108000000001
#
# number of rings (size 3 to 8) (size 9 to 14) (size 15 to 20)
#    0.000    2.250    0.000    2.625    1.750    3.750 
#    0.000    2.500    0.000    2.250    0.000    1.750 
#    0.000    0.000    0.000    0.000    0.000    0.000 
#
# Total GULP energy -178511.850825 kJ/mol
# GULP energy per Si atom -5578.495338 kJ/mol
# Density = 1.817964 g / cm^3
# Si number density = 18.221108 Si / 1000 Ang^3
#
#
#
# Elastic Constant Matrix: (Units=GPa)
#
#
# Indices 1 2 3 4 5 6 
#
# 1 11.8205 8.4217 14.8332 0.0000 0.0000 0.0000
# 2 8.4217 81.1141 65.2101 0.0000 0.0000 0.0000
# 3 14.8332 65.2101 127.5224 0.0000 0.0000 0.0000
# 4 0.0000 0.0000 0.0000 13.8579 0.0000 0.0000
# 5 0.0000 0.0000 0.0000 0.0000 14.4117 0.0000
# 6 0.0000 0.0000 0.0000 0.0000 0.0000 9.1591
#
#
#
# Elastic Compliance Matrix: (Units=1/GPa)
#
#
# Indices 1 2 3 4 5 6 
#
# 1 0.099202 -0.001737 -0.010651 0.000000 0.000000 0.000000
# 2 -0.001737 0.020965 -0.010519 0.000000 0.000000 0.000000
# 3 -0.010651 -0.010519 0.014459 0.000000 0.000000 0.000000
# 4 0.000000 0.000000 0.000000 0.072161 0.000000 0.000000
# 5 0.000000 0.000000 0.000000 0.000000 0.069388 0.000000
# 6 0.000000 0.000000 0.000000 0.000000 0.000000 0.109181
#
#
# Mechanical properties :
#
#
# Convention : Reuss Voigt Hill
#
# Bulk Modulus (GPa) = 11.25958 44.15413 27.70686
# Shear Modulus (GPa) = 10.85130 16.28519 13.56825
#
# Velocity S-wave (km/s) = 2.44301 2.99282 2.73178
# Velocity P-wave (km/s) = 3.76172 6.01894 5.01887
#
# Compressibility (1/GPa) = 0.08881322
#
# Stress axis : x y z
#
# Youngs Moduli (GPa) = 10.08045 47.69876 69.15901
#
# Poissons Ratio (x) = 0.08287 0.73659
# Poissons Ratio (y) = 0.01751 0.72745
# Poissons Ratio (z) = 0.10736 0.50172
#
# Static dielectric constant tensor:
#      x y z
#    x 1.617610 0.000000 0.000000 
#    y 0.000000 1.630330 0.000000 
#    z 0.000000 0.000000 1.610150 
# 
# From -- ./inp_files/8570.got.cif
#   From: 2010.05.17/outbox.cif.g08.bks.cpg/sg38_5_cif.got.tgz:8570.got - 2010.06.03 18:07:57.
