data_PCOD9357733
_publ_section_title
;
Structure prediction by ZEFSAII (Michael W. Deem and Ramdas Pophale) SiO2 
 PCOD9357733
Probable space group: A M M 2
;
_chemical_formula_sum "Si O2"
_cell_formula_units_Z 56
_cell_length_a 7.980026
_cell_length_b 15.005743
_cell_length_c 22.712776
_cell_angle_alpha 90.000000
_cell_angle_beta 90.000000
_cell_angle_gamma 90.000000
_cell_volume 2719.769056
_symmetry_space_group_name_H-M "A M M 2"
_symmetry_group_IT_number 38
_symmetry_cell_setting 'orthorhombic'
loop_
_space_group_symop_operation_xyz
x,y,z
-x,-y,z
-x,y,z
x,-y,z
x,1/2+y,1/2+z
-x,1/2-y,1/2+z
-x,1/2+y,1/2+z
x,1/2-y,1/2+z
loop_
_atom_site_type_symbol
_atom_site_label
_atom_site_fract_x
_atom_site_fract_y
_atom_site_fract_z
Si Si1 0.696193 0.099357 0.735360
Si Si2 0.196247 0.901721 0.452404
Si Si3 0.695855 0.600538 0.821269
Si Si4 0.800066 0.602572 0.369239
Si Si5 0.205893 0.212646 0.981829
Si Si6 0.803275 0.709598 0.710181
Si Si7 0.205180 0.102656 0.096130
O O1 0.500000 0.099343 0.721540
O O2 0.717766 0.113168 0.805642
O O3 0.776575 0.184790 0.704934
O O4 0.765135 0.000000 0.722184
O O5 0.208620 0.883721 0.382265
O O6 0.265849 0.814597 0.484307
O O7 0.000000 0.906615 0.467618
O O8 0.271176 0.000000 0.463147
O O9 0.500000 0.601126 0.836219
O O10 0.740542 0.500000 0.800223
O O11 0.727132 0.671189 0.770282
O O12 0.775261 0.500000 0.388514
O O13 0.740689 0.667817 0.420409
O O14 0.000000 0.615814 0.360811
O O15 0.000000 0.212847 0.981001
O O16 0.258249 0.153619 0.037133
O O17 0.737398 0.655793 0.653893
O O18 0.000000 0.691936 0.714486
O O19 0.000000 0.103163 0.096244
O O20 0.258693 0.000000 0.096952
#
# Coordination Sequence:
#
# PCOD9357733 Si02
#       7
#     8   8   8   8   8   8   8
#     4  10  21  36  53  74 103 137 170 207 253 305
#     4   9  17  29  47  73 103 132 165 207 253 303
#     4  10  20  33  51  76 106 139 173 211 257 307
#     4   9  16  27  48  77 103 127 160 204 251 299
#     4   9  16  28  47  71  99 131 165 203 251 301
#     4  11  21  33  52  76 102 134 172 214 258 302
#     4   9  18  32  50  74 102 130 164 208 255 301
#
# _framework density 20.589983
#
# number of rings (size 3 to 8) (size 9 to 14) (size 15 to 20)
#    0.000    2.429    0.000    3.000    0.000    5.143 
#    0.000    0.714    0.000    6.000    0.000    4.000 
#    0.000    0.000    0.000    0.000    0.000    0.000 
#
# Total GULP energy -156291.083174 kJ/mol
# GULP energy per Si atom -5581.824399 kJ/mol
# Density = 2.054312 g / cm^3
# Si number density = 20.589983 Si / 1000 Ang^3
#
#
#
# Elastic Constant Matrix: (Units=GPa)
#
#
# Indices 1 2 3 4 5 6 
#
# 1 18.2762 1.7796 -5.6769 0.0000 0.0000 0.0000
# 2 1.7796 159.4928 54.9093 0.0000 0.0000 0.0000
# 3 -5.6769 54.9093 37.6205 0.0000 0.0000 0.0000
# 4 0.0000 0.0000 0.0000 35.5732 0.0000 0.0000
# 5 0.0000 0.0000 0.0000 0.0000 -113.8351 0.0000
# 6 0.0000 0.0000 0.0000 0.0000 0.0000 15.3059
#
#
#
# Elastic Compliance Matrix: (Units=1/GPa)
#
#
# Indices 1 2 3 4 5 6 
#
# 1 0.061947 -0.007858 0.020817 0.000000 0.000000 0.000000
# 2 -0.007858 0.013599 -0.021035 0.000000 0.000000 0.000000
# 3 0.020817 -0.021035 0.060424 0.000000 0.000000 0.000000
# 4 0.000000 0.000000 0.000000 0.028111 0.000000 0.000000
# 5 0.000000 0.000000 0.000000 0.000000 -0.008785 0.000000
# 6 0.000000 0.000000 0.000000 0.000000 0.000000 0.065334
#
#
# Mechanical properties :
#
#
# Convention : Reuss Voigt Hill
#
# Bulk Modulus (GPa) = 8.34594 35.26815 21.80705
# Shear Modulus (GPa) = 18.06869 -1.63270 8.21800
#
# Velocity S-wave (km/s) = 2.96556 -0.89145 1.99998
# Velocity P-wave (km/s) = 3.97344 4.01328 3.99341
#
# Compressibility (1/GPa) = 0.11981875
#
# Stress axis : x y z
#
# Youngs Moduli (GPa) = 16.14279 73.53363 16.54980
#
# Poissons Ratio (x) = 0.57782 -0.34451
# Poissons Ratio (y) = 0.12685 0.34812
# Poissons Ratio (z) = -0.33604 1.54675
#
# Static dielectric constant tensor:
#      x y z
#    x 1.737170 0.000000 0.000000 
#    y 0.000000 1.766050 0.000000 
#    z 0.000000 0.000000 1.693380 
# 
# From -- ./inp_files/19772.got.cif
#   From: 2010.05.17/outbox.cif.g08.bks.cpg/sg38_10_cif.got.tgz:19772.got - 2010.06.03 18:07:57.
