data_PCOD9357416
_publ_section_title
;
Structure prediction by ZEFSAII (Michael W. Deem and Ramdas Pophale) SiO2 
 PCOD9357416
Probable space group: A M M 2
;
_chemical_formula_sum "Si O2"
_cell_formula_units_Z 48
_cell_length_a 8.553875
_cell_length_b 17.018733
_cell_length_c 18.998277
_cell_angle_alpha 90.000000
_cell_angle_beta 90.000000
_cell_angle_gamma 90.000000
_cell_volume 2765.695352
_symmetry_space_group_name_H-M "A M M 2"
_symmetry_group_IT_number 38
_symmetry_cell_setting 'orthorhombic'
loop_
_space_group_symop_operation_xyz
x,y,z
-x,-y,z
-x,y,z
x,-y,z
x,1/2+y,1/2+z
-x,1/2-y,1/2+z
-x,1/2+y,1/2+z
x,1/2-y,1/2+z
loop_
_atom_site_type_symbol
_atom_site_label
_atom_site_fract_x
_atom_site_fract_y
_atom_site_fract_z
Si Si1 0.188169 0.656986 0.214740
Si Si2 0.187417 0.167701 0.449118
Si Si3 0.686021 0.684514 0.370309
Si Si4 0.189372 0.589491 0.502872
Si Si5 0.189607 0.237748 0.088517
Si Si6 0.686970 0.500000 0.975876
Si Si7 0.688124 0.000000 0.640688
O O1 0.254480 0.664732 0.292737
O O2 0.241192 0.727970 0.163137
O O3 0.245298 0.576948 0.178526
O O4 0.000000 0.656975 0.217714
O O5 0.255673 0.229214 0.393479
O O6 0.234851 0.202014 0.526023
O O7 0.247843 0.079586 0.442218
O O8 0.000000 0.169563 0.445417
O O9 0.500000 0.681205 0.372926
O O10 0.754199 0.624690 0.428615
O O11 0.241876 0.500000 0.513295
O O12 0.241421 0.651663 0.562737
O O13 0.000000 0.590050 0.502133
O O14 0.000000 0.236557 0.089834
O O15 0.500000 0.500000 0.972477
O O16 0.734254 0.500000 0.058448
O O17 0.500000 0.000000 0.644789
#
# Coordination Sequence:
#
# PCOD9357416 Si02
#       7
#     8   8   8   8   8   4   4
#     4  11  21  36  56  78 109 148 186 222 270 330
#     4  10  19  36  58  81 107 144 191 228 267 324
#     4  11  23  37  53  78 113 147 181 226 281 331
#     4   9  18  35  58  82 106 137 180 228 273 326
#     4   8  16  31  54  80 103 135 180 228 268 312
#     4  11  21  33  55  87 119 144 175 224 281 329
#     4  11  23  35  51  83 119 144 175 220 277 333
#
# _framework density 17.35549
#
# number of rings (size 3 to 8) (size 9 to 14) (size 15 to 20)
#    0.000    2.000    1.667    4.000    1.167    1.000 
#    0.000    0.833    1.833    0.000    0.000    0.000 
#    0.000    0.000    0.000    0.000    0.000    0.000 
#
# Total GULP energy -133948.366767 kJ/mol
# GULP energy per Si atom -5581.181949 kJ/mol
# Density = 1.731599 g / cm^3
# Si number density = 17.355490 Si / 1000 Ang^3
#
#
#
# Elastic Constant Matrix: (Units=GPa)
#
#
# Indices 1 2 3 4 5 6 
#
# 1 42.2201 24.4254 11.5174 0.0000 0.0000 0.0000
# 2 24.4254 158.3227 46.3124 0.0000 0.0000 0.0000
# 3 11.5174 46.3124 72.4970 0.0000 0.0000 0.0000
# 4 0.0000 0.0000 0.0000 19.6652 0.0000 0.0000
# 5 0.0000 0.0000 0.0000 0.0000 12.4555 0.0000
# 6 0.0000 0.0000 0.0000 0.0000 0.0000 18.2021
#
#
#
# Elastic Compliance Matrix: (Units=1/GPa)
#
#
# Indices 1 2 3 4 5 6 
#
# 1 0.026228 -0.003477 -0.001945 0.000000 0.000000 0.000000
# 2 -0.003477 0.008229 -0.004704 0.000000 0.000000 0.000000
# 3 -0.001945 -0.004704 0.017108 0.000000 0.000000 0.000000
# 4 0.000000 0.000000 0.000000 0.050851 0.000000 0.000000
# 5 0.000000 0.000000 0.000000 0.000000 0.080286 0.000000
# 6 0.000000 0.000000 0.000000 0.000000 0.000000 0.054939
#
#
# Mechanical properties :
#
#
# Convention : Reuss Voigt Hill
#
# Bulk Modulus (GPa) = 31.93804 48.61667 40.27735
# Shear Modulus (GPa) = 18.63373 22.78355 20.70864
#
# Velocity S-wave (km/s) = 3.28022 3.62713 3.45803
# Velocity P-wave (km/s) = 5.72614 6.75385 6.26112
#
# Compressibility (1/GPa) = 0.03131063
#
# Stress axis : x y z
#
# Youngs Moduli (GPa) = 38.12753 121.52509 58.45257
#
# Poissons Ratio (x) = 0.42257 0.11371
# Poissons Ratio (y) = 0.13258 0.27498
# Poissons Ratio (z) = 0.07417 0.57168
#
# Static dielectric constant tensor:
#      x y z
#    x 1.581000 0.000000 0.000000 
#    y 0.000000 1.593500 0.000000 
#    z 0.000000 0.000000 1.566760 
# 
# From -- ./inp_files/16699.got.cif
#   From: 2010.05.17/outbox.cif.g08.bks.cpg/sg38_9_cif.got.tgz:16699.got - 2010.06.03 18:07:57.
