data_PCOD9357602
_publ_section_title
;
Structure prediction by ZEFSAII (Michael W. Deem and Ramdas Pophale) SiO2 
 PCOD9357602
Probable space group: A M M 2
;
_chemical_formula_sum "Si O2"
_cell_formula_units_Z 56
_cell_length_a 8.927225
_cell_length_b 15.868935
_cell_length_c 20.530206
_cell_angle_alpha 90.000000
_cell_angle_beta 90.000000
_cell_angle_gamma 90.000000
_cell_volume 2908.422991
_symmetry_space_group_name_H-M "A M M 2"
_symmetry_group_IT_number 38
_symmetry_cell_setting 'orthorhombic'
loop_
_space_group_symop_operation_xyz
x,y,z
-x,-y,z
-x,y,z
x,-y,z
x,1/2+y,1/2+z
-x,1/2-y,1/2+z
-x,1/2+y,1/2+z
x,1/2-y,1/2+z
loop_
_atom_site_type_symbol
_atom_site_label
_atom_site_fract_x
_atom_site_fract_y
_atom_site_fract_z
Si Si1 0.673105 0.907386 0.567570
Si Si2 0.174390 0.824874 0.961220
Si Si3 0.822327 0.765201 0.100593
Si Si4 0.676177 0.248835 0.239223
Si Si5 0.171541 0.407118 0.796148
Si Si6 0.165596 0.874684 0.445226
Si Si7 0.318964 0.402550 0.333022
O O1 0.500000 0.887768 0.582097
O O2 0.779601 0.832244 0.588602
O O3 0.703533 0.908348 0.490485
O O4 0.706938 0.000000 0.594752
O O5 0.177727 0.726457 0.940825
O O6 0.259427 0.875808 0.904831
O O7 0.000000 0.851907 0.962028
O O8 0.229986 0.819399 0.036963
O O9 0.750143 0.777310 0.170735
O O10 0.000000 0.775849 0.103251
O O11 0.500000 0.260303 0.229073
O O12 0.714766 0.167250 0.281480
O O13 0.730539 0.333055 0.278409
O O14 0.209535 0.500000 0.769770
O O15 0.167843 0.410969 0.873856
O O16 0.000000 0.385980 0.774917
O O17 0.000000 0.893398 0.474185
O O18 0.500000 0.398945 0.334518
O O19 0.275678 0.500000 0.318661
#
# Coordination Sequence:
#
# PCOD9357602 Si02
#       7
#     8   8   8   8   8   8   8
#     4  10  20  32  49  78 114 148 185 231 284 345
#     4   9  18  35  59  86 112 144 191 244 290 340
#     4  10  22  39  59  81 111 154 200 247 301 360
#     4  11  23  39  59  86 120 157 197 248 306 365
#     4  10  20  35  57  83 113 150 189 233 287 346
#     4   9  17  31  53  80 112 146 182 226 278 337
#     4  10  22  39  60  88 122 160 200 246 303 363
#
# _framework density 19.254422000000002
#
# number of rings (size 3 to 8) (size 9 to 14) (size 15 to 20)
#    0.000    2.143    1.429    2.571    0.000    6.857 
#    0.000    2.143    0.000    0.857    0.000    0.000 
#    0.000    0.000    0.000    0.000    0.000    0.000 
#
# Total GULP energy -155906.327038 kJ/mol
# GULP energy per Si atom -5568.083108 kJ/mol
# Density = 1.921060 g / cm^3
# Si number density = 19.254422 Si / 1000 Ang^3
#
#
#
# Elastic Constant Matrix: (Units=GPa)
#
#
# Indices 1 2 3 4 5 6 
#
# 1 24.3772 5.1164 9.3112 0.0000 0.0000 0.0000
# 2 5.1164 55.6407 0.5536 0.0000 0.0000 0.0000
# 3 9.3112 0.5536 66.2852 0.0000 0.0000 0.0000
# 4 0.0000 0.0000 0.0000 0.1332 0.0000 0.0000
# 5 0.0000 0.0000 0.0000 0.0000 20.5028 0.0000
# 6 0.0000 0.0000 0.0000 0.0000 0.0000 47.4376
#
#
#
# Elastic Compliance Matrix: (Units=1/GPa)
#
#
# Indices 1 2 3 4 5 6 
#
# 1 0.044222 -0.004005 -0.006179 0.000000 0.000000 0.000000
# 2 -0.004005 0.018337 0.000409 0.000000 0.000000 0.000000
# 3 -0.006179 0.000409 0.015951 0.000000 0.000000 0.000000
# 4 0.000000 0.000000 0.000000 7.506979 0.000000 0.000000
# 5 0.000000 0.000000 0.000000 0.000000 0.048774 0.000000
# 6 0.000000 0.000000 0.000000 0.000000 0.000000 0.021080
#
#
# Mechanical properties :
#
#
# Convention : Reuss Voigt Hill
#
# Bulk Modulus (GPa) = 16.96014 19.58505 18.27259
# Shear Modulus (GPa) = 0.64981 22.36951 11.50966
#
# Velocity S-wave (km/s) = 0.58157 3.41220 2.44758
# Velocity P-wave (km/s) = 3.04607 5.07128 4.18309
#
# Compressibility (1/GPa) = 0.05896178
#
# Stress axis : x y z
#
# Youngs Moduli (GPa) = 22.61297 54.53562 62.69270
#
# Poissons Ratio (x) = 0.21841 0.38735
# Poissons Ratio (y) = 0.09056 -0.02567
# Poissons Ratio (z) = 0.13972 -0.02233
#
# Static dielectric constant tensor:
#      x y z
#    x 1.672520 0.000000 0.000000 
#    y 0.000000 1.727720 0.000000 
#    z 0.000000 0.000000 1.754000 
# 
# From -- ./inp_files/19793.got.cif
#   From: 2010.05.17/outbox.cif.g08.bks.cpg/sg38_10_cif.got.tgz:19793.got - 2010.06.03 18:07:57.
