data_PCOD9357427
_publ_section_title
;
Structure prediction by ZEFSAII (Michael W. Deem and Ramdas Pophale) SiO2 
 PCOD9357427
Probable space group: A M M 2
;
_chemical_formula_sum "Si O2"
_cell_formula_units_Z 64
_cell_length_a 9.046174
_cell_length_b 25.169559
_cell_length_c 15.084367
_cell_angle_alpha 90.000000
_cell_angle_beta 90.000000
_cell_angle_gamma 90.000000
_cell_volume 3434.532524
_symmetry_space_group_name_H-M "A M M 2"
_symmetry_group_IT_number 38
_symmetry_cell_setting 'orthorhombic'
loop_
_space_group_symop_operation_xyz
x,y,z
-x,-y,z
-x,y,z
x,-y,z
x,1/2+y,1/2+z
-x,1/2-y,1/2+z
-x,1/2+y,1/2+z
x,1/2-y,1/2+z
loop_
_atom_site_type_symbol
_atom_site_label
_atom_site_fract_x
_atom_site_fract_y
_atom_site_fract_z
Si Si1 0.326584 0.563360 0.870780
Si Si2 0.323901 0.939037 0.712514
Si Si3 0.824927 0.331475 0.536400
Si Si4 0.175932 0.890120 0.543238
Si Si5 0.327018 0.280082 0.018100
Si Si6 0.676663 0.367244 0.702469
Si Si7 0.824869 0.349358 0.329648
Si Si8 0.672829 0.239191 0.307967
O O1 0.500000 0.577065 0.888231
O O2 0.312509 0.500000 0.870627
O O3 0.288937 0.588229 0.775509
O O4 0.229147 0.588638 0.947996
O O5 0.500000 0.932267 0.703877
O O6 0.247755 0.926558 0.618693
O O7 0.259124 0.896798 0.781437
O O8 0.294137 0.000000 0.738497
O O9 0.742018 0.275339 0.549011
O O10 0.762175 0.370815 0.610444
O O11 0.796413 0.349585 0.435472
O O12 0.000000 0.324066 0.546195
O O13 0.240160 0.830768 0.553885
O O14 0.000000 0.889990 0.549951
O O15 0.500000 0.283249 0.041335
O O16 0.314351 0.278929 0.910720
O O17 0.500000 0.367808 0.687013
O O18 0.715169 0.310659 0.747762
O O19 0.767279 0.292222 0.295561
O O20 0.000000 0.353794 0.314510
O O21 0.500000 0.251642 0.292087
#
# Coordination Sequence:
#
# PCOD9357427 Si02
#       8
#     8   8   8   8   8   8   8   8
#     4  10  21  40  63  86 118 159 204 250 292 342
#     4  11  25  44  65  87 113 151 201 250 295 350
#     4  10  22  38  57  87 124 158 194 242 300 356
#     4  12  24  37  58  89 124 158 193 238 294 359
#     4  10  19  36  59  84 118 158 198 239 286 345
#     4  10  20  36  58  87 119 159 204 245 293 345
#     4  10  22  40  61  86 119 155 194 244 302 355
#     4   9  18  34  57  84 116 154 196 240 287 345
#
# _framework density 18.634267999999999
#
# number of rings (size 3 to 8) (size 9 to 14) (size 15 to 20)
#    0.000    1.750    1.250    3.000    1.750    5.750 
#    0.000    0.625    0.000    2.250    0.000    0.000 
#    0.000    0.000    0.000    0.000    0.000    0.000 
#
# Total GULP energy -178872.019629 kJ/mol
# GULP energy per Si atom -5589.750613 kJ/mol
# Density = 1.859186 g / cm^3
# Si number density = 18.634268 Si / 1000 Ang^3
#
#
#
# Elastic Constant Matrix: (Units=GPa)
#
#
# Indices 1 2 3 4 5 6 
#
# 1 83.0196 48.6009 29.3616 0.0000 0.0000 0.0000
# 2 48.6009 75.8998 15.8704 0.0000 0.0000 0.0000
# 3 29.3616 15.8704 40.2354 0.0000 0.0000 0.0000
# 4 0.0000 0.0000 0.0000 26.0089 0.0000 0.0000
# 5 0.0000 0.0000 0.0000 0.0000 30.1836 0.0000
# 6 0.0000 0.0000 0.0000 0.0000 0.0000 3.8119
#
#
#
# Elastic Compliance Matrix: (Units=1/GPa)
#
#
# Indices 1 2 3 4 5 6 
#
# 1 0.023858 -0.012683 -0.012408 0.000000 0.000000 0.000000
# 2 -0.012683 0.021102 0.000932 0.000000 0.000000 0.000000
# 3 -0.012408 0.000932 0.033541 0.000000 0.000000 0.000000
# 4 0.000000 0.000000 0.000000 0.038448 0.000000 0.000000
# 5 0.000000 0.000000 0.000000 0.000000 0.033131 0.000000
# 6 0.000000 0.000000 0.000000 0.000000 0.000000 0.262334
#
#
# Mechanical properties :
#
#
# Convention : Reuss Voigt Hill
#
# Bulk Modulus (GPa) = 33.13113 42.98007 38.05560
# Shear Modulus (GPa) = 10.62039 19.02234 14.82136
#
# Velocity S-wave (km/s) = 2.38993 3.19850 2.82331
# Velocity P-wave (km/s) = 5.04321 6.06265 5.57627
#
# Compressibility (1/GPa) = 0.03018310
#
# Stress axis : x y z
#
# Youngs Moduli (GPa) = 41.91400 47.38983 29.81445
#
# Poissons Ratio (x) = 0.60103 0.36994
# Poissons Ratio (y) = 0.53159 -0.02778
# Poissons Ratio (z) = 0.52007 -0.04416
#
# Static dielectric constant tensor:
#      x y z
#    x 1.620250 0.000000 0.000000 
#    y 0.000000 1.615840 0.000000 
#    z 0.000000 0.000000 1.658270 
# 
# From -- ./inp_files/12852.got.cif
#   From: 2010.05.17/outbox.cif.g08.bks.cpg/sg38_7_cif.got.tgz:12852.got - 2010.06.03 18:07:57.
