data_PCOD9357043
_publ_section_title
;
Structure prediction by ZEFSAII (Michael W. Deem and Ramdas Pophale) SiO2 
 PCOD9357043
Probable space group: A M M 2
;
_chemical_formula_sum "Si O2"
_cell_formula_units_Z 56
_cell_length_a 20.398429
_cell_length_b 7.548118
_cell_length_c 16.141516
_cell_angle_alpha 90.000000
_cell_angle_beta 90.000000
_cell_angle_gamma 90.000000
_cell_volume 2485.305169
_symmetry_space_group_name_H-M "A M M 2"
_symmetry_group_IT_number 38
_symmetry_cell_setting 'orthorhombic'
loop_
_space_group_symop_operation_xyz
x,y,z
-x,-y,z
-x,y,z
x,-y,z
x,1/2+y,1/2+z
-x,1/2-y,1/2+z
-x,1/2+y,1/2+z
x,1/2-y,1/2+z
loop_
_atom_site_type_symbol
_atom_site_label
_atom_site_fract_x
_atom_site_fract_y
_atom_site_fract_z
Si Si1 0.929119 0.784873 0.417250
Si Si2 0.788941 0.797503 0.369347
Si Si3 0.793525 0.293678 0.188364
Si Si4 0.575336 0.716853 0.769019
Si Si5 0.346305 0.712730 0.930378
Si Si6 0.338635 0.290236 0.613632
Si Si7 0.928656 0.715025 0.112604
O O1 0.861716 0.718832 0.377471
O O2 0.925339 0.742780 0.515018
O O3 0.000000 0.720153 0.385456
O O4 0.930734 0.000000 0.409190
O O5 0.771056 0.798126 0.272675
O O6 0.727616 0.715392 0.416895
O O7 0.795012 0.000000 0.399967
O O8 0.802119 0.500000 0.208186
O O9 0.735550 0.279901 0.121900
O O10 0.863267 0.220884 0.157547
O O11 0.500000 0.772568 0.762919
O O12 0.575832 0.500000 0.768369
O O13 0.607989 0.775377 0.855458
O O14 0.617934 0.777410 0.690243
O O15 0.342689 0.500000 0.921619
O O16 0.367823 0.750872 0.023578
O O17 0.334118 0.500000 0.622529
O O18 0.927875 0.500000 0.117242
O O19 0.000000 0.775365 0.144549
#
# Coordination Sequence:
#
# PCOD9357043 Si02
#       7
#     8   8   8   8   8   8   8
#     4   8  14  26  46  70  97 133 179 227 275 333
#     4  10  19  33  52  76 108 144 185 231 283 336
#     4  11  21  33  53  80 110 146 190 237 283 334
#     4   9  19  38  62  86 116 153 189 227 279 341
#     4  10  20  37  60  85 113 150 191 232 280 335
#     4  11  22  38  60  87 117 152 191 234 284 336
#     4   8  15  29  48  71 100 137 183 233 283 334
#
# _framework density 22.532444000000002
#
# number of rings (size 3 to 8) (size 9 to 14) (size 15 to 20)
#    0.000    2.429    1.429    2.571    0.000    4.000 
#    0.000    0.000    0.000    4.286    0.000    4.000 
#    0.000    0.000    0.000    0.000    0.000    0.000 
#
# Total GULP energy -156340.725316 kJ/mol
# GULP energy per Si atom -5583.597333 kJ/mol
# Density = 2.248116 g / cm^3
# Si number density = 22.532444 Si / 1000 Ang^3
#
#
#
# Elastic Constant Matrix: (Units=GPa)
#
#
# Indices 1 2 3 4 5 6 
#
# 1 148.8084 9.8541 61.3268 0.0000 0.0000 0.0000
# 2 9.8541 59.6527 -4.1480 0.0000 0.0000 0.0000
# 3 61.3268 -4.1480 123.6345 0.0000 0.0000 0.0000
# 4 0.0000 0.0000 0.0000 12.5401 0.0000 0.0000
# 5 0.0000 0.0000 0.0000 0.0000 21.1037 0.0000
# 6 0.0000 0.0000 0.0000 0.0000 0.0000 -0.0674
#
#
#
# Elastic Compliance Matrix: (Units=1/GPa)
#
#
# Indices 1 2 3 4 5 6 
#
# 1 0.008620 -0.001725 -0.004334 0.000000 0.000000 0.000000
# 2 -0.001725 0.017148 0.001431 0.000000 0.000000 0.000000
# 3 -0.004334 0.001431 0.010286 0.000000 0.000000 0.000000
# 4 0.000000 0.000000 0.000000 0.079744 0.000000 0.000000
# 5 0.000000 0.000000 0.000000 0.000000 0.047385 0.000000
# 6 0.000000 0.000000 0.000000 0.000000 0.000000-14.843992
#
#
# Mechanical properties :
#
#
# Convention : Reuss Voigt Hill
#
# Bulk Modulus (GPa) = 37.31540 51.79570 44.55555
# Shear Modulus (GPa) = -0.34100 24.38613 12.02257
#
# Velocity S-wave (km/s) = -0.38944 3.29335 2.31241
# Velocity P-wave (km/s) = 4.04901 6.12361 5.19101
#
# Compressibility (1/GPa) = 0.02679858
#
# Stress axis : x y z
#
# Youngs Moduli (GPa) = 116.00418 58.31504 97.21835
#
# Poissons Ratio (x) = 0.10062 0.42133
# Poissons Ratio (y) = 0.20015 -0.13914
# Poissons Ratio (z) = 0.50275 -0.08346
#
# Static dielectric constant tensor:
#      x y z
#    x 1.841930 0.000000 0.000000 
#    y 0.000000 1.872760 0.000000 
#    z 0.000000 0.000000 1.813810 
# 
# From -- ./inp_files/15453.got.cif
#   From: 2010.05.17/outbox.cif.g08.bks.cpg/sg38_8_cif.got.tgz:15453.got - 2010.06.03 18:07:57.
