data_PCOD9357771
_publ_section_title
;
Structure prediction by ZEFSAII (Michael W. Deem and Ramdas Pophale) SiO2 
 PCOD9357771
Probable space group: A M M 2
;
_chemical_formula_sum "Si O2"
_cell_formula_units_Z 64
_cell_length_a 20.985128
_cell_length_b 9.071756
_cell_length_c 18.601569
_cell_angle_alpha 90.000000
_cell_angle_beta 90.000000
_cell_angle_gamma 90.000000
_cell_volume 3541.217165
_symmetry_space_group_name_H-M "A M M 2"
_symmetry_group_IT_number 38
_symmetry_cell_setting 'orthorhombic'
loop_
_space_group_symop_operation_xyz
x,y,z
-x,-y,z
-x,y,z
x,-y,z
x,1/2+y,1/2+z
-x,1/2-y,1/2+z
-x,1/2+y,1/2+z
x,1/2-y,1/2+z
loop_
_atom_site_type_symbol
_atom_site_label
_atom_site_fract_x
_atom_site_fract_y
_atom_site_fract_z
Si Si1 0.300272 0.327587 0.098690
Si Si2 0.299653 0.172718 0.771791
Si Si3 0.073506 0.325701 0.614661
Si Si4 0.570892 0.328440 0.773254
Si Si5 0.810646 0.824452 0.010327
Si Si6 0.184964 0.675739 0.855647
Si Si7 0.924977 0.174470 0.766594
Si Si8 0.570910 0.328641 0.598595
O O1 0.292134 0.500000 0.082011
O O2 0.295433 0.310087 0.185198
O O3 0.246709 0.231723 0.060180
O O4 0.370201 0.271213 0.075612
O O5 0.369073 0.231332 0.795790
O O6 0.244133 0.264778 0.808931
O O7 0.292554 0.000000 0.788430
O O8 0.079463 0.500000 0.632648
O O9 0.123487 0.293142 0.552264
O O10 0.087406 0.231788 0.685809
O O11 0.000000 0.299039 0.593395
O O12 0.500000 0.280848 0.797280
O O13 0.579954 0.500000 0.793526
O O14 0.570077 0.324326 0.685919
O O15 0.806139 0.000000 0.998954
O O16 0.808779 0.740384 0.935301
O O17 0.184327 0.500000 0.856069
O O18 0.120789 0.738910 0.819930
O O19 0.000000 0.199657 0.781393
O O20 0.912397 0.000000 0.771266
O O21 0.500000 0.283052 0.574320
O O22 0.581000 0.500000 0.578502
#
# Coordination Sequence:
#
# PCOD9357771 Si02
#       8
#     8   8   8   8   8   8   8   8
#     4  10  20  33  52  79 109 141 179 223 268 318
#     4  10  20  34  54  80 110 143 181 225 270 320
#     4   9  19  37  61  87 112 140 176 217 263 316
#     4   8  14  26  46  74 107 140 176 220 268 317
#     4  11  23  38  56  78 108 145 182 223 270 320
#     4  12  25  39  56  78 108 145 184 226 270 319
#     4  10  21  38  61  87 114 143 176 217 264 315
#     4   8  14  26  46  73 104 137 174 217 265 316
#
# _framework density 18.072882
#
# number of rings (size 3 to 8) (size 9 to 14) (size 15 to 20)
#    0.000    2.250    0.000    4.125    0.000    6.250 
#    0.000    3.750    0.000    0.750    0.000    0.000 
#    0.000    0.000    0.000    0.000    0.000    0.000 
#
# Total GULP energy -178600.373717 kJ/mol
# GULP energy per Si atom -5581.261679 kJ/mol
# Density = 1.803175 g / cm^3
# Si number density = 18.072882 Si / 1000 Ang^3
#
#
#
# Elastic Constant Matrix: (Units=GPa)
#
#
# Indices 1 2 3 4 5 6 
#
# 1 104.5763 76.7990 47.7125 0.0000 0.0000 0.0000
# 2 76.7990 113.1010 50.3180 0.0000 0.0000 0.0000
# 3 47.7125 50.3180 41.5136 0.0000 0.0000 0.0000
# 4 0.0000 0.0000 0.0000 19.6549 0.0000 0.0000
# 5 0.0000 0.0000 0.0000 0.0000 -9.5145 0.0000
# 6 0.0000 0.0000 0.0000 0.0000 0.0000 30.4568
#
#
#
# Elastic Compliance Matrix: (Units=1/GPa)
#
#
# Indices 1 2 3 4 5 6 
#
# 1 0.023345 -0.008497 -0.016532 0.000000 0.000000 0.000000
# 2 -0.008497 0.022282 -0.017242 0.000000 0.000000 0.000000
# 3 -0.016532 -0.017242 0.063988 0.000000 0.000000 0.000000
# 4 0.000000 0.000000 0.000000 0.050878 0.000000 0.000000
# 5 0.000000 0.000000 0.000000 0.000000 -0.105102 0.000000
# 6 0.000000 0.000000 0.000000 0.000000 0.000000 0.032833
#
#
# Mechanical properties :
#
#
# Convention : Reuss Voigt Hill
#
# Bulk Modulus (GPa) = 39.88333 67.64998 53.76665
# Shear Modulus (GPa) = 27.60525 13.74353 20.67439
#
# Velocity S-wave (km/s) = 3.91249 2.76062 3.38590
# Velocity P-wave (km/s) = 6.52120 6.90466 6.71567
#
# Compressibility (1/GPa) = 0.02507313
#
# Stress axis : x y z
#
# Youngs Moduli (GPa) = 42.83549 44.87845 15.62789
#
# Poissons Ratio (x) = 0.38134 0.25836
# Poissons Ratio (y) = 0.36398 0.26946
# Poissons Ratio (z) = 0.70815 0.77381
#
# Static dielectric constant tensor:
#      x y z
#    x 1.623620 0.000000 0.000000 
#    y 0.000000 1.601000 0.000000 
#    z 0.000000 0.000000 1.593650 
# 
# From -- ./inp_files/21541.got.cif
#   From: 2010.05.17/outbox.cif.g08.bks.cpg/sg38_11_cif.got.tgz:21541.got - 2010.06.03 18:07:57.
