data_PCOD9357507
_publ_section_title
;
Structure prediction by ZEFSAII (Michael W. Deem and Ramdas Pophale) SiO2 
 PCOD9357507
Probable space group: A M M 2
;
_chemical_formula_sum "Si O2"
_cell_formula_units_Z 60
_cell_length_a 18.158594
_cell_length_b 7.303812
_cell_length_c 20.298077
_cell_angle_alpha 90.000000
_cell_angle_beta 90.000000
_cell_angle_gamma 90.000000
_cell_volume 2692.072181
_symmetry_space_group_name_H-M "A M M 2"
_symmetry_group_IT_number 38
_symmetry_cell_setting 'orthorhombic'
loop_
_space_group_symop_operation_xyz
x,y,z
-x,-y,z
-x,y,z
x,-y,z
x,1/2+y,1/2+z
-x,1/2-y,1/2+z
-x,1/2+y,1/2+z
x,1/2-y,1/2+z
loop_
_atom_site_type_symbol
_atom_site_label
_atom_site_fract_x
_atom_site_fract_y
_atom_site_fract_z
Si Si1 0.582820 0.276896 0.347210
Si Si2 0.085172 0.222239 0.923085
Si Si3 0.869830 0.276698 0.568633
Si Si4 0.294186 0.282362 0.246874
Si Si5 0.869692 0.276709 0.277631
Si Si6 0.000000 0.750039 0.673196
Si Si7 0.417182 0.276877 0.498741
Si Si8 0.705909 0.217395 0.098901
O O1 0.500000 0.220632 0.327864
O O2 0.583239 0.500000 0.345942
O O3 0.647130 0.211833 0.299460
O O4 0.595300 0.223207 0.422974
O O5 0.119737 0.279661 0.853674
O O6 0.000000 0.275691 0.922957
O O7 0.088257 0.000000 0.923096
O O8 0.119481 0.279633 0.992601
O O9 0.873936 0.500000 0.570901
O O10 0.935262 0.218033 0.616944
O O11 0.789429 0.213850 0.591734
O O12 0.289128 0.500000 0.257470
O O13 0.210649 0.213961 0.254348
O O14 0.320301 0.249256 0.172911
O O15 0.873746 0.500000 0.275408
O O16 0.935251 0.218124 0.229438
O O17 0.500000 0.220592 0.518087
O O18 0.416786 0.500000 0.500034
O O19 0.352853 0.211699 0.546457
O O20 0.711179 0.000000 0.087832
#
# Coordination Sequence:
#
# PCOD9357507 Si02
#       8
#     8   8   8   8   8   4   8   8
#     4   8  15  29  50  76 103 130 163 205 250 293
#     4   9  16  28  44  64  89 113 151 206 249 281
#     4  10  20  31  46  70  96 124 160 203 252 292
#     4  10  20  33  49  74 103 131 164 204 248 297
#     4  10  20  31  46  70  96 124 160 203 252 292
#     4  12  18  30  46  66  96 130 154 190 250 304
#     4   8  15  29  50  76 103 130 163 205 250 293
#     4  10  20  33  49  74 103 131 164 204 248 297
#
# _framework density 22.287665000000001
#
# number of rings (size 3 to 8) (size 9 to 14) (size 15 to 20)
#    0.000    2.533    2.667    1.200    1.867    0.533 
#    0.000    0.000    0.000    0.800    0.000   13.067 
#    0.000    0.000    0.000    0.000    0.000    0.000 
#
# Total GULP energy -167087.808566 kJ/mol
# GULP energy per Si atom -5569.593619 kJ/mol
# Density = 2.223694 g / cm^3
# Si number density = 22.287665 Si / 1000 Ang^3
#
#
#
# Elastic Constant Matrix: (Units=GPa)
#
#
# Indices 1 2 3 4 5 6 
#
# 1 219.4952 9.1062 121.4859 0.0000 0.0000 0.0000
# 2 9.1062 90.5526 -1.2832 0.0000 0.0000 0.0000
# 3 121.4859 -1.2832 182.6122 0.0000 0.0000 0.0000
# 4 0.0000 0.0000 0.0000 -0.3450 0.0000 0.0000
# 5 0.0000 0.0000 0.0000 0.0000 16.0146 0.0000
# 6 0.0000 0.0000 0.0000 0.0000 0.0000 -10.3234
#
#
#
# Elastic Compliance Matrix: (Units=1/GPa)
#
#
# Indices 1 2 3 4 5 6 
#
# 1 0.007269 -0.000800 -0.004841 0.000000 0.000000 0.000000
# 2 -0.000800 0.011132 0.000610 0.000000 0.000000 0.000000
# 3 -0.004841 0.000610 0.008701 0.000000 0.000000 0.000000
# 4 0.000000 0.000000 0.000000 -2.898149 0.000000 0.000000
# 5 0.000000 0.000000 0.000000 0.000000 0.062443 0.000000
# 6 0.000000 0.000000 0.000000 0.000000 0.000000 -0.096867
#
#
# Mechanical properties :
#
#
# Convention : Reuss Voigt Hill
#
# Bulk Modulus (GPa) = 58.68260 83.47532 71.07896
# Shear Modulus (GPa) = -1.73027 25.29263 11.78118
#
# Velocity S-wave (km/s) = -0.88205 3.37237 2.30162
# Velocity P-wave (km/s) = 5.03482 7.25939 6.24693
#
# Compressibility (1/GPa) = 0.01704083
#
# Stress axis : x y z
#
# Youngs Moduli (GPa) = 137.57899 89.82824 114.92891
#
# Poissons Ratio (x) = 0.07182 0.55639
# Poissons Ratio (y) = 0.11000 -0.07012
# Poissons Ratio (z) = 0.66604 -0.05481
#
# Static dielectric constant tensor:
#      x y z
#    x 1.773260 0.000000 0.000000 
#    y 0.000000 1.938750 0.000000 
#    z 0.000000 0.000000 1.741340 
# 
# From -- ./inp_files/18751.got.cif
#   From: 2010.05.17/outbox.cif.g08.bks.cpg/sg38_10_cif.got.tgz:18751.got - 2010.06.03 18:07:57.
