data_PCOD9357596
_publ_section_title
;
Structure prediction by ZEFSAII (Michael W. Deem and Ramdas Pophale) SiO2 
 PCOD9357596
Probable space group: A M M 2
;
_chemical_formula_sum "Si O2"
_cell_formula_units_Z 56
_cell_length_a 13.661026
_cell_length_b 8.982650
_cell_length_c 24.253997
_cell_angle_alpha 90.000000
_cell_angle_beta 90.000000
_cell_angle_gamma 90.000000
_cell_volume 2976.261699
_symmetry_space_group_name_H-M "A M M 2"
_symmetry_group_IT_number 38
_symmetry_cell_setting 'orthorhombic'
loop_
_space_group_symop_operation_xyz
x,y,z
-x,-y,z
-x,y,z
x,-y,z
x,1/2+y,1/2+z
-x,1/2-y,1/2+z
-x,1/2+y,1/2+z
x,1/2-y,1/2+z
loop_
_atom_site_type_symbol
_atom_site_label
_atom_site_fract_x
_atom_site_fract_y
_atom_site_fract_z
Si Si1 0.615789 0.178361 0.366150
Si Si2 0.116438 0.680375 0.684425
Si Si3 0.115489 0.160106 0.496643
Si Si4 0.116288 0.339204 0.399367
Si Si5 0.223694 0.672937 0.288256
Si Si6 0.612779 0.679623 0.993468
Si Si7 0.232785 0.328020 0.575125
O O1 0.500000 0.205344 0.356488
O O2 0.682593 0.255827 0.319670
O O3 0.635629 0.227763 0.429935
O O4 0.631579 0.000000 0.363745
O O5 0.115143 0.500000 0.685324
O O6 0.174808 0.742061 0.737234
O O7 0.184488 0.726968 0.632279
O O8 0.000000 0.727012 0.681479
O O9 0.149878 0.200077 0.435437
O O10 0.144253 0.299519 0.533061
O O11 0.000000 0.148353 0.497335
O O12 0.155652 0.000000 0.515285
O O13 0.157303 0.500000 0.418034
O O14 0.142908 0.323185 0.336345
O O15 0.000000 0.344532 0.405620
O O16 0.243567 0.500000 0.274015
O O17 0.500000 0.721923 0.003765
O O18 0.617971 0.500000 0.993626
O O19 0.680866 0.744270 0.041933
O O20 0.259095 0.500000 0.581490
#
# Coordination Sequence:
#
# PCOD9357596 Si02
#       7
#     8   8   8   8   8   8   8
#     4   9  19  37  60  85 115 151 187 224 272 334
#     4  10  23  42  60  78 106 150 199 239 277 328
#     4  10  20  32  49  76 107 140 179 222 272 332
#     4   9  18  32  49  73 107 141 172 215 275 338
#     4  11  22  35  55  83 111 141 182 233 286 334
#     4   9  19  37  61  89 119 149 183 226 277 333
#     4  11  22  36  56  81 109 144 187 232 279 331
#
# _framework density 18.815549000000001
#
# number of rings (size 3 to 8) (size 9 to 14) (size 15 to 20)
#    0.000    2.143    0.000    3.857    0.000    8.000 
#    0.000    3.571    0.000    0.857    0.000    0.000 
#    0.000    0.000    0.000    0.000    0.000    0.000 
#
# Total GULP energy -155874.277694 kJ/mol
# GULP energy per Si atom -5566.938489 kJ/mol
# Density = 1.877272 g / cm^3
# Si number density = 18.815549 Si / 1000 Ang^3
#
#
#
# Elastic Constant Matrix: (Units=GPa)
#
#
# Indices 1 2 3 4 5 6 
#
# 1 122.2380 25.9918 48.8264 0.0000 0.0000 0.0000
# 2 25.9918 23.2728 27.4011 0.0000 0.0000 0.0000
# 3 48.8264 27.4011 117.9039 0.0000 0.0000 0.0000
# 4 0.0000 0.0000 0.0000 26.1033 0.0000 0.0000
# 5 0.0000 0.0000 0.0000 0.0000 34.9141 0.0000
# 6 0.0000 0.0000 0.0000 0.0000 0.0000 27.8538
#
#
#
# Elastic Compliance Matrix: (Units=1/GPa)
#
#
# Indices 1 2 3 4 5 6 
#
# 1 0.011194 -0.009697 -0.002382 0.000000 0.000000 0.000000
# 2 -0.009697 0.067556 -0.011684 0.000000 0.000000 0.000000
# 3 -0.002382 -0.011684 0.012183 0.000000 0.000000 0.000000
# 4 0.000000 0.000000 0.000000 0.038309 0.000000 0.000000
# 5 0.000000 0.000000 0.000000 0.000000 0.028642 0.000000
# 6 0.000000 0.000000 0.000000 0.000000 0.000000 0.035902
#
#
# Mechanical properties :
#
#
# Convention : Reuss Voigt Hill
#
# Bulk Modulus (GPa) = 23.03825 51.98370 37.51098
# Shear Modulus (GPa) = 19.54785 28.52060 24.03423
#
# Velocity S-wave (km/s) = 3.22673 3.89755 3.57789
# Velocity P-wave (km/s) = 5.11402 6.92406 6.08670
#
# Compressibility (1/GPa) = 0.04340608
#
# Stress axis : x y z
#
# Youngs Moduli (GPa) = 89.33167 14.80254 82.07901
#
# Poissons Ratio (x) = 0.14355 0.19552
# Poissons Ratio (y) = 0.86629 0.95903
# Poissons Ratio (z) = 0.21279 0.17296
#
# Static dielectric constant tensor:
#      x y z
#    x 1.684570 0.000000 0.000000 
#    y 0.000000 1.687520 0.000000 
#    z 0.000000 0.000000 1.667520 
# 
# From -- ./inp_files/21033.got.cif
#   From: 2010.05.17/outbox.cif.g08.bks.cpg/sg38_11_cif.got.tgz:21033.got - 2010.06.03 18:07:57.
