data_PCOD9357836
_publ_section_title
;
Structure prediction by ZEFSAII (Michael W. Deem and Ramdas Pophale) SiO2 
 PCOD9357836
Probable space group: A M M 2
;
_chemical_formula_sum "Si O2"
_cell_formula_units_Z 64
_cell_length_a 18.507443
_cell_length_b 9.113796
_cell_length_c 21.425225
_cell_angle_alpha 90.000000
_cell_angle_beta 90.000000
_cell_angle_gamma 90.000000
_cell_volume 3613.858262
_symmetry_space_group_name_H-M "A M M 2"
_symmetry_group_IT_number 38
_symmetry_cell_setting 'orthorhombic'
loop_
_space_group_symop_operation_xyz
x,y,z
-x,-y,z
-x,y,z
x,-y,z
x,1/2+y,1/2+z
-x,1/2-y,1/2+z
-x,1/2+y,1/2+z
x,1/2-y,1/2+z
loop_
_atom_site_type_symbol
_atom_site_label
_atom_site_fract_x
_atom_site_fract_y
_atom_site_fract_z
Si Si1 0.412750 0.829061 0.181360
Si Si2 0.083182 0.178796 0.186634
Si Si3 0.664135 0.176290 0.565284
Si Si4 0.820231 0.677729 0.568652
Si Si5 0.912069 0.668879 0.823504
Si Si6 0.412007 0.830604 0.808692
Si Si7 0.083618 0.175990 0.949647
Si Si8 0.414430 0.174893 0.436057
O O1 0.500000 0.820818 0.178740
O O2 0.380252 0.742277 0.123123
O O3 0.389173 0.758475 0.247258
O O4 0.391851 0.000000 0.178652
O O5 0.134652 0.220525 0.130157
O O6 0.109518 0.226888 0.255238
O O7 0.000000 0.226148 0.176478
O O8 0.081526 0.000000 0.188819
O O9 0.743669 0.244008 0.567224
O O10 0.626791 0.215756 0.499272
O O11 0.665577 0.000000 0.569666
O O12 0.811578 0.500000 0.569221
O O13 0.866987 0.718078 0.507806
O O14 0.888789 0.500000 0.830042
O O15 0.890049 0.758649 0.884128
O O16 0.000000 0.669541 0.821836
O O17 0.500000 0.826451 0.809136
O O18 0.388794 0.758255 0.873954
O O19 0.389815 0.000000 0.804635
O O20 0.000000 0.222616 0.959659
O O21 0.083640 0.000000 0.945665
O O22 0.500000 0.204746 0.444481
O O23 0.406624 0.000000 0.426148
#
# Coordination Sequence:
#
# PCOD9357836 Si02
#       8
#     8   8   8   8   8   8   8   8
#     4  10  20  35  57  82 106 134 170 211 254 304
#     4   8  14  28  52  77  97 124 167 212 251 297
#     4  11  23  37  52  73 105 142 177 215 258 304
#     4  10  20  34  51  71  98 133 172 213 254 299
#     4   8  14  26  47  74  99 122 154 200 250 300
#     4   9  17  30  52  82 110 132 160 205 257 305
#     4   9  17  30  50  75 100 127 161 203 252 304
#     4   9  18  34  55  76  99 131 171 212 254 302
#
# _framework density 17.709605
#
# number of rings (size 3 to 8) (size 9 to 14) (size 15 to 20)
#    0.000    2.750    0.000    2.625    0.000    5.750 
#    0.000    3.125    0.000    6.375    0.000    0.000 
#    0.000    0.000    0.000    0.000    0.000    0.000 
#
# Total GULP energy -178416.801793 kJ/mol
# GULP energy per Si atom -5575.525056 kJ/mol
# Density = 1.766930 g / cm^3
# Si number density = 17.709605 Si / 1000 Ang^3
#
#
#
# Elastic Constant Matrix: (Units=GPa)
#
#
# Indices 1 2 3 4 5 6 
#
# 1 43.8203 33.4378 56.6739 0.0000 0.0000 0.0000
# 2 33.4378 53.5299 68.5695 0.0000 0.0000 0.0000
# 3 56.6739 68.5695 195.2266 0.0000 0.0000 0.0000
# 4 0.0000 0.0000 0.0000 34.3656 0.0000 0.0000
# 5 0.0000 0.0000 0.0000 0.0000 -3.5273 0.0000
# 6 0.0000 0.0000 0.0000 0.0000 0.0000 20.9605
#
#
#
# Elastic Compliance Matrix: (Units=1/GPa)
#
#
# Indices 1 2 3 4 5 6 
#
# 1 0.047283 -0.021729 -0.006094 0.000000 0.000000 0.000000
# 2 -0.021729 0.043946 -0.009127 0.000000 0.000000 0.000000
# 3 -0.006094 -0.009127 0.010097 0.000000 0.000000 0.000000
# 4 0.000000 0.000000 0.000000 0.029099 0.000000 0.000000
# 5 0.000000 0.000000 0.000000 0.000000 -0.283505 0.000000
# 6 0.000000 0.000000 0.000000 0.000000 0.000000 0.047709
#
#
# Mechanical properties :
#
#
# Convention : Reuss Voigt Hill
#
# Bulk Modulus (GPa) = 36.46323 67.77104 52.11714
# Shear Modulus (GPa) = -223.93160 19.28615 -102.32273
#
# Velocity S-wave (km/s) = -11.25704 3.30361 -7.60944
# Velocity P-wave (km/s) = 12.17896 7.27343 6.90739
#
# Compressibility (1/GPa) = 0.02742489
#
# Stress axis : x y z
#
# Youngs Moduli (GPa) = 21.14919 22.75521 99.03791
#
# Poissons Ratio (x) = 0.49445 0.60356
# Poissons Ratio (y) = 0.45956 0.90394
# Poissons Ratio (z) = 0.12889 0.20769
#
# Static dielectric constant tensor:
#      x y z
#    x 1.578240 0.000000 0.000000 
#    y 0.000000 1.595130 0.000000 
#    z 0.000000 0.000000 1.600720 
# 
# From -- ./inp_files/23082.got.cif
#   From: 2010.05.17/outbox.cif.g08.bks.cpg/sg38_12_cif.got.tgz:23082.got - 2010.06.03 18:07:57.
