data_PCOD9357008
_publ_section_title
;
Structure prediction by ZEFSAII (Michael W. Deem and Ramdas Pophale) SiO2 
 PCOD9357008
Probable space group: A M M 2
;
_chemical_formula_sum "Si O2"
_cell_formula_units_Z 40
_cell_length_a 9.411394
_cell_length_b 7.579819
_cell_length_c 30.031236
_cell_angle_alpha 90.000000
_cell_angle_beta 90.000000
_cell_angle_gamma 90.000000
_cell_volume 2142.328164
_symmetry_space_group_name_H-M "A M M 2"
_symmetry_group_IT_number 38
_symmetry_cell_setting 'orthorhombic'
loop_
_space_group_symop_operation_xyz
x,y,z
-x,-y,z
-x,y,z
x,-y,z
x,1/2+y,1/2+z
-x,1/2-y,1/2+z
-x,1/2+y,1/2+z
x,1/2-y,1/2+z
loop_
_atom_site_type_symbol
_atom_site_label
_atom_site_fract_x
_atom_site_fract_y
_atom_site_fract_z
Si Si1 0.336786 0.215183 0.319070
Si Si2 0.329797 0.000000 0.564910
Si Si3 0.831393 0.791891 0.230343
Si Si4 0.334842 0.797383 0.994501
Si Si5 0.163277 0.713803 0.905737
Si Si6 0.169600 0.000000 0.657944
O O1 0.500000 0.273678 0.319946
O O2 0.257155 0.264450 0.273644
O O3 0.250832 0.274410 0.362560
O O4 0.336879 0.000000 0.319964
O O5 0.292708 0.831748 0.534357
O O6 0.251232 0.000000 0.611667
O O7 0.500000 0.000000 0.571913
O O8 0.796302 0.670620 0.188227
O O9 0.000000 0.771126 0.239700
O O10 0.805432 0.000000 0.221986
O O11 0.500000 0.756580 0.982956
O O12 0.326880 0.000000 0.008720
O O13 0.240079 0.770393 0.950944
O O14 0.163306 0.500000 0.905138
O O15 0.000000 0.772689 0.904066
O O16 0.000000 0.000000 0.649987
#
# Coordination Sequence:
#
# PCOD9357008 Si02
#       6
#     8   4   8   8   8   4
#     4   9  17  30  52  81 112 149 189 227 273 330
#     4  10  22  40  60  82 112 146 182 234 289 336
#     4   9  18  35  56  78 109 145 182 228 278 327
#     4  10  21  38  59  82 110 146 188 233 283 336
#     4  10  19  32  54  83 115 152 190 229 277 333
#     4  10  22  38  58  84 110 142 186 232 281 336
#
# _framework density 18.671275000000001
#
# number of rings (size 3 to 8) (size 9 to 14) (size 15 to 20)
#    0.000    2.400    1.000    1.200    0.000    6.000 
#    1.800    0.000    0.000    0.000    0.000    0.000 
#    0.000    0.000    0.000    0.000    0.000    0.000 
#
# Total GULP energy -111691.431099 kJ/mol
# GULP energy per Si atom -5584.571555 kJ/mol
# Density = 1.862878 g / cm^3
# Si number density = 18.671275 Si / 1000 Ang^3
#
#
#
# Elastic Constant Matrix: (Units=GPa)
#
#
# Indices 1 2 3 4 5 6 
#
# 1 110.8708 51.8348 110.8649 0.0000 0.0000 0.0000
# 2 51.8348 80.6572 69.3172 0.0000 0.0000 0.0000
# 3 110.8649 69.3172 207.4313 0.0000 0.0000 0.0000
# 4 0.0000 0.0000 0.0000 -35.3178 0.0000 0.0000
# 5 0.0000 0.0000 0.0000 0.0000 44.8008 0.0000
# 6 0.0000 0.0000 0.0000 0.0000 0.0000 13.1395
#
#
#
# Elastic Compliance Matrix: (Units=1/GPa)
#
#
# Indices 1 2 3 4 5 6 
#
# 1 0.020914 -0.005379 -0.009380 0.000000 0.000000 0.000000
# 2 -0.005379 0.018777 -0.003400 0.000000 0.000000 0.000000
# 3 -0.009380 -0.003400 0.010970 0.000000 0.000000 0.000000
# 4 0.000000 0.000000 0.000000 -0.028314 0.000000 0.000000
# 5 0.000000 0.000000 0.000000 0.000000 0.022321 0.000000
# 6 0.000000 0.000000 0.000000 0.000000 0.000000 0.076106
#
#
# Mechanical properties :
#
#
# Convention : Reuss Voigt Hill
#
# Bulk Modulus (GPa) = 69.71996 95.88814 82.80405
# Shear Modulus (GPa) = 30.88821 15.65398 23.27109
#
# Velocity S-wave (km/s) = 4.07174 2.89865 3.53421
# Velocity P-wave (km/s) = 7.71539 7.91646 7.81657
#
# Compressibility (1/GPa) = 0.01434309
#
# Stress axis : x y z
#
# Youngs Moduli (GPa) = 47.81403 53.25729 91.15371
#
# Poissons Ratio (x) = 0.28648 0.85506
# Poissons Ratio (y) = 0.25720 0.30989
# Poissons Ratio (z) = 0.44852 0.18106
#
# Static dielectric constant tensor:
#      x y z
#    x 1.631330 0.000000 0.000000 
#    y 0.000000 1.678570 0.000000 
#    z 0.000000 0.000000 1.583970 
# 
# From -- ./inp_files/23195.got.cif
#   From: 2010.05.17/outbox.cif.g08.bks.cpg/sg38_12_cif.got.tgz:23195.got - 2010.06.03 18:07:57.
