data_PCOD9357910
_publ_section_title
;
Structure prediction by ZEFSAII (Michael W. Deem and Ramdas Pophale) SiO2 
 PCOD9357910
Probable space group: A M M 2
;
_chemical_formula_sum "Si O2"
_cell_formula_units_Z 64
_cell_length_a 8.946523
_cell_length_b 25.711937
_cell_length_c 15.174683
_cell_angle_alpha 90.000000
_cell_angle_beta 90.000000
_cell_angle_gamma 90.000000
_cell_volume 3490.669292
_symmetry_space_group_name_H-M "A M M 2"
_symmetry_group_IT_number 38
_symmetry_cell_setting 'orthorhombic'
loop_
_space_group_symop_operation_xyz
x,y,z
-x,-y,z
-x,y,z
x,-y,z
x,1/2+y,1/2+z
-x,1/2-y,1/2+z
-x,1/2+y,1/2+z
x,1/2-y,1/2+z
loop_
_atom_site_type_symbol
_atom_site_label
_atom_site_fract_x
_atom_site_fract_y
_atom_site_fract_z
Si Si1 0.178726 0.391827 0.779120
Si Si2 0.325283 0.766464 0.508399
Si Si3 0.818184 0.058127 0.095322
Si Si4 0.822128 0.865640 0.596792
Si Si5 0.821705 0.825378 0.779459
Si Si6 0.326410 0.716675 0.797331
Si Si7 0.677478 0.061420 0.455133
Si Si8 0.819779 0.657199 0.482230
O O1 0.222856 0.426413 0.695027
O O2 0.234888 0.333077 0.765656
O O3 0.249242 0.413803 0.868370
O O4 0.000000 0.392223 0.786640
O O5 0.500000 0.767809 0.532877
O O6 0.233758 0.810350 0.559210
O O7 0.314403 0.779937 0.404016
O O8 0.257659 0.708989 0.519798
O O9 0.000000 0.057419 0.091976
O O10 0.765584 0.000000 0.073087
O O11 0.770701 0.104787 0.031241
O O12 0.786804 0.864870 0.700734
O O13 0.742373 0.909834 0.540375
O O14 0.000000 0.869852 0.585163
O O15 0.738335 0.771029 0.763483
O O16 0.785267 0.844570 0.877796
O O17 0.000000 0.815411 0.777031
O O18 0.500000 0.711005 0.774252
O O19 0.500000 0.070030 0.451059
O O20 0.707473 0.000000 0.457510
O O21 0.000000 0.662526 0.491721
#
# Coordination Sequence:
#
# PCOD9357910 Si02
#       8
#     8   8   8   8   8   8   8   8
#     4  11  21  34  56  84 115 150 188 235 282 337
#     4  10  20  34  53  80 113 146 184 228 277 337
#     4   9  19  35  56  83 111 143 188 236 283 333
#     4  11  22  36  57  84 114 149 190 236 285 337
#     4   9  20  36  55  82 115 148 188 233 282 338
#     4  10  20  34  53  80 115 152 187 225 276 337
#     4  11  24  41  59  81 113 152 193 237 287 347
#     4   9  18  36  59  81 110 147 187 233 282 333
#
# _framework density 18.334593999999999
#
# number of rings (size 3 to 8) (size 9 to 14) (size 15 to 20)
#    0.000    2.000    1.250    2.250    1.750    3.500 
#    0.000    1.250    0.000    4.125    0.000    0.000 
#    0.000    0.000    0.000    0.000    0.000    0.000 
#
# Total GULP energy -178731.382574 kJ/mol
# GULP energy per Si atom -5585.355705 kJ/mol
# Density = 1.829286 g / cm^3
# Si number density = 18.334594 Si / 1000 Ang^3
#
#
#
# Elastic Constant Matrix: (Units=GPa)
#
#
# Indices 1 2 3 4 5 6 
#
# 1 38.4877 43.1327 32.2190 0.0000 0.0000 0.0000
# 2 43.1327 105.5742 35.6738 0.0000 0.0000 0.0000
# 3 32.2190 35.6738 55.6410 0.0000 0.0000 0.0000
# 4 0.0000 0.0000 0.0000 27.1059 0.0000 0.0000
# 5 0.0000 0.0000 0.0000 0.0000 9.0921 0.0000
# 6 0.0000 0.0000 0.0000 0.0000 0.0000 24.3708
#
#
#
# Elastic Compliance Matrix: (Units=1/GPa)
#
#
# Indices 1 2 3 4 5 6 
#
# 1 0.072870 -0.019804 -0.029499 0.000000 0.000000 0.000000
# 2 -0.019804 0.017474 0.000264 0.000000 0.000000 0.000000
# 3 -0.029499 0.000264 0.034884 0.000000 0.000000 0.000000
# 4 0.000000 0.000000 0.000000 0.036892 0.000000 0.000000
# 5 0.000000 0.000000 0.000000 0.000000 0.109985 0.000000
# 6 0.000000 0.000000 0.000000 0.000000 0.000000 0.041033
#
#
# Mechanical properties :
#
#
# Convention : Reuss Voigt Hill
#
# Bulk Modulus (GPa) = 36.82988 46.86154 41.84571
# Shear Modulus (GPa) = 11.89725 18.02559 14.96142
#
# Velocity S-wave (km/s) = 2.55011 3.13892 2.85971
# Velocity P-wave (km/s) = 5.36675 6.22508 5.81178
#
# Compressibility (1/GPa) = 0.02715187
#
# Stress axis : x y z
#
# Youngs Moduli (GPa) = 13.72302 57.22931 28.66631
#
# Poissons Ratio (x) = 1.13335 0.84562
# Poissons Ratio (y) = 0.27177 -0.00758
# Poissons Ratio (z) = 0.40481 -0.01513
#
# Static dielectric constant tensor:
#      x y z
#    x 1.611620 0.000000 0.000000 
#    y 0.000000 1.600880 0.000000 
#    z 0.000000 0.000000 1.647270 
# 
# From -- ./inp_files/12714.got.cif
#   From: 2010.05.17/outbox.cif.g08.bks.cpg/sg38_7_cif.got.tgz:12714.got - 2010.06.03 18:07:57.
