data_PCOD9357782
_publ_section_title
;
Structure prediction by ZEFSAII (Michael W. Deem and Ramdas Pophale) SiO2 
 PCOD9357782
Probable space group: A M M 2
;
_chemical_formula_sum "Si O2"
_cell_formula_units_Z 40
_cell_length_a 8.256673
_cell_length_b 7.529782
_cell_length_c 29.207337
_cell_angle_alpha 90.000000
_cell_angle_beta 90.000000
_cell_angle_gamma 90.000000
_cell_volume 1815.847822
_symmetry_space_group_name_H-M "A M M 2"
_symmetry_group_IT_number 38
_symmetry_cell_setting 'orthorhombic'
loop_
_space_group_symop_operation_xyz
x,y,z
-x,-y,z
-x,y,z
x,-y,z
x,1/2+y,1/2+z
-x,1/2-y,1/2+z
-x,1/2+y,1/2+z
x,1/2-y,1/2+z
loop_
_atom_site_type_symbol
_atom_site_label
_atom_site_fract_x
_atom_site_fract_y
_atom_site_fract_z
Si Si1 0.000000 0.714099 0.897730
Si Si2 0.674479 0.208510 0.744337
Si Si3 0.819585 0.785098 0.150575
Si Si4 0.000000 0.712679 0.290349
Si Si5 0.312352 0.785994 0.054189
Si Si6 0.314906 0.207881 0.450593
O O1 0.000000 0.754082 0.844195
O O2 0.833248 0.782691 0.920797
O O3 0.000000 0.500000 0.904219
O O4 0.500000 0.285823 0.757516
O O5 0.698675 0.223892 0.689789
O O6 0.835060 0.285349 0.767831
O O7 0.670287 0.000000 0.756074
O O8 0.781685 0.724401 0.099116
O O9 0.000000 0.727574 0.163828
O O10 0.814386 0.000000 0.150114
O O11 0.000000 0.500000 0.282163
O O12 0.500000 0.737046 0.060663
O O13 0.301055 0.000000 0.052816
O O14 0.264916 0.721365 0.003976
O O15 0.500000 0.282196 0.446118
O O16 0.327900 0.000000 0.439018
#
# Coordination Sequence:
#
# PCOD9357782 Si02
#       6
#     4   8   8   4   8   8
#     4  10  22  38  57  80 105 135 174 221 271 322
#     4  10  21  38  59  81 108 143 181 222 270 322
#     4  10  20  33  52  81 115 148 183 222 264 315
#     4  10  22  40  57  80 109 135 172 225 275 324
#     4   9  18  32  50  76 110 144 179 218 258 306
#     4   9  19  36  55  77 107 140 176 218 262 312
#
# _framework density 22.028276000000002
#
# number of rings (size 3 to 8) (size 9 to 14) (size 15 to 20)
#    0.000    2.400    1.000    0.600    1.400    4.400 
#    0.000    2.000    0.000    0.000    0.000    0.000 
#    0.000    0.000    0.000    0.000    0.000    0.000 
#
# Total GULP energy -111639.848004 kJ/mol
# GULP energy per Si atom -5581.992400 kJ/mol
# Density = 2.197814 g / cm^3
# Si number density = 22.028276 Si / 1000 Ang^3
#
#
#
# Elastic Constant Matrix: (Units=GPa)
#
#
# Indices 1 2 3 4 5 6 
#
# 1 184.9302 11.5968 92.8732 0.0000 0.0000 0.0000
# 2 11.5968 53.5823 -9.1999 0.0000 0.0000 0.0000
# 3 92.8732 -9.1999 117.3847 0.0000 0.0000 0.0000
# 4 0.0000 0.0000 0.0000 25.3653 0.0000 0.0000
# 5 0.0000 0.0000 0.0000 0.0000 -3.5679 0.0000
# 6 0.0000 0.0000 0.0000 0.0000 0.0000 2.0092
#
#
#
# Elastic Compliance Matrix: (Units=1/GPa)
#
#
# Indices 1 2 3 4 5 6 
#
# 1 0.009550 -0.003410 -0.007823 0.000000 0.000000 0.000000
# 2 -0.003410 0.020135 0.004276 0.000000 0.000000 0.000000
# 3 -0.007823 0.004276 0.015044 0.000000 0.000000 0.000000
# 4 0.000000 0.000000 0.000000 0.039424 0.000000 0.000000
# 5 0.000000 0.000000 0.000000 0.000000 -0.280276 0.000000
# 6 0.000000 0.000000 0.000000 0.000000 0.000000 0.497711
#
#
# Mechanical properties :
#
#
# Convention : Reuss Voigt Hill
#
# Bulk Modulus (GPa) = 32.45216 60.71527 46.58371
# Shear Modulus (GPa) = 15.34806 22.13646 18.74226
#
# Velocity S-wave (km/s) = 2.64245 3.17347 2.92006
# Velocity P-wave (km/s) = 4.90654 6.40704 5.70632
#
# Compressibility (1/GPa) = 0.03081459
#
# Stress axis : x y z
#
# Youngs Moduli (GPa) = 104.71009 49.66440 66.47265
#
# Poissons Ratio (x) = 0.16936 0.52003
# Poissons Ratio (y) = 0.35708 -0.28425
# Poissons Ratio (z) = 0.81917 -0.21237
#
# Static dielectric constant tensor:
#      x y z
#    x 1.839860 0.000000 0.000000 
#    y 0.000000 1.822730 0.000000 
#    z 0.000000 0.000000 1.752860 
# 
# From -- ./inp_files/23187.got.cif
#   From: 2010.05.17/outbox.cif.g08.bks.cpg/sg38_12_cif.got.tgz:23187.got - 2010.06.03 18:07:57.
