data_PCOD9357103
_publ_section_title
;
Structure prediction by ZEFSAII (Michael W. Deem and Ramdas Pophale) SiO2 
 PCOD9357103
Probable space group: A M M 2
;
_chemical_formula_sum "Si O2"
_cell_formula_units_Z 40
_cell_length_a 13.257515
_cell_length_b 7.455988
_cell_length_c 18.947253
_cell_angle_alpha 90.000000
_cell_angle_beta 90.000000
_cell_angle_gamma 90.000000
_cell_volume 1872.895654
_symmetry_space_group_name_H-M "A M M 2"
_symmetry_group_IT_number 38
_symmetry_cell_setting 'orthorhombic'
loop_
_space_group_symop_operation_xyz
x,y,z
-x,-y,z
-x,y,z
x,-y,z
x,1/2+y,1/2+z
-x,1/2-y,1/2+z
-x,1/2+y,1/2+z
x,1/2-y,1/2+z
loop_
_atom_site_type_symbol
_atom_site_label
_atom_site_fract_x
_atom_site_fract_y
_atom_site_fract_z
Si Si1 0.697178 0.779656 0.597930
Si Si2 0.113442 0.783776 0.345123
Si Si3 0.500000 0.787955 0.515455
Si Si4 0.500000 0.783220 0.849658
Si Si5 0.886457 0.218525 0.507016
Si Si6 0.687943 0.789322 0.758068
O O1 0.601390 0.718984 0.552231
O O2 0.799990 0.721524 0.559951
O O3 0.688510 0.717456 0.678561
O O4 0.698900 0.000000 0.597981
O O5 0.133543 0.725983 0.425992
O O6 0.203223 0.728117 0.294206
O O7 0.000000 0.723537 0.325469
O O8 0.112113 0.000000 0.345400
O O9 0.500000 0.764852 0.431705
O O10 0.500000 0.000000 0.529450
O O11 0.599862 0.717132 0.808802
O O12 0.500000 0.000000 0.848238
O O13 0.000000 0.274712 0.526050
O O14 0.885902 0.000000 0.506921
O O15 0.665751 0.000000 0.750792
#
# Coordination Sequence:
#
# PCOD9357103 Si02
#       6
#     8   8   4   4   8   8
#     4   9  17  29  47  72  97 121 157 204 245 283
#     4   9  18  33  52  74 101 131 165 208 252 292
#     4  10  19  33  55  75  91 122 170 212 244 288
#     4  10  21  35  49  71 105 136 162 200 252 302
#     4   8  14  26  45  68  93 121 155 197 240 279
#     4  10  20  33  50  73 103 135 164 201 251 302
#
# _framework density 21.357303000000002
#
# number of rings (size 3 to 8) (size 9 to 14) (size 15 to 20)
#    0.000    2.800    0.000    3.000    0.000    6.000 
#    0.000    3.000    0.000    2.400    0.000    0.000 
#    0.000    0.000    0.000    0.000    0.000    0.000 
#
# Total GULP energy -111684.823882 kJ/mol
# GULP energy per Si atom -5584.241194 kJ/mol
# Density = 2.130869 g / cm^3
# Si number density = 21.357303 Si / 1000 Ang^3
#
#
#
# Elastic Constant Matrix: (Units=GPa)
#
#
# Indices 1 2 3 4 5 6 
#
# 1 189.4853 -6.6262 141.8661 0.0000 0.0000 0.0000
# 2 -6.6262 57.3149 -6.8015 0.0000 0.0000 0.0000
# 3 141.8661 -6.8015 193.7220 0.0000 0.0000 0.0000
# 4 0.0000 0.0000 0.0000 -162.9507 0.0000 0.0000
# 5 0.0000 0.0000 0.0000 0.0000 -8.0953 0.0000
# 6 0.0000 0.0000 0.0000 0.0000 0.0000 4.5727
#
#
#
# Elastic Compliance Matrix: (Units=1/GPa)
#
#
# Indices 1 2 3 4 5 6 
#
# 1 0.011690 0.000337 -0.008549 0.000000 0.000000 0.000000
# 2 0.000337 0.017530 0.000369 0.000000 0.000000 0.000000
# 3 -0.008549 0.000369 0.011435 0.000000 0.000000 0.000000
# 4 0.000000 0.000000 0.000000 -0.006137 0.000000 0.000000
# 5 0.000000 0.000000 0.000000 0.000000 -0.123529 0.000000
# 6 0.000000 0.000000 0.000000 0.000000 0.000000 0.218687
#
#
# Mechanical properties :
#
#
# Convention : Reuss Voigt Hill
#
# Bulk Modulus (GPa) = 40.04944 77.48878 58.76911
# Shear Modulus (GPa) = 32.53398 -12.48905 10.02247
#
# Velocity S-wave (km/s) = 3.90721 -2.42082 2.16863
# Velocity P-wave (km/s) = 6.25682 5.34294 5.81785
#
# Compressibility (1/GPa) = 0.02496914
#
# Stress axis : x y z
#
# Youngs Moduli (GPa) = 85.54679 57.04442 87.44867
#
# Poissons Ratio (x) = -0.01922 0.74756
# Poissons Ratio (y) = -0.02883 -0.03224
# Poissons Ratio (z) = 0.73131 -0.02103
#
# Static dielectric constant tensor:
#      x y z
#    x 1.745530 0.000000 0.000000 
#    y 0.000000 1.835410 0.000000 
#    z 0.000000 0.000000 1.721900 
# 
# From -- ./inp_files/14296.got.cif
#   From: 2010.05.17/outbox.cif.g08.bks.cpg/sg38_8_cif.got.tgz:14296.got - 2010.06.03 18:07:57.
