data_PCOD9357173
_publ_section_title
;
Structure prediction by ZEFSAII (Michael W. Deem and Ramdas Pophale) SiO2 
 PCOD9357173
Probable space group: A M M 2
;
_chemical_formula_sum "Si O2"
_cell_formula_units_Z 40
_cell_length_a 17.124547
_cell_length_b 8.598534
_cell_length_c 14.870852
_cell_angle_alpha 90.000000
_cell_angle_beta 90.000000
_cell_angle_gamma 90.000000
_cell_volume 2189.673468
_symmetry_space_group_name_H-M "A M M 2"
_symmetry_group_IT_number 38
_symmetry_cell_setting 'orthorhombic'
loop_
_space_group_symop_operation_xyz
x,y,z
-x,-y,z
-x,y,z
x,-y,z
x,1/2+y,1/2+z
-x,1/2-y,1/2+z
-x,1/2+y,1/2+z
x,1/2-y,1/2+z
loop_
_atom_site_type_symbol
_atom_site_label
_atom_site_fract_x
_atom_site_fract_y
_atom_site_fract_z
Si Si1 0.910610 0.684391 0.401660
Si Si2 0.500000 0.686850 0.400534
Si Si3 0.621442 0.688132 0.042454
Si Si4 0.911113 0.816182 0.204395
Si Si5 0.801423 0.815111 0.551375
Si Si6 0.500000 0.188783 0.693588
O O1 0.902769 0.500000 0.416670
O O2 0.900167 0.724367 0.297104
O O3 0.848241 0.773692 0.461319
O O4 0.000000 0.729165 0.425510
O O5 0.500000 0.500000 0.400380
O O6 0.425483 0.745796 0.457228
O O7 0.500000 0.742617 0.296784
O O8 0.618000 0.500000 0.037197
O O9 0.711455 0.736214 0.045382
O O10 0.574650 0.735153 0.133010
O O11 0.848317 0.766265 0.131468
O O12 0.000000 0.785033 0.171701
O O13 0.905585 0.000000 0.222518
O O14 0.802269 0.000000 0.566139
O O15 0.500000 0.000000 0.696907
#
# Coordination Sequence:
#
# PCOD9357173 Si02
#       6
#     8   4   8   8   8   4
#     4  10  21  37  56  78 107 146 189 231 276 325
#     4  10  19  33  58  85 104 133 177 222 266 314
#     4   9  20  38  55  76 109 144 175 212 264 326
#     4  10  21  37  56  79 109 145 185 230 278 327
#     4  11  22  35  55  82 111 146 185 226 274 325
#     4   8  16  35  58  75 100 137 171 206 256 316
#
# _framework density 18.267562999999999
#
# number of rings (size 3 to 8) (size 9 to 14) (size 15 to 20)
#    0.000    2.200    0.000    3.300    0.000    8.000 
#    0.000    6.000    0.000    0.000    0.000    0.000 
#    0.000    0.000    0.000    0.000    0.000    0.000 
#
# Total GULP energy -111649.836024 kJ/mol
# GULP energy per Si atom -5582.491801 kJ/mol
# Density = 1.822598 g / cm^3
# Si number density = 18.267563 Si / 1000 Ang^3
#
#
#
# Elastic Constant Matrix: (Units=GPa)
#
#
# Indices 1 2 3 4 5 6 
#
# 1 144.1637 20.3660 64.9430 0.0000 0.0000 0.0000
# 2 20.3660 22.0201 6.0175 0.0000 0.0000 0.0000
# 3 64.9430 6.0175 111.4356 0.0000 0.0000 0.0000
# 4 0.0000 0.0000 0.0000 33.6738 0.0000 0.0000
# 5 0.0000 0.0000 0.0000 0.0000 43.7988 0.0000
# 6 0.0000 0.0000 0.0000 0.0000 0.0000 27.3761
#
#
#
# Elastic Compliance Matrix: (Units=1/GPa)
#
#
# Indices 1 2 3 4 5 6 
#
# 1 0.010728 -0.008337 -0.005802 0.000000 0.000000 0.000000
# 2 -0.008337 0.052571 0.002020 0.000000 0.000000 0.000000
# 3 -0.005802 0.002020 0.012246 0.000000 0.000000 0.000000
# 4 0.000000 0.000000 0.000000 0.029697 0.000000 0.000000
# 5 0.000000 0.000000 0.000000 0.000000 0.022832 0.000000
# 6 0.000000 0.000000 0.000000 0.000000 0.000000 0.036528
#
#
# Mechanical properties :
#
#
# Convention : Reuss Voigt Hill
#
# Bulk Modulus (GPa) = 19.49029 51.14137 35.31583
# Shear Modulus (GPa) = 24.27865 33.38925 28.83395
#
# Velocity S-wave (km/s) = 3.64958 4.27990 3.97725
# Velocity P-wave (km/s) = 5.33402 7.24430 6.36128
#
# Compressibility (1/GPa) = 0.05130759
#
# Stress axis : x y z
#
# Youngs Moduli (GPa) = 93.21480 19.02174 81.65937
#
# Poissons Ratio (x) = 0.15858 0.47378
# Poissons Ratio (y) = 0.77709 -0.16492
# Poissons Ratio (z) = 0.54082 -0.03842
#
# Static dielectric constant tensor:
#      x y z
#    x 1.612690 0.000000 0.000000 
#    y 0.000000 1.618400 0.000000 
#    z 0.000000 0.000000 1.606530 
# 
# From -- ./inp_files/14276.got.cif
#   From: 2010.05.17/outbox.cif.g08.bks.cpg/sg38_8_cif.got.tgz:14276.got - 2010.06.03 18:07:57.
