data_PCOD9357342
_publ_section_title
;
Structure prediction by ZEFSAII (Michael W. Deem and Ramdas Pophale) SiO2 
 PCOD9357342
Probable space group: A M M 2
;
_chemical_formula_sum "Si O2"
_cell_formula_units_Z 48
_cell_length_a 7.611053
_cell_length_b 29.509714
_cell_length_c 10.538219
_cell_angle_alpha 90.000000
_cell_angle_beta 90.000000
_cell_angle_gamma 90.000000
_cell_volume 2366.883959
_symmetry_space_group_name_H-M "A M M 2"
_symmetry_group_IT_number 38
_symmetry_cell_setting 'orthorhombic'
loop_
_space_group_symop_operation_xyz
x,y,z
-x,-y,z
-x,y,z
x,-y,z
x,1/2+y,1/2+z
-x,1/2-y,1/2+z
-x,1/2+y,1/2+z
x,1/2-y,1/2+z
loop_
_atom_site_type_symbol
_atom_site_label
_atom_site_fract_x
_atom_site_fract_y
_atom_site_fract_z
Si Si1 0.792109 0.144900 0.897580
Si Si2 0.711065 0.949961 0.295767
Si Si3 0.293883 0.802784 0.643734
Si Si4 0.211251 0.949472 0.997945
Si Si5 0.287667 0.200258 0.152535
Si Si6 0.284302 0.643920 0.899142
O O1 0.719922 0.171200 0.776376
O O2 0.721519 0.093927 0.920648
O O3 0.000000 0.141422 0.878202
O O4 0.760373 0.173536 0.025262
O O5 0.500000 0.951157 0.308025
O O6 0.775769 0.907557 0.376817
O O7 0.779591 0.000000 0.329115
O O8 0.749644 0.942017 0.146939
O O9 0.500000 0.796855 0.615047
O O10 0.220565 0.751871 0.650912
O O11 0.222063 0.832725 0.528200
O O12 0.000000 0.950217 0.984998
O O13 0.277207 0.000000 0.964077
O O14 0.500000 0.201247 0.158857
O O15 0.228782 0.173448 0.277582
O O16 0.500000 0.642989 0.899944
#
# Coordination Sequence:
#
# PCOD9357342 Si02
#       6
#     8   8   8   8   8   8
#     4  11  22  35  53  80 110 139 174 220 267 307
#     4   9  16  28  50  77 101 127 165 217 267 306
#     4  10  21  36  54  75 105 144 179 211 255 315
#     4   9  18  33  52  74 102 137 175 213 257 312
#     4  10  19  35  58  78  99 135 182 220 256 310
#     4   9  17  31  51  76 101 128 169 217 258 303
#
# _framework density 20.27983
#
# number of rings (size 3 to 8) (size 9 to 14) (size 15 to 20)
#    0.000    2.333    1.667    1.500    0.000    4.000 
#    0.000    2.500    0.000    1.000    0.000    0.000 
#    0.000    0.000    0.000    0.000    0.000    0.000 
#
# Total GULP energy -133964.882739 kJ/mol
# GULP energy per Si atom -5581.870114 kJ/mol
# Density = 2.023367 g / cm^3
# Si number density = 20.279830 Si / 1000 Ang^3
#
#
#
# Elastic Constant Matrix: (Units=GPa)
#
#
# Indices 1 2 3 4 5 6 
#
# 1 40.5303 2.4619 -11.0046 0.0000 0.0000 0.0000
# 2 2.4619 191.1956 62.8801 0.0000 0.0000 0.0000
# 3 -11.0046 62.8801 100.0676 0.0000 0.0000 0.0000
# 4 0.0000 0.0000 0.0000 8.4740 0.0000 0.0000
# 5 0.0000 0.0000 0.0000 0.0000 77.2778 0.0000
# 6 0.0000 0.0000 0.0000 0.0000 0.0000 -19.1142
#
#
#
# Elastic Compliance Matrix: (Units=1/GPa)
#
#
# Indices 1 2 3 4 5 6 
#
# 1 0.025813 -0.001596 0.003841 0.000000 0.000000 0.000000
# 2 -0.001596 0.006691 -0.004380 0.000000 0.000000 0.000000
# 3 0.003841 -0.004380 0.013168 0.000000 0.000000 0.000000
# 4 0.000000 0.000000 0.000000 0.118008 0.000000 0.000000
# 5 0.000000 0.000000 0.000000 0.000000 0.012940 0.000000
# 6 0.000000 0.000000 0.000000 0.000000 0.000000 -0.052317
#
#
# Mechanical properties :
#
#
# Convention : Reuss Voigt Hill
#
# Bulk Modulus (GPa) = 24.15269 48.94091 36.54680
# Shear Modulus (GPa) = 35.11885 31.82461 33.47173
#
# Velocity S-wave (km/s) = 4.16590 3.96570 4.06703
# Velocity P-wave (km/s) = 5.92243 6.71969 6.33362
#
# Compressibility (1/GPa) = 0.04140326
#
# Stress axis : x y z
#
# Youngs Moduli (GPa) = 38.74045 149.44711 75.94121
#
# Poissons Ratio (x) = 0.23848 -0.29172
# Poissons Ratio (y) = 0.06182 0.33263
# Poissons Ratio (z) = -0.14882 0.65460
#
# Static dielectric constant tensor:
#      x y z
#    x 1.738010 0.000000 0.000000 
#    y 0.000000 1.725080 0.000000 
#    z 0.000000 0.000000 1.660650 
# 
# From -- ./inp_files/3757.got.cif
#   From: 2010.05.17/outbox.cif.g08.bks.cpg/sg38_2_cif.got.tgz:3757.got - 2010.06.03 18:07:57.
