data_PCOD9357989
_publ_section_title
;
Structure prediction by ZEFSAII (Michael W. Deem and Ramdas Pophale) SiO2 
 PCOD9357989
Probable space group: A M M 2
;
_chemical_formula_sum "Si O2"
_cell_formula_units_Z 48
_cell_length_a 7.830586
_cell_length_b 29.304631
_cell_length_c 10.619615
_cell_angle_alpha 90.000000
_cell_angle_beta 90.000000
_cell_angle_gamma 90.000000
_cell_volume 2436.908894
_symmetry_space_group_name_H-M "A M M 2"
_symmetry_group_IT_number 38
_symmetry_cell_setting 'orthorhombic'
loop_
_space_group_symop_operation_xyz
x,y,z
-x,-y,z
-x,y,z
x,-y,z
x,1/2+y,1/2+z
-x,1/2-y,1/2+z
-x,1/2+y,1/2+z
x,1/2-y,1/2+z
loop_
_atom_site_type_symbol
_atom_site_label
_atom_site_fract_x
_atom_site_fract_y
_atom_site_fract_z
Si Si1 0.797143 0.855192 0.164910
Si Si2 0.791374 0.948783 0.054131
Si Si3 0.704503 0.853851 0.664963
Si Si4 0.703209 0.303233 0.917291
Si Si5 0.707086 0.800716 0.912547
Si Si6 0.205621 0.949287 0.763219
O O1 0.731189 0.906481 0.137778
O O2 0.729224 0.830848 0.289092
O O3 0.000000 0.858142 0.179052
O O4 0.758253 0.825412 0.041171
O O5 0.000000 0.948365 0.054817
O O6 0.738205 0.000000 0.091597
O O7 0.738493 0.941334 0.908367
O O8 0.500000 0.848455 0.665053
O O9 0.772375 0.830399 0.538325
O O10 0.769922 0.828625 0.790766
O O11 0.740163 0.907383 0.677622
O O12 0.500000 0.298774 0.935672
O O13 0.769638 0.251489 0.908812
O O14 0.500000 0.800470 0.908192
O O15 0.000000 0.949969 0.765124
O O16 0.264644 0.000000 0.725425
#
# Coordination Sequence:
#
# PCOD9357989 Si02
#       6
#     8   8   8   8   8   8
#     4  11  21  34  56  85 111 138 175 225 272 309
#     4   8  15  30  52  77 105 137 171 210 263 322
#     4  10  20  34  55  81 106 139 182 225 263 303
#     4  10  22  39  55  74 109 152 184 213 260 324
#     4  10  20  37  59  78 102 143 187 220 260 318
#     4   9  17  32  55  79 105 139 175 215 268 325
#
# _framework density 19.697082999999999
#
# number of rings (size 3 to 8) (size 9 to 14) (size 15 to 20)
#    0.000    2.333    1.667    2.500    0.000    4.333 
#    0.000    2.500    0.000    5.000    0.000    0.000 
#    0.000    0.000    0.000    0.000    0.000    0.000 
#
# Total GULP energy -133949.184323 kJ/mol
# GULP energy per Si atom -5581.216013 kJ/mol
# Density = 1.965225 g / cm^3
# Si number density = 19.697083 Si / 1000 Ang^3
#
#
#
# Elastic Constant Matrix: (Units=GPa)
#
#
# Indices 1 2 3 4 5 6 
#
# 1 19.2566 -3.7508 -7.6483 0.0000 0.0000 0.0000
# 2 -3.7508 177.5606 71.6597 0.0000 0.0000 0.0000
# 3 -7.6483 71.6597 114.0083 0.0000 0.0000 0.0000
# 4 0.0000 0.0000 0.0000 -1.4899 0.0000 0.0000
# 5 0.0000 0.0000 0.0000 0.0000 2.8817 0.0000
# 6 0.0000 0.0000 0.0000 0.0000 0.0000 15.0120
#
#
#
# Elastic Compliance Matrix: (Units=1/GPa)
#
#
# Indices 1 2 3 4 5 6 
#
# 1 0.053376 -0.000426 0.003848 0.000000 0.000000 0.000000
# 2 -0.000426 0.007549 -0.004774 0.000000 0.000000 0.000000
# 3 0.003848 -0.004774 0.012030 0.000000 0.000000 0.000000
# 4 0.000000 0.000000 0.000000 -0.671170 0.000000 0.000000
# 5 0.000000 0.000000 0.000000 0.000000 0.347023 0.000000
# 6 0.000000 0.000000 0.000000 0.000000 0.000000 0.066613
#
#
# Mechanical properties :
#
#
# Convention : Reuss Voigt Hill
#
# Bulk Modulus (GPa) = 14.23428 47.92742 31.08085
# Shear Modulus (GPa) = -31.55392 19.98507 -5.78443
#
# Velocity S-wave (km/s) = -4.00679 3.18877 -1.71554
# Velocity P-wave (km/s) = 3.76345 6.15977 3.44813
#
# Compressibility (1/GPa) = 0.07025296
#
# Stress axis : x y z
#
# Youngs Moduli (GPa) = 18.73513 132.45945 83.12554
#
# Poissons Ratio (x) = 0.05637 -0.31989
# Poissons Ratio (y) = 0.00797 0.39682
# Poissons Ratio (z) = -0.07210 0.63233
#
# Static dielectric constant tensor:
#      x y z
#    x 1.723240 0.000000 0.000000 
#    y 0.000000 1.707390 0.000000 
#    z 0.000000 0.000000 1.658340 
# 
# From -- ./inp_files/3725.got.cif
#   From: 2010.05.17/outbox.cif.g08.bks.cpg/sg38_2_cif.got.tgz:3725.got - 2010.06.03 18:07:57.
