data_PCOD9357982
_publ_section_title
;
Structure prediction by ZEFSAII (Michael W. Deem and Ramdas Pophale) SiO2 
 PCOD9357982
Probable space group: A M M 2
;
_chemical_formula_sum "Si O2"
_cell_formula_units_Z 58
_cell_length_a 7.420950
_cell_length_b 24.268876
_cell_length_c 14.224744
_cell_angle_alpha 90.000000
_cell_angle_beta 90.000000
_cell_angle_gamma 90.000000
_cell_volume 2561.849586
_symmetry_space_group_name_H-M "A M M 2"
_symmetry_group_IT_number 38
_symmetry_cell_setting 'orthorhombic'
loop_
_space_group_symop_operation_xyz
x,y,z
-x,-y,z
-x,y,z
x,-y,z
x,1/2+y,1/2+z
-x,1/2-y,1/2+z
-x,1/2+y,1/2+z
x,1/2-y,1/2+z
loop_
_atom_site_type_symbol
_atom_site_label
_atom_site_fract_x
_atom_site_fract_y
_atom_site_fract_z
Si Si1 0.000000 0.000000 0.689190
Si Si2 0.707665 0.410001 0.241869
Si Si3 0.282981 0.334942 0.785897
Si Si4 0.278970 0.657125 0.573159
Si Si5 0.282280 0.437756 0.448267
Si Si6 0.295804 0.748814 0.939145
Si Si7 0.783369 0.349348 0.072334
Si Si8 0.214675 0.936986 0.420280
O O1 0.156633 0.047461 0.694634
O O2 0.500000 0.428522 0.239368
O O3 0.761744 0.407273 0.350871
O O4 0.725810 0.355514 0.179805
O O5 0.500000 0.330665 0.786333
O O6 0.219204 0.331351 0.678928
O O7 0.213906 0.285156 0.852007
O O8 0.244073 0.394328 0.834259
O O9 0.500000 0.660153 0.573865
O O10 0.224626 0.596690 0.538057
O O11 0.214712 0.698989 0.492409
O O12 0.500000 0.440397 0.452361
O O13 0.213503 0.500000 0.442437
O O14 0.500000 0.764675 0.911609
O O15 0.298598 0.702839 0.020843
O O16 0.000000 0.345436 0.065700
O O17 0.720803 0.402860 0.011698
O O18 0.000000 0.941997 0.432305
O O19 0.283692 0.000000 0.410684
#
# Coordination Sequence:
#
# PCOD9357982 Si02
#       8
#     2   8   8   8   8   8   8   8
#     4  12  22  36  56  82 124 162 202 252 290 354
#     4  11  22  36  58  85 119 164 203 242 300 354
#     4   9  18  33  53  78 106 139 183 237 284 334
#     4   9  18  33  57  82 108 146 189 238 295 353
#     4   9  18  33  53  80 111 146 190 238 290 353
#     4   9  18  34  54  79 109 143 191 242 292 355
#     4  10  20  34  55  79 113 152 191 242 294 344
#     4   9  19  33  52  74 107 147 182 222 285 343
#
# _framework density 22.639894000000002
#
# number of rings (size 3 to 8) (size 9 to 14) (size 15 to 20)
#    0.000    2.483    1.379    0.621    0.966    2.483 
#    0.000    6.207    3.034    1.655    0.000    0.000 
#    0.000    0.000    0.000    0.000    0.000    0.000 
#
# Total GULP energy -161583.495005 kJ/mol
# GULP energy per Si atom -5571.844655 kJ/mol
# Density = 2.258836 g / cm^3
# Si number density = 22.639894 Si / 1000 Ang^3
#
#
#
# Elastic Constant Matrix: (Units=GPa)
#
#
# Indices 1 2 3 4 5 6 
#
# 1 91.9241 -5.2976 -9.0115 0.0000 0.0000 0.0000
# 2 -5.2976 68.6818 62.7391 0.0000 0.0000 0.0000
# 3 -9.0115 62.7391 125.5154 0.0000 0.0000 0.0000
# 4 0.0000 0.0000 0.0000 -17.5900 0.0000 0.0000
# 5 0.0000 0.0000 0.0000 0.0000 102.7238 0.0000
# 6 0.0000 0.0000 0.0000 0.0000 0.0000 -2.5417
#
#
#
# Elastic Compliance Matrix: (Units=1/GPa)
#
#
# Indices 1 2 3 4 5 6 
#
# 1 0.010958 0.000233 0.000670 0.000000 0.000000 0.000000
# 2 0.000233 0.026799 -0.013379 0.000000 0.000000 0.000000
# 3 0.000670 -0.013379 0.014703 0.000000 0.000000 0.000000
# 4 0.000000 0.000000 0.000000 -0.056850 0.000000 0.000000
# 5 0.000000 0.000000 0.000000 0.000000 0.009735 0.000000
# 6 0.000000 0.000000 0.000000 0.000000 0.000000 -0.393431
#
#
# Mechanical properties :
#
#
# Convention : Reuss Voigt Hill
#
# Bulk Modulus (GPa) = 36.35286 42.55349 39.45317
# Shear Modulus (GPa) = -14.12564 32.36448 9.11942
#
# Velocity S-wave (km/s) = -2.50056 3.78502 2.00917
# Velocity P-wave (km/s) = 2.78474 6.15942 4.77981
#
# Compressibility (1/GPa) = 0.02750815
#
# Stress axis : x y z
#
# Youngs Moduli (GPa) = 91.26030 37.31469 68.01464
#
# Poissons Ratio (x) = -0.00869 -0.04559
# Poissons Ratio (y) = -0.02125 0.90996
# Poissons Ratio (z) = -0.06117 0.49923
#
# Static dielectric constant tensor:
#      x y z
#    x 1.846910 0.000000 0.000000 
#    y 0.000000 1.851950 0.000000 
#    z 0.000000 0.000000 1.839540 
# 
# From -- ./inp_files/12975.got.cif
#   From: 2010.05.17/outbox.cif.g08.bks.cpg/sg38_7_cif.got.tgz:12975.got - 2010.06.03 18:07:57.
