data_PCOD9357827
_publ_section_title
;
Structure prediction by ZEFSAII (Michael W. Deem and Ramdas Pophale) SiO2 
 PCOD9357827
Probable space group: A M M 2
;
_chemical_formula_sum "Si O2"
_cell_formula_units_Z 34
_cell_length_a 14.769343
_cell_length_b 12.817608
_cell_length_c 6.912392
_cell_angle_alpha 90.000000
_cell_angle_beta 90.000000
_cell_angle_gamma 90.000000
_cell_volume 1308.568678
_symmetry_space_group_name_H-M "A M M 2"
_symmetry_group_IT_number 38
_symmetry_cell_setting 'orthorhombic'
loop_
_space_group_symop_operation_xyz
x,y,z
-x,-y,z
-x,y,z
x,-y,z
x,1/2+y,1/2+z
-x,1/2-y,1/2+z
-x,1/2+y,1/2+z
x,1/2-y,1/2+z
loop_
_atom_site_type_symbol
_atom_site_label
_atom_site_fract_x
_atom_site_fract_y
_atom_site_fract_z
Si Si1 0.838692 0.846126 0.987260
Si Si2 0.638982 0.112740 0.867578
Si Si3 0.598409 0.155523 0.310508
Si Si4 0.000000 0.500000 0.384584
Si Si5 0.797454 0.886054 0.431977
O O1 0.747505 0.871573 0.868169
O O2 0.843239 0.720175 0.005890
O O3 0.921582 0.908033 0.899959
O O4 0.823061 0.885432 0.204995
O O5 0.599486 0.219197 0.786397
O O6 0.613882 0.000000 0.787320
O O7 0.611739 0.112995 0.094421
O O8 0.500000 0.123983 0.385723
O O9 0.687877 0.126390 0.432078
O O10 0.824255 0.000000 0.508982
#
# Coordination Sequence:
#
# PCOD9357827 Si02
#       5
#     8   8   8   2   8
#     4  10  21  39  65  88 118 160 194 251 301 353
#     4  10  20  39  58  81 121 159 193 243 305 342
#     4  10  20  33  58  90 117 157 206 240 283 357
#     4  12  20  40  70  90 118 152 208 248 300 368
#     4  10  21  42  61  86 126 161 195 242 309 349
#
# _framework density 25.982586999999999
#
# number of rings (size 3 to 8) (size 9 to 14) (size 15 to 20)
#    0.000    1.882    2.353    2.824    0.000    4.235 
#    2.118   12.941    0.000   11.294    0.000    0.000 
#    0.000    0.000    0.000    0.000    0.000    0.000 
#
# Total GULP energy -95013.842441 kJ/mol
# GULP energy per Si atom -5589.049555 kJ/mol
# Density = 2.592345 g / cm^3
# Si number density = 25.982587 Si / 1000 Ang^3
#
#
#
# Elastic Constant Matrix: (Units=GPa)
#
#
# Indices 1 2 3 4 5 6 
#
# 1 179.2335 58.5802 13.4824 0.0000 0.0000 0.0000
# 2 58.5802 310.8711 36.0799 0.0000 0.0000 0.0000
# 3 13.4824 36.0799 64.7361 0.0000 0.0000 0.0000
# 4 0.0000 0.0000 0.0000 58.2441 0.0000 0.0000
# 5 0.0000 0.0000 0.0000 0.0000 -100.0450 0.0000
# 6 0.0000 0.0000 0.0000 0.0000 0.0000 20.7734
#
#
#
# Elastic Compliance Matrix: (Units=1/GPa)
#
#
# Indices 1 2 3 4 5 6 
#
# 1 0.005972 -0.001049 -0.000659 0.000000 0.000000 0.000000
# 2 -0.001049 0.003623 -0.001801 0.000000 0.000000 0.000000
# 3 -0.000659 -0.001801 0.016588 0.000000 0.000000 0.000000
# 4 0.000000 0.000000 0.000000 0.017169 0.000000 0.000000
# 5 0.000000 0.000000 0.000000 0.000000 -0.009996 0.000000
# 6 0.000000 0.000000 0.000000 0.000000 0.000000 0.048138
#
#
# Mechanical properties :
#
#
# Convention : Reuss Voigt Hill
#
# Bulk Modulus (GPa) = 52.17709 85.68065 68.92887
# Shear Modulus (GPa) = 52.68589 25.57438 39.13014
#
# Velocity S-wave (km/s) = 4.50793 3.14074 3.88495
# Velocity P-wave (km/s) = 6.87171 6.79707 6.83449
#
# Compressibility (1/GPa) = 0.01916550
#
# Stress axis : x y z
#
# Youngs Moduli (GPa) = 167.45692 275.98145 60.28303
#
# Poissons Ratio (x) = 0.28945 0.03974
# Poissons Ratio (y) = 0.17563 0.10857
# Poissons Ratio (z) = 0.11038 0.49706
#
# Static dielectric constant tensor:
#      x y z
#    x 1.960790 0.000000 0.000000 
#    y 0.000000 1.995790 0.000000 
#    z 0.000000 0.000000 2.096080 
# 
# From -- ./inp_files/5096.got.cif
#   From: 2010.05.17/outbox.cif.g08.bks.cpg/sg38_3_cif.got.tgz:5096.got - 2010.06.03 18:07:57.
