data_PCOD9357383
_publ_section_title
;
Structure prediction by ZEFSAII (Michael W. Deem and Ramdas Pophale) SiO2 
 PCOD9357383
Probable space group: A M M 2
;
_chemical_formula_sum "Si O2"
_cell_formula_units_Z 58
_cell_length_a 7.593507
_cell_length_b 20.428800
_cell_length_c 16.196816
_cell_angle_alpha 90.000000
_cell_angle_beta 90.000000
_cell_angle_gamma 90.000000
_cell_volume 2512.551098
_symmetry_space_group_name_H-M "A M M 2"
_symmetry_group_IT_number 38
_symmetry_cell_setting 'orthorhombic'
loop_
_space_group_symop_operation_xyz
x,y,z
-x,-y,z
-x,y,z
x,-y,z
x,1/2+y,1/2+z
-x,1/2-y,1/2+z
-x,1/2+y,1/2+z
x,1/2-y,1/2+z
loop_
_atom_site_type_symbol
_atom_site_label
_atom_site_fract_x
_atom_site_fract_y
_atom_site_fract_z
Si Si1 0.207377 0.571735 0.536660
Si Si2 0.700173 0.161320 0.178248
Si Si3 0.284681 0.073073 0.676936
Si Si4 0.500000 0.000000 0.375763
Si Si5 0.807255 0.102107 0.338321
Si Si6 0.284572 0.709581 0.101774
Si Si7 0.287528 0.881326 0.857524
Si Si8 0.286595 0.239540 0.415665
O O1 0.271908 0.500000 0.562554
O O2 0.299630 0.628533 0.588066
O O3 0.234595 0.579847 0.439229
O O4 0.000000 0.576488 0.553529
O O5 0.500000 0.166888 0.209351
O O6 0.793903 0.111323 0.239431
O O7 0.772732 0.234601 0.166754
O O8 0.500000 0.072737 0.674743
O O9 0.228638 0.135915 0.623418
O O10 0.229025 0.087866 0.771193
O O11 0.228067 0.000000 0.651315
O O12 0.346174 0.943289 0.371421
O O13 0.780386 0.175799 0.369730
O O14 0.000000 0.078462 0.361746
O O15 0.500000 0.710520 0.104077
O O16 0.230023 0.732246 0.010878
O O17 0.500000 0.880685 0.854307
O O18 0.227797 0.806849 0.873372
O O19 0.500000 0.239336 0.414570
#
# Coordination Sequence:
#
# PCOD9357383 Si02
#       8
#     8   8   8   2   8   8   8   8
#     4  11  24  37  53  85 127 167 212 270 334 402
#     4  11  21  40  64  91 126 170 220 273 330 397
#     4   9  17  30  52  88 123 157 208 267 323 387
#     4  12  26  52  68  94 132 176 222 284 336 398
#     4  12  26  44  69  99 131 175 225 275 337 404
#     4   9  18  34  60  90 127 169 217 269 328 396
#     4  10  19  35  61  87 122 166 213 268 322 395
#     4  10  19  39  62  92 126 166 220 273 331 389
#
# _framework density 23.084105999999998
#
# number of rings (size 3 to 8) (size 9 to 14) (size 15 to 20)
#    0.000    1.655    2.759    2.276    0.966    4.414 
#    1.241    0.000    0.000    0.828    0.000    0.000 
#    0.000    0.000    0.000    0.000    0.000    0.000 
#
# Total GULP energy -161912.855730 kJ/mol
# GULP energy per Si atom -5583.201922 kJ/mol
# Density = 2.303157 g / cm^3
# Si number density = 23.084106 Si / 1000 Ang^3
#
#
#
# Elastic Constant Matrix: (Units=GPa)
#
#
# Indices 1 2 3 4 5 6 
#
# 1 94.4203 19.9347 -7.6860 0.0000 0.0000 0.0000
# 2 19.9347 153.4959 -9.2068 0.0000 0.0000 0.0000
# 3 -7.6860 -9.2068 13.5942 0.0000 0.0000 0.0000
# 4 0.0000 0.0000 0.0000 14.8810 0.0000 0.0000
# 5 0.0000 0.0000 0.0000 0.0000 63.3191 0.0000
# 6 0.0000 0.0000 0.0000 0.0000 0.0000 -23.8240
#
#
#
# Elastic Compliance Matrix: (Units=1/GPa)
#
#
# Indices 1 2 3 4 5 6 
#
# 1 0.011286 -0.001129 0.005617 0.000000 0.000000 0.000000
# 2 -0.001129 0.006904 0.004037 0.000000 0.000000 0.000000
# 3 0.005617 0.004037 0.079470 0.000000 0.000000 0.000000
# 4 0.000000 0.000000 0.000000 0.067200 0.000000 0.000000
# 5 0.000000 0.000000 0.000000 0.000000 0.015793 0.000000
# 6 0.000000 0.000000 0.000000 0.000000 0.000000 -0.041974
#
#
# Mechanical properties :
#
#
# Convention : Reuss Voigt Hill
#
# Bulk Modulus (GPa) = 8.71760 29.73269 19.22514
# Shear Modulus (GPa) = 31.27628 28.10645 29.69137
#
# Velocity S-wave (km/s) = 3.68487 3.49315 3.59029
# Velocity P-wave (km/s) = 4.67857 5.40163 5.05305
#
# Compressibility (1/GPa) = 0.11471050
#
# Stress axis : x y z
#
# Youngs Moduli (GPa) = 88.60146 144.85191 12.58330
#
# Poissons Ratio (x) = 0.16352 -0.07068
# Poissons Ratio (y) = 0.10002 -0.05080
# Poissons Ratio (z) = -0.49764 -0.58480
#
# Static dielectric constant tensor:
#      x y z
#    x 1.702260 0.000000 0.000000 
#    y 0.000000 1.860210 0.000000 
#    z 0.000000 0.000000 1.890340 
# 
# From -- ./inp_files/17008.got.cif
#   From: 2010.05.17/outbox.cif.g08.bks.cpg/sg38_9_cif.got.tgz:17008.got - 2010.06.03 18:07:57.
