data_PCOD9357442
_publ_section_title
;
Structure prediction by ZEFSAII (Michael W. Deem and Ramdas Pophale) SiO2 
 PCOD9357442
Probable space group: A M M 2
;
_chemical_formula_sum "Si O2"
_cell_formula_units_Z 48
_cell_length_a 8.764429
_cell_length_b 18.607011
_cell_length_c 15.338406
_cell_angle_alpha 90.000000
_cell_angle_beta 90.000000
_cell_angle_gamma 90.000000
_cell_volume 2501.384594
_symmetry_space_group_name_H-M "A M M 2"
_symmetry_group_IT_number 38
_symmetry_cell_setting 'orthorhombic'
loop_
_space_group_symop_operation_xyz
x,y,z
-x,-y,z
-x,y,z
x,-y,z
x,1/2+y,1/2+z
-x,1/2-y,1/2+z
-x,1/2+y,1/2+z
x,1/2-y,1/2+z
loop_
_atom_site_type_symbol
_atom_site_label
_atom_site_fract_x
_atom_site_fract_y
_atom_site_fract_z
Si Si1 0.820221 0.000000 0.582600
Si Si2 0.184917 0.500000 0.280926
Si Si3 0.676424 0.395541 0.950229
Si Si4 0.818535 0.731398 0.696020
Si Si5 0.684560 0.079302 0.253031
Si Si6 0.677709 0.234944 0.006751
Si Si7 0.684525 0.153240 0.835551
O O1 0.761026 0.000000 0.680304
O O2 0.766934 0.068270 0.527800
O O3 0.000000 0.000000 0.588134
O O4 0.249017 0.425965 0.319887
O O5 0.000000 0.500000 0.285385
O O6 0.500000 0.416589 0.960397
O O7 0.726965 0.420246 0.855244
O O8 0.684530 0.310425 0.956445
O O9 0.760880 0.650294 0.714834
O O10 0.770080 0.743693 0.595749
O O11 0.744511 0.789508 0.762883
O O12 0.000000 0.736085 0.705901
O O13 0.500000 0.086948 0.247604
O O14 0.724335 0.000000 0.216522
O O15 0.500000 0.220582 0.029892
O O16 0.728164 0.178192 0.933622
O O17 0.500000 0.153141 0.830600
#
# Coordination Sequence:
#
# PCOD9357442 Si02
#       7
#     4   4   8   8   8   8   8
#     4  11  23  35  53  88 129 162 195 243 308 382
#     4  11  25  43  61  92 131 166 205 259 326 378
#     4  10  19  36  61  88 117 153 201 253 302 356
#     4  12  25  40  63  95 131 166 204 258 322 380
#     4  10  20  39  64  89 121 161 206 255 304 365
#     4  10  22  41  66  91 118 160 216 262 303 369
#     4  11  23  44  70  93 122 167 219 265 310 371
#
# _framework density 19.189371000000001
#
# number of rings (size 3 to 8) (size 9 to 14) (size 15 to 20)
#    0.000    1.333    2.500    3.500    0.000    7.000 
#    1.500    0.000    0.000    0.000    0.000    0.000 
#    0.000    0.000    0.000    0.000    0.000    0.000 
#
# Total GULP energy -134002.571409 kJ/mol
# GULP energy per Si atom -5583.440475 kJ/mol
# Density = 1.914569 g / cm^3
# Si number density = 19.189371 Si / 1000 Ang^3
#
#
#
# Elastic Constant Matrix: (Units=GPa)
#
#
# Indices 1 2 3 4 5 6 
#
# 1 54.5397 30.1222 20.9054 0.0000 0.0000 0.0000
# 2 30.1222 123.4018 26.1645 0.0000 0.0000 0.0000
# 3 20.9054 26.1645 61.3333 0.0000 0.0000 0.0000
# 4 0.0000 0.0000 0.0000 -0.2850 0.0000 0.0000
# 5 0.0000 0.0000 0.0000 0.0000 -283.2095 0.0000
# 6 0.0000 0.0000 0.0000 0.0000 0.0000 24.1974
#
#
#
# Elastic Compliance Matrix: (Units=1/GPa)
#
#
# Indices 1 2 3 4 5 6 
#
# 1 0.023037 -0.004352 -0.005996 0.000000 0.000000 0.000000
# 2 -0.004352 0.009732 -0.002668 0.000000 0.000000 0.000000
# 3 -0.005996 -0.002668 0.019486 0.000000 0.000000 0.000000
# 4 0.000000 0.000000 0.000000 -3.508811 0.000000 0.000000
# 5 0.000000 0.000000 0.000000 0.000000 -0.003531 0.000000
# 6 0.000000 0.000000 0.000000 0.000000 0.000000 0.041327
#
#
# Mechanical properties :
#
#
# Convention : Reuss Voigt Hill
#
# Bulk Modulus (GPa) = 38.13393 43.73989 40.93691
# Shear Modulus (GPa) = -1.47755 -41.05390 -21.26572
#
# Velocity S-wave (km/s) = -0.87844 -4.63039 -3.33258
# Velocity P-wave (km/s) = 4.34588 2.39668 2.56346
#
# Compressibility (1/GPa) = 0.02622336
#
# Stress axis : x y z
#
# Youngs Moduli (GPa) = 43.40839 102.75750 51.31858
#
# Poissons Ratio (x) = 0.44721 0.30768
# Poissons Ratio (y) = 0.18892 0.13692
# Poissons Ratio (z) = 0.26026 0.27417
#
# Static dielectric constant tensor:
#      x y z
#    x 1.747580 0.000000 0.000000 
#    y 0.000000 1.712540 0.000000 
#    z 0.000000 0.000000 1.666940 
# 
# From -- ./inp_files/12080.got.cif
#   From: 2010.05.17/outbox.cif.g08.bks.cpg/sg38_7_cif.got.tgz:12080.got - 2010.06.03 18:07:57.
