data_PCOD9357725
_publ_section_title
;
Structure prediction by ZEFSAII (Michael W. Deem and Ramdas Pophale) SiO2 
 PCOD9357725
Probable space group: A M M 2
;
_chemical_formula_sum "Si O2"
_cell_formula_units_Z 64
_cell_length_a 28.946402
_cell_length_b 8.810748
_cell_length_c 14.503875
_cell_angle_alpha 90.000000
_cell_angle_beta 90.000000
_cell_angle_gamma 90.000000
_cell_volume 3699.060354
_symmetry_space_group_name_H-M "A M M 2"
_symmetry_group_IT_number 38
_symmetry_cell_setting 'orthorhombic'
loop_
_space_group_symop_operation_xyz
x,y,z
-x,-y,z
-x,y,z
x,-y,z
x,1/2+y,1/2+z
-x,1/2-y,1/2+z
-x,1/2+y,1/2+z
x,1/2-y,1/2+z
loop_
_atom_site_type_symbol
_atom_site_label
_atom_site_fract_x
_atom_site_fract_y
_atom_site_fract_z
Si Si1 0.945741 0.318100 0.375000
Si Si2 0.122822 0.182379 0.522736
Si Si3 0.447086 0.183074 0.362881
Si Si4 0.699588 0.318749 0.358960
Si Si5 0.800548 0.681664 0.874361
Si Si6 0.630414 0.183208 0.216799
Si Si7 0.121754 0.817767 0.226419
Si Si8 0.378175 0.683003 0.505513
O O1 0.940114 0.500000 0.375422
O O2 0.919523 0.248144 0.463030
O O3 0.920636 0.250310 0.785220
O O4 0.000000 0.282697 0.376052
O O5 0.168845 0.222012 0.464048
O O6 0.123765 0.250152 0.624580
O O7 0.119421 0.000000 0.525766
O O8 0.500000 0.233389 0.353738
O O9 0.414654 0.227719 0.276584
O O10 0.422114 0.248329 0.453121
O O11 0.446638 0.000000 0.367493
O O12 0.699457 0.500000 0.352664
O O13 0.751232 0.259961 0.371088
O O14 0.674569 0.250249 0.269240
O O15 0.666816 0.274223 0.445247
O O16 0.794201 0.500000 0.874623
O O17 0.832433 0.720238 0.786058
O O18 0.633678 0.000000 0.218564
O O19 0.626295 0.232347 0.111114
O O20 0.117837 0.000000 0.223240
O O21 0.381899 0.500000 0.503961
#
# Coordination Sequence:
#
# PCOD9357725 Si02
#       8
#     8   8   8   8   8   8   8   8
#     4  10  21  37  57  81 109 142 180 221 264 311
#     4  10  21  37  57  81 109 141 177 218 265 317
#     4   9  18  32  50  73  99 128 164 205 250 299
#     4  10  20  33  51  76 103 131 167 211 256 301
#     4   9  20  37  54  75 104 138 174 211 257 311
#     4   9  18  34  53  71  98 134 168 205 248 300
#     4  10  21  37  57  80 107 140 178 221 266 315
#     4   9  19  34  51  73  99 130 168 206 248 298
#
# _framework density 17.301691000000002
#
# number of rings (size 3 to 8) (size 9 to 14) (size 15 to 20)
#    0.000    2.500    0.000    2.250    0.000    7.250 
#    0.000    5.000    0.000    0.000    0.000    0.000 
#    0.000    0.000    0.000    0.000    0.000    0.000 
#
# Total GULP energy -178546.458187 kJ/mol
# GULP energy per Si atom -5579.576818 kJ/mol
# Density = 1.726231 g / cm^3
# Si number density = 17.301691 Si / 1000 Ang^3
#
#
#
# Elastic Constant Matrix: (Units=GPa)
#
#
# Indices 1 2 3 4 5 6 
#
# 1 148.4904 48.5161 70.5034 0.0000 0.0000 0.0000
# 2 48.5161 35.2046 42.6038 0.0000 0.0000 0.0000
# 3 70.5034 42.6038 164.6570 0.0000 0.0000 0.0000
# 4 0.0000 0.0000 0.0000 28.2546 0.0000 0.0000
# 5 0.0000 0.0000 0.0000 0.0000 6.0455 0.0000
# 6 0.0000 0.0000 0.0000 0.0000 0.0000 30.8096
#
#
#
# Elastic Compliance Matrix: (Units=1/GPa)
#
#
# Indices 1 2 3 4 5 6 
#
# 1 0.012438 -0.015572 -0.001297 0.000000 0.000000 0.000000
# 2 -0.015572 0.060849 -0.009077 0.000000 0.000000 0.000000
# 3 -0.001297 -0.009077 0.008977 0.000000 0.000000 0.000000
# 4 0.000000 0.000000 0.000000 0.035392 0.000000 0.000000
# 5 0.000000 0.000000 0.000000 0.000000 0.165411 0.000000
# 6 0.000000 0.000000 0.000000 0.000000 0.000000 0.032457
#
#
# Mechanical properties :
#
#
# Convention : Reuss Voigt Hill
#
# Bulk Modulus (GPa) = 32.92281 74.62207 53.77244
# Shear Modulus (GPa) = 13.24363 25.47052 19.35707
#
# Velocity S-wave (km/s) = 2.76968 3.84101 3.34847
# Velocity P-wave (km/s) = 5.41278 7.93062 6.78944
#
# Compressibility (1/GPa) = 0.03037407
#
# Stress axis : x y z
#
# Youngs Moduli (GPa) = 80.40043 16.43403 111.39590
#
# Poissons Ratio (x) = 0.25590 0.14444
# Poissons Ratio (y) = 1.25196 1.01112
# Poissons Ratio (z) = 0.10425 0.14917
#
# Static dielectric constant tensor:
#      x y z
#    x 1.564600 0.000000 0.000000 
#    y 0.000000 1.579640 0.000000 
#    z 0.000000 0.000000 1.568050 
# 
# From -- ./inp_files/15916.got.cif
#   From: 2010.05.17/outbox.cif.g08.bks.cpg/sg38_8_cif.got.tgz:15916.got - 2010.06.03 18:07:57.
