data_PCOD9357644
_publ_section_title
;
Structure prediction by ZEFSAII (Michael W. Deem and Ramdas Pophale) SiO2 
 PCOD9357644
Probable space group: A M M 2
;
_chemical_formula_sum "Si O2"
_cell_formula_units_Z 64
_cell_length_a 7.557169
_cell_length_b 29.506496
_cell_length_c 14.565109
_cell_angle_alpha 90.000000
_cell_angle_beta 90.000000
_cell_angle_gamma 90.000000
_cell_volume 3247.809233
_symmetry_space_group_name_H-M "A M M 2"
_symmetry_group_IT_number 38
_symmetry_cell_setting 'orthorhombic'
loop_
_space_group_symop_operation_xyz
x,y,z
-x,-y,z
-x,y,z
x,-y,z
x,1/2+y,1/2+z
-x,1/2-y,1/2+z
-x,1/2+y,1/2+z
x,1/2-y,1/2+z
loop_
_atom_site_type_symbol
_atom_site_label
_atom_site_fract_x
_atom_site_fract_y
_atom_site_fract_z
Si Si1 0.711110 0.449034 0.031180
Si Si2 0.215945 0.624359 0.670716
Si Si3 0.291918 0.129559 0.662550
Si Si4 0.213643 0.877517 0.379816
Si Si5 0.213025 0.374618 0.376113
Si Si6 0.783904 0.448298 0.520673
Si Si7 0.216502 0.801889 0.024956
Si Si8 0.794099 0.300028 0.015972
O O1 0.500000 0.452288 0.043959
O O2 0.783104 0.500000 0.033376
O O3 0.780076 0.415070 0.110253
O O4 0.742194 0.422969 0.935698
O O5 0.277349 0.623006 0.775357
O O6 0.269421 0.581056 0.609546
O O7 0.270512 0.669098 0.614192
O O8 0.000000 0.624250 0.672063
O O9 0.500000 0.131716 0.643398
O O10 0.266348 0.127301 0.770810
O O11 0.214217 0.173636 0.612646
O O12 0.280937 0.835002 0.440485
O O13 0.000000 0.874716 0.377944
O O14 0.272190 0.419364 0.431552
O O15 0.270509 0.331306 0.436278
O O16 0.000000 0.374790 0.378397
O O17 0.722904 0.500000 0.521193
O O18 0.000000 0.448984 0.520365
O O19 0.281382 0.750408 0.021654
O O20 0.000000 0.801341 0.026658
O O21 0.000000 0.294227 0.991476
#
# Coordination Sequence:
#
# PCOD9357644 Si02
#       8
#     8   8   8   8   8   8   8   8
#     4   9  19  35  50  63  86 122 156 184 222 275
#     4   8  14  25  42  67  97 122 147 183 227 272
#     4  10  20  33  48  67  92 121 153 189 229 271
#     4   9  17  28  45  71  95 114 145 191 232 265
#     4   9  17  30  48  70  94 120 153 190 226 266
#     4   8  14  25  42  66  95 123 150 183 225 271
#     4   8  15  28  47  70  94 122 154 187 223 267
#     4   9  17  30  48  69  93 121 154 190 226 265
#
# _framework density 19.705591999999999
#
# number of rings (size 3 to 8) (size 9 to 14) (size 15 to 20)
#    0.000    3.250    0.000    1.875    0.000    2.750 
#    0.000    5.625    0.000    6.750    0.000    0.000 
#    0.000    0.000    0.000    0.000    0.000    0.000 
#
# Total GULP energy -178406.668968 kJ/mol
# GULP energy per Si atom -5575.208405 kJ/mol
# Density = 1.966074 g / cm^3
# Si number density = 19.705592 Si / 1000 Ang^3
#
#
#
# Elastic Constant Matrix: (Units=GPa)
#
#
# Indices 1 2 3 4 5 6 
#
# 1 44.1058 3.7129 -8.0460 0.0000 0.0000 0.0000
# 2 3.7129 203.9219 87.1170 0.0000 0.0000 0.0000
# 3 -8.0460 87.1170 162.4200 0.0000 0.0000 0.0000
# 4 0.0000 0.0000 0.0000 7.0581 0.0000 0.0000
# 5 0.0000 0.0000 0.0000 0.0000 -91.7980 0.0000
# 6 0.0000 0.0000 0.0000 0.0000 0.0000 -2.3821
#
#
#
# Elastic Compliance Matrix: (Units=1/GPa)
#
#
# Indices 1 2 3 4 5 6 
#
# 1 0.023096 -0.001180 0.001777 0.000000 0.000000 0.000000
# 2 -0.001180 0.006422 -0.003503 0.000000 0.000000 0.000000
# 3 0.001777 -0.003503 0.008124 0.000000 0.000000 0.000000
# 4 0.000000 0.000000 0.000000 0.141682 0.000000 0.000000
# 5 0.000000 0.000000 0.000000 0.000000 -0.010893 0.000000
# 6 0.000000 0.000000 0.000000 0.000000 0.000000 -0.419798
#
#
# Mechanical properties :
#
#
# Convention : Reuss Voigt Hill
#
# Bulk Modulus (GPa) = 31.41645 64.00174 47.70909
# Shear Modulus (GPa) = -21.28141 4.41983 -8.43079
#
# Velocity S-wave (km/s) = -3.28985 1.49927 -2.07067
# Velocity P-wave (km/s) = 1.24366 5.96209 4.30658
#
# Compressibility (1/GPa) = 0.03183046
#
# Stress axis : x y z
#
# Youngs Moduli (GPa) = 43.29712 155.72032 123.09614
#
# Poissons Ratio (x) = 0.18369 -0.21872
# Poissons Ratio (y) = 0.05107 0.43119
# Poissons Ratio (z) = -0.07693 0.54547
#
# Static dielectric constant tensor:
#      x y z
#    x 1.738420 0.000000 0.000000 
#    y 0.000000 1.686760 0.000000 
#    z 0.000000 0.000000 1.660710 
# 
# From -- ./inp_files/13092.got.cif
#   From: 2010.05.17/outbox.cif.g08.bks.cpg/sg38_7_cif.got.tgz:13092.got - 2010.06.03 18:07:57.
