data_PCOD9357145
_publ_section_title
;
Structure prediction by ZEFSAII (Michael W. Deem and Ramdas Pophale) SiO2 
 PCOD9357145
Probable space group: A M M 2
;
_chemical_formula_sum "Si O2"
_cell_formula_units_Z 64
_cell_length_a 24.990915
_cell_length_b 7.608014
_cell_length_c 15.766181
_cell_angle_alpha 90.000000
_cell_angle_beta 90.000000
_cell_angle_gamma 90.000000
_cell_volume 2997.643405
_symmetry_space_group_name_H-M "A M M 2"
_symmetry_group_IT_number 38
_symmetry_cell_setting 'orthorhombic'
loop_
_space_group_symop_operation_xyz
x,y,z
-x,-y,z
-x,y,z
x,-y,z
x,1/2+y,1/2+z
-x,1/2-y,1/2+z
-x,1/2+y,1/2+z
x,1/2-y,1/2+z
loop_
_atom_site_type_symbol
_atom_site_label
_atom_site_fract_x
_atom_site_fract_y
_atom_site_fract_z
Si Si1 0.136200 0.292398 0.847710
Si Si2 0.061297 0.214811 0.197237
Si Si3 0.327390 0.294769 0.024158
Si Si4 0.256726 0.283964 0.869828
Si Si5 0.441208 0.210567 0.781564
Si Si6 0.558408 0.205271 0.478966
Si Si7 0.672899 0.706723 0.710723
Si Si8 0.060978 0.212216 0.004388
O O1 0.142122 0.500000 0.831230
O O2 0.102251 0.220580 0.768354
O O3 0.195999 0.221614 0.859335
O O4 0.101856 0.271789 0.933022
O O5 0.000000 0.268183 0.215925
O O6 0.061507 0.000000 0.198425
O O7 0.074333 0.268252 0.100667
O O8 0.333753 0.500000 0.001448
O O9 0.387069 0.215565 0.015551
O O10 0.309985 0.283472 0.120947
O O11 0.285376 0.223490 0.956266
O O12 0.255642 0.500000 0.870912
O O13 0.293529 0.227347 0.791029
O O14 0.500000 0.263742 0.748157
O O15 0.389920 0.262380 0.727549
O O16 0.440825 0.000000 0.788645
O O17 0.436094 0.285358 0.876793
O O18 0.500000 0.282827 0.500301
O O19 0.556208 0.000000 0.504821
O O20 0.682058 0.500000 0.705658
O O21 0.000000 0.270448 0.985581
O O22 0.060840 0.000000 0.004063
#
# Coordination Sequence:
#
# PCOD9357145 Si02
#       8
#     8   8   8   8   8   8   8   8
#     4  10  19  33  56  80 103 140 187 227 260 310
#     4   8  15  29  50  76 106 140 176 212 257 315
#     4  10  20  37  56  77 108 145 180 224 279 329
#     4   9  20  38  55  75 109 145 179 223 275 319
#     4  10  20  34  55  83 112 140 174 220 274 330
#     4   9  17  32  56  80 105 142 180 216 268 331
#     4  11  22  38  58  81 107 142 185 227 271 326
#     4   9  18  33  52  77 111 144 173 217 276 326
#
# _framework density 21.350104000000002
#
# number of rings (size 3 to 8) (size 9 to 14) (size 15 to 20)
#    0.000    2.500    1.250    1.875    0.000    3.500 
#    0.000    5.000    0.000    0.750    0.000    0.000 
#    0.000    0.000    0.000    0.000    0.000    0.000 
#
# Total GULP energy -178637.888398 kJ/mol
# GULP energy per Si atom -5582.434012 kJ/mol
# Density = 2.130151 g / cm^3
# Si number density = 21.350104 Si / 1000 Ang^3
#
#
#
# Elastic Constant Matrix: (Units=GPa)
#
#
# Indices 1 2 3 4 5 6 
#
# 1 153.6163 -1.2199 91.6785 0.0000 0.0000 0.0000
# 2 -1.2199 38.7704 -15.3084 0.0000 0.0000 0.0000
# 3 91.6785 -15.3084 121.0501 0.0000 0.0000 0.0000
# 4 0.0000 0.0000 0.0000 10.6125 0.0000 0.0000
# 5 0.0000 0.0000 0.0000 0.0000 -3.3049 0.0000
# 6 0.0000 0.0000 0.0000 0.0000 0.0000 6.8600
#
#
#
# Elastic Compliance Matrix: (Units=1/GPa)
#
#
# Indices 1 2 3 4 5 6 
#
# 1 0.012306 -0.003466 -0.009758 0.000000 0.000000 0.000000
# 2 -0.003466 0.028125 0.006182 0.000000 0.000000 0.000000
# 3 -0.009758 0.006182 0.016433 0.000000 0.000000 0.000000
# 4 0.000000 0.000000 0.000000 0.094228 0.000000 0.000000
# 5 0.000000 0.000000 0.000000 0.000000 -0.302577 0.000000
# 6 0.000000 0.000000 0.000000 0.000000 0.000000 0.145773
#
#
# Mechanical properties :
#
#
# Convention : Reuss Voigt Hill
#
# Bulk Modulus (GPa) = 23.37608 51.52636 37.45122
# Shear Modulus (GPa) = 220.91535 18.71929 119.81732
#
# Velocity S-wave (km/s) = 10.18319 2.96426 7.49947
# Velocity P-wave (km/s) = 12.21621 5.99184 9.62128
#
# Compressibility (1/GPa) = 0.04277878
#
# Stress axis : x y z
#
# Youngs Moduli (GPa) = 81.26092 35.55606 60.85164
#
# Poissons Ratio (x) = 0.12323 0.59381
# Poissons Ratio (y) = 0.28164 -0.37616
# Poissons Ratio (z) = 0.79298 -0.21979
#
# Static dielectric constant tensor:
#      x y z
#    x 1.767180 0.000000 0.000000 
#    y 0.000000 1.807120 0.000000 
#    z 0.000000 0.000000 1.744090 
# 
# From -- ./inp_files/15849.got.cif
#   From: 2010.05.17/outbox.cif.g08.bks.cpg/sg38_8_cif.got.tgz:15849.got - 2010.06.03 18:07:57.
