data_PCOD9357369
_publ_section_title
;
Structure prediction by ZEFSAII (Michael W. Deem and Ramdas Pophale) SiO2 
 PCOD9357369
Probable space group: A M M 2
;
_chemical_formula_sum "Si O2"
_cell_formula_units_Z 64
_cell_length_a 8.354012
_cell_length_b 29.682938
_cell_length_c 12.614504
_cell_angle_alpha 90.000000
_cell_angle_beta 90.000000
_cell_angle_gamma 90.000000
_cell_volume 3128.038995
_symmetry_space_group_name_H-M "A M M 2"
_symmetry_group_IT_number 38
_symmetry_cell_setting 'orthorhombic'
loop_
_space_group_symop_operation_xyz
x,y,z
-x,-y,z
-x,y,z
x,-y,z
x,1/2+y,1/2+z
-x,1/2-y,1/2+z
-x,1/2+y,1/2+z
x,1/2-y,1/2+z
loop_
_atom_site_type_symbol
_atom_site_label
_atom_site_fract_x
_atom_site_fract_y
_atom_site_fract_z
Si Si1 0.819926 0.721563 0.925570
Si Si2 0.320168 0.672162 0.107445
Si Si3 0.187964 0.953671 0.757750
Si Si4 0.305764 0.551370 0.794950
Si Si5 0.313180 0.186799 0.009568
Si Si6 0.693019 0.654139 0.743550
Si Si7 0.186835 0.141660 0.816504
Si Si8 0.316035 0.931989 0.538661
O O1 0.759727 0.685383 0.838827
O O2 0.000000 0.735728 0.898047
O O3 0.810759 0.697410 0.039250
O O4 0.714712 0.765340 0.951828
O O5 0.500000 0.690365 0.090301
O O6 0.279073 0.672048 0.231233
O O7 0.317596 0.621422 0.061602
O O8 0.258699 0.908012 0.801307
O O9 0.208545 0.951665 0.631385
O O10 0.000000 0.953485 0.783605
O O11 0.261116 0.000000 0.797897
O O12 0.500000 0.551002 0.786104
O O13 0.253015 0.500000 0.760547
O O14 0.255028 0.600731 0.746492
O O15 0.265687 0.556433 0.919932
O O16 0.500000 0.175209 0.001443
O O17 0.268460 0.179342 0.132540
O O18 0.208558 0.154565 0.936780
O O19 0.500000 0.653528 0.755787
O O20 0.000000 0.142113 0.786046
O O21 0.500000 0.947390 0.551855
#
# Coordination Sequence:
#
# PCOD9357369 Si02
#       8
#     8   8   8   8   8   8   8   8
#     4  12  25  40  63  91 121 154 196 249 307 363
#     4  10  19  35  59  86 120 157 195 237 290 357
#     4   9  18  32  51  78 115 158 199 243 298 354
#     4   9  16  30  56  88 120 155 197 247 302 357
#     4  11  25  43  64  86 117 161 206 251 306 367
#     4  10  22  43  65  89 123 161 206 253 303 369
#     4  10  21  38  59  85 120 155 199 250 298 353
#     4   9  16  28  50  80 116 153 191 238 291 350
#
# _framework density 20.460103
#
# number of rings (size 3 to 8) (size 9 to 14) (size 15 to 20)
#    0.000    2.000    1.250    2.625    1.750    2.750 
#    0.000    0.625    0.000    1.125    0.000    0.000 
#    0.000    0.000    0.000    0.000    0.000    0.000 
#
# Total GULP energy -178242.159240 kJ/mol
# GULP energy per Si atom -5570.067476 kJ/mol
# Density = 2.041354 g / cm^3
# Si number density = 20.460103 Si / 1000 Ang^3
#
#
#
# Elastic Constant Matrix: (Units=GPa)
#
#
# Indices 1 2 3 4 5 6 
#
# 1 26.0843 4.7609 8.1203 0.0000 0.0000 0.0000
# 2 4.7609 78.5377 27.9292 0.0000 0.0000 0.0000
# 3 8.1203 27.9292 76.8563 0.0000 0.0000 0.0000
# 4 0.0000 0.0000 0.0000 0.8577 0.0000 0.0000
# 5 0.0000 0.0000 0.0000 0.0000 10.2267 0.0000
# 6 0.0000 0.0000 0.0000 0.0000 0.0000 5.8837
#
#
#
# Elastic Compliance Matrix: (Units=1/GPa)
#
#
# Indices 1 2 3 4 5 6 
#
# 1 0.039717 -0.001051 -0.003814 0.000000 0.000000 0.000000
# 2 -0.001051 0.014650 -0.005213 0.000000 0.000000 0.000000
# 3 -0.003814 -0.005213 0.015309 0.000000 0.000000 0.000000
# 4 0.000000 0.000000 0.000000 1.165842 0.000000 0.000000
# 5 0.000000 0.000000 0.000000 0.000000 0.097783 0.000000
# 6 0.000000 0.000000 0.000000 0.000000 0.000000 0.169960
#
#
# Mechanical properties :
#
#
# Convention : Reuss Voigt Hill
#
# Bulk Modulus (GPa) = 20.19430 29.23322 24.71376
# Shear Modulus (GPa) = 3.24692 12.77150 8.00921
#
# Velocity S-wave (km/s) = 1.26111 2.50114 1.98067
# Velocity P-wave (km/s) = 3.46584 4.76024 4.16365
#
# Compressibility (1/GPa) = 0.04951892
#
# Stress axis : x y z
#
# Youngs Moduli (GPa) = 25.17842 68.25850 65.32287
#
# Poissons Ratio (x) = 0.07175 0.24916
# Poissons Ratio (y) = 0.02647 0.34051
# Poissons Ratio (z) = 0.09604 0.35581
#
# Static dielectric constant tensor:
#      x y z
#    x 1.706030 0.000000 0.000000 
#    y 0.000000 1.857280 0.000000 
#    z 0.000000 0.000000 1.686590 
# 
# From -- ./inp_files/8561.got.cif
#   From: 2010.05.17/outbox.cif.g08.bks.cpg/sg38_5_cif.got.tgz:8561.got - 2010.06.03 18:07:57.
