data_PCOD9357663
_publ_section_title
;
Structure prediction by ZEFSAII (Michael W. Deem and Ramdas Pophale) SiO2 
 PCOD9357663
Probable space group: A M M 2
;
_chemical_formula_sum "Si O2"
_cell_formula_units_Z 48
_cell_length_a 15.775878
_cell_length_b 7.792366
_cell_length_c 19.502052
_cell_angle_alpha 90.000000
_cell_angle_beta 90.000000
_cell_angle_gamma 90.000000
_cell_volume 2397.414855
_symmetry_space_group_name_H-M "A M M 2"
_symmetry_group_IT_number 38
_symmetry_cell_setting 'orthorhombic'
loop_
_space_group_symop_operation_xyz
x,y,z
-x,-y,z
-x,y,z
x,-y,z
x,1/2+y,1/2+z
-x,1/2-y,1/2+z
-x,1/2+y,1/2+z
x,1/2-y,1/2+z
loop_
_atom_site_type_symbol
_atom_site_label
_atom_site_fract_x
_atom_site_fract_y
_atom_site_fract_z
Si Si1 0.903443 0.294742 0.016850
Si Si2 0.403488 0.209501 0.017517
Si Si3 0.904612 0.206167 0.172904
Si Si4 0.747650 0.797728 0.921494
Si Si5 0.404365 0.790303 0.174914
Si Si6 0.751608 0.296055 0.763876
O O1 0.905052 0.500000 0.013507
O O2 0.879659 0.242556 0.094331
O O3 0.000000 0.231662 0.004232
O O4 0.834020 0.231833 0.963350
O O5 0.500000 0.261869 0.000431
O O6 0.331553 0.272492 0.965728
O O7 0.402272 0.000000 0.016764
O O8 0.385379 0.260186 0.096267
O O9 0.835119 0.273845 0.225848
O O10 0.000000 0.274519 0.183363
O O11 0.908886 0.000000 0.180340
O O12 0.752450 0.728156 0.844861
O O13 0.734375 0.000000 0.915172
O O14 0.500000 0.734514 0.191855
O O15 0.333088 0.728100 0.227168
O O16 0.405086 0.000000 0.175865
O O17 0.751657 0.500000 0.750844
#
# Coordination Sequence:
#
# PCOD9357663 Si02
#       6
#     8   8   8   8   8   8
#     4  10  21  37  57  79 103 133 170 214 263 312
#     4   8  15  30  52  76 101 132 173 217 258 303
#     4   9  18  34  56  78  99 128 169 214 258 307
#     4  11  22  34  51  77 108 142 177 213 256 305
#     4   8  14  27  49  73  95 126 171 217 257 301
#     4  10  20  33  49  73 106 140 172 209 256 307
#
# _framework density 20.021566
#
# number of rings (size 3 to 8) (size 9 to 14) (size 15 to 20)
#    0.000    2.667    0.000    3.000    0.000    5.667 
#    0.000    1.667    0.000    1.500    0.000    4.667 
#    0.000    0.000    0.000    0.000    0.000    0.000 
#
# Total GULP energy -133933.937161 kJ/mol
# GULP energy per Si atom -5580.580715 kJ/mol
# Density = 1.997600 g / cm^3
# Si number density = 20.021566 Si / 1000 Ang^3
#
#
#
# Elastic Constant Matrix: (Units=GPa)
#
#
# Indices 1 2 3 4 5 6 
#
# 1 149.5730 -3.4691 124.7299 0.0000 0.0000 0.0000
# 2 -3.4691 20.0990 -13.8120 0.0000 0.0000 0.0000
# 3 124.7299 -13.8120 149.1131 0.0000 0.0000 0.0000
# 4 0.0000 0.0000 0.0000 20.1204 0.0000 0.0000
# 5 0.0000 0.0000 0.0000 0.0000 -0.3320 0.0000
# 6 0.0000 0.0000 0.0000 0.0000 0.0000 5.4152
#
#
#
# Elastic Compliance Matrix: (Units=1/GPa)
#
#
# Indices 1 2 3 4 5 6 
#
# 1 0.023943 -0.010285 -0.020980 0.000000 0.000000 0.000000
# 2 -0.010285 0.057554 0.013934 0.000000 0.000000 0.000000
# 3 -0.020980 0.013934 0.025547 0.000000 0.000000 0.000000
# 4 0.000000 0.000000 0.000000 0.049701 0.000000 0.000000
# 5 0.000000 0.000000 0.000000 0.000000 -3.012071 0.000000
# 6 0.000000 0.000000 0.000000 0.000000 0.000000 0.184667
#
#
# Mechanical properties :
#
#
# Convention : Reuss Voigt Hill
#
# Bulk Modulus (GPa) = 13.81570 59.29809 36.55689
# Shear Modulus (GPa) = -1.91434 19.12979 8.60773
#
# Velocity S-wave (km/s) = -0.97888 3.09440 2.07571
# Velocity P-wave (km/s) = 2.37440 6.51525 4.90338
#
# Compressibility (1/GPa) = 0.07238142
#
# Stress axis : x y z
#
# Youngs Moduli (GPa) = 41.76633 17.37495 39.14419
#
# Poissons Ratio (x) = 0.17870 0.82126
# Poissons Ratio (y) = 0.42957 -0.54545
# Poissons Ratio (z) = 0.87627 -0.24211
#
# Static dielectric constant tensor:
#      x y z
#    x 1.721910 0.000000 0.000000 
#    y 0.000000 1.737000 0.000000 
#    z 0.000000 0.000000 1.664630 
# 
# From -- ./inp_files/18154.got.cif
#   From: 2010.05.17/outbox.cif.g08.bks.cpg/sg38_10_cif.got.tgz:18154.got - 2010.06.03 18:07:57.
