data_PCOD9357508
_publ_section_title
;
Structure prediction by ZEFSAII (Michael W. Deem and Ramdas Pophale) SiO2 
 PCOD9357508
Probable space group: A M M 2
;
_chemical_formula_sum "Si O2"
_cell_formula_units_Z 48
_cell_length_a 7.616167
_cell_length_b 8.248104
_cell_length_c 35.051058
_cell_angle_alpha 90.000000
_cell_angle_beta 90.000000
_cell_angle_gamma 90.000000
_cell_volume 2201.870222
_symmetry_space_group_name_H-M "A M M 2"
_symmetry_group_IT_number 38
_symmetry_cell_setting 'orthorhombic'
loop_
_space_group_symop_operation_xyz
x,y,z
-x,-y,z
-x,y,z
x,-y,z
x,1/2+y,1/2+z
-x,1/2-y,1/2+z
-x,1/2+y,1/2+z
x,1/2-y,1/2+z
loop_
_atom_site_type_symbol
_atom_site_label
_atom_site_fract_x
_atom_site_fract_y
_atom_site_fract_z
Si Si1 0.214254 0.500000 0.684000
Si Si2 0.784263 0.000000 0.272574
Si Si3 0.785284 0.678045 0.139293
Si Si4 0.704010 0.682861 0.400665
Si Si5 0.213458 0.684428 0.560409
Si Si6 0.202819 0.185481 0.817082
Si Si7 0.796979 0.810637 0.481260
O O1 0.263352 0.500000 0.728233
O O2 0.272688 0.665358 0.663220
O O3 0.000000 0.500000 0.682019
O O4 0.721062 0.834369 0.292915
O O5 0.000000 0.000000 0.275206
O O6 0.730196 0.500000 0.153180
O O7 0.730186 0.703138 0.095250
O O8 0.000000 0.680372 0.139802
O O9 0.500000 0.677784 0.390694
O O10 0.766351 0.500000 0.409259
O O11 0.794428 0.736292 0.361698
O O12 0.721268 0.780917 0.439529
O O13 0.253716 0.500000 0.570886
O O14 0.281406 0.721893 0.518061
O O15 0.000000 0.699630 0.558264
O O16 0.000000 0.171616 0.805205
O O17 0.276692 0.000000 0.814490
O O18 0.000000 0.759313 0.477876
O O19 0.790501 0.000000 0.490297
#
# Coordination Sequence:
#
# PCOD9357508 Si02
#       7
#     4   4   8   8   8   8   8
#     4   9  16  26  38  61  93 125 161 201 247 295
#     4   9  18  30  47  69  95 127 169 211 249 303
#     4   9  15  23  37  58  89 128 164 198 239 291
#     4  10  21  36  52  71  97 128 165 210 259 307
#     4   9  15  25  41  61  90 128 169 206 241 285
#     4   9  18  33  52  72  97 131 168 207 251 302
#     4  10  20  31  46  71 100 131 169 210 250 297
#
# _framework density 21.799651000000001
#
# number of rings (size 3 to 8) (size 9 to 14) (size 15 to 20)
#    0.000    2.667    0.833    1.500    1.167    4.667 
#    0.000    3.333    0.000    0.000    0.000    0.000 
#    0.000    2.667    0.000    4.667    0.000    4.833 
#
# Total GULP energy -133857.000218 kJ/mol
# GULP energy per Si atom -5577.375009 kJ/mol
# Density = 2.175003 g / cm^3
# Si number density = 21.799651 Si / 1000 Ang^3
#
#
#
# Elastic Constant Matrix: (Units=GPa)
#
#
# Indices 1 2 3 4 5 6 
#
# 1 40.4022 12.1626 0.9887 0.0000 0.0000 0.0000
# 2 12.1626 132.9611 89.9048 0.0000 0.0000 0.0000
# 3 0.9887 89.9048 126.5702 0.0000 0.0000 0.0000
# 4 0.0000 0.0000 0.0000 28.6259 0.0000 0.0000
# 5 0.0000 0.0000 0.0000 0.0000 -36.6275 0.0000
# 6 0.0000 0.0000 0.0000 0.0000 0.0000 -1.5506
#
#
#
# Elastic Compliance Matrix: (Units=1/GPa)
#
#
# Indices 1 2 3 4 5 6 
#
# 1 0.025978 -0.004308 0.002857 0.000000 0.000000 0.000000
# 2 -0.004308 0.015186 -0.010753 0.000000 0.000000 0.000000
# 3 0.002857 -0.010753 0.015517 0.000000 0.000000 0.000000
# 4 0.000000 0.000000 0.000000 0.034933 0.000000 0.000000
# 5 0.000000 0.000000 0.000000 0.000000 -0.027302 0.000000
# 6 0.000000 0.000000 0.000000 0.000000 0.000000 -0.644910
#
#
# Mechanical properties :
#
#
# Convention : Reuss Voigt Hill
#
# Bulk Modulus (GPa) = 30.98621 56.22728 43.60675
# Shear Modulus (GPa) = -9.16706 11.21471 1.02383
#
# Velocity S-wave (km/s) = -2.05287 2.27060 0.68606
# Velocity P-wave (km/s) = 2.93699 5.72039 4.54691
#
# Compressibility (1/GPa) = 0.03227242
#
# Stress axis : x y z
#
# Youngs Moduli (GPa) = 38.49375 65.84894 64.44655
#
# Poissons Ratio (x) = 0.28371 -0.18415
# Poissons Ratio (y) = 0.16585 0.69302
# Poissons Ratio (z) = -0.10999 0.70810
#
# Static dielectric constant tensor:
#      x y z
#    x 1.821680 0.000000 0.000000 
#    y 0.000000 1.805060 0.000000 
#    z 0.000000 0.000000 1.774380 
# 
# From -- ./inp_files/24351.got.cif
#   From: 2010.05.17/outbox.cif.g08.bks.cpg/sg38_13_cif.got.tgz:24351.got - 2010.06.03 18:07:57.
