data_PCOD9357724
_publ_section_title
;
Structure prediction by ZEFSAII (Michael W. Deem and Ramdas Pophale) SiO2 
 PCOD9357724
Probable space group: A M M 2
;
_chemical_formula_sum "Si O2"
_cell_formula_units_Z 64
_cell_length_a 9.450040
_cell_length_b 7.531804
_cell_length_c 42.761219
_cell_angle_alpha 90.000000
_cell_angle_beta 90.000000
_cell_angle_gamma 90.000000
_cell_volume 3043.566070
_symmetry_space_group_name_H-M "A M M 2"
_symmetry_group_IT_number 38
_symmetry_cell_setting 'orthorhombic'
loop_
_space_group_symop_operation_xyz
x,y,z
-x,-y,z
-x,y,z
x,-y,z
x,1/2+y,1/2+z
-x,1/2-y,1/2+z
-x,1/2+y,1/2+z
x,1/2-y,1/2+z
loop_
_atom_site_type_symbol
_atom_site_label
_atom_site_fract_x
_atom_site_fract_y
_atom_site_fract_z
Si Si1 0.162847 0.217231 0.426340
Si Si2 0.660528 0.786732 0.110066
Si Si3 0.336644 0.217133 0.487673
Si Si4 0.660761 0.213141 0.797070
Si Si5 0.838051 0.287572 0.668935
Si Si6 0.338019 0.712363 0.866603
Si Si7 0.839185 0.713223 0.238481
Si Si8 0.161232 0.712824 0.047957
O O1 0.254304 0.271514 0.456381
O O2 0.239365 0.277545 0.394560
O O3 0.000000 0.274454 0.428358
O O4 0.161713 0.000000 0.426201
O O5 0.500000 0.719132 0.106829
O O6 0.739621 0.719018 0.141141
O O7 0.754833 0.749214 0.079752
O O8 0.651893 0.000000 0.112847
O O9 0.500000 0.274451 0.487986
O O10 0.250887 0.277638 0.518223
O O11 0.337987 0.000000 0.487936
O O12 0.500000 0.281938 0.796029
O O13 0.717838 0.251603 0.831725
O O14 0.750001 0.280966 0.767784
O O15 0.654759 0.000000 0.794303
O O16 0.846157 0.500000 0.665436
O O17 0.782205 0.252269 0.703842
O O18 0.000000 0.218453 0.666865
O O19 0.500000 0.781401 0.868688
O O20 0.346182 0.500000 0.870018
O O21 0.845013 0.500000 0.241165
O O22 0.000000 0.781763 0.239564
O O23 0.152592 0.500000 0.044683
O O24 0.000000 0.781043 0.048783
#
# Coordination Sequence:
#
# PCOD9357724 Si02
#       8
#     8   8   8   8   8   8   8   8
#     4   9  16  26  42  66  95 124 155 194 239 284
#     4  10  21  36  53  74 101 133 167 202 244 295
#     4   9  16  27  45  69  98 130 161 197 243 290
#     4   9  18  32  48  66  91 123 155 187 229 281
#     4   9  18  33  51  70  94 125 159 195 238 287
#     4   9  17  29  45  66  91 119 153 192 233 277
#     4   9  18  32  49  69  93 121 154 192 234 281
#     4  10  20  33  51  76 103 131 166 207 248 291
#
# _framework density 21.027964999999998
#
# number of rings (size 3 to 8) (size 9 to 14) (size 15 to 20)
#    0.000    2.750    0.000    1.500    0.000    6.500 
#    0.000    1.250    0.000    0.750    0.000    1.750 
#    0.000    0.000    0.000    0.000    0.000    0.000 
#
# Total GULP energy -178651.200902 kJ/mol
# GULP energy per Si atom -5582.850028 kJ/mol
# Density = 2.098010 g / cm^3
# Si number density = 21.027965 Si / 1000 Ang^3
#
#
#
# Elastic Constant Matrix: (Units=GPa)
#
#
# Indices 1 2 3 4 5 6 
#
# 1 168.5987 5.6526 139.4793 0.0000 0.0000 0.0000
# 2 5.6526 52.8119 -1.7748 0.0000 0.0000 0.0000
# 3 139.4793 -1.7748 247.0817 0.0000 0.0000 0.0000
# 4 0.0000 0.0000 0.0000 12.8640 0.0000 0.0000
# 5 0.0000 0.0000 0.0000 0.0000 40.7476 0.0000
# 6 0.0000 0.0000 0.0000 0.0000 0.0000 5.9927
#
#
#
# Elastic Compliance Matrix: (Units=1/GPa)
#
#
# Indices 1 2 3 4 5 6 
#
# 1 0.011233 -0.001416 -0.006351 0.000000 0.000000 0.000000
# 2 -0.001416 0.019118 0.000937 0.000000 0.000000 0.000000
# 3 -0.006351 0.000937 0.007639 0.000000 0.000000 0.000000
# 4 0.000000 0.000000 0.000000 0.077736 0.000000 0.000000
# 5 0.000000 0.000000 0.000000 0.000000 0.024541 0.000000
# 6 0.000000 0.000000 0.000000 0.000000 0.000000 0.166868
#
#
# Mechanical properties :
#
#
# Convention : Reuss Voigt Hill
#
# Bulk Modulus (GPa) = 41.10241 83.91182 62.50712
# Shear Modulus (GPa) = 15.20184 33.59655 24.39919
#
# Velocity S-wave (km/s) = 2.69166 4.00147 3.41004
# Velocity P-wave (km/s) = 5.40824 7.83202 6.73014
#
# Compressibility (1/GPa) = 0.02432947
#
# Stress axis : x y z
#
# Youngs Moduli (GPa) = 89.02294 52.30633 130.90153
#
# Poissons Ratio (x) = 0.07405 0.83140
# Poissons Ratio (y) = 0.12603 -0.12259
# Poissons Ratio (z) = 0.56541 -0.04899
#
# Static dielectric constant tensor:
#      x y z
#    x 1.740080 0.000000 0.000000 
#    y 0.000000 1.822990 0.000000 
#    z 0.000000 0.000000 1.722760 
# 
# From -- ./inp_files/24612.got.cif
#   From: 2010.05.17/outbox.cif.g08.bks.cpg/sg38_13_cif.got.tgz:24612.got - 2010.06.03 18:07:57.
