data_PCOD9357004
_publ_section_title
;
Structure prediction by ZEFSAII (Michael W. Deem and Ramdas Pophale) SiO2 
 PCOD9357004
Probable space group: A M M 2
;
_chemical_formula_sum "Si O2"
_cell_formula_units_Z 56
_cell_length_a 7.403849
_cell_length_b 17.674644
_cell_length_c 17.893120
_cell_angle_alpha 90.000000
_cell_angle_beta 90.000000
_cell_angle_gamma 90.000000
_cell_volume 2341.500756
_symmetry_space_group_name_H-M "A M M 2"
_symmetry_group_IT_number 38
_symmetry_cell_setting 'orthorhombic'
loop_
_space_group_symop_operation_xyz
x,y,z
-x,-y,z
-x,y,z
x,-y,z
x,1/2+y,1/2+z
-x,1/2-y,1/2+z
-x,1/2+y,1/2+z
x,1/2-y,1/2+z
loop_
_atom_site_type_symbol
_atom_site_label
_atom_site_fract_x
_atom_site_fract_y
_atom_site_fract_z
Si Si1 0.793728 0.362213 0.943210
Si Si2 0.779206 0.917116 0.289085
Si Si3 0.286249 0.082824 0.764764
Si Si4 0.217930 0.849562 0.609419
Si Si5 0.706128 0.799630 0.880715
Si Si6 0.218947 0.586550 0.512448
Si Si7 0.219812 0.316745 0.655776
O O1 0.713080 0.406663 0.873405
O O2 0.796505 0.275054 0.914632
O O3 0.000000 0.389247 0.950528
O O4 0.713737 0.367072 0.026066
O O5 0.719429 0.850302 0.234633
O O6 0.000000 0.913712 0.290845
O O7 0.730951 0.000000 0.259508
O O8 0.500000 0.082388 0.781266
O O9 0.262812 0.094093 0.676411
O O10 0.213127 0.156152 0.809114
O O11 0.214094 0.000000 0.787630
O O12 0.283048 0.766758 0.635099
O O13 0.000000 0.845626 0.604277
O O14 0.500000 0.777366 0.864417
O O15 0.710613 0.862898 0.945025
O O16 0.277378 0.500000 0.507707
O O17 0.271163 0.625630 0.590154
O O18 0.000000 0.588200 0.508625
O O19 0.000000 0.314442 0.657309
#
# Coordination Sequence:
#
# PCOD9357004 Si02
#       7
#     8   8   8   8   8   8   8
#     4  10  20  36  58  84 114 143 182 232 278 331
#     4   9  17  29  50  80 110 141 176 219 272 325
#     4  10  23  41  57  77 110 150 192 238 284 333
#     4  10  20  35  57  83 110 143 185 234 282 332
#     4  11  22  37  57  80 111 150 189 229 279 339
#     4  10  19  32  54  82 113 147 181 224 277 330
#     4   9  16  30  50  78 113 143 174 216 268 326
#
# _framework density 23.916285999999999
#
# number of rings (size 3 to 8) (size 9 to 14) (size 15 to 20)
#    0.000    2.143    1.429    2.143    0.000    6.286 
#    0.000    1.429    0.000    0.429    0.000    0.000 
#    0.000    0.000    0.000    0.000    0.000    0.000 
#
# Total GULP energy -156541.779902 kJ/mol
# GULP energy per Si atom -5590.777854 kJ/mol
# Density = 2.386185 g / cm^3
# Si number density = 23.916286 Si / 1000 Ang^3
#
#
#
# Elastic Constant Matrix: (Units=GPa)
#
#
# Indices 1 2 3 4 5 6 
#
# 1 84.3978 -6.9202 -3.1226 0.0000 0.0000 0.0000
# 2 -6.9202 42.5583 -6.3750 0.0000 0.0000 0.0000
# 3 -3.1226 -6.3750 128.9779 0.0000 0.0000 0.0000
# 4 0.0000 0.0000 0.0000 37.2805 0.0000 0.0000
# 5 0.0000 0.0000 0.0000 0.0000 9.2740 0.0000
# 6 0.0000 0.0000 0.0000 0.0000 0.0000 -8.2415
#
#
#
# Elastic Compliance Matrix: (Units=1/GPa)
#
#
# Indices 1 2 3 4 5 6 
#
# 1 0.012028 0.002014 0.000391 0.000000 0.000000 0.000000
# 2 0.002014 0.024010 0.001236 0.000000 0.000000 0.000000
# 3 0.000391 0.001236 0.007824 0.000000 0.000000 0.000000
# 4 0.000000 0.000000 0.000000 0.026824 0.000000 0.000000
# 5 0.000000 0.000000 0.000000 0.000000 0.107829 0.000000
# 6 0.000000 0.000000 0.000000 0.000000 0.000000 -0.121338
#
#
# Mechanical properties :
#
#
# Convention : Reuss Voigt Hill
#
# Bulk Modulus (GPa) = 19.55296 24.78873 22.17084
# Shear Modulus (GPa) = 74.69035 25.81939 50.25487
#
# Velocity S-wave (km/s) = 5.59444 3.28925 4.58895
# Velocity P-wave (km/s) = 7.06566 4.98125 6.11296
#
# Compressibility (1/GPa) = 0.05114316
#
# Stress axis : x y z
#
# Youngs Moduli (GPa) = 83.13742 41.64971 127.81522
#
# Poissons Ratio (x) = -0.08390 -0.04995
# Poissons Ratio (y) = -0.16747 -0.15792
# Poissons Ratio (z) = -0.03249 -0.05146
#
# Static dielectric constant tensor:
#      x y z
#    x 1.918170 0.000000 0.000000 
#    y 0.000000 1.889580 0.000000 
#    z 0.000000 0.000000 1.896680 
# 
# From -- ./inp_files/12397.got.cif
#   From: 2010.05.17/outbox.cif.g08.bks.cpg/sg38_7_cif.got.tgz:12397.got - 2010.06.03 18:07:57.
