data_PCOD9357232
_publ_section_title
;
Structure prediction by ZEFSAII (Michael W. Deem and Ramdas Pophale) SiO2 
 PCOD9357232
Probable space group: A M M 2
;
_chemical_formula_sum "Si O2"
_cell_formula_units_Z 64
_cell_length_a 8.750183
_cell_length_b 20.030756
_cell_length_c 21.269379
_cell_angle_alpha 90.000000
_cell_angle_beta 90.000000
_cell_angle_gamma 90.000000
_cell_volume 3727.943200
_symmetry_space_group_name_H-M "A M M 2"
_symmetry_group_IT_number 38
_symmetry_cell_setting 'orthorhombic'
loop_
_space_group_symop_operation_xyz
x,y,z
-x,-y,z
-x,y,z
x,-y,z
x,1/2+y,1/2+z
-x,1/2-y,1/2+z
-x,1/2+y,1/2+z
x,1/2-y,1/2+z
loop_
_atom_site_type_symbol
_atom_site_label
_atom_site_fract_x
_atom_site_fract_y
_atom_site_fract_z
Si Si1 0.317808 0.288504 0.876780
Si Si2 0.182935 0.075549 0.181833
Si Si3 0.682569 0.923645 0.041646
Si Si4 0.181794 0.292146 0.493161
Si Si5 0.684185 0.785727 0.613256
Si Si6 0.315763 0.706779 0.737032
Si Si7 0.682650 0.574584 0.059871
Si Si8 0.182159 0.075770 0.420740
O O1 0.500000 0.283106 0.884283
O O2 0.273857 0.267518 0.806152
O O3 0.268367 0.365473 0.885191
O O4 0.239233 0.245817 0.931285
O O5 0.251439 0.085320 0.112009
O O6 0.247847 0.133569 0.225193
O O7 0.000000 0.080456 0.178419
O O8 0.222638 0.000000 0.202217
O O9 0.500000 0.915267 0.044110
O O10 0.754642 0.867211 0.998095
O O11 0.716643 0.000000 0.022532
O O12 0.245195 0.253533 0.554465
O O13 0.000000 0.292234 0.495175
O O14 0.500000 0.778953 0.609263
O O15 0.733770 0.753507 0.679083
O O16 0.721831 0.863805 0.604714
O O17 0.500000 0.701921 0.735053
O O18 0.500000 0.578723 0.046593
O O19 0.713522 0.500000 0.084750
O O20 0.770658 0.581950 0.994026
O O21 0.000000 0.084197 0.414349
O O22 0.221848 0.000000 0.400916
#
# Coordination Sequence:
#
# PCOD9357232 Si02
#       8
#     8   8   8   8   8   8   8   8
#     4  11  23  38  54  75 107 149 191 231 271 325
#     4  10  20  33  51  78 112 147 182 222 269 323
#     4  10  20  35  57  83 111 143 180 224 272 323
#     4  12  23  35  56  84 110 142 182 228 279 327
#     4  10  19  34  56  80 107 140 179 226 273 326
#     4  10  22  37  54  76 106 146 188 228 274 322
#     4   9  17  30  52  80 107 136 171 215 269 326
#     4  10  20  33  50  75 108 142 178 223 273 324
#
# _framework density 17.167645
#
# number of rings (size 3 to 8) (size 9 to 14) (size 15 to 20)
#    0.000    1.750    2.500    2.625    0.000    3.750 
#    0.000    2.500    0.000    0.750    0.000    3.500 
#    0.000    0.000    0.000    0.000    0.000    0.000 
#
# Total GULP energy -178655.884845 kJ/mol
# GULP energy per Si atom -5582.996401 kJ/mol
# Density = 1.712857 g / cm^3
# Si number density = 17.167645 Si / 1000 Ang^3
#
#
#
# Elastic Constant Matrix: (Units=GPa)
#
#
# Indices 1 2 3 4 5 6 
#
# 1 34.0290 33.6234 33.1677 0.0000 0.0000 0.0000
# 2 33.6234 105.0182 61.7059 0.0000 0.0000 0.0000
# 3 33.1677 61.7059 109.8693 0.0000 0.0000 0.0000
# 4 0.0000 0.0000 0.0000 22.3248 0.0000 0.0000
# 5 0.0000 0.0000 0.0000 0.0000 -28.8627 0.0000
# 6 0.0000 0.0000 0.0000 0.0000 0.0000 24.0414
#
#
#
# Elastic Compliance Matrix: (Units=1/GPa)
#
#
# Indices 1 2 3 4 5 6 
#
# 1 0.048030 -0.010236 -0.008751 0.000000 0.000000 0.000000
# 2 -0.010236 0.016394 -0.006117 0.000000 0.000000 0.000000
# 3 -0.008751 -0.006117 0.015179 0.000000 0.000000 0.000000
# 4 0.000000 0.000000 0.000000 0.044793 0.000000 0.000000
# 5 0.000000 0.000000 0.000000 0.000000 -0.034647 0.000000
# 6 0.000000 0.000000 0.000000 0.000000 0.000000 0.041595
#
#
# Mechanical properties :
#
#
# Convention : Reuss Voigt Hill
#
# Bulk Modulus (GPa) = 34.01928 56.21228 45.11578
# Shear Modulus (GPa) = 26.13023 11.52866 18.82945
#
# Velocity S-wave (km/s) = 3.90559 2.59421 3.31539
# Velocity P-wave (km/s) = 6.34012 6.46432 6.40252
#
# Compressibility (1/GPa) = 0.02939509
#
# Stress axis : x y z
#
# Youngs Moduli (GPa) = 20.82041 60.99937 65.88087
#
# Poissons Ratio (x) = 0.62439 0.57650
# Poissons Ratio (y) = 0.21312 0.40300
# Poissons Ratio (z) = 0.18219 0.37314
#
# Static dielectric constant tensor:
#      x y z
#    x 1.571980 0.000000 0.000000 
#    y 0.000000 1.598270 0.000000 
#    z 0.000000 0.000000 1.566310 
# 
# From -- ./inp_files/17189.got.cif
#   From: 2010.05.17/outbox.cif.g08.bks.cpg/sg38_9_cif.got.tgz:17189.got - 2010.06.03 18:07:57.
