data_PCOD9357770
_publ_section_title
;
Structure prediction by ZEFSAII (Michael W. Deem and Ramdas Pophale) SiO2 
 PCOD9357770
Probable space group: A M M 2
;
_chemical_formula_sum "Si O2"
_cell_formula_units_Z 64
_cell_length_a 9.293873
_cell_length_b 28.632488
_cell_length_c 12.915545
_cell_angle_alpha 90.000000
_cell_angle_beta 90.000000
_cell_angle_gamma 90.000000
_cell_volume 3436.913151
_symmetry_space_group_name_H-M "A M M 2"
_symmetry_group_IT_number 38
_symmetry_cell_setting 'orthorhombic'
loop_
_space_group_symop_operation_xyz
x,y,z
-x,-y,z
-x,y,z
x,-y,z
x,1/2+y,1/2+z
-x,1/2-y,1/2+z
-x,1/2+y,1/2+z
x,1/2-y,1/2+z
loop_
_atom_site_type_symbol
_atom_site_label
_atom_site_fract_x
_atom_site_fract_y
_atom_site_fract_z
Si Si1 0.669224 0.693017 0.995030
Si Si2 0.173380 0.599086 0.930647
Si Si3 0.673010 0.617411 0.536651
Si Si4 0.173128 0.054574 0.207959
Si Si5 0.670374 0.050415 0.853365
Si Si6 0.331070 0.204177 0.909891
Si Si7 0.163839 0.182800 0.700818
Si Si8 0.162566 0.427571 0.151850
O O1 0.500000 0.682257 0.006448
O O2 0.748339 0.649075 0.941478
O O3 0.684291 0.741219 0.933267
O O4 0.740155 0.701831 0.107045
O O5 0.204635 0.572157 0.824713
O O6 0.000000 0.606543 0.937194
O O7 0.213464 0.569513 0.033358
O O8 0.500000 0.612669 0.550693
O O9 0.751436 0.590663 0.629442
O O10 0.717651 0.590447 0.431414
O O11 0.705009 0.671434 0.509187
O O12 0.000000 0.056742 0.193907
O O13 0.216412 0.000000 0.193820
O O14 0.500000 0.055255 0.840425
O O15 0.740935 0.051846 0.741487
O O16 0.700942 0.000000 0.902707
O O17 0.500000 0.194326 0.886795
O O18 0.236043 0.191423 0.811105
O O19 0.159000 0.127561 0.677639
O O20 0.000000 0.200580 0.697767
O O21 0.000000 0.445595 0.158749
#
# Coordination Sequence:
#
# PCOD9357770 Si02
#       8
#     8   8   8   8   8   8   8   8
#     4  10  21  36  57  86 117 151 193 240 292 349
#     4   9  20  39  59  82 114 150 193 239 291 347
#     4  10  21  38  58  80 112 151 192 240 291 344
#     4  10  22  40  61  84 115 157 201 247 297 352
#     4  10  20  33  52  79 109 141 177 223 280 335
#     4  10  21  37  58  83 112 152 196 239 290 347
#     4  10  20  35  56  80 110 146 184 231 286 341
#     4   9  18  33  54  79 105 138 179 225 278 336
#
# _framework density 18.621361
#
# number of rings (size 3 to 8) (size 9 to 14) (size 15 to 20)
#    0.000    2.250    1.250    1.875    0.000    7.000 
#    0.000    5.000    0.000    0.000    0.000    0.000 
#    0.000    0.000    0.000    0.000    0.000    0.000 
#
# Total GULP energy -178440.061133 kJ/mol
# GULP energy per Si atom -5576.251910 kJ/mol
# Density = 1.857898 g / cm^3
# Si number density = 18.621361 Si / 1000 Ang^3
#
#
#
# Elastic Constant Matrix: (Units=GPa)
#
#
# Indices 1 2 3 4 5 6 
#
# 1 37.1381 19.6135 29.1540 0.0000 0.0000 0.0000
# 2 19.6135 49.2308 16.5736 0.0000 0.0000 0.0000
# 3 29.1540 16.5736 92.4453 0.0000 0.0000 0.0000
# 4 0.0000 0.0000 0.0000 19.2904 0.0000 0.0000
# 5 0.0000 0.0000 0.0000 0.0000 26.1967 0.0000
# 6 0.0000 0.0000 0.0000 0.0000 0.0000 145.2412
#
#
#
# Elastic Compliance Matrix: (Units=1/GPa)
#
#
# Indices 1 2 3 4 5 6 
#
# 1 0.042608 -0.013251 -0.011061 0.000000 0.000000 0.000000
# 2 -0.013251 0.025738 -0.000435 0.000000 0.000000 0.000000
# 3 -0.011061 -0.000435 0.014384 0.000000 0.000000 0.000000
# 4 0.000000 0.000000 0.000000 0.051839 0.000000 0.000000
# 5 0.000000 0.000000 0.000000 0.000000 0.038173 0.000000
# 6 0.000000 0.000000 0.000000 0.000000 0.000000 0.006885
#
#
# Mechanical properties :
#
#
# Convention : Reuss Voigt Hill
#
# Bulk Modulus (GPa) = 30.08961 34.38849 32.23905
# Shear Modulus (GPa) = 20.81585 45.71054 33.26319
#
# Velocity S-wave (km/s) = 3.34705 4.95990 4.23104
# Velocity P-wave (km/s) = 5.57949 7.16297 6.42024
#
# Compressibility (1/GPa) = 0.03323406
#
# Stress axis : x y z
#
# Youngs Moduli (GPa) = 23.46962 38.85252 69.52334
#
# Poissons Ratio (x) = 0.51484 0.76903
# Poissons Ratio (y) = 0.31100 0.03027
# Poissons Ratio (z) = 0.25961 0.01692
#
# Static dielectric constant tensor:
#      x y z
#    x 1.648000 0.000000 0.000000 
#    y 0.000000 1.667830 0.000000 
#    z 0.000000 0.000000 1.630210 
# 
# From -- ./inp_files/8607.got.cif
#   From: 2010.05.17/outbox.cif.g08.bks.cpg/sg38_5_cif.got.tgz:8607.got - 2010.06.03 18:07:57.
