data_PCOD9357927
_publ_section_title
;
Structure prediction by ZEFSAII (Michael W. Deem and Ramdas Pophale) SiO2 
 PCOD9357927
Probable space group: A M M 2
;
_chemical_formula_sum "Si O2"
_cell_formula_units_Z 56
_cell_length_a 7.537346
_cell_length_b 25.030331
_cell_length_c 14.018635
_cell_angle_alpha 90.000000
_cell_angle_beta 90.000000
_cell_angle_gamma 90.000000
_cell_volume 2644.787435
_symmetry_space_group_name_H-M "A M M 2"
_symmetry_group_IT_number 38
_symmetry_cell_setting 'orthorhombic'
loop_
_space_group_symop_operation_xyz
x,y,z
-x,-y,z
-x,y,z
x,-y,z
x,1/2+y,1/2+z
-x,1/2-y,1/2+z
-x,1/2+y,1/2+z
x,1/2-y,1/2+z
loop_
_atom_site_type_symbol
_atom_site_label
_atom_site_fract_x
_atom_site_fract_y
_atom_site_fract_z
Si Si1 0.212724 0.120950 0.109780
Si Si2 0.206882 0.832264 0.598382
Si Si3 0.783968 0.439315 0.792542
Si Si4 0.712811 0.940397 0.919159
Si Si5 0.783411 0.059763 0.511790
Si Si6 0.710641 0.165460 0.813905
Si Si7 0.786471 0.273998 0.503552
O O1 0.280149 0.101168 0.211828
O O2 0.281353 0.177349 0.069787
O O3 0.000000 0.125712 0.117333
O O4 0.249369 0.077352 0.027688
O O5 0.280632 0.890996 0.575366
O O6 0.217372 0.820855 0.710391
O O7 0.283463 0.783021 0.538210
O O8 0.000000 0.835254 0.571163
O O9 0.731185 0.500000 0.767994
O O10 0.732181 0.429166 0.901760
O O11 0.000000 0.438142 0.791557
O O12 0.500000 0.941587 0.908304
O O13 0.780503 0.891768 0.853242
O O14 0.780968 0.000000 0.899113
O O15 0.000000 0.057731 0.515008
O O16 0.722459 0.000000 0.538244
O O17 0.500000 0.160873 0.804583
O O18 0.748484 0.208995 0.895336
O O19 0.000000 0.273175 0.513639
#
# Coordination Sequence:
#
# PCOD9357927 Si02
#       7
#     8   8   8   8   8   8   8
#     4   9  16  27  46  72  98 125 161 205 250 295
#     4  10  20  34  54  77 100 129 165 207 253 296
#     4   8  13  22  39  65  94 121 152 193 240 288
#     4   9  18  32  48  68  98 135 170 204 246 293
#     4   8  15  28  46  71 102 132 163 201 245 294
#     4  10  21  36  53  73 100 133 168 206 247 297
#     4   9  19  34  51  73 100 128 163 208 253 298
#
# _framework density 21.173722999999999
#
# number of rings (size 3 to 8) (size 9 to 14) (size 15 to 20)
#    0.000    3.000    0.000    1.714    0.000    3.714 
#    0.000    4.286    0.000    0.857    0.000    2.000 
#    0.000    0.000    0.000    0.000    0.000    0.000 
#
# Total GULP energy -156201.700059 kJ/mol
# GULP energy per Si atom -5578.632145 kJ/mol
# Density = 2.112553 g / cm^3
# Si number density = 21.173723 Si / 1000 Ang^3
#
#
#
# Elastic Constant Matrix: (Units=GPa)
#
#
# Indices 1 2 3 4 5 6 
#
# 1 52.6039 4.7542 -10.8116 0.0000 0.0000 0.0000
# 2 4.7542 152.9122 81.7588 0.0000 0.0000 0.0000
# 3 -10.8116 81.7588 91.3538 0.0000 0.0000 0.0000
# 4 0.0000 0.0000 0.0000 19.8139 0.0000 0.0000
# 5 0.0000 0.0000 0.0000 0.0000 64.6794 0.0000
# 6 0.0000 0.0000 0.0000 0.0000 0.0000 4.2749
#
#
#
# Elastic Compliance Matrix: (Units=1/GPa)
#
#
# Indices 1 2 3 4 5 6 
#
# 1 0.020528 -0.003715 0.005754 0.000000 0.000000 0.000000
# 2 -0.003715 0.013213 -0.012265 0.000000 0.000000 0.000000
# 3 0.005754 -0.012265 0.022604 0.000000 0.000000 0.000000
# 4 0.000000 0.000000 0.000000 0.050470 0.000000 0.000000
# 5 0.000000 0.000000 0.000000 0.000000 0.015461 0.000000
# 6 0.000000 0.000000 0.000000 0.000000 0.000000 0.233923
#
#
# Mechanical properties :
#
#
# Convention : Reuss Voigt Hill
#
# Bulk Modulus (GPa) = 27.85946 49.80808 38.83377
# Shear Modulus (GPa) = 12.86620 32.49821 22.68220
#
# Velocity S-wave (km/s) = 2.46773 3.92195 3.27654
# Velocity P-wave (km/s) = 4.61581 6.63954 5.71792
#
# Compressibility (1/GPa) = 0.03589446
#
# Stress axis : x y z
#
# Youngs Moduli (GPa) = 48.71297 75.68342 44.23979
#
# Poissons Ratio (x) = 0.28116 -0.25457
# Poissons Ratio (y) = 0.18097 0.54259
# Poissons Ratio (z) = -0.28031 0.92824
#
# Static dielectric constant tensor:
#      x y z
#    x 1.780800 0.000000 0.000000 
#    y 0.000000 1.784270 0.000000 
#    z 0.000000 0.000000 1.724290 
# 
# From -- ./inp_files/12430.got.cif
#   From: 2010.05.17/outbox.cif.g08.bks.cpg/sg38_7_cif.got.tgz:12430.got - 2010.06.03 18:07:57.
