data_PCOD9357260
_publ_section_title
;
Structure prediction by ZEFSAII (Michael W. Deem and Ramdas Pophale) SiO2 
 PCOD9357260
Probable space group: A M M 2
;
_chemical_formula_sum "Si O2"
_cell_formula_units_Z 64
_cell_length_a 21.124392
_cell_length_b 19.255955
_cell_length_c 8.402917
_cell_angle_alpha 90.000000
_cell_angle_beta 90.000000
_cell_angle_gamma 90.000000
_cell_volume 3418.057420
_symmetry_space_group_name_H-M "A M M 2"
_symmetry_group_IT_number 38
_symmetry_cell_setting 'orthorhombic'
loop_
_space_group_symop_operation_xyz
x,y,z
-x,-y,z
-x,y,z
x,-y,z
x,1/2+y,1/2+z
-x,1/2-y,1/2+z
-x,1/2+y,1/2+z
x,1/2-y,1/2+z
loop_
_atom_site_type_symbol
_atom_site_label
_atom_site_fract_x
_atom_site_fract_y
_atom_site_fract_z
Si Si1 0.071635 0.662894 0.614260
Si Si2 0.311169 0.080399 0.533012
Si Si3 0.302865 0.830990 0.231818
Si Si4 0.191954 0.580525 0.593364
Si Si5 0.373089 0.773183 0.937532
Si Si6 0.184743 0.917848 0.710165
Si Si7 0.927505 0.315702 0.233481
Si Si8 0.428902 0.651315 0.150833
O O1 0.121137 0.601710 0.643772
O O2 0.071589 0.675401 0.424027
O O3 0.090099 0.736518 0.691987
O O4 0.000000 0.646359 0.664697
O O5 0.323313 0.112502 0.360906
O O6 0.247042 0.108252 0.615981
O O7 0.373061 0.095764 0.636217
O O8 0.300876 0.000000 0.517475
O O9 0.236178 0.860781 0.172195
O O10 0.345110 0.821084 0.075623
O O11 0.315353 0.759662 0.331553
O O12 0.206917 0.500000 0.635844
O O13 0.196779 0.586303 0.400919
O O14 0.410332 0.710604 0.022679
O O15 0.419647 0.812854 0.820915
O O16 0.124121 0.870387 0.670772
O O17 0.173617 0.000000 0.675961
O O18 0.000000 0.327026 0.175176
O O19 0.500000 0.626256 0.126332
#
# Coordination Sequence:
#
# PCOD9357260 Si02
#       8
#     8   8   8   8   8   8   8   8
#     4   9  19  33  49  71 100 135 174 219 267 316
#     4  10  21  36  54  76 106 144 180 216 260 312
#     4  10  20  35  54  78 108 137 174 219 266 319
#     4  10  20  33  52  76 103 139 179 220 267 320
#     4   9  20  35  54  83 109 135 170 214 268 318
#     4   9  19  35  54  78 107 139 178 222 268 321
#     4   9  18  33  52  75 103 136 175 218 268 321
#     4  10  19  34  57  81 108 138 172 215 260 312
#
# _framework density 18.724087000000001
#
# number of rings (size 3 to 8) (size 9 to 14) (size 15 to 20)
#    0.000    2.500    0.000    1.500    0.000    6.750 
#    0.000    3.750    0.000    0.000    0.000    5.250 
#    0.000    0.000    0.000    0.000    0.000    0.000 
#
# Total GULP energy -178276.363349 kJ/mol
# GULP energy per Si atom -5571.136355 kJ/mol
# Density = 1.868147 g / cm^3
# Si number density = 18.724087 Si / 1000 Ang^3
#
#
#
# Elastic Constant Matrix: (Units=GPa)
#
#
# Indices 1 2 3 4 5 6 
#
# 1 92.4980 27.5742 18.4157 0.0000 0.0000 0.0000
# 2 27.5742 27.6358 8.3727 0.0000 0.0000 0.0000
# 3 18.4157 8.3727 46.4428 0.0000 0.0000 0.0000
# 4 0.0000 0.0000 0.0000 22.3199 0.0000 0.0000
# 5 0.0000 0.0000 0.0000 0.0000 14.8213 0.0000
# 6 0.0000 0.0000 0.0000 0.0000 0.0000 16.6478
#
#
#
# Elastic Compliance Matrix: (Units=1/GPa)
#
#
# Indices 1 2 3 4 5 6 
#
# 1 0.015954 -0.014811 -0.003656 0.000000 0.000000 0.000000
# 2 -0.014811 0.052025 -0.003506 0.000000 0.000000 0.000000
# 3 -0.003656 -0.003506 0.023614 0.000000 0.000000 0.000000
# 4 0.000000 0.000000 0.000000 0.044803 0.000000 0.000000
# 5 0.000000 0.000000 0.000000 0.000000 0.067471 0.000000
# 6 0.000000 0.000000 0.000000 0.000000 0.000000 0.060068
#
#
# Mechanical properties :
#
#
# Convention : Reuss Voigt Hill
#
# Bulk Modulus (GPa) = 20.98792 30.58910 25.78851
# Shear Modulus (GPa) = 15.44339 18.23873 16.84106
#
# Velocity S-wave (km/s) = 2.87503 3.12441 3.00231
# Velocity P-wave (km/s) = 4.71746 5.42108 5.08146
#
# Compressibility (1/GPa) = 0.04764646
#
# Stress axis : x y z
#
# Youngs Moduli (GPa) = 62.67958 19.22151 42.34832
#
# Poissons Ratio (x) = 0.28469 0.15483
# Poissons Ratio (y) = 0.92834 0.14848
# Poissons Ratio (z) = 0.22916 0.06739
#
# Static dielectric constant tensor:
#      x y z
#    x 1.671220 0.000000 0.000000 
#    y 0.000000 1.646710 0.000000 
#    z 0.000000 0.000000 1.658720 
# 
# From -- ./inp_files/6492.got.cif
#   From: 2010.05.17/outbox.cif.g08.bks.cpg/sg38_4_cif.got.tgz:6492.got - 2010.06.03 18:07:57.
