data_PCOD9357074
_publ_section_title
;
Structure prediction by ZEFSAII (Michael W. Deem and Ramdas Pophale) SiO2 
 PCOD9357074
Probable space group: A M M 2
;
_chemical_formula_sum "Si O2"
_cell_formula_units_Z 48
_cell_length_a 19.420149
_cell_length_b 7.690019
_cell_length_c 15.552020
_cell_angle_alpha 90.000000
_cell_angle_beta 90.000000
_cell_angle_gamma 90.000000
_cell_volume 2322.559114
_symmetry_space_group_name_H-M "A M M 2"
_symmetry_group_IT_number 38
_symmetry_cell_setting 'orthorhombic'
loop_
_space_group_symop_operation_xyz
x,y,z
-x,-y,z
-x,y,z
x,-y,z
x,1/2+y,1/2+z
-x,1/2-y,1/2+z
-x,1/2+y,1/2+z
x,1/2-y,1/2+z
loop_
_atom_site_type_symbol
_atom_site_label
_atom_site_fract_x
_atom_site_fract_y
_atom_site_fract_z
Si Si1 0.163410 0.210417 0.067730
Si Si2 0.078120 0.712906 0.730166
Si Si3 0.319311 0.286829 0.591486
Si Si4 0.185300 0.296336 0.873991
Si Si5 0.341019 0.799335 0.899865
Si Si6 0.423042 0.203699 0.235576
O O1 0.107047 0.265721 0.136995
O O2 0.239448 0.264166 0.100607
O O3 0.162704 0.000000 0.063572
O O4 0.156140 0.275428 0.970443
O O5 0.078003 0.500000 0.731970
O O6 0.131392 0.770418 0.803736
O O7 0.000000 0.770559 0.744570
O O8 0.318909 0.500000 0.591427
O O9 0.343736 0.228688 0.496957
O O10 0.369130 0.222646 0.666363
O O11 0.196927 0.500000 0.856379
O O12 0.260813 0.212210 0.872568
O O13 0.389318 0.714763 0.829302
O O14 0.361335 0.000000 0.903543
O O15 0.500000 0.278845 0.232867
O O16 0.428803 0.000000 0.214176
#
# Coordination Sequence:
#
# PCOD9357074 Si02
#       6
#     8   8   8   8   8   8
#     4   9  17  32  53  74  98 131 173 215 252 296
#     4   9  18  32  51  75 104 140 175 205 248 312
#     4   8  16  32  52  72  96 132 172 204 242 299
#     4  10  19  33  54  77 102 133 172 215 256 301
#     4  10  20  35  55  77 102 133 172 214 255 301
#     4  10  20  34  53  77 104 134 168 206 251 304
#
# _framework density 20.666857
#
# number of rings (size 3 to 8) (size 9 to 14) (size 15 to 20)
#    0.000    2.667    0.000    3.000    0.000    4.333 
#    0.000   10.833    0.000    3.500    0.000    0.000 
#    0.000    0.000    0.000    0.000    0.000    0.000 
#
# Total GULP energy -133953.411802 kJ/mol
# GULP energy per Si atom -5581.392158 kJ/mol
# Density = 2.061982 g / cm^3
# Si number density = 20.666857 Si / 1000 Ang^3
#
#
#
# Elastic Constant Matrix: (Units=GPa)
#
#
# Indices 1 2 3 4 5 6 
#
# 1 51.9459 -8.7848 29.1441 0.0000 0.0000 0.0000
# 2 -8.7848 32.6714 -10.1793 0.0000 0.0000 0.0000
# 3 29.1441 -10.1793 48.1432 0.0000 0.0000 0.0000
# 4 0.0000 0.0000 0.0000 23.7010 0.0000 0.0000
# 5 0.0000 0.0000 0.0000 0.0000 2.2589 0.0000
# 6 0.0000 0.0000 0.0000 0.0000 0.0000 11.9097
#
#
#
# Elastic Compliance Matrix: (Units=1/GPa)
#
#
# Indices 1 2 3 4 5 6 
#
# 1 0.029345 0.002522 -0.017231 0.000000 0.000000 0.000000
# 2 0.002522 0.032983 0.005447 0.000000 0.000000 0.000000
# 3 -0.017231 0.005447 0.032354 0.000000 0.000000 0.000000
# 4 0.000000 0.000000 0.000000 0.042192 0.000000 0.000000
# 5 0.000000 0.000000 0.000000 0.000000 0.442694 0.000000
# 6 0.000000 0.000000 0.000000 0.000000 0.000000 0.083965
#
#
# Mechanical properties :
#
#
# Convention : Reuss Voigt Hill
#
# Bulk Modulus (GPa) = 13.13059 17.01338 15.07199
# Shear Modulus (GPa) = 7.06771 15.74595 11.40683
#
# Velocity S-wave (km/s) = 1.85128 2.76324 2.35189
# Velocity P-wave (km/s) = 3.30710 4.29310 3.83195
#
# Compressibility (1/GPa) = 0.07615806
#
# Stress axis : x y z
#
# Youngs Moduli (GPa) = 34.07776 30.31854 30.90796
#
# Poissons Ratio (x) = -0.07646 0.53257
# Poissons Ratio (y) = -0.08593 -0.16837
# Poissons Ratio (z) = 0.58719 -0.16516
#
# Static dielectric constant tensor:
#      x y z
#    x 1.713550 0.000000 0.000000 
#    y 0.000000 1.784170 0.000000 
#    z 0.000000 0.000000 1.720270 
# 
# From -- ./inp_files/14969.got.cif
#   From: 2010.05.17/outbox.cif.g08.bks.cpg/sg38_8_cif.got.tgz:14969.got - 2010.06.03 18:07:57.
