data_PCOD9357005
_publ_section_title
;
Structure prediction by ZEFSAII (Michael W. Deem and Ramdas Pophale) SiO2 
 PCOD9357005
Probable space group: A M M 2
;
_chemical_formula_sum "Si O2"
_cell_formula_units_Z 34
_cell_length_a 7.449615
_cell_length_b 8.217724
_cell_length_c 27.071699
_cell_angle_alpha 90.000000
_cell_angle_beta 90.000000
_cell_angle_gamma 90.000000
_cell_volume 1657.299092
_symmetry_space_group_name_H-M "A M M 2"
_symmetry_group_IT_number 38
_symmetry_cell_setting 'orthorhombic'
loop_
_space_group_symop_operation_xyz
x,y,z
-x,-y,z
-x,y,z
x,-y,z
x,1/2+y,1/2+z
-x,1/2-y,1/2+z
-x,1/2+y,1/2+z
x,1/2-y,1/2+z
loop_
_atom_site_type_symbol
_atom_site_label
_atom_site_fract_x
_atom_site_fract_y
_atom_site_fract_z
Si Si1 0.713485 0.807288 0.868260
Si Si2 0.716823 0.687867 0.759493
Si Si3 0.000000 0.500000 0.512499
Si Si4 0.000000 0.183505 0.443384
Si Si5 0.206639 0.500000 0.608049
Si Si6 0.208926 0.323505 0.154527
O O1 0.500000 0.777156 0.873066
O O2 0.768585 0.757084 0.812810
O O3 0.828111 0.709650 0.908001
O O4 0.745468 0.000000 0.875062
O O5 0.500000 0.691950 0.757549
O O6 0.773989 0.500000 0.754653
O O7 0.783468 0.789620 0.712986
O O8 0.000000 0.334035 0.481483
O O9 0.170742 0.500000 0.549692
O O10 0.000000 0.000000 0.464257
O O11 0.290168 0.665908 0.627882
O O12 0.000000 0.500000 0.629146
O O13 0.288991 0.500000 0.143687
O O14 0.000000 0.330715 0.139226
#
# Coordination Sequence:
#
# PCOD9357005 Si02
#       6
#     8   8   2   4   4   8
#     4  10  21  39  61  88 127 167 207 256 307 365
#     4  10  20  33  52  82 121 161 197 236 289 360
#     4  10  22  42  62  88 120 144 214 260 310 374
#     4  12  24  40  65  93 121 160 206 263 316 375
#     4   8  18  36  57  80 115 146 185 255 293 340
#     4  10  19  32  54  83 111 148 193 228 286 352
#
# _framework density 20.515305999999999
#
# number of rings (size 3 to 8) (size 9 to 14) (size 15 to 20)
#    0.353    1.647    2.353    1.412    1.647    3.765 
#    0.000    0.000    0.000    2.824    0.000    3.294 
#    0.000    0.000    0.000    0.000    0.000    0.000 
#
# Total GULP energy -94894.531054 kJ/mol
# GULP energy per Si atom -5582.031238 kJ/mol
# Density = 2.046861 g / cm^3
# Si number density = 20.515306 Si / 1000 Ang^3
#
#
#
# Elastic Constant Matrix: (Units=GPa)
#
#
# Indices 1 2 3 4 5 6 
#
# 1 62.1090 26.2616 9.6172 0.0000 0.0000 0.0000
# 2 26.2616 199.5103 65.0462 0.0000 0.0000 0.0000
# 3 9.6172 65.0462 101.3883 0.0000 0.0000 0.0000
# 4 0.0000 0.0000 0.0000 30.2282 0.0000 0.0000
# 5 0.0000 0.0000 0.0000 0.0000 38.3853 0.0000
# 6 0.0000 0.0000 0.0000 0.0000 0.0000 3.7868
#
#
#
# Elastic Compliance Matrix: (Units=1/GPa)
#
#
# Indices 1 2 3 4 5 6 
#
# 1 0.017054 -0.002172 -0.000224 0.000000 0.000000 0.000000
# 2 -0.002172 0.006614 -0.004038 0.000000 0.000000 0.000000
# 3 -0.000224 -0.004038 0.012475 0.000000 0.000000 0.000000
# 4 0.000000 0.000000 0.000000 0.033082 0.000000 0.000000
# 5 0.000000 0.000000 0.000000 0.000000 0.026052 0.000000
# 6 0.000000 0.000000 0.000000 0.000000 0.000000 0.264075
#
#
# Mechanical properties :
#
#
# Convention : Reuss Voigt Hill
#
# Bulk Modulus (GPa) = 42.96330 62.76195 52.86263
# Shear Modulus (GPa) = 13.15868 31.95223 22.55545
#
# Velocity S-wave (km/s) = 2.53535 3.95078 3.31939
# Velocity P-wave (km/s) = 5.43675 7.17431 6.36510
#
# Compressibility (1/GPa) = 0.02327568
#
# Stress axis : x y z
#
# Youngs Moduli (GPa) = 58.63826 151.18316 80.16231
#
# Poissons Ratio (x) = 0.32831 0.01799
# Poissons Ratio (y) = 0.12734 0.32366
# Poissons Ratio (z) = 0.01316 0.61041
#
# Static dielectric constant tensor:
#      x y z
#    x 1.742050 0.000000 0.000000 
#    y 0.000000 1.770990 0.000000 
#    z 0.000000 0.000000 1.691390 
# 
# From -- ./inp_files/23175.got.cif
#   From: 2010.05.17/outbox.cif.g08.bks.cpg/sg38_12_cif.got.tgz:23175.got - 2010.06.03 18:07:57.
