data_PCOD9357263
_publ_section_title
;
Structure prediction by ZEFSAII (Michael W. Deem and Ramdas Pophale) SiO2 
 PCOD9357263
Probable space group: A M M 2
;
_chemical_formula_sum "Si O2"
_cell_formula_units_Z 56
_cell_length_a 17.064969
_cell_length_b 8.785078
_cell_length_c 20.960331
_cell_angle_alpha 90.000000
_cell_angle_beta 90.000000
_cell_angle_gamma 90.000000
_cell_volume 3142.311698
_symmetry_space_group_name_H-M "A M M 2"
_symmetry_group_IT_number 38
_symmetry_cell_setting 'orthorhombic'
loop_
_space_group_symop_operation_xyz
x,y,z
-x,-y,z
-x,y,z
x,-y,z
x,1/2+y,1/2+z
-x,1/2-y,1/2+z
-x,1/2+y,1/2+z
x,1/2-y,1/2+z
loop_
_atom_site_type_symbol
_atom_site_label
_atom_site_fract_x
_atom_site_fract_y
_atom_site_fract_z
Si Si1 0.500000 0.815236 0.305600
Si Si2 0.245502 0.316288 0.983680
Si Si3 0.331365 0.815900 0.352993
Si Si4 0.336755 0.683843 0.111594
Si Si5 0.910336 0.182317 0.933780
Si Si6 0.091034 0.679246 0.792890
Si Si7 0.235275 0.818137 0.734902
Si Si8 0.500000 0.317171 0.656515
O O1 0.421040 0.767327 0.341438
O O2 0.500000 0.766451 0.231307
O O3 0.500000 0.000000 0.304711
O O4 0.238948 0.500000 0.983992
O O5 0.293546 0.270359 0.046427
O O6 0.294256 0.271280 0.920521
O O7 0.158513 0.248310 0.977534
O O8 0.281520 0.747230 0.295512
O O9 0.328140 0.000000 0.349082
O O10 0.345241 0.500000 0.111079
O O11 0.281493 0.726201 0.171197
O O12 0.421719 0.755798 0.123011
O O13 0.896187 0.243934 0.861989
O O14 0.000000 0.226713 0.951281
O O15 0.906167 0.000000 0.933053
O O16 0.107474 0.500000 0.799506
O O17 0.148503 0.751605 0.741442
O O18 0.000000 0.699632 0.776439
O O19 0.232661 0.000000 0.738186
O O20 0.500000 0.500000 0.655862
#
# Coordination Sequence:
#
# PCOD9357263 Si02
#       8
#     4   8   8   8   8   8   8   4
#     4   9  18  32  53  83 111 136 182 239 284 326
#     4  10  21  37  58  83 113 152 193 231 276 334
#     4  10  19  34  57  82 108 141 187 237 279 328
#     4  10  23  40  57  82 117 155 191 230 281 338
#     4  10  20  34  55  84 116 147 182 230 286 338
#     4  10  20  34  55  83 113 146 188 235 280 333
#     4  11  21  34  55  82 113 147 185 232 283 331
#     4  11  21  36  59  85 111 146 192 237 282 338
#
# _framework density 17.821275
#
# number of rings (size 3 to 8) (size 9 to 14) (size 15 to 20)
#    0.000    1.857    2.857    1.500    0.000    3.429 
#    0.000    3.214    0.000    4.286    0.000    0.000 
#    0.000    0.000    0.000    0.000    0.000    0.000 
#
# Total GULP energy -156316.108596 kJ/mol
# GULP energy per Si atom -5582.718164 kJ/mol
# Density = 1.778071 g / cm^3
# Si number density = 17.821275 Si / 1000 Ang^3
#
#
#
# Elastic Constant Matrix: (Units=GPa)
#
#
# Indices 1 2 3 4 5 6 
#
# 1 159.8633 46.2520 86.3544 0.0000 0.0000 0.0000
# 2 46.2520 28.9637 39.4191 0.0000 0.0000 0.0000
# 3 86.3544 39.4191 136.8324 0.0000 0.0000 0.0000
# 4 0.0000 0.0000 0.0000 21.5742 0.0000 0.0000
# 5 0.0000 0.0000 0.0000 0.0000 25.3726 0.0000
# 6 0.0000 0.0000 0.0000 0.0000 0.0000 32.5868
#
#
#
# Elastic Compliance Matrix: (Units=1/GPa)
#
#
# Indices 1 2 3 4 5 6 
#
# 1 0.012592 -0.015286 -0.003543 0.000000 0.000000 0.000000
# 2 -0.015286 0.075349 -0.012060 0.000000 0.000000 0.000000
# 3 -0.003543 -0.012060 0.013019 0.000000 0.000000 0.000000
# 4 0.000000 0.000000 0.000000 0.046352 0.000000 0.000000
# 5 0.000000 0.000000 0.000000 0.000000 0.039413 0.000000
# 6 0.000000 0.000000 0.000000 0.000000 0.000000 0.030687
#
#
# Mechanical properties :
#
#
# Convention : Reuss Voigt Hill
#
# Bulk Modulus (GPa) = 25.52200 74.41227 49.96713
# Shear Modulus (GPa) = 17.10869 26.14899 21.62884
#
# Velocity S-wave (km/s) = 3.10177 3.83468 3.48753
# Velocity P-wave (km/s) = 5.21346 7.83912 6.65702
#
# Compressibility (1/GPa) = 0.03918188
#
# Stress axis : x y z
#
# Youngs Moduli (GPa) = 79.41766 13.27153 76.81347
#
# Poissons Ratio (x) = 0.20286 0.27215
# Poissons Ratio (y) = 1.21394 0.92639
# Poissons Ratio (z) = 0.28138 0.16006
#
# Static dielectric constant tensor:
#      x y z
#    x 1.624070 0.000000 0.000000 
#    y 0.000000 1.601100 0.000000 
#    z 0.000000 0.000000 1.581870 
# 
# From -- ./inp_files/21171.got.cif
#   From: 2010.05.17/outbox.cif.g08.bks.cpg/sg38_11_cif.got.tgz:21171.got - 2010.06.03 18:07:57.
