data_PCOD9357863
_publ_section_title
;
Structure prediction by ZEFSAII (Michael W. Deem and Ramdas Pophale) SiO2 
 PCOD9357863
Probable space group: A M M 2
;
_chemical_formula_sum "Si O2"
_cell_formula_units_Z 64
_cell_length_a 13.147106
_cell_length_b 22.882624
_cell_length_c 12.294506
_cell_angle_alpha 90.000000
_cell_angle_beta 90.000000
_cell_angle_gamma 90.000000
_cell_volume 3698.682668
_symmetry_space_group_name_H-M "A M M 2"
_symmetry_group_IT_number 38
_symmetry_cell_setting 'orthorhombic'
loop_
_space_group_symop_operation_xyz
x,y,z
-x,-y,z
-x,y,z
x,-y,z
x,1/2+y,1/2+z
-x,1/2-y,1/2+z
-x,1/2+y,1/2+z
x,1/2-y,1/2+z
loop_
_atom_site_type_symbol
_atom_site_label
_atom_site_fract_x
_atom_site_fract_y
_atom_site_fract_z
Si Si1 0.885490 0.570661 0.121950
Si Si2 0.244896 0.069459 0.834757
Si Si3 0.616956 0.663966 0.251695
Si Si4 0.880415 0.854629 0.992257
Si Si5 0.616956 0.163966 0.492205
Si Si6 0.755104 0.569459 0.909143
Si Si7 0.231900 0.250000 0.371950
Si Si8 0.119585 0.645371 0.751643
O O1 0.890944 0.500000 0.121950
O O2 0.825234 0.586494 0.230679
O O3 0.000000 0.594180 0.121950
O O4 0.825234 0.586494 0.013221
O O5 0.347953 0.105158 0.813599
O O6 0.185427 0.093352 0.939341
O O7 0.258374 0.000000 0.836554
O O8 0.500000 0.678733 0.276579
O O9 0.694552 0.713480 0.292149
O O10 0.625304 0.655563 0.121950
O O11 0.836858 0.795734 0.937925
O O12 0.000000 0.861910 0.967089
O O13 0.868642 0.852566 0.121950
O O14 0.500000 0.178733 0.467321
O O15 0.652047 0.105158 0.430302
O O16 0.694552 0.213480 0.451752
O O17 0.741626 0.500000 0.907346
O O18 0.814573 0.593352 0.804559
O O19 0.163142 0.204266 0.305975
O O20 0.000000 0.638090 0.776811
#
# Coordination Sequence:
#
# PCOD9357863 Si02
#       8
#     8   8   8   8   8   8   8   8
#     4   9  16  28  47  71 101 135 170 208 252 305
#     4  10  20  34  52  77 109 141 178 221 266 316
#     4  10  20  34  54  79 106 138 179 227 275 319
#     4  10  21  36  55  80 109 143 181 219 264 321
#     4  10  20  34  54  79 106 138 179 227 275 319
#     4  10  20  34  52  77 109 141 178 221 266 316
#     4  10  20  36  56  78 106 140 178 224 274 320
#     4  10  21  36  55  80 109 143 181 219 264 321
#
# _framework density 17.303457999999999
#
# number of rings (size 3 to 8) (size 9 to 14) (size 15 to 20)
#    0.000    2.125    1.250    2.250    0.000    2.500 
#    0.000    2.500    0.000    6.750    0.000    7.000 
#    0.000    0.000    0.000    0.000    0.000    0.000 
#
# Total GULP energy -178525.996841 kJ/mol
# GULP energy per Si atom -5578.937401 kJ/mol
# Density = 1.726407 g / cm^3
# Si number density = 17.303458 Si / 1000 Ang^3
#
#
#
# Elastic Constant Matrix: (Units=GPa)
#
#
# Indices 1 2 3 4 5 6 
#
# 1 55.2324 3.6643 24.5432 0.0000 0.0000 0.0000
# 2 3.6643 70.2246 12.5657 0.0000 0.0000 0.0000
# 3 24.5432 12.5657 65.0172 0.0000 0.0000 0.0000
# 4 0.0000 0.0000 0.0000 18.1972 0.0000 0.0000
# 5 0.0000 0.0000 0.0000 0.0000 29.1297 0.0000
# 6 0.0000 0.0000 0.0000 0.0000 0.0000 17.7835
#
#
#
# Elastic Compliance Matrix: (Units=1/GPa)
#
#
# Indices 1 2 3 4 5 6 
#
# 1 0.021763 0.000346 -0.008282 0.000000 0.000000 0.000000
# 2 0.000346 0.014756 -0.002983 0.000000 0.000000 0.000000
# 3 -0.008282 -0.002983 0.019083 0.000000 0.000000 0.000000
# 4 0.000000 0.000000 0.000000 0.054953 0.000000 0.000000
# 5 0.000000 0.000000 0.000000 0.000000 0.034329 0.000000
# 6 0.000000 0.000000 0.000000 0.000000 0.000000 0.056232
#
#
# Mechanical properties :
#
#
# Convention : Reuss Voigt Hill
#
# Bulk Modulus (GPa) = 29.61634 30.22451 29.92042
# Shear Modulus (GPa) = 21.34861 23.00217 22.17539
#
# Velocity S-wave (km/s) = 3.51633 3.64997 3.58377
# Velocity P-wave (km/s) = 5.79992 5.93871 5.86972
#
# Compressibility (1/GPa) = 0.03376515
#
# Stress axis : x y z
#
# Youngs Moduli (GPa) = 45.95048 67.77072 52.40180
#
# Poissons Ratio (x) = -0.02347 0.43399
# Poissons Ratio (y) = -0.01592 0.15629
# Poissons Ratio (z) = 0.38056 0.20213
#
# Static dielectric constant tensor:
#      x y z
#    x 1.580520 0.000000 0.000000 
#    y 0.000000 1.578410 0.000000 
#    z 0.000000 0.000000 1.568570 
# 
# From -- ./inp_files/9580.got.cif
#   From: 2010.05.17/outbox.cif.g08.bks.cpg/sg38_5_cif.got.tgz:9580.got - 2010.06.03 18:07:57.
