data_PCOD9357651
_publ_section_title
;
Structure prediction by ZEFSAII (Michael W. Deem and Ramdas Pophale) SiO2 
 PCOD9357651
Probable space group: A M M 2
;
_chemical_formula_sum "Si O2"
_cell_formula_units_Z 64
_cell_length_a 7.595283
_cell_length_b 14.747421
_cell_length_c 29.190826
_cell_angle_alpha 90.000000
_cell_angle_beta 90.000000
_cell_angle_gamma 90.000000
_cell_volume 3269.688824
_symmetry_space_group_name_H-M "A M M 2"
_symmetry_group_IT_number 38
_symmetry_cell_setting 'orthorhombic'
loop_
_space_group_symop_operation_xyz
x,y,z
-x,-y,z
-x,y,z
x,-y,z
x,1/2+y,1/2+z
-x,1/2-y,1/2+z
-x,1/2+y,1/2+z
x,1/2-y,1/2+z
loop_
_atom_site_type_symbol
_atom_site_label
_atom_site_fract_x
_atom_site_fract_y
_atom_site_fract_z
Si Si1 0.785190 0.750574 0.437550
Si Si2 0.710611 0.397841 0.116752
Si Si3 0.292249 0.256863 0.684235
Si Si4 0.792360 0.101538 0.111105
Si Si5 0.784900 0.396519 0.363865
Si Si6 0.212440 0.754660 0.541791
Si Si7 0.211700 0.250281 0.290876
Si Si8 0.784897 0.603330 0.863510
O O1 0.732123 0.662245 0.408249
O O2 0.723473 0.751776 0.489720
O O3 0.732003 0.838400 0.407987
O O4 0.000000 0.750456 0.438226
O O5 0.500000 0.403720 0.122573
O O6 0.781168 0.500000 0.118307
O O7 0.780085 0.330156 0.156304
O O8 0.744001 0.346391 0.069037
O O9 0.500000 0.258109 0.676576
O O10 0.223887 0.347441 0.659637
O O11 0.260246 0.250997 0.737998
O O12 0.719997 0.171023 0.072899
O O13 0.000000 0.094065 0.101621
O O14 0.717996 0.000000 0.110871
O O15 0.724124 0.500000 0.364117
O O16 0.728489 0.338634 0.319406
O O17 0.000000 0.398069 0.363664
O O18 0.000000 0.748647 0.540505
O O19 0.271427 0.161965 0.319371
O O20 0.000000 0.250486 0.293176
O O21 0.723862 0.500000 0.863484
O O22 0.000000 0.601774 0.863266
#
# Coordination Sequence:
#
# PCOD9357651 Si02
#       8
#     8   8   8   8   8   8   8   8
#     4   8  14  24  40  65  94 119 145 180 220 262
#     4   9  19  35  50  64  88 123 157 186 225 281
#     4  10  20  33  49  68  90 118 153 194 235 274
#     4   9  18  32  48  67  94 125 153 184 226 275
#     4   8  14  25  42  66  95 123 150 183 224 270
#     4   9  17  29  47  73  98 118 149 193 232 265
#     4   9  17  29  45  66  90 116 150 188 224 268
#     4   8  14  25  41  62  89 119 147 175 212 260
#
# _framework density 19.573727999999999
#
# number of rings (size 3 to 8) (size 9 to 14) (size 15 to 20)
#    0.000    3.250    0.000    1.875    0.000    3.000 
#    0.000    5.000    0.000    3.000    0.000    0.000 
#    0.000    0.000    0.000    0.000    0.000    0.000 
#
# Total GULP energy -178397.122938 kJ/mol
# GULP energy per Si atom -5574.910092 kJ/mol
# Density = 1.952918 g / cm^3
# Si number density = 19.573728 Si / 1000 Ang^3
#
#
#
# Elastic Constant Matrix: (Units=GPa)
#
#
# Indices 1 2 3 4 5 6 
#
# 1 40.6496 5.0680 -5.6408 0.0000 0.0000 0.0000
# 2 5.0680 198.8867 85.8596 0.0000 0.0000 0.0000
# 3 -5.6408 85.8596 160.4193 0.0000 0.0000 0.0000
# 4 0.0000 0.0000 0.0000 7.0166 0.0000 0.0000
# 5 0.0000 0.0000 0.0000 0.0000 -27.1718 0.0000
# 6 0.0000 0.0000 0.0000 0.0000 0.0000 2.5973
#
#
#
# Elastic Compliance Matrix: (Units=1/GPa)
#
#
# Indices 1 2 3 4 5 6 
#
# 1 0.024985 -0.001321 0.001586 0.000000 0.000000 0.000000
# 2 -0.001321 0.006609 -0.003584 0.000000 0.000000 0.000000
# 3 0.001586 -0.003584 0.008207 0.000000 0.000000 0.000000
# 4 0.000000 0.000000 0.000000 0.142519 0.000000 0.000000
# 5 0.000000 0.000000 0.000000 0.000000 -0.036803 0.000000
# 6 0.000000 0.000000 0.000000 0.000000 0.000000 0.385019
#
#
# Mechanical properties :
#
#
# Convention : Reuss Voigt Hill
#
# Bulk Modulus (GPa) = 30.15389 63.39212 46.77300
# Shear Modulus (GPa) = 9.12028 17.46633 13.29330
#
# Velocity S-wave (km/s) = 2.16092 2.99044 2.60886
# Velocity P-wave (km/s) = 4.65455 6.66185 5.74652
#
# Compressibility (1/GPa) = 0.03316322
#
# Stress axis : x y z
#
# Youngs Moduli (GPa) = 40.02356 151.31619 121.84111
#
# Poissons Ratio (x) = 0.19992 -0.19320
# Poissons Ratio (y) = 0.05288 0.43662
# Poissons Ratio (z) = -0.06347 0.54225
#
# Static dielectric constant tensor:
#      x y z
#    x 1.728220 0.000000 0.000000 
#    y 0.000000 1.681480 0.000000 
#    z 0.000000 0.000000 1.661700 
# 
# From -- ./inp_files/24786.got.cif
#   From: 2010.05.17/outbox.cif.g08.bks.cpg/sg38_13_cif.got.tgz:24786.got - 2010.06.03 18:07:57.
