data_PCOD9357965
_publ_section_title
;
Structure prediction by ZEFSAII (Michael W. Deem and Ramdas Pophale) SiO2 
 PCOD9357965
Probable space group: A M M 2
;
_chemical_formula_sum "Si O2"
_cell_formula_units_Z 64
_cell_length_a 19.574503
_cell_length_b 8.928225
_cell_length_c 21.011092
_cell_angle_alpha 90.000000
_cell_angle_beta 90.000000
_cell_angle_gamma 90.000000
_cell_volume 3672.015408
_symmetry_space_group_name_H-M "A M M 2"
_symmetry_group_IT_number 38
_symmetry_cell_setting 'orthorhombic'
loop_
_space_group_symop_operation_xyz
x,y,z
-x,-y,z
-x,y,z
x,-y,z
x,1/2+y,1/2+z
-x,1/2-y,1/2+z
-x,1/2+y,1/2+z
x,1/2-y,1/2+z
loop_
_atom_site_type_symbol
_atom_site_label
_atom_site_fract_x
_atom_site_fract_y
_atom_site_fract_z
Si Si1 0.708575 0.679935 0.985930
Si Si2 0.421555 0.821474 0.041112
Si Si3 0.920904 0.822064 0.165192
Si Si4 0.921555 0.821474 0.804834
Si Si5 0.791425 0.679935 0.860016
Si Si6 0.708893 0.179078 0.231803
Si Si7 0.208893 0.320922 0.114143
Si Si8 0.579095 0.677936 0.180754
O O1 0.698806 0.500000 0.984643
O O2 0.750000 0.723698 0.922973
O O3 0.635482 0.757922 0.994102
O O4 0.753126 0.716546 0.048517
O O5 0.500000 0.789225 0.021856
O O6 0.410631 0.745050 0.110034
O O7 0.414295 0.000000 0.048033
O O8 0.910631 0.754950 0.235912
O O9 0.867218 0.744169 0.118852
O O10 0.000000 0.795928 0.147800
O O11 0.908633 0.000000 0.167565
O O12 0.864518 0.757922 0.851844
O O13 0.000000 0.789224 0.824090
O O14 0.914295 0.000000 0.797913
O O15 0.801194 0.500000 0.861303
O O16 0.746874 0.716545 0.797428
O O17 0.750000 0.250000 0.172973
O O18 0.632782 0.244170 0.227094
O O19 0.707741 0.000000 0.225060
O O20 0.207741 0.500000 0.120886
O O21 0.500000 0.704075 0.198146
O O22 0.591366 0.500000 0.178381
#
# Coordination Sequence:
#
# PCOD9357965 Si02
#       8
#     8   8   8   8   8   8   8   8
#     4  10  22  39  57  80 111 149 189 226 272 331
#     4  10  20  34  55  83 111 142 183 229 278 331
#     4  10  20  34  54  81 112 146 184 228 278 331
#     4  10  20  34  55  83 111 142 183 229 278 331
#     4  10  22  39  57  80 111 149 189 226 272 331
#     4  11  21  34  56  83 111 142 181 230 278 327
#     4  11  21  34  56  83 111 142 181 230 278 327
#     4  10  20  34  54  81 112 146 184 228 278 331
#
# _framework density 17.429120999999999
#
# number of rings (size 3 to 8) (size 9 to 14) (size 15 to 20)
#    0.000    1.750    2.500    2.250    0.000    4.500 
#    0.000    1.250    0.000    7.500    0.000    0.000 
#    0.000    0.000    0.000    0.000    0.000    0.000 
#
# Total GULP energy -178702.747480 kJ/mol
# GULP energy per Si atom -5584.460859 kJ/mol
# Density = 1.738945 g / cm^3
# Si number density = 17.429121 Si / 1000 Ang^3
#
#
#
# Elastic Constant Matrix: (Units=GPa)
#
#
# Indices 1 2 3 4 5 6 
#
# 1 145.6271 65.5933 69.7036 0.0000 0.0000 0.0000
# 2 65.5933 58.4265 48.9023 0.0000 0.0000 0.0000
# 3 69.7036 48.9023 100.4279 0.0000 0.0000 0.0000
# 4 0.0000 0.0000 0.0000 21.7336 0.0000 0.0000
# 5 0.0000 0.0000 0.0000 0.0000 29.6714 0.0000
# 6 0.0000 0.0000 0.0000 0.0000 0.0000 37.1706
#
#
#
# Elastic Compliance Matrix: (Units=1/GPa)
#
#
# Indices 1 2 3 4 5 6 
#
# 1 0.014640 -0.013387 -0.003642 0.000000 0.000000 0.000000
# 2 -0.013387 0.041132 -0.010737 0.000000 0.000000 0.000000
# 3 -0.003642 -0.010737 0.017714 0.000000 0.000000 0.000000
# 4 0.000000 0.000000 0.000000 0.046012 0.000000 0.000000
# 5 0.000000 0.000000 0.000000 0.000000 0.033703 0.000000
# 6 0.000000 0.000000 0.000000 0.000000 0.000000 0.026903
#
#
# Mechanical properties :
#
#
# Convention : Reuss Voigt Hill
#
# Bulk Modulus (GPa) = 55.70360 74.76443 65.23401
# Shear Modulus (GPa) = 20.69362 25.73393 23.21378
#
# Velocity S-wave (km/s) = 3.44946 3.84668 3.65347
# Velocity P-wave (km/s) = 6.92059 7.91951 7.43684
#
# Compressibility (1/GPa) = 0.01795216
#
# Stress axis : x y z
#
# Youngs Moduli (GPa) = 68.30507 24.31216 56.45330
#
# Poissons Ratio (x) = 0.32547 0.20563
# Poissons Ratio (y) = 0.91442 0.60614
# Poissons Ratio (z) = 0.24880 0.26104
#
# Static dielectric constant tensor:
#      x y z
#    x 1.614970 0.000000 0.000000 
#    y 0.000000 1.581830 0.000000 
#    z 0.000000 0.000000 1.560670 
# 
# From -- ./inp_files/21425.got.cif
#   From: 2010.05.17/outbox.cif.g08.bks.cpg/sg38_11_cif.got.tgz:21425.got - 2010.06.03 18:07:57.
