data_PCOD9357422
_publ_section_title
;
Structure prediction by ZEFSAII (Michael W. Deem and Ramdas Pophale) SiO2 
 PCOD9357422
Probable space group: A M M 2
;
_chemical_formula_sum "Si O2"
_cell_formula_units_Z 40
_cell_length_a 8.442946
_cell_length_b 9.990121
_cell_length_c 26.573401
_cell_angle_alpha 90.000000
_cell_angle_beta 90.000000
_cell_angle_gamma 90.000000
_cell_volume 2241.361466
_symmetry_space_group_name_H-M "A M M 2"
_symmetry_group_IT_number 38
_symmetry_cell_setting 'orthorhombic'
loop_
_space_group_symop_operation_xyz
x,y,z
-x,-y,z
-x,y,z
x,-y,z
x,1/2+y,1/2+z
-x,1/2-y,1/2+z
-x,1/2+y,1/2+z
x,1/2-y,1/2+z
loop_
_atom_site_type_symbol
_atom_site_label
_atom_site_fract_x
_atom_site_fract_y
_atom_site_fract_z
Si Si1 0.310203 0.785547 0.550080
Si Si2 0.807227 0.500000 0.694411
Si Si3 0.689046 0.000000 0.746880
Si Si4 0.809813 0.000000 0.472086
Si Si5 0.808899 0.715734 0.775845
Si Si6 0.692615 0.500000 0.131910
Si Si7 0.810358 0.000000 0.079051
Si Si8 0.806948 0.500000 0.856962
O O1 0.500000 0.785256 0.549419
O O2 0.248034 0.635472 0.553080
O O3 0.249874 0.870816 0.502733
O O4 0.257916 0.870084 0.599641
O O5 0.758009 0.629941 0.726681
O O6 0.751407 0.500000 0.637162
O O7 0.000000 0.500000 0.693796
O O8 0.745937 0.135077 0.773235
O O9 0.500000 0.000000 0.745164
O O10 0.750235 0.000000 0.688997
O O11 0.753404 0.000000 0.414411
O O12 0.000000 0.000000 0.472499
O O13 0.758497 0.629587 0.824434
O O14 0.000000 0.718930 0.775573
O O15 0.500000 0.500000 0.132909
O O16 0.000000 0.000000 0.079795
O O17 0.000000 0.500000 0.857366
#
# Coordination Sequence:
#
# PCOD9357422 Si02
#       8
#     8   4   4   4   8   4   4   4
#     4  10  20  35  52  74 103 138 171 204 250 306
#     4   8  16  30  51  76 102 131 170 207 239 284
#     4  11  20  30  45  74 109 136 163 202 241 283
#     4  10  19  36  59  79  95 122 167 218 258 299
#     4   9  17  33  53  74  99 132 167 201 243 298
#     4   8  17  32  49  68 100 141 174 197 235 296
#     4  11  20  31  49  78 109 136 167 210 249 286
#     4   8  17  35  59  77  93 122 165 208 252 302
#
# _framework density 17.846294
#
# number of rings (size 3 to 8) (size 9 to 14) (size 15 to 20)
#    0.000    2.600    0.000    4.500    0.000    0.000 
#    0.000   11.000    0.000    2.400    0.000    0.000 
#    0.000    0.000    0.000    0.000    0.000    0.000 
#
# Total GULP energy -111584.071661 kJ/mol
# GULP energy per Si atom -5579.203583 kJ/mol
# Density = 1.780568 g / cm^3
# Si number density = 17.846294 Si / 1000 Ang^3
#
#
#
# Elastic Constant Matrix: (Units=GPa)
#
#
# Indices 1 2 3 4 5 6 
#
# 1 35.0903 33.8239 26.3925 0.0000 0.0000 0.0000
# 2 33.8239 198.1284 90.9075 0.0000 0.0000 0.0000
# 3 26.3925 90.9075 147.2006 0.0000 0.0000 0.0000
# 4 0.0000 0.0000 0.0000 -248.7249 0.0000 0.0000
# 5 0.0000 0.0000 0.0000 0.0000 15.9327 0.0000
# 6 0.0000 0.0000 0.0000 0.0000 0.0000 7.9572
#
#
#
# Elastic Compliance Matrix: (Units=1/GPa)
#
#
# Indices 1 2 3 4 5 6 
#
# 1 0.035467 -0.004377 -0.003656 0.000000 0.000000 0.000000
# 2 -0.004377 0.007583 -0.003898 0.000000 0.000000 0.000000
# 3 -0.003656 -0.003898 0.009856 0.000000 0.000000 0.000000
# 4 0.000000 0.000000 0.000000 -0.004021 0.000000 0.000000
# 5 0.000000 0.000000 0.000000 0.000000 0.062764 0.000000
# 6 0.000000 0.000000 0.000000 0.000000 0.000000 0.125673
#
#
# Mechanical properties :
#
#
# Convention : Reuss Voigt Hill
#
# Bulk Modulus (GPa) = 34.43102 75.85191 55.14146
# Shear Modulus (GPa) = 18.45927 -29.68063 -5.61068
#
# Velocity S-wave (km/s) = 3.21962 -4.08257 -1.77503
# Velocity P-wave (km/s) = 5.75814 4.51354 5.17340
#
# Compressibility (1/GPa) = 0.02904358
#
# Stress axis : x y z
#
# Youngs Moduli (GPa) = 28.19531 131.86995 101.45664
#
# Poissons Ratio (x) = 0.57726 0.37089
# Poissons Ratio (y) = 0.12342 0.39551
# Poissons Ratio (z) = 0.10307 0.51408
#
# Static dielectric constant tensor:
#      x y z
#    x 1.605870 0.000000 0.000000 
#    y 0.000000 1.851060 0.000000 
#    z 0.000000 0.000000 1.605810 
# 
# From -- ./inp_files/23325.got.cif
#   From: 2010.05.17/outbox.cif.g08.bks.cpg/sg38_12_cif.got.tgz:23325.got - 2010.06.03 18:07:57.
