data_PCOD9357810
_publ_section_title
;
Structure prediction by ZEFSAII (Michael W. Deem and Ramdas Pophale) SiO2 
 PCOD9357810
Probable space group: A M M 2
;
_chemical_formula_sum "Si O2"
_cell_formula_units_Z 56
_cell_length_a 21.793805
_cell_length_b 7.471566
_cell_length_c 15.741196
_cell_angle_alpha 90.000000
_cell_angle_beta 90.000000
_cell_angle_gamma 90.000000
_cell_volume 2563.199587
_symmetry_space_group_name_H-M "A M M 2"
_symmetry_group_IT_number 38
_symmetry_cell_setting 'orthorhombic'
loop_
_space_group_symop_operation_xyz
x,y,z
-x,-y,z
-x,y,z
x,-y,z
x,1/2+y,1/2+z
-x,1/2-y,1/2+z
-x,1/2+y,1/2+z
x,1/2-y,1/2+z
loop_
_atom_site_type_symbol
_atom_site_label
_atom_site_fract_x
_atom_site_fract_y
_atom_site_fract_z
Si Si1 0.635418 0.706729 0.433240
Si Si2 0.500000 0.217669 0.682500
Si Si3 0.070444 0.781374 0.387373
Si Si4 0.500000 0.215069 0.484867
Si Si5 0.286206 0.704782 0.091734
Si Si6 0.843544 0.292451 0.037364
Si Si7 0.632868 0.219889 0.746476
Si Si8 0.929468 0.283662 0.694211
O O1 0.653942 0.500000 0.438205
O O2 0.562057 0.718712 0.441894
O O3 0.666860 0.798250 0.513207
O O4 0.652256 0.777401 0.340359
O O5 0.500000 0.270878 0.583666
O O6 0.563213 0.276792 0.725719
O O7 0.500000 0.000000 0.684183
O O8 0.117572 0.716247 0.458686
O O9 0.086421 0.728927 0.290737
O O10 0.000000 0.725854 0.404991
O O11 0.069941 0.000000 0.389282
O O12 0.500000 0.000000 0.482193
O O13 0.271623 0.500000 0.116563
O O14 0.222505 0.788251 0.060448
O O15 0.321648 0.782865 0.172555
O O16 0.832141 0.500000 0.014067
O O17 0.885242 0.285214 0.121284
O O18 0.631989 0.000000 0.745914
O O19 0.927417 0.500000 0.691727
O O20 0.000000 0.229439 0.678090
#
# Coordination Sequence:
#
# PCOD9357810 Si02
#       8
#     8   4   8   4   8   8   8   8
#     4  11  22  36  57  82 106 136 179 224 263 309
#     4   9  15  29  57  78  95 135 174 200 251 322
#     4   8  15  30  51  75 105 140 173 210 267 327
#     4  11  20  35  61  84 107 139 172 214 271 324
#     4  10  21  38  55  75 107 147 184 215 260 321
#     4  10  20  33  54  80 105 139 183 224 259 307
#     4   9  18  34  55  76 102 141 179 210 263 331
#     4   9  18  33  53  76 104 139 175 213 266 327
#
# _framework density 21.847694000000001
#
# number of rings (size 3 to 8) (size 9 to 14) (size 15 to 20)
#    0.000    2.429    1.429    2.357    0.000    3.714 
#    0.000    2.143    0.000    0.857    0.000    0.000 
#    0.000    0.000    0.000    0.000    0.000    0.000 
#
# Total GULP energy -156397.848360 kJ/mol
# GULP energy per Si atom -5585.637441 kJ/mol
# Density = 2.179797 g / cm^3
# Si number density = 21.847694 Si / 1000 Ang^3
#
#
#
# Elastic Constant Matrix: (Units=GPa)
#
#
# Indices 1 2 3 4 5 6 
#
# 1 88.7486 -12.7654 37.4062 0.0000 0.0000 0.0000
# 2 -12.7654 63.0344 -10.8314 0.0000 0.0000 0.0000
# 3 37.4062 -10.8314 116.3562 0.0000 0.0000 0.0000
# 4 0.0000 0.0000 0.0000 10.1605 0.0000 0.0000
# 5 0.0000 0.0000 0.0000 0.0000 -12.3745 0.0000
# 6 0.0000 0.0000 0.0000 0.0000 0.0000 3.9621
#
#
#
# Elastic Compliance Matrix: (Units=1/GPa)
#
#
# Indices 1 2 3 4 5 6 
#
# 1 0.013274 0.001987 -0.004082 0.000000 0.000000 0.000000
# 2 0.001987 0.016420 0.000890 0.000000 0.000000 0.000000
# 3 -0.004082 0.000890 0.009990 0.000000 0.000000 0.000000
# 4 0.000000 0.000000 0.000000 0.098420 0.000000 0.000000
# 5 0.000000 0.000000 0.000000 0.000000 -0.080811 0.000000
# 6 0.000000 0.000000 0.000000 0.000000 0.000000 0.252390
#
#
# Mechanical properties :
#
#
# Convention : Reuss Voigt Hill
#
# Bulk Modulus (GPa) = 26.83016 32.86200 29.84608
# Shear Modulus (GPa) = 15.40747 17.30495 16.35621
#
# Velocity S-wave (km/s) = 2.65848 2.81743 2.73911
# Velocity P-wave (km/s) = 4.66161 5.06537 4.86768
#
# Compressibility (1/GPa) = 0.03727149
#
# Stress axis : x y z
#
# Youngs Moduli (GPa) = 75.33390 60.90283 100.10461
#
# Poissons Ratio (x) = -0.12100 0.40867
# Poissons Ratio (y) = -0.14967 -0.08907
# Poissons Ratio (z) = 0.30755 -0.05419
#
# Static dielectric constant tensor:
#      x y z
#    x 1.766970 0.000000 0.000000 
#    y 0.000000 1.828510 0.000000 
#    z 0.000000 0.000000 1.769660 
# 
# From -- ./inp_files/15579.got.cif
#   From: 2010.05.17/outbox.cif.g08.bks.cpg/sg38_8_cif.got.tgz:15579.got - 2010.06.03 18:07:57.
