data_PCOD9357518
_publ_section_title
;
Structure prediction by ZEFSAII (Michael W. Deem and Ramdas Pophale) SiO2 
 PCOD9357518
Probable space group: A M M 2
;
_chemical_formula_sum "Si O2"
_cell_formula_units_Z 58
_cell_length_a 13.572797
_cell_length_b 20.651022
_cell_length_c 9.389990
_cell_angle_alpha 90.000000
_cell_angle_beta 90.000000
_cell_angle_gamma 90.000000
_cell_volume 2631.940293
_symmetry_space_group_name_H-M "A M M 2"
_symmetry_group_IT_number 38
_symmetry_cell_setting 'orthorhombic'
loop_
_space_group_symop_operation_xyz
x,y,z
-x,-y,z
-x,y,z
x,-y,z
x,1/2+y,1/2+z
-x,1/2-y,1/2+z
-x,1/2+y,1/2+z
x,1/2-y,1/2+z
loop_
_atom_site_type_symbol
_atom_site_label
_atom_site_fract_x
_atom_site_fract_y
_atom_site_fract_z
Si Si1 0.382654 0.213060 0.544170
Si Si2 0.500000 0.500000 0.929394
Si Si3 0.114915 0.196019 0.022443
Si Si4 0.329147 0.098455 0.342293
Si Si5 0.111242 0.897823 0.286346
Si Si6 0.109222 0.837801 0.585757
Si Si7 0.386581 0.132236 0.022977
Si Si8 0.739773 0.148337 0.785267
O O1 0.500000 0.202465 0.540009
O O2 0.332874 0.168276 0.422559
O O3 0.367824 0.289923 0.524933
O O4 0.338854 0.189984 0.695535
O O5 0.411594 0.555598 0.919756
O O6 0.182277 0.185036 0.886453
O O7 0.000000 0.200418 0.982830
O O8 0.125841 0.138581 0.136708
O O9 0.139543 0.263053 0.100992
O O10 0.217291 0.071618 0.326682
O O11 0.364247 0.106677 0.179393
O O12 0.103743 0.848272 0.417730
O O13 0.000000 0.928320 0.281991
O O14 0.189656 0.881489 0.664251
O O15 0.000000 0.849042 0.644006
O O16 0.500000 0.120926 0.990086
O O17 0.319581 0.104706 0.896485
#
# Coordination Sequence:
#
# PCOD9357518 Si02
#       8
#     8   2   8   8   8   8   8   8
#     4  11  23  37  57  89 129 166 211 267 323 387
#     4  12  28  48  78  90 116 176 228 282 320 372
#     4  10  20  31  47  81 129 175 212 245 300 385
#     4  12  23  45  68  95 128 171 224 265 320 387
#     4  10  21  37  58  87 123 165 214 266 313 370
#     4  10  20  31  47  81 129 175 212 245 300 385
#     4  11  23  37  57  89 129 166 211 267 323 387
#     4  12  20  29  52  82 120 164 204 246 318 375
#
# _framework density 22.036975999999999
#
# number of rings (size 3 to 8) (size 9 to 14) (size 15 to 20)
#    0.000    1.103    4.138    3.310    3.862    4.414 
#    0.000    0.345    0.000    1.655    0.000    0.000 
#    0.000    4.414    0.000    0.000    0.000    0.000 
#
# Total GULP energy -161509.789175 kJ/mol
# GULP energy per Si atom -5569.303075 kJ/mol
# Density = 2.198682 g / cm^3
# Si number density = 22.036976 Si / 1000 Ang^3
#
#
#
# Elastic Constant Matrix: (Units=GPa)
#
#
# Indices 1 2 3 4 5 6 
#
# 1 125.8433 5.0588 5.0860 0.0000 0.0000 0.0000
# 2 5.0588 32.6041 -18.1736 0.0000 0.0000 0.0000
# 3 5.0860 -18.1736 87.4481 0.0000 0.0000 0.0000
# 4 0.0000 0.0000 0.0000 -15.6227 0.0000 0.0000
# 5 0.0000 0.0000 0.0000 0.0000 46.4024 0.0000
# 6 0.0000 0.0000 0.0000 0.0000 0.0000 -2.9104
#
#
#
# Elastic Compliance Matrix: (Units=1/GPa)
#
#
# Indices 1 2 3 4 5 6 
#
# 1 0.008048 -0.001707 -0.000823 0.000000 0.000000 0.000000
# 2 -0.001707 0.035052 0.007384 0.000000 0.000000 0.000000
# 3 -0.000823 0.007384 0.013018 0.000000 0.000000 0.000000
# 4 0.000000 0.000000 0.000000 -0.064010 0.000000 0.000000
# 5 0.000000 0.000000 0.000000 0.000000 0.021551 0.000000
# 6 0.000000 0.000000 0.000000 0.000000 0.000000 -0.343595
#
#
# Mechanical properties :
#
#
# Convention : Reuss Voigt Hill
#
# Bulk Modulus (GPa) = 15.19192 25.53755 20.36474
# Shear Modulus (GPa) = -15.73802 22.50216 3.38207
#
# Velocity S-wave (km/s) = -2.67528 3.19895 1.24018
# Velocity P-wave (km/s) = 1.62298 5.02573 3.36333
#
# Compressibility (1/GPa) = 0.06582446
#
# Stress axis : x y z
#
# Youngs Moduli (GPa) = 124.25003 28.52932 76.81829
#
# Poissons Ratio (x) = 0.04871 0.06322
# Poissons Ratio (y) = 0.21215 -0.56721
# Poissons Ratio (z) = 0.10225 -0.21065
#
# Static dielectric constant tensor:
#      x y z
#    x 1.889690 0.000000 0.000000 
#    y 0.000000 1.806890 0.000000 
#    z 0.000000 0.000000 1.823030 
# 
# From -- ./inp_files/5836.got.cif
#   From: 2010.05.17/outbox.cif.g08.bks.cpg/sg38_3_cif.got.tgz:5836.got - 2010.06.03 18:07:57.
