data_PCOD9357824
_publ_section_title
;
Structure prediction by ZEFSAII (Michael W. Deem and Ramdas Pophale) SiO2 
 PCOD9357824
Probable space group: A M M 2
;
_chemical_formula_sum "Si O2"
_cell_formula_units_Z 56
_cell_length_a 15.662148
_cell_length_b 21.395404
_cell_length_c 9.272424
_cell_angle_alpha 90.000000
_cell_angle_beta 90.000000
_cell_angle_gamma 90.000000
_cell_volume 3107.170589
_symmetry_space_group_name_H-M "A M M 2"
_symmetry_group_IT_number 38
_symmetry_cell_setting 'orthorhombic'
loop_
_space_group_symop_operation_xyz
x,y,z
-x,-y,z
-x,y,z
x,-y,z
x,1/2+y,1/2+z
-x,1/2-y,1/2+z
-x,1/2+y,1/2+z
x,1/2-y,1/2+z
loop_
_atom_site_type_symbol
_atom_site_label
_atom_site_fract_x
_atom_site_fract_y
_atom_site_fract_z
Si Si1 0.269238 0.375185 0.608510
Si Si2 0.399386 0.927152 0.344668
Si Si3 0.400483 0.309416 0.039686
Si Si4 0.179433 0.746135 0.188809
Si Si5 0.904276 0.681034 0.921712
Si Si6 0.674834 0.304876 0.355836
Si Si7 0.900995 0.426520 0.712455
O O1 0.332352 0.408277 0.720744
O O2 0.241843 0.305051 0.658378
O O3 0.321898 0.363778 0.462203
O O4 0.176716 0.409029 0.604986
O O5 0.500000 0.919130 0.301602
O O6 0.383181 0.877586 0.472402
O O7 0.388118 0.000000 0.383478
O O8 0.500000 0.295630 0.022085
O O9 0.378480 0.308576 0.208697
O O10 0.352643 0.256339 0.946600
O O11 0.102393 0.775794 0.279064
O O12 0.229096 0.702134 0.298314
O O13 0.154671 0.709618 0.045289
O O14 0.881868 0.613083 0.857736
O O15 0.000000 0.679744 0.977977
O O16 0.898699 0.500000 0.738668
O O17 0.000000 0.410400 0.669587
#
# Coordination Sequence:
#
# PCOD9357824 Si02
#       7
#     8   8   8   8   8   8   8
#     4  11  21  36  59  86 118 155 192 243 298 349
#     4  10  22  41  63  86 115 154 201 244 288 352
#     4  11  22  37  59  86 118 156 195 240 297 353
#     4  11  19  34  52  82 119 149 183 234 293 345
#     4  10  20  33  55  85 116 151 190 237 293 349
#     4  12  21  36  56  85 122 150 189 240 296 356
#     4   9  20  39  62  86 113 153 206 250 287 346
#
# _framework density 18.022828000000001
#
# number of rings (size 3 to 8) (size 9 to 14) (size 15 to 20)
#    0.000    1.429    4.286    1.286    2.000    2.857 
#    0.000    1.429    0.000    3.429    0.000    2.000 
#    0.000    0.000    0.000    0.000    0.000    0.000 
#
# Total GULP energy -155985.365012 kJ/mol
# GULP energy per Si atom -5570.905893 kJ/mol
# Density = 1.798181 g / cm^3
# Si number density = 18.022828 Si / 1000 Ang^3
#
#
#
# Elastic Constant Matrix: (Units=GPa)
#
#
# Indices 1 2 3 4 5 6 
#
# 1 76.6658 46.6794 44.3552 0.0000 0.0000 0.0000
# 2 46.6794 95.8852 49.9145 0.0000 0.0000 0.0000
# 3 44.3552 49.9145 105.3897 0.0000 0.0000 0.0000
# 4 0.0000 0.0000 0.0000 19.9163 0.0000 0.0000
# 5 0.0000 0.0000 0.0000 0.0000 28.5508 0.0000
# 6 0.0000 0.0000 0.0000 0.0000 0.0000 29.2282
#
#
#
# Elastic Compliance Matrix: (Units=1/GPa)
#
#
# Indices 1 2 3 4 5 6 
#
# 1 0.020460 -0.007270 -0.005168 0.000000 0.000000 0.000000
# 2 -0.007270 0.016425 -0.004719 0.000000 0.000000 0.000000
# 3 -0.005168 -0.004719 0.013899 0.000000 0.000000 0.000000
# 4 0.000000 0.000000 0.000000 0.050210 0.000000 0.000000
# 5 0.000000 0.000000 0.000000 0.000000 0.035025 0.000000
# 6 0.000000 0.000000 0.000000 0.000000 0.000000 0.034214
#
#
# Mechanical properties :
#
#
# Convention : Reuss Voigt Hill
#
# Bulk Modulus (GPa) = 60.71950 62.20432 61.46191
# Shear Modulus (GPa) = 23.80522 24.67182 24.23852
#
# Velocity S-wave (km/s) = 3.63828 3.70391 3.67124
# Velocity P-wave (km/s) = 7.17028 7.27193 7.22128
#
# Compressibility (1/GPa) = 0.01646917
#
# Stress axis : x y z
#
# Youngs Moduli (GPa) = 48.87558 60.88139 71.94916
#
# Poissons Ratio (x) = 0.44264 0.37180
# Poissons Ratio (y) = 0.35535 0.33956
# Poissons Ratio (z) = 0.25257 0.28733
#
# Static dielectric constant tensor:
#      x y z
#    x 1.677110 0.000000 0.000000 
#    y 0.000000 1.613550 0.000000 
#    z 0.000000 0.000000 1.625290 
# 
# From -- ./inp_files/5698.got.cif
#   From: 2010.05.17/outbox.cif.g08.bks.cpg/sg38_3_cif.got.tgz:5698.got - 2010.06.03 18:07:57.
