data_PCOD9357868
_publ_section_title
;
Structure prediction by ZEFSAII (Michael W. Deem and Ramdas Pophale) SiO2 
 PCOD9357868
Probable space group: A M M 2
;
_chemical_formula_sum "Si O2"
_cell_formula_units_Z 38
_cell_length_a 7.386761
_cell_length_b 11.832428
_cell_length_c 24.792231
_cell_angle_alpha 90.000000
_cell_angle_beta 90.000000
_cell_angle_gamma 90.000000
_cell_volume 2166.923242
_symmetry_space_group_name_H-M "A M M 2"
_symmetry_group_IT_number 38
_symmetry_cell_setting 'orthorhombic'
loop_
_space_group_symop_operation_xyz
x,y,z
-x,-y,z
-x,y,z
x,-y,z
x,1/2+y,1/2+z
-x,1/2-y,1/2+z
-x,1/2+y,1/2+z
x,1/2-y,1/2+z
loop_
_atom_site_type_symbol
_atom_site_label
_atom_site_fract_x
_atom_site_fract_y
_atom_site_fract_z
Si Si1 0.500000 0.135502 0.399631
Si Si2 0.216667 0.500000 0.166200
Si Si3 0.216423 0.865569 0.086954
Si Si4 0.788907 0.865936 0.308287
Si Si5 0.500000 0.000000 0.572774
Si Si6 0.500000 0.739860 0.014900
Si Si7 0.219118 0.747661 0.199251
O O1 0.327850 0.157090 0.361212
O O2 0.500000 0.216321 0.451277
O O3 0.500000 0.000000 0.413698
O O4 0.323459 0.500000 0.110446
O O5 0.266487 0.615871 0.195917
O O6 0.000000 0.500000 0.157708
O O7 0.327799 0.806526 0.039207
O O8 0.275587 0.810250 0.144129
O O9 0.000000 0.847309 0.081150
O O10 0.249039 0.000000 0.088199
O O11 0.719542 0.803897 0.254669
O O12 0.000000 0.837145 0.316706
O O13 0.777394 0.000000 0.297727
O O14 0.500000 0.885657 0.539453
O O15 0.000000 0.756508 0.199664
#
# Coordination Sequence:
#
# PCOD9357868 Si02
#       7
#     4   4   8   8   2   4   8
#     4  10  22  37  54  78 106 142 186 228 268 313
#     4  10  20  34  52  82 116 146 180 217 268 336
#     4  10  21  37  59  86 113 142 178 224 280 335
#     4   9  18  34  55  79 107 139 178 226 276 323
#     4  12  22  34  54  78 114 154 180 216 274 324
#     4  12  23  37  56  80 112 147 187 230 269 322
#     4   9  17  32  56  83 112 141 173 219 274 332
#
# _framework density 17.536384999999999
#
# number of rings (size 3 to 8) (size 9 to 14) (size 15 to 20)
#    0.000    2.105    2.632    0.947    0.000    5.053 
#    0.000    2.105    4.632    0.000    0.000    0.000 
#    0.000    0.000    0.000    0.000    0.000    0.000 
#
# Total GULP energy -106020.776700 kJ/mol
# GULP energy per Si atom -5580.040879 kJ/mol
# Density = 1.749647 g / cm^3
# Si number density = 17.536385 Si / 1000 Ang^3
#
#
#
# Elastic Constant Matrix: (Units=GPa)
#
#
# Indices 1 2 3 4 5 6 
#
# 1 88.7583 52.3049 58.7837 0.0000 0.0000 0.0000
# 2 52.3049 114.8340 82.0997 0.0000 0.0000 0.0000
# 3 58.7837 82.0997 160.2184 0.0000 0.0000 0.0000
# 4 0.0000 0.0000 0.0000 32.2358 0.0000 0.0000
# 5 0.0000 0.0000 0.0000 0.0000 21.3062 0.0000
# 6 0.0000 0.0000 0.0000 0.0000 0.0000 15.6084
#
#
#
# Elastic Compliance Matrix: (Units=1/GPa)
#
#
# Indices 1 2 3 4 5 6 
#
# 1 0.016549 -0.005045 -0.003486 0.000000 0.000000 0.000000
# 2 -0.005045 0.015281 -0.005979 0.000000 0.000000 0.000000
# 3 -0.003486 -0.005979 0.010585 0.000000 0.000000 0.000000
# 4 0.000000 0.000000 0.000000 0.031021 0.000000 0.000000
# 5 0.000000 0.000000 0.000000 0.000000 0.046935 0.000000
# 6 0.000000 0.000000 0.000000 0.000000 0.000000 0.064068
#
#
# Mechanical properties :
#
#
# Convention : Reuss Voigt Hill
#
# Bulk Modulus (GPa) = 74.66804 83.35417 79.01111
# Shear Modulus (GPa) = 22.94374 25.20489 24.07432
#
# Velocity S-wave (km/s) = 3.62104 3.79528 3.70918
# Velocity P-wave (km/s) = 7.75589 8.17562 7.96852
#
# Compressibility (1/GPa) = 0.01339261
#
# Stress axis : x y z
#
# Youngs Moduli (GPa) = 60.42815 65.44064 94.47660
#
# Poissons Ratio (x) = 0.33015 0.32939
# Poissons Ratio (y) = 0.30486 0.56491
# Poissons Ratio (z) = 0.21068 0.39129
#
# Static dielectric constant tensor:
#      x y z
#    x 1.634850 0.000000 0.000000 
#    y 0.000000 1.591690 0.000000 
#    z 0.000000 0.000000 1.564100 
# 
# From -- ./inp_files/16340.got.cif
#   From: 2010.05.17/outbox.cif.g08.bks.cpg/sg38_9_cif.got.tgz:16340.got - 2010.06.03 18:07:57.
