data_PCOD9357090
_publ_section_title
;
Structure prediction by ZEFSAII (Michael W. Deem and Ramdas Pophale) SiO2 
 PCOD9357090
Probable space group: A M M 2
;
_chemical_formula_sum "Si O2"
_cell_formula_units_Z 64
_cell_length_a 8.894002
_cell_length_b 25.816989
_cell_length_c 15.404063
_cell_angle_alpha 90.000000
_cell_angle_beta 90.000000
_cell_angle_gamma 90.000000
_cell_volume 3537.024749
_symmetry_space_group_name_H-M "A M M 2"
_symmetry_group_IT_number 38
_symmetry_cell_setting 'orthorhombic'
loop_
_space_group_symop_operation_xyz
x,y,z
-x,-y,z
-x,y,z
x,-y,z
x,1/2+y,1/2+z
-x,1/2-y,1/2+z
-x,1/2+y,1/2+z
x,1/2-y,1/2+z
loop_
_atom_site_type_symbol
_atom_site_label
_atom_site_fract_x
_atom_site_fract_y
_atom_site_fract_z
Si Si1 0.680843 0.891176 0.772680
Si Si2 0.177046 0.235805 0.007839
Si Si3 0.181528 0.851935 0.474568
Si Si4 0.679416 0.139804 0.102369
Si Si5 0.683515 0.440539 0.454944
Si Si6 0.818712 0.666443 0.775865
Si Si7 0.823395 0.717260 0.301309
Si Si8 0.681728 0.441001 0.091722
O O1 0.500000 0.891016 0.774888
O O2 0.733826 0.916245 0.863288
O O3 0.737388 0.832458 0.767021
O O4 0.727610 0.924031 0.688958
O O5 0.224840 0.295842 0.014415
O O6 0.268356 0.194806 0.063378
O O7 0.000000 0.232358 0.030840
O O8 0.191206 0.220939 0.905983
O O9 0.224314 0.851224 0.372740
O O10 0.251815 0.899400 0.525612
O O11 0.000000 0.854166 0.478369
O O12 0.500000 0.138132 0.107455
O O13 0.749017 0.134532 0.197594
O O14 0.731092 0.095785 0.034557
O O15 0.500000 0.440246 0.453959
O O16 0.731782 0.500000 0.463407
O O17 0.772306 0.726862 0.766638
O O18 0.000000 0.665298 0.771348
O O19 0.000000 0.711599 0.281220
O O20 0.500000 0.439090 0.087967
O O21 0.728798 0.500000 0.073928
#
# Coordination Sequence:
#
# PCOD9357090 Si02
#       8
#     8   8   8   8   8   8   8   8
#     4  10  19  33  54  80 110 145 180 219 267 323
#     4   9  18  34  54  77 109 145 177 218 273 327
#     4   9  20  39  60  79 103 144 191 229 275 330
#     4  11  21  32  53  85 112 142 185 227 269 320
#     4   9  18  34  54  76 108 148 184 218 263 322
#     4   9  20  38  56  76 109 149 182 221 276 332
#     4   9  18  33  53  77 107 145 181 214 263 322
#     4  10  22  38  56  81 112 145 183 230 283 328
#
# _framework density 18.094304000000001
#
# number of rings (size 3 to 8) (size 9 to 14) (size 15 to 20)
#    0.000    2.500    1.250    2.250    1.750    3.750 
#    0.000    3.125    0.000    6.375    0.000    0.000 
#    0.000    0.000    0.000    0.000    0.000    0.000 
#
# Total GULP energy -178563.693393 kJ/mol
# GULP energy per Si atom -5580.115419 kJ/mol
# Density = 1.805312 g / cm^3
# Si number density = 18.094304 Si / 1000 Ang^3
#
#
#
# Elastic Constant Matrix: (Units=GPa)
#
#
# Indices 1 2 3 4 5 6 
#
# 1 9.4703 26.0712 25.3029 0.0000 0.0000 0.0000
# 2 26.0712 140.4662 77.6345 0.0000 0.0000 0.0000
# 3 25.3029 77.6345 105.9614 0.0000 0.0000 0.0000
# 4 0.0000 0.0000 0.0000 25.6999 0.0000 0.0000
# 5 0.0000 0.0000 0.0000 0.0000 28.7829 0.0000
# 6 0.0000 0.0000 0.0000 0.0000 0.0000 34.1955
#
#
#
# Elastic Compliance Matrix: (Units=1/GPa)
#
#
# Indices 1 2 3 4 5 6 
#
# 1 0.363729 -0.032778 -0.062841 0.000000 0.000000 0.000000
# 2 -0.032778 0.014918 -0.003102 0.000000 0.000000 0.000000
# 3 -0.062841 -0.003102 0.026716 0.000000 0.000000 0.000000
# 4 0.000000 0.000000 0.000000 0.038911 0.000000 0.000000
# 5 0.000000 0.000000 0.000000 0.000000 0.034743 0.000000
# 6 0.000000 0.000000 0.000000 0.000000 0.000000 0.029244
#
#
# Mechanical properties :
#
#
# Convention : Reuss Voigt Hill
#
# Bulk Modulus (GPa) = 4.80953 57.10166 30.95559
# Shear Modulus (GPa) = 6.45153 26.19496 16.32324
#
# Velocity S-wave (km/s) = 1.89030 3.80898 3.00679
# Velocity P-wave (km/s) = 2.72546 7.13938 5.40365
#
# Compressibility (1/GPa) = 0.20792062
#
# Stress axis : x y z
#
# Youngs Moduli (GPa) = 2.74930 67.03484 37.43022
#
# Poissons Ratio (x) = 2.19729 2.35214
# Poissons Ratio (y) = 0.09012 0.11612
# Poissons Ratio (z) = 0.17277 0.20797
#
# Static dielectric constant tensor:
#      x y z
#    x 1.610350 0.000000 0.000000 
#    y 0.000000 1.599680 0.000000 
#    z 0.000000 0.000000 1.632110 
# 
# From -- ./inp_files/12735.got.cif
#   From: 2010.05.17/outbox.cif.g08.bks.cpg/sg38_7_cif.got.tgz:12735.got - 2010.06.03 18:07:57.
