data_PCOD9357702
_publ_section_title
;
Structure prediction by ZEFSAII (Michael W. Deem and Ramdas Pophale) SiO2 
 PCOD9357702
Probable space group: A M M 2
;
_chemical_formula_sum "Si O2"
_cell_formula_units_Z 56
_cell_length_a 13.703614
_cell_length_b 8.903596
_cell_length_c 24.297319
_cell_angle_alpha 90.000000
_cell_angle_beta 90.000000
_cell_angle_gamma 90.000000
_cell_volume 2964.550947
_symmetry_space_group_name_H-M "A M M 2"
_symmetry_group_IT_number 38
_symmetry_cell_setting 'orthorhombic'
loop_
_space_group_symop_operation_xyz
x,y,z
-x,-y,z
-x,y,z
x,-y,z
x,1/2+y,1/2+z
-x,1/2-y,1/2+z
-x,1/2+y,1/2+z
x,1/2-y,1/2+z
loop_
_atom_site_type_symbol
_atom_site_label
_atom_site_fract_x
_atom_site_fract_y
_atom_site_fract_z
Si Si1 0.769496 0.827259 0.136930
Si Si2 0.116344 0.682212 0.034983
Si Si3 0.773585 0.825109 0.424142
Si Si4 0.884184 0.663049 0.815310
Si Si5 0.386110 0.180623 0.845215
Si Si6 0.884739 0.161534 0.716912
Si Si7 0.613430 0.818685 0.718453
O O1 0.817018 0.743773 0.084719
O O2 0.854073 0.803325 0.181821
O O3 0.679728 0.751664 0.170335
O O4 0.749065 0.000000 0.124528
O O5 0.115219 0.500000 0.036724
O O6 0.000000 0.727627 0.036920
O O7 0.175173 0.730619 0.979938
O O8 0.857454 0.818304 0.378160
O O9 0.683417 0.745820 0.392880
O O10 0.746668 0.000000 0.433033
O O11 0.843047 0.500000 0.797828
O O12 0.851509 0.802234 0.778481
O O13 0.000000 0.656810 0.809067
O O14 0.500000 0.219010 0.855168
O O15 0.363544 0.230496 0.781836
O O16 0.378033 0.000000 0.845717
O O17 0.000000 0.150665 0.714770
O O18 0.845363 0.000000 0.697497
O O19 0.500000 0.780844 0.709052
O O20 0.621615 0.000000 0.717274
#
# Coordination Sequence:
#
# PCOD9357702 Si02
#       7
#     8   8   8   8   8   8   8
#     4  12  24  36  54  81 111 143 183 233 286 335
#     4  10  22  41  61  79 106 149 197 239 278 327
#     4  10  20  34  55  82 108 140 184 229 275 327
#     4   9  17  30  49  76 109 138 167 214 276 335
#     4   9  19  36  58  85 116 148 181 221 273 331
#     4  10  20  33  50  74 105 142 182 222 269 331
#     4   9  19  38  63  88 115 149 187 226 273 334
#
# _framework density 18.889876999999998
#
# number of rings (size 3 to 8) (size 9 to 14) (size 15 to 20)
#    0.000    2.143    0.000    4.286    0.000    9.143 
#    0.000    2.143    0.000    3.429    0.000    0.000 
#    0.000    0.000    0.000    0.000    0.000    0.000 
#
# Total GULP energy -155872.895221 kJ/mol
# GULP energy per Si atom -5566.889115 kJ/mol
# Density = 1.884688 g / cm^3
# Si number density = 18.889877 Si / 1000 Ang^3
#
#
#
# Elastic Constant Matrix: (Units=GPa)
#
#
# Indices 1 2 3 4 5 6 
#
# 1 131.7057 30.3534 55.5448 0.0000 0.0000 0.0000
# 2 30.3534 37.9956 31.2778 0.0000 0.0000 0.0000
# 3 55.5448 31.2778 127.5596 0.0000 0.0000 0.0000
# 4 0.0000 0.0000 0.0000 23.8493 0.0000 0.0000
# 5 0.0000 0.0000 0.0000 0.0000 34.9631 0.0000
# 6 0.0000 0.0000 0.0000 0.0000 0.0000 25.8651
#
#
#
# Elastic Compliance Matrix: (Units=1/GPa)
#
#
# Indices 1 2 3 4 5 6 
#
# 1 0.010174 -0.005614 -0.003054 0.000000 0.000000 0.000000
# 2 -0.005614 0.036073 -0.006400 0.000000 0.000000 0.000000
# 3 -0.003054 -0.006400 0.010739 0.000000 0.000000 0.000000
# 4 0.000000 0.000000 0.000000 0.041930 0.000000 0.000000
# 5 0.000000 0.000000 0.000000 0.000000 0.028602 0.000000
# 6 0.000000 0.000000 0.000000 0.000000 0.000000 0.038662
#
#
# Mechanical properties :
#
#
# Convention : Reuss Voigt Hill
#
# Bulk Modulus (GPa) = 37.24541 59.06813 48.15677
# Shear Modulus (GPa) = 24.35868 28.94117 26.64992
#
# Velocity S-wave (km/s) = 3.59487 3.91845 3.76014
# Velocity P-wave (km/s) = 6.08200 7.19791 6.66336
#
# Compressibility (1/GPa) = 0.02684895
#
# Stress axis : x y z
#
# Youngs Moduli (GPa) = 98.28562 27.72184 93.12196
#
# Poissons Ratio (x) = 0.15564 0.28437
# Poissons Ratio (y) = 0.55179 0.59602
# Poissons Ratio (z) = 0.30014 0.17743
#
# Static dielectric constant tensor:
#      x y z
#    x 1.685680 0.000000 0.000000 
#    y 0.000000 1.706140 0.000000 
#    z 0.000000 0.000000 1.677410 
# 
# From -- ./inp_files/21046.got.cif
#   From: 2010.05.17/outbox.cif.g08.bks.cpg/sg38_11_cif.got.tgz:21046.got - 2010.06.03 18:07:57.
