data_PCOD9357815
_publ_section_title
;
Structure prediction by ZEFSAII (Michael W. Deem and Ramdas Pophale) SiO2 
 PCOD9357815
Probable space group: A M M 2
;
_chemical_formula_sum "Si O2"
_cell_formula_units_Z 64
_cell_length_a 24.627886
_cell_length_b 7.960667
_cell_length_c 15.119842
_cell_angle_alpha 90.000000
_cell_angle_beta 90.000000
_cell_angle_gamma 90.000000
_cell_volume 2964.311542
_symmetry_space_group_name_H-M "A M M 2"
_symmetry_group_IT_number 38
_symmetry_cell_setting 'orthorhombic'
loop_
_space_group_symop_operation_xyz
x,y,z
-x,-y,z
-x,y,z
x,-y,z
x,1/2+y,1/2+z
-x,1/2-y,1/2+z
-x,1/2+y,1/2+z
x,1/2-y,1/2+z
loop_
_atom_site_type_symbol
_atom_site_label
_atom_site_fract_x
_atom_site_fract_y
_atom_site_fract_z
Si Si1 0.751131 0.702136 0.349280
Si Si2 0.867805 0.697107 0.886322
Si Si3 0.061743 0.706158 0.725504
Si Si4 0.386585 0.196223 0.104873
Si Si5 0.560114 0.304041 0.934240
Si Si6 0.362004 0.696319 0.285625
Si Si7 0.267484 0.703248 0.556386
Si Si8 0.150465 0.198833 0.086429
O O1 0.754675 0.500000 0.340508
O O2 0.810527 0.777156 0.335281
O O3 0.699601 0.764805 0.293647
O O4 0.737113 0.738674 0.451934
O O5 0.875258 0.500000 0.902132
O O6 0.914795 0.758279 0.820927
O O7 0.863694 0.780428 0.982575
O O8 0.061952 0.500000 0.724557
O O9 0.103596 0.765991 0.650134
O O10 0.000000 0.760504 0.711063
O O11 0.396183 0.217822 0.208461
O O12 0.325277 0.264843 0.090306
O O13 0.387392 0.000000 0.081612
O O14 0.426754 0.284940 0.037677
O O15 0.500000 0.236284 0.914994
O O16 0.561425 0.500000 0.911136
O O17 0.607239 0.216965 0.878224
O O18 0.358288 0.500000 0.265468
O O19 0.267602 0.500000 0.566162
O O20 0.211582 0.769106 0.599284
O O21 0.153829 0.000000 0.103996
#
# Coordination Sequence:
#
# PCOD9357815 Si02
#       8
#     8   8   8   8   8   8   8   8
#     4   9  18  36  58  82 117 155 191 234 288 351
#     4  10  20  33  54  84 113 144 186 240 293 339
#     4   9  19  35  55  79 109 150 196 234 277 342
#     4  11  22  38  62  92 124 158 197 241 294 356
#     4  11  25  45  66  89 120 158 202 249 293 347
#     4  11  23  40  62  91 123 159 199 245 298 351
#     4   8  15  31  55  81 111 147 186 231 284 340
#     4   9  18  35  56  77 109 150 190 232 281 343
#
# _framework density 21.590171999999999
#
# number of rings (size 3 to 8) (size 9 to 14) (size 15 to 20)
#    0.000    2.250    1.250    2.250    1.750    3.000 
#    0.000    1.875    0.000    2.625    0.000    0.000 
#    0.000    0.000    0.000    0.000    0.000    0.000 
#
# Total GULP energy -178683.851244 kJ/mol
# GULP energy per Si atom -5583.870351 kJ/mol
# Density = 2.154103 g / cm^3
# Si number density = 21.590172 Si / 1000 Ang^3
#
#
#
# Elastic Constant Matrix: (Units=GPa)
#
#
# Indices 1 2 3 4 5 6 
#
# 1 84.1499 0.3013 2.9024 0.0000 0.0000 0.0000
# 2 0.3013 23.3044 -7.5024 0.0000 0.0000 0.0000
# 3 2.9024 -7.5024 36.7685 0.0000 0.0000 0.0000
# 4 0.0000 0.0000 0.0000 21.7931 0.0000 0.0000
# 5 0.0000 0.0000 0.0000 0.0000 23.4988 0.0000
# 6 0.0000 0.0000 0.0000 0.0000 0.0000 16.1352
#
#
#
# Elastic Compliance Matrix: (Units=1/GPa)
#
#
# Indices 1 2 3 4 5 6 
#
# 1 0.011921 -0.000489 -0.001041 0.000000 0.000000 0.000000
# 2 -0.000489 0.045947 0.009414 0.000000 0.000000 0.000000
# 3 -0.001041 0.009414 0.029200 0.000000 0.000000 0.000000
# 4 0.000000 0.000000 0.000000 0.045886 0.000000 0.000000
# 5 0.000000 0.000000 0.000000 0.000000 0.042555 0.000000
# 6 0.000000 0.000000 0.000000 0.000000 0.000000 0.061976
#
#
# Mechanical properties :
#
#
# Convention : Reuss Voigt Hill
#
# Bulk Modulus (GPa) = 9.72416 15.06948 12.39682
# Shear Modulus (GPa) = 19.53143 22.18685 20.85914
#
# Velocity S-wave (km/s) = 3.01099 3.20916 3.11165
# Velocity P-wave (km/s) = 4.07454 4.55264 4.32021
#
# Compressibility (1/GPa) = 0.10283662
#
# Stress axis : x y z
#
# Youngs Moduli (GPa) = 83.88418 21.76404 34.24632
#
# Poissons Ratio (x) = 0.01065 0.03564
# Poissons Ratio (y) = 0.04104 -0.32239
# Poissons Ratio (z) = 0.08731 -0.20489
#
# Static dielectric constant tensor:
#      x y z
#    x 1.786200 0.000000 0.000000 
#    y 0.000000 1.759790 0.000000 
#    z 0.000000 0.000000 1.782180 
# 
# From -- ./inp_files/15868.got.cif
#   From: 2010.05.17/outbox.cif.g08.bks.cpg/sg38_8_cif.got.tgz:15868.got - 2010.06.03 18:07:57.
