data_PCOD9357880
_publ_section_title
;
Structure prediction by ZEFSAII (Michael W. Deem and Ramdas Pophale) SiO2 
 PCOD9357880
Probable space group: A M M 2
;
_chemical_formula_sum "Si O2"
_cell_formula_units_Z 64
_cell_length_a 21.763954
_cell_length_b 8.171335
_cell_length_c 19.004022
_cell_angle_alpha 90.000000
_cell_angle_beta 90.000000
_cell_angle_gamma 90.000000
_cell_volume 3379.685897
_symmetry_space_group_name_H-M "A M M 2"
_symmetry_group_IT_number 38
_symmetry_cell_setting 'orthorhombic'
loop_
_space_group_symop_operation_xyz
x,y,z
-x,-y,z
-x,y,z
x,-y,z
x,1/2+y,1/2+z
-x,1/2-y,1/2+z
-x,1/2+y,1/2+z
x,1/2-y,1/2+z
loop_
_atom_site_type_symbol
_atom_site_label
_atom_site_fract_x
_atom_site_fract_y
_atom_site_fract_z
Si Si1 0.566438 0.693946 0.509140
Si Si2 0.816212 0.304374 0.752416
Si Si3 0.300387 0.698674 0.162179
Si Si4 0.069026 0.300354 0.498647
Si Si5 0.186595 0.694791 0.412687
Si Si6 0.069009 0.699483 0.661243
Si Si7 0.304211 0.694385 0.999680
Si Si8 0.566104 0.693268 0.169287
O O1 0.500000 0.732873 0.475161
O O2 0.567335 0.500000 0.522935
O O3 0.630242 0.738838 0.472533
O O4 0.567314 0.784645 0.584529
O O5 0.820015 0.500000 0.756022
O O6 0.756347 0.257735 0.707776
O O7 0.812536 0.237679 0.830953
O O8 0.876976 0.242306 0.711790
O O9 0.300915 0.500000 0.162347
O O10 0.366928 0.757132 0.191428
O O11 0.294644 0.753670 0.080529
O O12 0.068804 0.500000 0.497073
O O13 0.124194 0.241613 0.449627
O O14 0.079838 0.252438 0.579983
O O15 0.000000 0.247374 0.478268
O O16 0.186850 0.500000 0.420650
O O17 0.246637 0.759543 0.452346
O O18 0.069512 0.500000 0.662174
O O19 0.000000 0.751521 0.681491
O O20 0.309516 0.500000 0.002662
O O21 0.500000 0.763734 0.193309
O O22 0.565160 0.500000 0.185206
#
# Coordination Sequence:
#
# PCOD9357880 Si02
#       8
#     8   8   8   8   8   8   8   8
#     4   9  16  26  44  73 105 133 165 207 253 302
#     4  11  22  34  50  73 102 137 174 210 251 302
#     4   9  18  32  51  75 102 132 166 208 255 301
#     4   8  15  30  53  79 103 129 165 208 255 307
#     4  11  22  35  52  74 103 138 174 214 258 304
#     4   8  15  30  52  76 100 127 163 206 249 297
#     4  10  20  34  53  76 103 135 172 215 260 307
#     4   8  14  26  45  70 100 132 165 204 253 303
#
# _framework density 18.936672000000002
#
# number of rings (size 3 to 8) (size 9 to 14) (size 15 to 20)
#    0.000    2.750    0.000    3.750    0.000    4.750 
#    0.000    0.000    0.000    3.000    0.000   10.500 
#    0.000    0.000    0.000    0.000    0.000    0.000 
#
# Total GULP energy -178319.066928 kJ/mol
# GULP energy per Si atom -5572.470842 kJ/mol
# Density = 1.889357 g / cm^3
# Si number density = 18.936672 Si / 1000 Ang^3
#
#
#
# Elastic Constant Matrix: (Units=GPa)
#
#
# Indices 1 2 3 4 5 6 
#
# 1 195.4583 11.7177 70.7408 0.0000 0.0000 0.0000
# 2 11.7177 18.9429 3.2482 0.0000 0.0000 0.0000
# 3 70.7408 3.2482 58.2781 0.0000 0.0000 0.0000
# 4 0.0000 0.0000 0.0000 -2.8569 0.0000 0.0000
# 5 0.0000 0.0000 0.0000 0.0000 -8.4626 0.0000
# 6 0.0000 0.0000 0.0000 0.0000 0.0000 10.3343
#
#
#
# Elastic Compliance Matrix: (Units=1/GPa)
#
#
# Indices 1 2 3 4 5 6 
#
# 1 0.009401 -0.003896 -0.011195 0.000000 0.000000 0.000000
# 2 -0.003896 0.054914 0.001668 0.000000 0.000000 0.000000
# 3 -0.011195 0.001668 0.030655 0.000000 0.000000 0.000000
# 4 0.000000 0.000000 0.000000 -0.350034 0.000000 0.000000
# 5 0.000000 0.000000 0.000000 0.000000 -0.118168 0.000000
# 6 0.000000 0.000000 0.000000 0.000000 0.000000 0.096765
#
#
# Mechanical properties :
#
#
# Convention : Reuss Voigt Hill
#
# Bulk Modulus (GPa) = 14.67870 49.34363 32.01117
# Shear Modulus (GPa) = -22.03479 12.26783 -4.88348
#
# Velocity S-wave (km/s) = -3.41486 2.54802 -1.60762
# Velocity P-wave (km/s) = 2.78928 5.89663 3.67357
#
# Compressibility (1/GPa) = 0.06812591
#
# Stress axis : x y z
#
# Youngs Moduli (GPa) = 106.36778 18.21022 32.62140
#
# Poissons Ratio (x) = 0.07095 0.36519
# Poissons Ratio (y) = 0.41440 -0.05443
# Poissons Ratio (z) = 1.19075 -0.03038
#
# Static dielectric constant tensor:
#      x y z
#    x 1.708300 0.000000 0.000000 
#    y 0.000000 1.665640 0.000000 
#    z 0.000000 0.000000 1.613120 
# 
# From -- ./inp_files/18996.got.cif
#   From: 2010.05.17/outbox.cif.g08.bks.cpg/sg38_10_cif.got.tgz:18996.got - 2010.06.03 18:07:57.
