data_PCOD9357679
_publ_section_title
;
Structure prediction by ZEFSAII (Michael W. Deem and Ramdas Pophale) SiO2 
 PCOD9357679
Probable space group: A M M 2
;
_chemical_formula_sum "Si O2"
_cell_formula_units_Z 64
_cell_length_a 7.730015
_cell_length_b 14.690681
_cell_length_c 29.316399
_cell_angle_alpha 90.000000
_cell_angle_beta 90.000000
_cell_angle_gamma 90.000000
_cell_volume 3329.146363
_symmetry_space_group_name_H-M "A M M 2"
_symmetry_group_IT_number 38
_symmetry_cell_setting 'orthorhombic'
loop_
_space_group_symop_operation_xyz
x,y,z
-x,-y,z
-x,y,z
x,-y,z
x,1/2+y,1/2+z
-x,1/2-y,1/2+z
-x,1/2+y,1/2+z
x,1/2-y,1/2+z
loop_
_atom_site_type_symbol
_atom_site_label
_atom_site_fract_x
_atom_site_fract_y
_atom_site_fract_z
Si Si1 0.787705 0.748863 0.437550
Si Si2 0.708304 0.396689 0.114876
Si Si3 0.291905 0.250004 0.687992
Si Si4 0.791522 0.103334 0.114518
Si Si5 0.792121 0.397340 0.364493
Si Si6 0.208000 0.750014 0.541428
Si Si7 0.293907 0.247584 0.291062
Si Si8 0.793545 0.602217 0.866177
O O1 0.732396 0.660866 0.408290
O O2 0.728241 0.748800 0.489622
O O3 0.729271 0.836568 0.408446
O O4 0.000000 0.749405 0.437715
O O5 0.500000 0.400135 0.118391
O O6 0.773675 0.500000 0.115591
O O7 0.773051 0.333545 0.156591
O O8 0.750562 0.342107 0.068763
O O9 0.500000 0.241500 0.689945
O O10 0.251749 0.342115 0.660533
O O11 0.224630 0.250152 0.739561
O O12 0.727244 0.166407 0.072757
O O13 0.000000 0.100094 0.111170
O O14 0.726606 0.000000 0.113719
O O15 0.724161 0.500000 0.362563
O O16 0.752274 0.337150 0.320067
O O17 0.000000 0.402010 0.367775
O O18 0.000000 0.742337 0.539579
O O19 0.500000 0.242849 0.288575
O O20 0.235660 0.160873 0.320607
O O21 0.722787 0.500000 0.864212
O O22 0.000000 0.595863 0.871936
#
# Coordination Sequence:
#
# PCOD9357679 Si02
#       8
#     8   8   8   8   8   8   8   8
#     4   8  15  29  49  72  96 123 156 192 230 274
#     4   9  18  33  50  67  91 123 157 192 231 278
#     4   9  19  34  50  68  91 123 160 194 231 278
#     4   9  18  31  47  70  98 124 152 190 235 278
#     4   9  18  33  52  73  97 126 160 195 232 280
#     4   9  17  30  49  72  97 123 153 192 233 274
#     4  10  20  33  50  72  97 124 157 200 243 282
#     4   9  18  33  51  70  95 128 163 197 235 282
#
# _framework density 19.224146999999999
#
# number of rings (size 3 to 8) (size 9 to 14) (size 15 to 20)
#    0.000    3.000    0.000    1.125    0.000    4.000 
#    0.000   10.000    0.000    0.000    0.000    5.250 
#    0.000    0.000    0.000    0.000    0.000    0.000 
#
# Total GULP energy -178428.428849 kJ/mol
# GULP energy per Si atom -5575.888402 kJ/mol
# Density = 1.918039 g / cm^3
# Si number density = 19.224147 Si / 1000 Ang^3
#
#
#
# Elastic Constant Matrix: (Units=GPa)
#
#
# Indices 1 2 3 4 5 6 
#
# 1 27.1711 2.2763 1.9347 0.0000 0.0000 0.0000
# 2 2.2763 202.0464 109.3060 0.0000 0.0000 0.0000
# 3 1.9347 109.3060 201.9245 0.0000 0.0000 0.0000
# 4 0.0000 0.0000 0.0000 6.4622 0.0000 0.0000
# 5 0.0000 0.0000 0.0000 0.0000 28.0834 0.0000
# 6 0.0000 0.0000 0.0000 0.0000 0.0000 11.6428
#
#
#
# Elastic Compliance Matrix: (Units=1/GPa)
#
#
# Indices 1 2 3 4 5 6 
#
# 1 0.036843 -0.000317 -0.000181 0.000000 0.000000 0.000000
# 2 -0.000317 0.007002 -0.003787 0.000000 0.000000 0.000000
# 3 -0.000181 -0.003787 0.007004 0.000000 0.000000 0.000000
# 4 0.000000 0.000000 0.000000 0.154745 0.000000 0.000000
# 5 0.000000 0.000000 0.000000 0.000000 0.035608 0.000000
# 6 0.000000 0.000000 0.000000 0.000000 0.000000 0.085890
#
#
# Mechanical properties :
#
#
# Convention : Reuss Voigt Hill
#
# Bulk Modulus (GPa) = 23.65287 73.13066 48.39177
# Shear Modulus (GPa) = 14.29566 30.41267 22.35416
#
# Velocity S-wave (km/s) = 2.72992 3.98176 3.41371
# Velocity P-wave (km/s) = 4.71880 7.69823 6.38474
#
# Compressibility (1/GPa) = 0.04227817
#
# Stress axis : x y z
#
# Youngs Moduli (GPa) = 27.14197 142.82108 142.77233
#
# Poissons Ratio (x) = 0.04526 0.02591
# Poissons Ratio (y) = 0.00860 0.54070
# Poissons Ratio (z) = 0.00493 0.54089
#
# Static dielectric constant tensor:
#      x y z
#    x 1.710060 0.000000 0.000000 
#    y 0.000000 1.654110 0.000000 
#    z 0.000000 0.000000 1.655100 
# 
# From -- ./inp_files/24787.got.cif
#   From: 2010.05.17/outbox.cif.g08.bks.cpg/sg38_13_cif.got.tgz:24787.got - 2010.06.03 18:07:57.
