data_PCOD9357182
_publ_section_title
;
Structure prediction by ZEFSAII (Michael W. Deem and Ramdas Pophale) SiO2 
 PCOD9357182
Probable space group: A M M 2
;
_chemical_formula_sum "Si O2"
_cell_formula_units_Z 42
_cell_length_a 7.839484
_cell_length_b 32.208998
_cell_length_c 6.879057
_cell_angle_alpha 90.000000
_cell_angle_beta 90.000000
_cell_angle_gamma 90.000000
_cell_volume 1736.975131
_symmetry_space_group_name_H-M "A M M 2"
_symmetry_group_IT_number 38
_symmetry_cell_setting 'orthorhombic'
loop_
_space_group_symop_operation_xyz
x,y,z
-x,-y,z
-x,y,z
x,-y,z
x,1/2+y,1/2+z
-x,1/2-y,1/2+z
-x,1/2+y,1/2+z
x,1/2-y,1/2+z
loop_
_atom_site_type_symbol
_atom_site_label
_atom_site_fract_x
_atom_site_fract_y
_atom_site_fract_z
Si Si1 0.189237 0.927973 0.359010
Si Si2 0.312725 0.159098 0.404914
Si Si3 0.298230 0.955311 0.777563
Si Si4 0.000000 0.500000 0.662461
Si Si5 0.000000 0.787643 0.477701
Si Si6 0.000000 0.191155 0.928405
Si Si7 0.303066 0.135104 0.866030
O O1 0.283798 0.885773 0.304396
O O2 0.276612 0.949132 0.545432
O O3 0.000000 0.913668 0.428778
O O4 0.146828 0.963225 0.203318
O O5 0.500000 0.175597 0.359296
O O6 0.308850 0.147037 0.635585
O O7 0.166453 0.193010 0.377354
O O8 0.500000 0.957189 0.820789
O O9 0.235944 0.912256 0.867616
O O10 0.213492 0.000000 0.825452
O O11 0.000000 0.804701 0.695260
O O12 0.000000 0.738315 0.496942
O O13 0.829180 0.165312 0.970376
O O14 0.500000 0.137697 0.930409
#
# Coordination Sequence:
#
# PCOD9357182 Si02
#       7
#     8   8   8   2   4   4   8
#     4   9  13  20  29  49  78 112 147 177 206 248
#     4   9  16  27  42  58  82 114 149 185 220 263
#     4   9  14  20  31  51  80 117 153 175 204 260
#     4   8  14  16  26  44  76 110 142 182 198 248
#     4  10  19  34  48  69  84 113 150 188 229 279
#     4  10  20  32  51  64  89 116 149 184 235 267
#     4   8  16  27  39  60  87 117 147 179 221 266
#
# _framework density 24.179963999999998
#
# number of rings (size 3 to 8) (size 9 to 14) (size 15 to 20)
#    0.571    2.476    1.905    1.714    4.000    0.762 
#    0.000    0.000    0.000    0.000    0.000    0.000 
#    0.000    0.000   12.952    0.762   12.952   11.619 
#
# Total GULP energy -117048.904110 kJ/mol
# GULP energy per Si atom -5573.757339 kJ/mol
# Density = 2.412493 g / cm^3
# Si number density = 24.179964 Si / 1000 Ang^3
#
#
#
# Elastic Constant Matrix: (Units=GPa)
#
#
# Indices 1 2 3 4 5 6 
#
# 1 139.8875 95.3363 -1.6180 0.0000 0.0000 0.0000
# 2 95.3363 209.4872 32.4779 0.0000 0.0000 0.0000
# 3 -1.6180 32.4779 82.4871 0.0000 0.0000 0.0000
# 4 0.0000 0.0000 0.0000 37.4479 0.0000 0.0000
# 5 0.0000 0.0000 0.0000 0.0000 -40.8333 0.0000
# 6 0.0000 0.0000 0.0000 0.0000 0.0000 21.3351
#
#
#
# Elastic Compliance Matrix: (Units=1/GPa)
#
#
# Indices 1 2 3 4 5 6 
#
# 1 0.010749 -0.005245 0.002276 0.000000 0.000000 0.000000
# 2 -0.005245 0.007643 -0.003112 0.000000 0.000000 0.000000
# 3 0.002276 -0.003112 0.013393 0.000000 0.000000 0.000000
# 4 0.000000 0.000000 0.000000 0.026704 0.000000 0.000000
# 5 0.000000 0.000000 0.000000 0.000000 -0.024490 0.000000
# 6 0.000000 0.000000 0.000000 0.000000 0.000000 0.046871
#
#
# Mechanical properties :
#
#
# Convention : Reuss Voigt Hill
#
# Bulk Modulus (GPa) = 50.95983 76.02826 63.49404
# Shear Modulus (GPa) = 50.21403 23.96764 37.09083
#
# Velocity S-wave (km/s) = 4.56200 3.15178 3.92082
# Velocity P-wave (km/s) = 6.99072 6.68998 6.84200
#
# Compressibility (1/GPa) = 0.01962330
#
# Stress axis : x y z
#
# Youngs Moduli (GPa) = 93.02855 130.83956 74.66521
#
# Poissons Ratio (x) = 0.68623 -0.16993
# Poissons Ratio (y) = 0.48792 0.23237
# Poissons Ratio (z) = -0.21173 0.40719
#
# Static dielectric constant tensor:
#      x y z
#    x 1.929990 0.000000 0.000000 
#    y 0.000000 1.888720 0.000000 
#    z 0.000000 0.000000 2.039800 
# 
# From -- ./inp_files/8095.got.cif
#   From: 2010.05.17/outbox.cif.g08.bks.cpg/sg38_5_cif.got.tgz:8095.got - 2010.06.03 18:07:57.
