data_PCOD9357492
_publ_section_title
;
Structure prediction by ZEFSAII (Michael W. Deem and Ramdas Pophale) SiO2 
 PCOD9357492
Probable space group: A M M 2
;
_chemical_formula_sum "Si O2"
_cell_formula_units_Z 48
_cell_length_a 14.252155
_cell_length_b 32.185437
_cell_length_c 5.159065
_cell_angle_alpha 90.000000
_cell_angle_beta 90.000000
_cell_angle_gamma 90.000000
_cell_volume 2366.524183
_symmetry_space_group_name_H-M "A M M 2"
_symmetry_group_IT_number 38
_symmetry_cell_setting 'orthorhombic'
loop_
_space_group_symop_operation_xyz
x,y,z
-x,-y,z
-x,y,z
x,-y,z
x,1/2+y,1/2+z
-x,1/2-y,1/2+z
-x,1/2+y,1/2+z
x,1/2-y,1/2+z
loop_
_atom_site_type_symbol
_atom_site_label
_atom_site_fract_x
_atom_site_fract_y
_atom_site_fract_z
Si Si1 0.666753 0.647823 0.610190
Si Si2 0.782162 0.862696 0.609560
Si Si3 0.609715 0.266443 0.839981
Si Si4 0.735079 0.045556 0.683672
Si Si5 0.886819 0.776876 0.676155
Si Si6 0.393604 0.559108 0.685389
O O1 0.697341 0.645619 0.312368
O O2 0.620296 0.690232 0.696607
O O3 0.602814 0.608844 0.672260
O O4 0.754223 0.642122 0.808265
O O5 0.798417 0.912417 0.659271
O O6 0.852243 0.824669 0.670098
O O7 0.500000 0.257477 0.886202
O O8 0.651681 0.235046 0.627187
O O9 0.660001 0.047816 0.449085
O O10 0.782434 0.000000 0.671062
O O11 0.674115 0.047203 0.947140
O O12 0.856796 0.749680 0.427072
O O13 0.000000 0.778127 0.675935
O O14 0.500000 0.543743 0.668866
#
# Coordination Sequence:
#
# PCOD9357492 Si02
#       6
#     8   8   8   8   8   8
#     4  10  20  33  48  69  97 130 169 210 251 297
#     4  10  21  35  53  76 102 133 165 202 252 304
#     4  10  20  31  43  61  88 125 166 207 249 288
#     4  10  21  35  51  74 103 136 175 218 262 304
#     4  10  21  37  58  84 111 136 163 201 251 307
#     4  10  20  33  50  71  98 135 177 220 264 306
#
# _framework density 20.282912
#
# number of rings (size 3 to 8) (size 9 to 14) (size 15 to 20)
#    0.000    2.000    0.000    3.500    0.000    6.000 
#    0.000    5.000    0.000    0.500    0.000    0.000 
#    0.000   12.000    0.000    0.000    0.000    2.000 
#
# Total GULP energy -133798.318093 kJ/mol
# GULP energy per Si atom -5574.929921 kJ/mol
# Density = 2.023675 g / cm^3
# Si number density = 20.282912 Si / 1000 Ang^3
#
#
#
# Elastic Constant Matrix: (Units=GPa)
#
#
# Indices 1 2 3 4 5 6 
#
# 1 38.1299 25.2377 0.3398 0.0000 0.0000 0.0000
# 2 25.2377 181.3493 20.8447 0.0000 0.0000 0.0000
# 3 0.3398 20.8447 94.9015 0.0000 0.0000 0.0000
# 4 0.0000 0.0000 0.0000 127.5895 0.0000 0.0000
# 5 0.0000 0.0000 0.0000 0.0000 9.4907 0.0000
# 6 0.0000 0.0000 0.0000 0.0000 0.0000 14.7256
#
#
#
# Elastic Compliance Matrix: (Units=1/GPa)
#
#
# Indices 1 2 3 4 5 6 
#
# 1 0.028946 -0.004120 0.000801 0.000000 0.000000 0.000000
# 2 -0.004120 0.006244 -0.001357 0.000000 0.000000 0.000000
# 3 0.000801 -0.001357 0.010832 0.000000 0.000000 0.000000
# 4 0.000000 0.000000 0.000000 0.007838 0.000000 0.000000
# 5 0.000000 0.000000 0.000000 0.000000 0.105366 0.000000
# 6 0.000000 0.000000 0.000000 0.000000 0.000000 0.067909
#
#
# Mechanical properties :
#
#
# Convention : Reuss Voigt Hill
#
# Bulk Modulus (GPa) = 27.26963 45.24722 36.25842
# Shear Modulus (GPa) = 20.10376 48.22508 34.16442
#
# Velocity S-wave (km/s) = 3.15170 4.88138 4.10859
# Velocity P-wave (km/s) = 5.16895 7.35710 6.35787
#
# Compressibility (1/GPa) = 0.03667083
#
# Stress axis : x y z
#
# Youngs Moduli (GPa) = 34.54676 160.16445 92.31615
#
# Poissons Ratio (x) = 0.65995 -0.07398
# Poissons Ratio (y) = 0.14235 0.12524
# Poissons Ratio (z) = -0.02769 0.21728
#
# Static dielectric constant tensor:
#      x y z
#    x 1.693470 0.000000 0.000000 
#    y 0.000000 1.795290 0.000000 
#    z 0.000000 0.000000 1.744070 
# 
# From -- ./inp_files/1317.got.cif
#   From: 2010.05.17/outbox.cif.g08.bks.cpg/sg38_1_cif.got.tgz:1317.got - 2010.06.03 18:07:57.
