data_PCOD9357691
_publ_section_title
;
Structure prediction by ZEFSAII (Michael W. Deem and Ramdas Pophale) SiO2 
 PCOD9357691
Probable space group: A M M 2
;
_chemical_formula_sum "Si O2"
_cell_formula_units_Z 48
_cell_length_a 7.639882
_cell_length_b 15.673308
_cell_length_c 18.361307
_cell_angle_alpha 90.000000
_cell_angle_beta 90.000000
_cell_angle_gamma 90.000000
_cell_volume 2198.623730
_symmetry_space_group_name_H-M "A M M 2"
_symmetry_group_IT_number 38
_symmetry_cell_setting 'orthorhombic'
loop_
_space_group_symop_operation_xyz
x,y,z
-x,-y,z
-x,y,z
x,-y,z
x,1/2+y,1/2+z
-x,1/2-y,1/2+z
-x,1/2+y,1/2+z
x,1/2-y,1/2+z
loop_
_atom_site_type_symbol
_atom_site_label
_atom_site_fract_x
_atom_site_fract_y
_atom_site_fract_z
Si Si1 0.795227 0.093785 0.844330
Si Si2 0.211297 0.904744 0.103298
Si Si3 0.206394 0.228170 0.388983
Si Si4 0.705214 0.279556 0.049001
Si Si5 0.213668 0.095548 0.271130
Si Si6 0.711532 0.597511 0.176271
O O1 0.717212 0.176570 0.882810
O O2 0.784049 0.110067 0.757504
O O3 0.000000 0.088414 0.865119
O O4 0.717320 0.000000 0.858431
O O5 0.266687 0.821341 0.059952
O O6 0.267541 0.891385 0.187419
O O7 0.000000 0.906320 0.101730
O O8 0.270138 0.000000 0.079926
O O9 0.222610 0.194508 0.470594
O O10 0.279320 0.165566 0.327507
O O11 0.000000 0.236115 0.372771
O O12 0.500000 0.296709 0.047042
O O13 0.775878 0.333582 0.117564
O O14 0.000000 0.097265 0.270969
O O15 0.265919 0.000000 0.293000
O O16 0.500000 0.603663 0.182160
O O17 0.753825 0.500000 0.153930
#
# Coordination Sequence:
#
# PCOD9357691 Si02
#       6
#     8   8   8   8   8   8
#     4   9  18  33  54  78  99 123 164 215 258 298
#     4   9  18  35  59  81 101 130 168 210 257 307
#     4  10  20  33  50  73 103 136 167 204 252 304
#     4  11  23  35  49  74 108 141 172 209 251 298
#     4   8  15  30  53  78  99 123 163 213 258 300
#     4   9  19  36  55  74 100 136 174 211 254 302
#
# _framework density 21.83184
#
# number of rings (size 3 to 8) (size 9 to 14) (size 15 to 20)
#    0.000    2.667    0.000    2.500    0.000    5.000 
#    0.000    2.500    0.000    1.000    0.000    0.000 
#    0.000    0.000    0.000    0.000    0.000    0.000 
#
# Total GULP energy -133959.399711 kJ/mol
# GULP energy per Si atom -5581.641655 kJ/mol
# Density = 2.178215 g / cm^3
# Si number density = 21.831840 Si / 1000 Ang^3
#
#
#
# Elastic Constant Matrix: (Units=GPa)
#
#
# Indices 1 2 3 4 5 6 
#
# 1 39.6223 3.9397 -9.2496 0.0000 0.0000 0.0000
# 2 3.9397 64.2519 19.9972 0.0000 0.0000 0.0000
# 3 -9.2496 19.9972 28.1457 0.0000 0.0000 0.0000
# 4 0.0000 0.0000 0.0000 -20.9498 0.0000 0.0000
# 5 0.0000 0.0000 0.0000 0.0000 72.5267 0.0000
# 6 0.0000 0.0000 0.0000 0.0000 0.0000 6.6366
#
#
#
# Elastic Compliance Matrix: (Units=1/GPa)
#
#
# Indices 1 2 3 4 5 6 
#
# 1 0.029091 -0.006110 0.013902 0.000000 0.000000 0.000000
# 2 -0.006110 0.021266 -0.017117 0.000000 0.000000 0.000000
# 3 0.013902 -0.017117 0.052259 0.000000 0.000000 0.000000
# 4 0.000000 0.000000 0.000000 -0.047733 0.000000 0.000000
# 5 0.000000 0.000000 0.000000 0.000000 0.013788 0.000000
# 6 0.000000 0.000000 0.000000 0.000000 0.000000 0.150678
#
#
# Mechanical properties :
#
#
# Convention : Reuss Voigt Hill
#
# Bulk Modulus (GPa) = 11.90978 17.93273 14.92125
# Shear Modulus (GPa) = 18.79771 19.46489 19.13130
#
# Velocity S-wave (km/s) = 2.93750 2.98918 2.96345
# Velocity P-wave (km/s) = 4.11975 4.48837 4.30800
#
# Compressibility (1/GPa) = 0.08396458
#
# Stress axis : x y z
#
# Youngs Moduli (GPa) = 34.37473 47.02379 19.13528
#
# Poissons Ratio (x) = 0.28733 -0.26601
# Poissons Ratio (y) = 0.21004 0.32754
# Poissons Ratio (z) = -0.47787 0.80492
#
# Static dielectric constant tensor:
#      x y z
#    x 1.827720 0.000000 0.000000 
#    y 0.000000 1.827230 0.000000 
#    z 0.000000 0.000000 1.761290 
# 
# From -- ./inp_files/12043.got.cif
#   From: 2010.05.17/outbox.cif.g08.bks.cpg/sg38_7_cif.got.tgz:12043.got - 2010.06.03 18:07:57.
