data_PCOD9357650
_publ_section_title
;
Structure prediction by ZEFSAII (Michael W. Deem and Ramdas Pophale) SiO2 
 PCOD9357650
Probable space group: A M M 2
;
_chemical_formula_sum "Si O2"
_cell_formula_units_Z 64
_cell_length_a 7.491636
_cell_length_b 21.384502
_cell_length_c 20.539745
_cell_angle_alpha 90.000000
_cell_angle_beta 90.000000
_cell_angle_gamma 90.000000
_cell_volume 3290.567897
_symmetry_space_group_name_H-M "A M M 2"
_symmetry_group_IT_number 38
_symmetry_cell_setting 'orthorhombic'
loop_
_space_group_symop_operation_xyz
x,y,z
-x,-y,z
-x,y,z
x,-y,z
x,1/2+y,1/2+z
-x,1/2-y,1/2+z
-x,1/2+y,1/2+z
x,1/2-y,1/2+z
loop_
_atom_site_type_symbol
_atom_site_label
_atom_site_fract_x
_atom_site_fract_y
_atom_site_fract_z
Si Si1 0.718344 0.187062 0.941060
Si Si2 0.289572 0.069193 0.859647
Si Si3 0.281759 0.269041 0.579813
Si Si4 0.281107 0.811464 0.362612
Si Si5 0.714988 0.624099 0.082193
Si Si6 0.295255 0.222107 0.221985
Si Si7 0.793318 0.366179 0.226875
Si Si8 0.718099 0.930568 0.446459
O O1 0.500000 0.186917 0.939905
O O2 0.782603 0.125201 0.904276
O O3 0.772787 0.249523 0.902294
O O4 0.773559 0.193291 0.016128
O O5 0.500000 0.065853 0.874205
O O6 0.272883 0.090295 0.784709
O O7 0.213142 0.000000 0.869337
O O8 0.500000 0.269259 0.581566
O O9 0.228971 0.196337 0.572095
O O10 0.216808 0.291173 0.650643
O O11 0.500000 0.810809 0.361885
O O12 0.217362 0.805458 0.288257
O O13 0.224979 0.874129 0.399737
O O14 0.500000 0.623248 0.081964
O O15 0.771216 0.605614 0.154798
O O16 0.775241 0.584183 0.020550
O O17 0.500000 0.200385 0.219782
O O18 0.296864 0.297821 0.228224
O O19 0.000000 0.353890 0.238503
O O20 0.500000 0.929634 0.446398
O O21 0.774597 0.000000 0.426749
#
# Coordination Sequence:
#
# PCOD9357650 Si02
#       8
#     8   8   8   8   8   8   8   8
#     4   9  14  24  44  67  87 111 151 197 230 261
#     4  10  20  33  49  67  88 120 160 195 224 266
#     4   8  13  22  41  67  89 112 147 190 229 260
#     4   9  14  23  43  68  91 119 153 191 229 264
#     4   9  16  28  45  65  91 125 160 188 216 266
#     4   9  16  28  48  70  92 122 159 191 222 271
#     4  11  21  31  45  67  96 125 150 187 236 277
#     4   9  16  25  41  69  99 123 152 191 229 265
#
# _framework density 19.449531
#
# number of rings (size 3 to 8) (size 9 to 14) (size 15 to 20)
#    0.000    2.750    2.500    1.875    0.000    0.750 
#    0.000    1.250    0.000    7.500    0.000    5.250 
#    0.000    0.000    0.000    0.375    0.000    2.000 
#
# Total GULP energy -178499.796487 kJ/mol
# GULP energy per Si atom -5578.118640 kJ/mol
# Density = 1.940526 g / cm^3
# Si number density = 19.449531 Si / 1000 Ang^3
#
#
#
# Elastic Constant Matrix: (Units=GPa)
#
#
# Indices 1 2 3 4 5 6 
#
# 1 53.4766 2.3198 0.0019 0.0000 0.0000 0.0000
# 2 2.3198 138.0538 102.5111 0.0000 0.0000 0.0000
# 3 0.0019 102.5111 175.2954 0.0000 0.0000 0.0000
# 4 0.0000 0.0000 0.0000 21.2865 0.0000 0.0000
# 5 0.0000 0.0000 0.0000 0.0000 -37.1611 0.0000
# 6 0.0000 0.0000 0.0000 0.0000 0.0000 -15.7000
#
#
#
# Elastic Compliance Matrix: (Units=1/GPa)
#
#
# Indices 1 2 3 4 5 6 
#
# 1 0.018724 -0.000556 0.000325 0.000000 0.000000 0.000000
# 2 -0.000556 0.012820 -0.007497 0.000000 0.000000 0.000000
# 3 0.000325 -0.007497 0.010089 0.000000 0.000000 0.000000
# 4 0.000000 0.000000 0.000000 0.046978 0.000000 0.000000
# 5 0.000000 0.000000 0.000000 0.000000 -0.026910 0.000000
# 6 0.000000 0.000000 0.000000 0.000000 0.000000 -0.063694
#
#
# Mechanical properties :
#
#
# Convention : Reuss Voigt Hill
#
# Bulk Modulus (GPa) = 38.20204 64.05460 51.12832
# Shear Modulus (GPa) = 225.35546 11.15127 118.25337
#
# Velocity S-wave (km/s) = 10.77582 2.39706 7.80590
# Velocity P-wave (km/s) = 13.21017 6.37702 10.37244
#
# Compressibility (1/GPa) = 0.02617661
#
# Stress axis : x y z
#
# Youngs Moduli (GPa) = 53.40777 78.00574 99.12095
#
# Poissons Ratio (x) = 0.04336 -0.03220
# Poissons Ratio (y) = 0.02969 0.74309
# Poissons Ratio (z) = -0.01735 0.58479
#
# Static dielectric constant tensor:
#      x y z
#    x 1.714950 0.000000 0.000000 
#    y 0.000000 1.652520 0.000000 
#    z 0.000000 0.000000 1.692330 
# 
# From -- ./inp_files/20242.got.cif
#   From: 2010.05.17/outbox.cif.g08.bks.cpg/sg38_11_cif.got.tgz:20242.got - 2010.06.03 18:07:57.
