data_PCOD9357861
_publ_section_title
;
Structure prediction by ZEFSAII (Michael W. Deem and Ramdas Pophale) SiO2 
 PCOD9357861
Probable space group: A M M 2
;
_chemical_formula_sum "Si O2"
_cell_formula_units_Z 48
_cell_length_a 7.843551
_cell_length_b 9.009699
_cell_length_c 35.980814
_cell_angle_alpha 90.000000
_cell_angle_beta 90.000000
_cell_angle_gamma 90.000000
_cell_volume 2542.693373
_symmetry_space_group_name_H-M "A M M 2"
_symmetry_group_IT_number 38
_symmetry_cell_setting 'orthorhombic'
loop_
_space_group_symop_operation_xyz
x,y,z
-x,-y,z
-x,y,z
x,-y,z
x,1/2+y,1/2+z
-x,1/2-y,1/2+z
-x,1/2+y,1/2+z
x,1/2-y,1/2+z
loop_
_atom_site_type_symbol
_atom_site_label
_atom_site_fract_x
_atom_site_fract_y
_atom_site_fract_z
Si Si1 0.500000 0.320634 0.734761
Si Si2 0.500000 0.179985 0.815790
Si Si3 0.811619 0.819124 0.867753
Si Si4 0.197286 0.321440 0.679718
Si Si5 0.792097 0.330631 0.102611
Si Si6 0.702474 0.327637 0.447564
Si Si7 0.794211 0.829201 0.027888
O O1 0.500000 0.500000 0.738065
O O2 0.500000 0.248097 0.775069
O O3 0.331621 0.277203 0.711304
O O4 0.335385 0.227300 0.839682
O O5 0.500000 0.000000 0.813341
O O6 0.782646 0.764358 0.909982
O O7 0.000000 0.778277 0.854909
O O8 0.801499 0.000000 0.869695
O O9 0.198750 0.500000 0.677292
O O10 0.253209 0.257141 0.639900
O O11 0.000000 0.275364 0.686955
O O12 0.735423 0.500000 0.105068
O O13 0.732958 0.256517 0.064298
O O14 0.000000 0.329205 0.101362
O O15 0.500000 0.328507 0.441997
O O16 0.762259 0.500000 0.450122
O O17 0.742665 0.262378 0.487986
O O18 0.000000 0.831707 0.028728
O O19 0.732973 0.000000 0.029781
#
# Coordination Sequence:
#
# PCOD9357861 Si02
#       7
#     4   4   8   8   8   8   8
#     4  10  22  38  56  79 104 131 163 202 251 304
#     4  10  20  34  52  77 106 131 161 204 251 302
#     4   9  16  28  48  74 104 135 166 205 253 297
#     4   9  18  35  57  77  99 130 168 208 249 295
#     4   9  17  30  49  72 100 134 169 208 252 296
#     4   9  15  25  42  67  99 131 167 213 253 286
#     4   9  16  26  43  68  96 129 170 211 250 292
#
# _framework density 18.877621999999999
#
# number of rings (size 3 to 8) (size 9 to 14) (size 15 to 20)
#    0.000    2.833    0.833    1.000    0.000    5.333 
#    1.500    0.000    0.000    1.000    0.000    0.000 
#    0.000    0.000    0.000    0.000    0.000    0.000 
#
# Total GULP energy -133789.717518 kJ/mol
# GULP energy per Si atom -5574.571563 kJ/mol
# Density = 1.883466 g / cm^3
# Si number density = 18.877622 Si / 1000 Ang^3
#
#
#
# Elastic Constant Matrix: (Units=GPa)
#
#
# Indices 1 2 3 4 5 6 
#
# 1 97.4501 20.3026 82.4501 0.0000 0.0000 0.0000
# 2 20.3026 13.4068 34.0589 0.0000 0.0000 0.0000
# 3 82.4501 34.0589 192.6148 0.0000 0.0000 0.0000
# 4 0.0000 0.0000 0.0000 25.2970 0.0000 0.0000
# 5 0.0000 0.0000 0.0000 0.0000 33.4819 0.0000
# 6 0.0000 0.0000 0.0000 0.0000 0.0000 5.3494
#
#
#
# Elastic Compliance Matrix: (Units=1/GPa)
#
#
# Indices 1 2 3 4 5 6 
#
# 1 0.017325 -0.013428 -0.005042 0.000000 0.000000 0.000000
# 2 -0.013428 0.145828 -0.020038 0.000000 0.000000 0.000000
# 3 -0.005042 -0.020038 0.010893 0.000000 0.000000 0.000000
# 4 0.000000 0.000000 0.000000 0.039530 0.000000 0.000000
# 5 0.000000 0.000000 0.000000 0.000000 0.029867 0.000000
# 6 0.000000 0.000000 0.000000 0.000000 0.000000 0.186935
#
#
# Mechanical properties :
#
#
# Convention : Reuss Voigt Hill
#
# Bulk Modulus (GPa) = 10.30599 64.12165 37.21382
# Shear Modulus (GPa) = 9.26376 23.93633 16.60004
#
# Velocity S-wave (km/s) = 2.21764 3.56472 2.96860
# Velocity P-wave (km/s) = 3.46821 7.14029 5.61303
#
# Compressibility (1/GPa) = 0.09703098
#
# Stress axis : x y z
#
# Youngs Moduli (GPa) = 57.72056 6.85737 91.80211
#
# Poissons Ratio (x) = 0.09208 0.46283
# Poissons Ratio (y) = 0.77508 1.83952
# Poissons Ratio (z) = 0.29101 0.13741
#
# Static dielectric constant tensor:
#      x y z
#    x 1.676110 0.000000 0.000000 
#    y 0.000000 1.648440 0.000000 
#    z 0.000000 0.000000 1.641610 
# 
# From -- ./inp_files/24423.got.cif
#   From: 2010.05.17/outbox.cif.g08.bks.cpg/sg38_13_cif.got.tgz:24423.got - 2010.06.03 18:07:57.
