data_PCOD9357167
_publ_section_title
;
Structure prediction by ZEFSAII (Michael W. Deem and Ramdas Pophale) SiO2 
 PCOD9357167
Probable space group: A M M 2
;
_chemical_formula_sum "Si O2"
_cell_formula_units_Z 48
_cell_length_a 8.727550
_cell_length_b 14.814749
_cell_length_c 20.879937
_cell_angle_alpha 90.000000
_cell_angle_beta 90.000000
_cell_angle_gamma 90.000000
_cell_volume 2699.701994
_symmetry_space_group_name_H-M "A M M 2"
_symmetry_group_IT_number 38
_symmetry_cell_setting 'orthorhombic'
loop_
_space_group_symop_operation_xyz
x,y,z
-x,-y,z
-x,y,z
x,-y,z
x,1/2+y,1/2+z
-x,1/2-y,1/2+z
-x,1/2+y,1/2+z
x,1/2-y,1/2+z
loop_
_atom_site_type_symbol
_atom_site_label
_atom_site_fract_x
_atom_site_fract_y
_atom_site_fract_z
Si Si1 0.815417 0.196246 0.720370
Si Si2 0.683417 0.685645 0.607091
Si Si3 0.816627 0.187341 0.347081
Si Si4 0.684848 0.694784 0.461245
Si Si5 0.684459 0.500000 0.408455
Si Si6 0.817062 0.000000 0.159350
Si Si7 0.317304 0.000000 0.303085
Si Si8 0.184886 0.500000 0.265456
O O1 0.738817 0.243280 0.659822
O O2 0.776092 0.251804 0.784862
O O3 0.769120 0.092347 0.730510
O O4 0.000000 0.200376 0.713247
O O5 0.500000 0.675970 0.609900
O O6 0.725819 0.713267 0.534864
O O7 0.757231 0.589521 0.624519
O O8 0.760227 0.238570 0.410249
O O9 0.000000 0.177763 0.348023
O O10 0.740278 0.090098 0.338101
O O11 0.500000 0.700869 0.455073
O O12 0.730927 0.591939 0.443951
O O13 0.500000 0.500000 0.405272
O O14 0.750058 0.500000 0.337048
O O15 0.753175 0.000000 0.231713
O O16 0.000000 0.000000 0.161836
O O17 0.500000 0.000000 0.298460
O O18 0.000000 0.500000 0.269961
#
# Coordination Sequence:
#
# PCOD9357167 Si02
#       8
#     8   8   8   8   4   4   4   4
#     4  10  21  37  59  85 118 154 196 247 292 347
#     4  11  23  39  60  86 121 161 200 243 297 357
#     4  11  22  38  62  89 119 154 199 247 292 351
#     4  10  22  39  58  86 122 159 198 241 294 354
#     4  10  19  33  57  85 117 149 186 237 288 346
#     4  12  23  37  59  89 123 155 196 249 302 359
#     4  12  24  39  62  89 119 155 197 245 300 357
#     4  10  20  37  58  85 117 149 189 237 288 342
#
# _framework density 17.77974
#
# number of rings (size 3 to 8) (size 9 to 14) (size 15 to 20)
#    0.000    1.333    3.333    3.000    0.000    4.000 
#    0.000    1.667    0.000    4.000    0.000    0.000 
#    0.000    0.000    0.000    0.000    0.000    0.000 
#
# Total GULP energy -134141.940728 kJ/mol
# GULP energy per Si atom -5589.247530 kJ/mol
# Density = 1.773927 g / cm^3
# Si number density = 17.779740 Si / 1000 Ang^3
#
#
#
# Elastic Constant Matrix: (Units=GPa)
#
#
# Indices 1 2 3 4 5 6 
#
# 1 59.5856 58.9252 63.4002 0.0000 0.0000 0.0000
# 2 58.9252 157.2631 91.1898 0.0000 0.0000 0.0000
# 3 63.4002 91.1898 172.8172 0.0000 0.0000 0.0000
# 4 0.0000 0.0000 0.0000 7.2928 0.0000 0.0000
# 5 0.0000 0.0000 0.0000 0.0000 -129.7758 0.0000
# 6 0.0000 0.0000 0.0000 0.0000 0.0000 17.8680
#
#
#
# Elastic Compliance Matrix: (Units=1/GPa)
#
#
# Indices 1 2 3 4 5 6 
#
# 1 0.032914 -0.007681 -0.008022 0.000000 0.000000 0.000000
# 2 -0.007681 0.010955 -0.002962 0.000000 0.000000 0.000000
# 3 -0.008022 -0.002962 0.010293 0.000000 0.000000 0.000000
# 4 0.000000 0.000000 0.000000 0.137121 0.000000 0.000000
# 5 0.000000 0.000000 0.000000 0.000000 -0.007706 0.000000
# 6 0.000000 0.000000 0.000000 0.000000 0.000000 0.055966
#
#
# Mechanical properties :
#
#
# Convention : Reuss Voigt Hill
#
# Bulk Modulus (GPa) = 59.41664 90.74406 75.08035
# Shear Modulus (GPa) = 17.70015 -9.17963 4.26026
#
# Velocity S-wave (km/s) = 3.15861 -2.27468 1.54962
# Velocity P-wave (km/s) = 6.84055 6.65205 6.74696
#
# Compressibility (1/GPa) = 0.01683030
#
# Stress axis : x y z
#
# Youngs Moduli (GPa) = 30.38230 91.28571 97.15735
#
# Poissons Ratio (x) = 0.70117 0.77938
# Poissons Ratio (y) = 0.23337 0.28783
# Poissons Ratio (z) = 0.24372 0.27043
#
# Static dielectric constant tensor:
#      x y z
#    x 1.599220 0.000000 0.000000 
#    y 0.000000 1.591870 0.000000 
#    z 0.000000 0.000000 1.577080 
# 
# From -- ./inp_files/16741.got.cif
#   From: 2010.05.17/outbox.cif.g08.bks.cpg/sg38_9_cif.got.tgz:16741.got - 2010.06.03 18:07:57.
