data_PCOD9357626
_publ_section_title
;
Structure prediction by ZEFSAII (Michael W. Deem and Ramdas Pophale) SiO2 
 PCOD9357626
Probable space group: A M M 2
;
_chemical_formula_sum "Si O2"
_cell_formula_units_Z 48
_cell_length_a 7.543182
_cell_length_b 10.318978
_cell_length_c 28.872653
_cell_angle_alpha 90.000000
_cell_angle_beta 90.000000
_cell_angle_gamma 90.000000
_cell_volume 2247.387517
_symmetry_space_group_name_H-M "A M M 2"
_symmetry_group_IT_number 38
_symmetry_cell_setting 'orthorhombic'
loop_
_space_group_symop_operation_xyz
x,y,z
-x,-y,z
-x,y,z
x,-y,z
x,1/2+y,1/2+z
-x,1/2-y,1/2+z
-x,1/2+y,1/2+z
x,1/2-y,1/2+z
loop_
_atom_site_type_symbol
_atom_site_label
_atom_site_fract_x
_atom_site_fract_y
_atom_site_fract_z
Si Si1 0.293164 0.648595 0.358170
Si Si2 0.282836 0.348895 0.935503
Si Si3 0.283389 0.255499 0.037166
Si Si4 0.285801 0.000000 0.702026
Si Si5 0.287389 0.000000 0.090075
Si Si6 0.204669 0.254590 0.758529
Si Si7 0.283941 0.500000 0.096563
Si Si8 0.786231 0.000000 0.200191
O O1 0.500000 0.634780 0.370136
O O2 0.219911 0.500000 0.357331
O O3 0.219655 0.751489 0.395259
O O4 0.284715 0.714575 0.307743
O O5 0.500000 0.352459 0.934497
O O6 0.226644 0.500000 0.931271
O O7 0.229632 0.287187 0.984777
O O8 0.500000 0.252453 0.036556
O O9 0.226847 0.374025 0.069165
O O10 0.221667 0.125488 0.062318
O O11 0.219212 0.872532 0.727288
O O12 0.226688 0.000000 0.649215
O O13 0.500000 0.000000 0.704222
O O14 0.254444 0.000000 0.145342
O O15 0.500000 0.000000 0.085899
O O16 0.278974 0.373888 0.728449
O O17 0.000000 0.285063 0.768238
O O18 0.500000 0.500000 0.096769
O O19 0.000000 0.000000 0.201997
#
# Coordination Sequence:
#
# PCOD9357626 Si02
#       8
#     8   8   8   4   4   8   4   4
#     4  10  21  35  54  83 114 141 180 234 286 332
#     4   9  17  30  50  78 113 148 179 219 278 340
#     4   9  16  28  47  76 112 143 174 216 270 333
#     4  11  21  35  58  87 116 143 179 235 288 333
#     4  10  20  32  53  84 111 141 184 232 281 326
#     4  11  23  40  59  79 109 151 194 232 280 342
#     4   9  16  27  46  73 107 141 170 211 268 325
#     4  10  24  42  57  78 112 155 197 234 277 336
#
# _framework density 21.358132000000001
#
# number of rings (size 3 to 8) (size 9 to 14) (size 15 to 20)
#    0.000    2.167    1.667    1.750    2.333    2.667 
#    0.000    0.000    0.000    1.000    0.000    0.000 
#    0.000    0.000    0.000    0.000    0.000    0.000 
#
# Total GULP energy -133989.991435 kJ/mol
# GULP energy per Si atom -5582.916310 kJ/mol
# Density = 2.130952 g / cm^3
# Si number density = 21.358132 Si / 1000 Ang^3
#
#
#
# Elastic Constant Matrix: (Units=GPa)
#
#
# Indices 1 2 3 4 5 6 
#
# 1 51.8173 0.0553 -6.6993 0.0000 0.0000 0.0000
# 2 0.0553 239.1560 135.2037 0.0000 0.0000 0.0000
# 3 -6.6993 135.2037 220.4688 0.0000 0.0000 0.0000
# 4 0.0000 0.0000 0.0000 29.7976 0.0000 0.0000
# 5 0.0000 0.0000 0.0000 0.0000 -122.6201 0.0000
# 6 0.0000 0.0000 0.0000 0.0000 0.0000 13.2204
#
#
#
# Elastic Compliance Matrix: (Units=1/GPa)
#
#
# Indices 1 2 3 4 5 6 
#
# 1 0.019416 -0.000517 0.000907 0.000000 0.000000 0.000000
# 2 -0.000517 0.006414 -0.003949 0.000000 0.000000 0.000000
# 3 0.000907 -0.003949 0.006985 0.000000 0.000000 0.000000
# 4 0.000000 0.000000 0.000000 0.033560 0.000000 0.000000
# 5 0.000000 0.000000 0.000000 0.000000 -0.008155 0.000000
# 6 0.000000 0.000000 0.000000 0.000000 0.000000 0.075641
#
#
# Mechanical properties :
#
#
# Convention : Reuss Voigt Hill
#
# Bulk Modulus (GPa) = 38.91482 85.39572 62.15527
# Shear Modulus (GPa) = 33.43470 9.60507 21.51988
#
# Velocity S-wave (km/s) = 3.96085 2.12295 3.17767
# Velocity P-wave (km/s) = 6.25919 6.78814 6.52902
#
# Compressibility (1/GPa) = 0.02569715
#
# Stress axis : x y z
#
# Youngs Moduli (GPa) = 51.50273 155.90570 143.15892
#
# Poissons Ratio (x) = 0.08067 -0.12989
# Poissons Ratio (y) = 0.02665 0.56537
# Poissons Ratio (z) = -0.04673 0.61571
#
# Static dielectric constant tensor:
#      x y z
#    x 1.830010 0.000000 0.000000 
#    y 0.000000 1.774740 0.000000 
#    z 0.000000 0.000000 1.728090 
# 
# From -- ./inp_files/24452.got.cif
#   From: 2010.05.17/outbox.cif.g08.bks.cpg/sg38_13_cif.got.tgz:24452.got - 2010.06.03 18:07:57.
