data_PCOD9357907
_publ_section_title
;
Structure prediction by ZEFSAII (Michael W. Deem and Ramdas Pophale) SiO2 
 PCOD9357907
Probable space group: A M M 2
;
_chemical_formula_sum "Si O2"
_cell_formula_units_Z 64
_cell_length_a 19.979848
_cell_length_b 8.536199
_cell_length_c 21.074464
_cell_angle_alpha 90.000000
_cell_angle_beta 90.000000
_cell_angle_gamma 90.000000
_cell_volume 3594.291110
_symmetry_space_group_name_H-M "A M M 2"
_symmetry_group_IT_number 38
_symmetry_cell_setting 'orthorhombic'
loop_
_space_group_symop_operation_xyz
x,y,z
-x,-y,z
-x,y,z
x,-y,z
x,1/2+y,1/2+z
-x,1/2-y,1/2+z
-x,1/2+y,1/2+z
x,1/2-y,1/2+z
loop_
_atom_site_type_symbol
_atom_site_label
_atom_site_fract_x
_atom_site_fract_y
_atom_site_fract_z
Si Si1 0.425263 0.309264 0.941410
Si Si2 0.074886 0.189227 0.169648
Si Si3 0.788254 0.689108 0.371377
Si Si4 0.713584 0.313007 0.994722
Si Si5 0.925122 0.689065 0.312594
Si Si6 0.785179 0.186868 0.119506
Si Si7 0.710337 0.186464 0.742665
Si Si8 0.576296 0.188694 0.293329
O O1 0.500000 0.256694 0.960245
O O2 0.425884 0.500000 0.942668
O O3 0.414228 0.265701 0.867480
O O4 0.362680 0.254903 0.983050
O O5 0.085788 0.244268 0.242046
O O6 0.137952 0.243680 0.128215
O O7 0.000000 0.242105 0.150375
O O8 0.074863 0.000000 0.169140
O O9 0.785303 0.500000 0.377256
O O10 0.755799 0.762804 0.433230
O O11 0.864999 0.736666 0.358507
O O12 0.747388 0.733870 0.307985
O O13 0.711149 0.500000 0.997788
O O14 0.748189 0.251446 0.057950
O O15 0.922904 0.500000 0.307738
O O16 0.000000 0.734903 0.333203
O O17 0.745219 0.234858 0.182671
O O18 0.786874 0.000000 0.114905
O O19 0.633232 0.233798 0.751213
O O20 0.716958 0.000000 0.736178
O O21 0.500000 0.229599 0.275795
O O22 0.582695 0.000000 0.290069
#
# Coordination Sequence:
#
# PCOD9357907 Si02
#       8
#     8   8   8   8   8   8   8   8
#     4   8  15  30  53  79 104 133 173 219 266 318
#     4   9  18  33  54  79 104 136 180 226 272 325
#     4  10  20  34  53  80 112 141 175 221 270 324
#     4  11  22  36  57  81 108 143 184 226 273 328
#     4   9  17  31  53  80 109 141 177 222 273 321
#     4  11  23  38  56  78 111 148 183 226 277 330
#     4  11  21  34  55  83 113 142 180 226 270 324
#     4   9  17  32  55  82 111 143 182 226 274 326
#
# _framework density 17.806014000000001
#
# number of rings (size 3 to 8) (size 9 to 14) (size 15 to 20)
#    0.000    2.250    2.500    1.875    0.000    1.750 
#    0.000    1.250    0.000    7.500    0.000    0.000 
#    0.000    0.000    0.000    0.000    0.000    0.000 
#
# Total GULP energy -178492.653751 kJ/mol
# GULP energy per Si atom -5577.895430 kJ/mol
# Density = 1.776549 g / cm^3
# Si number density = 17.806014 Si / 1000 Ang^3
#
#
#
# Elastic Constant Matrix: (Units=GPa)
#
#
# Indices 1 2 3 4 5 6 
#
# 1 174.8107 26.4897 76.8706 0.0000 0.0000 0.0000
# 2 26.4897 16.2459 23.8475 0.0000 0.0000 0.0000
# 3 76.8706 23.8475 102.5760 0.0000 0.0000 0.0000
# 4 0.0000 0.0000 0.0000 28.7071 0.0000 0.0000
# 5 0.0000 0.0000 0.0000 0.0000 26.9962 0.0000
# 6 0.0000 0.0000 0.0000 0.0000 0.0000 20.2925
#
#
#
# Elastic Compliance Matrix: (Units=1/GPa)
#
#
# Indices 1 2 3 4 5 6 
#
# 1 0.009069 -0.007304 -0.005098 0.000000 0.000000 0.000000
# 2 -0.007304 0.099326 -0.017618 0.000000 0.000000 0.000000
# 3 -0.005098 -0.017618 0.017666 0.000000 0.000000 0.000000
# 4 0.000000 0.000000 0.000000 0.034835 0.000000 0.000000
# 5 0.000000 0.000000 0.000000 0.000000 0.037042 0.000000
# 6 0.000000 0.000000 0.000000 0.000000 0.000000 0.049279
#
#
# Mechanical properties :
#
#
# Convention : Reuss Voigt Hill
#
# Bulk Modulus (GPa) = 15.14710 60.89426 38.02068
# Shear Modulus (GPa) = 15.18537 26.29414 20.73976
#
# Velocity S-wave (km/s) = 2.92348 3.84695 3.41656
# Velocity P-wave (km/s) = 4.46328 7.34881 6.07972
#
# Compressibility (1/GPa) = 0.06601924
#
# Stress axis : x y z
#
# Youngs Moduli (GPa) = 110.26305 10.06790 56.60673
#
# Poissons Ratio (x) = 0.07353 0.28861
# Poissons Ratio (y) = 0.80533 0.99732
# Poissons Ratio (z) = 0.56217 0.17738
#
# Static dielectric constant tensor:
#      x y z
#    x 1.652040 0.000000 0.000000 
#    y 0.000000 1.609020 0.000000 
#    z 0.000000 0.000000 1.560460 
# 
# From -- ./inp_files/18914.got.cif
#   From: 2010.05.17/outbox.cif.g08.bks.cpg/sg38_10_cif.got.tgz:18914.got - 2010.06.03 18:07:57.
