data_PCOD9357879
_publ_section_title
;
Structure prediction by ZEFSAII (Michael W. Deem and Ramdas Pophale) SiO2 
 PCOD9357879
Probable space group: A M M 2
;
_chemical_formula_sum "Si O2"
_cell_formula_units_Z 40
_cell_length_a 13.041884
_cell_length_b 7.477539
_cell_length_c 19.112850
_cell_angle_alpha 90.000000
_cell_angle_beta 90.000000
_cell_angle_gamma 90.000000
_cell_volume 1863.907996
_symmetry_space_group_name_H-M "A M M 2"
_symmetry_group_IT_number 38
_symmetry_cell_setting 'orthorhombic'
loop_
_space_group_symop_operation_xyz
x,y,z
-x,-y,z
-x,y,z
x,-y,z
x,1/2+y,1/2+z
-x,1/2-y,1/2+z
-x,1/2+y,1/2+z
x,1/2-y,1/2+z
loop_
_atom_site_type_symbol
_atom_site_label
_atom_site_fract_x
_atom_site_fract_y
_atom_site_fract_z
Si Si1 0.500000 0.280645 0.819650
Si Si2 0.116291 0.783913 0.830017
Si Si3 0.883474 0.218273 0.669951
Si Si4 0.500000 0.214301 0.159348
Si Si5 0.684554 0.291642 0.916436
Si Si6 0.702818 0.710667 0.071915
O O1 0.500000 0.500000 0.816543
O O2 0.500000 0.220120 0.739352
O O3 0.600009 0.219421 0.862584
O O4 0.138906 0.726883 0.750031
O O5 0.203710 0.720577 0.882078
O O6 0.000000 0.726858 0.847351
O O7 0.117364 0.000000 0.830954
O O8 0.798831 0.284141 0.615727
O O9 0.000000 0.271463 0.652814
O O10 0.881491 0.000000 0.670270
O O11 0.399004 0.272661 0.117941
O O12 0.500000 0.000000 0.160593
O O13 0.656228 0.500000 0.924432
O O14 0.685871 0.212746 0.994387
O O15 0.725034 0.500000 0.062393
#
# Coordination Sequence:
#
# PCOD9357879 Si02
#       6
#     4   8   8   4   8   8
#     4   9  19  35  51  71 102 135 166 206 256 301
#     4   9  18  33  52  74 103 137 170 207 249 292
#     4   8  15  30  52  76 101 132 172 213 249 288
#     4  11  22  35  53  73  98 135 172 206 248 301
#     4  10  20  34  53  76 103 133 165 206 255 303
#     4  10  20  34  54  78 103 131 166 210 254 296
#
# _framework density 21.460287000000001
#
# number of rings (size 3 to 8) (size 9 to 14) (size 15 to 20)
#    0.000    2.600    0.000    3.300    0.000    3.600 
#    0.000    3.500    0.000    1.800    0.000    0.000 
#    0.000    0.000    0.000    0.000    0.000    0.000 
#
# Total GULP energy -111699.913372 kJ/mol
# GULP energy per Si atom -5584.995669 kJ/mol
# Density = 2.141144 g / cm^3
# Si number density = 21.460287 Si / 1000 Ang^3
#
#
#
# Elastic Constant Matrix: (Units=GPa)
#
#
# Indices 1 2 3 4 5 6 
#
# 1 138.5488 -18.4310 120.7864 0.0000 0.0000 0.0000
# 2 -18.4310 55.0100 -5.8322 0.0000 0.0000 0.0000
# 3 120.7864 -5.8322 207.3850 0.0000 0.0000 0.0000
# 4 0.0000 0.0000 0.0000 -42.2697 0.0000 0.0000
# 5 0.0000 0.0000 0.0000 0.0000 521.8549 0.0000
# 6 0.0000 0.0000 0.0000 0.0000 0.0000 22.1640
#
#
#
# Elastic Compliance Matrix: (Units=1/GPa)
#
#
# Indices 1 2 3 4 5 6 
#
# 1 0.015606 0.004278 -0.008969 0.000000 0.000000 0.000000
# 2 0.004278 0.019406 -0.001946 0.000000 0.000000 0.000000
# 3 -0.008969 -0.001946 0.009991 0.000000 0.000000 0.000000
# 4 0.000000 0.000000 0.000000 -0.023658 0.000000 0.000000
# 5 0.000000 0.000000 0.000000 0.000000 0.001916 0.000000
# 6 0.000000 0.000000 0.000000 0.000000 0.000000 0.045118
#
#
# Mechanical properties :
#
#
# Convention : Reuss Voigt Hill
#
# Bulk Modulus (GPa) = 31.51739 65.99892 48.75815
# Shear Modulus (GPa) = 54.21277 120.64453 87.42865
#
# Velocity S-wave (km/s) = 5.03157 7.50597 6.38969
# Velocity P-wave (km/s) = 6.96232 10.29273 8.78676
#
# Compressibility (1/GPa) = 0.03172852
#
# Stress axis : x y z
#
# Youngs Moduli (GPa) = 64.07846 51.53177 100.09021
#
# Poissons Ratio (x) = -0.22044 0.89771
# Poissons Ratio (y) = -0.27412 0.19475
# Poissons Ratio (z) = 0.57472 0.10027
#
# Static dielectric constant tensor:
#      x y z
#    x 1.724770 0.000000 0.000000 
#    y 0.000000 1.816400 0.000000 
#    z 0.000000 0.000000 1.758970 
# 
# From -- ./inp_files/14286.got.cif
#   From: 2010.05.17/outbox.cif.g08.bks.cpg/sg38_8_cif.got.tgz:14286.got - 2010.06.03 18:07:57.
