data_PCOD9357314
_publ_section_title
;
Structure prediction by ZEFSAII (Michael W. Deem and Ramdas Pophale) SiO2 
 PCOD9357314
Probable space group: A M M 2
;
_chemical_formula_sum "Si O2"
_cell_formula_units_Z 64
_cell_length_a 8.859611
_cell_length_b 25.807275
_cell_length_c 15.291824
_cell_angle_alpha 90.000000
_cell_angle_beta 90.000000
_cell_angle_gamma 90.000000
_cell_volume 3496.359607
_symmetry_space_group_name_H-M "A M M 2"
_symmetry_group_IT_number 38
_symmetry_cell_setting 'orthorhombic'
loop_
_space_group_symop_operation_xyz
x,y,z
-x,-y,z
-x,y,z
x,-y,z
x,1/2+y,1/2+z
-x,1/2-y,1/2+z
-x,1/2+y,1/2+z
x,1/2-y,1/2+z
loop_
_atom_site_type_symbol
_atom_site_label
_atom_site_fract_x
_atom_site_fract_y
_atom_site_fract_z
Si Si1 0.180822 0.388564 0.779120
Si Si2 0.321773 0.761419 0.507297
Si Si3 0.816159 0.058182 0.099055
Si Si4 0.317913 0.864369 0.608806
Si Si5 0.819472 0.831173 0.779671
Si Si6 0.322028 0.721168 0.799899
Si Si7 0.681788 0.060565 0.452114
Si Si8 0.818221 0.653043 0.480079
O O1 0.224352 0.424387 0.697061
O O2 0.246973 0.331196 0.766157
O O3 0.243904 0.412265 0.868671
O O4 0.000000 0.385673 0.783094
O O5 0.500000 0.754109 0.522217
O O6 0.269979 0.809544 0.565640
O O7 0.302318 0.777266 0.405470
O O8 0.240478 0.706803 0.520611
O O9 0.000000 0.057612 0.095310
O O10 0.763340 0.000000 0.079838
O O11 0.764601 0.102651 0.032339
O O12 0.500000 0.863939 0.616175
O O13 0.245447 0.867388 0.703959
O O14 0.275557 0.909260 0.540656
O O15 0.753964 0.773478 0.765470
O O16 0.772892 0.847483 0.877920
O O17 0.000000 0.829766 0.776206
O O18 0.500000 0.721758 0.780742
O O19 0.500000 0.065249 0.443231
O O20 0.720962 0.000000 0.455508
O O21 0.000000 0.654057 0.483094
#
# Coordination Sequence:
#
# PCOD9357314 Si02
#       8
#     8   8   8   8   8   8   8   8
#     4  11  21  33  54  85 116 145 181 229 279 334
#     4   9  18  33  53  77 106 140 179 219 264 323
#     4   9  19  36  56  78 106 142 182 222 269 326
#     4  10  20  36  55  80 110 147 189 226 274 335
#     4  10  21  35  53  82 114 144 183 232 282 330
#     4  10  19  35  55  78 112 151 185 220 267 330
#     4  10  21  39  60  80 109 150 193 233 277 338
#     4   9  19  36  56  78 106 140 182 226 272 324
#
# _framework density 18.304753999999999
#
# number of rings (size 3 to 8) (size 9 to 14) (size 15 to 20)
#    0.000    2.250    1.250    1.500    1.750    2.750 
#    0.000    1.250    0.000    2.625    0.000    0.000 
#    0.000    0.000    0.000    0.000    0.000    0.000 
#
# Total GULP energy -178650.926048 kJ/mol
# GULP energy per Si atom -5582.841439 kJ/mol
# Density = 1.826309 g / cm^3
# Si number density = 18.304754 Si / 1000 Ang^3
#
#
#
# Elastic Constant Matrix: (Units=GPa)
#
#
# Indices 1 2 3 4 5 6 
#
# 1 18.6440 27.0807 23.5350 0.0000 0.0000 0.0000
# 2 27.0807 118.1046 45.2409 0.0000 0.0000 0.0000
# 3 23.5350 45.2409 68.7157 0.0000 0.0000 0.0000
# 4 0.0000 0.0000 0.0000 27.5905 0.0000 0.0000
# 5 0.0000 0.0000 0.0000 0.0000 23.0227 0.0000
# 6 0.0000 0.0000 0.0000 0.0000 0.0000 21.9214
#
#
#
# Elastic Compliance Matrix: (Units=1/GPa)
#
#
# Indices 1 2 3 4 5 6 
#
# 1 0.110333 -0.014474 -0.028260 0.000000 0.000000 0.000000
# 2 -0.014474 0.013221 -0.003747 0.000000 0.000000 0.000000
# 3 -0.028260 -0.003747 0.026699 0.000000 0.000000 0.000000
# 4 0.000000 0.000000 0.000000 0.036244 0.000000 0.000000
# 5 0.000000 0.000000 0.000000 0.000000 0.043435 0.000000
# 6 0.000000 0.000000 0.000000 0.000000 0.000000 0.045618
#
#
# Mechanical properties :
#
#
# Convention : Reuss Voigt Hill
#
# Bulk Modulus (GPa) = 17.45453 44.13084 30.79268
# Shear Modulus (GPa) = 12.89956 21.81410 17.35683
#
# Velocity S-wave (km/s) = 2.65752 3.45587 3.08265
# Velocity P-wave (km/s) = 4.35577 6.33130 5.43406
#
# Compressibility (1/GPa) = 0.05729171
#
# Stress axis : x y z
#
# Youngs Moduli (GPa) = 9.06343 75.63577 37.45475
#
# Poissons Ratio (x) = 1.09473 1.05847
# Poissons Ratio (y) = 0.13118 0.14036
# Poissons Ratio (z) = 0.25613 0.28344
#
# Static dielectric constant tensor:
#      x y z
#    x 1.616690 0.000000 0.000000 
#    y 0.000000 1.610430 0.000000 
#    z 0.000000 0.000000 1.640680 
# 
# From -- ./inp_files/12822.got.cif
#   From: 2010.05.17/outbox.cif.g08.bks.cpg/sg38_7_cif.got.tgz:12822.got - 2010.06.03 18:07:57.
