data_PCOD9357295
_publ_section_title
;
Structure prediction by ZEFSAII (Michael W. Deem and Ramdas Pophale) SiO2 
 PCOD9357295
Probable space group: A M M 2
;
_chemical_formula_sum "Si O2"
_cell_formula_units_Z 40
_cell_length_a 15.645929
_cell_length_b 13.215756
_cell_length_c 8.433732
_cell_angle_alpha 90.000000
_cell_angle_beta 90.000000
_cell_angle_gamma 90.000000
_cell_volume 1743.866212
_symmetry_space_group_name_H-M "A M M 2"
_symmetry_group_IT_number 38
_symmetry_cell_setting 'orthorhombic'
loop_
_space_group_symop_operation_xyz
x,y,z
-x,-y,z
-x,y,z
x,-y,z
x,1/2+y,1/2+z
-x,1/2-y,1/2+z
-x,1/2+y,1/2+z
x,1/2-y,1/2+z
loop_
_atom_site_type_symbol
_atom_site_label
_atom_site_fract_x
_atom_site_fract_y
_atom_site_fract_z
Si Si1 0.904677 0.677724 0.021650
Si Si2 0.401486 0.153612 0.485852
Si Si3 0.243471 0.608424 0.785073
Si Si4 0.684439 0.184089 0.800919
Si Si5 0.136076 0.613034 0.379990
O O1 0.894689 0.643345 0.203060
O O2 0.000000 0.650446 0.966859
O O3 0.832087 0.627110 0.912302
O O4 0.894151 0.799025 0.998614
O O5 0.500000 0.131290 0.459602
O O6 0.333348 0.098603 0.376488
O O7 0.372419 0.136145 0.664896
O O8 0.239482 0.118393 0.871214
O O9 0.227347 0.500000 0.703301
O O10 0.262529 0.721240 0.717380
O O11 0.621285 0.230983 0.932253
O O12 0.106773 0.500000 0.415777
#
# Coordination Sequence:
#
# PCOD9357295 Si02
#       5
#     8   8   8   8   8
#     4  11  23  39  63  95 124 160 211 256 306 376
#     4  10  19  34  59  84 117 159 196 249 304 355
#     4   9  20  36  57  84 115 153 196 242 297 357
#     4   9  19  36  57  86 119 155 197 246 296 369
#     4  11  22  43  68  90 127 171 205 257 320 367
#
# _framework density 22.937541
#
# number of rings (size 3 to 8) (size 9 to 14) (size 15 to 20)
#    1.200    0.800    2.000    1.800    0.000    3.200 
#    0.000   10.000    0.000   10.200    0.000    0.000 
#    0.000    0.000    0.000    0.000    0.000    0.000 
#
# Total GULP energy -111464.177940 kJ/mol
# GULP energy per Si atom -5573.208897 kJ/mol
# Density = 2.288533 g / cm^3
# Si number density = 22.937541 Si / 1000 Ang^3
#
#
#
# Elastic Constant Matrix: (Units=GPa)
#
#
# Indices 1 2 3 4 5 6 
#
# 1 175.5587 12.2669 15.5170 0.0000 0.0000 0.0000
# 2 12.2669 123.4102 4.2182 0.0000 0.0000 0.0000
# 3 15.5170 4.2182 53.2815 0.0000 0.0000 0.0000
# 4 0.0000 0.0000 0.0000 3.5005 0.0000 0.0000
# 5 0.0000 0.0000 0.0000 0.0000 15.0446 0.0000
# 6 0.0000 0.0000 0.0000 0.0000 0.0000 19.5857
#
#
#
# Elastic Compliance Matrix: (Units=1/GPa)
#
#
# Indices 1 2 3 4 5 6 
#
# 1 0.005881 -0.000527 -0.001671 0.000000 0.000000 0.000000
# 2 -0.000527 0.008172 -0.000493 0.000000 0.000000 0.000000
# 3 -0.001671 -0.000493 0.019294 0.000000 0.000000 0.000000
# 4 0.000000 0.000000 0.000000 0.285671 0.000000 0.000000
# 5 0.000000 0.000000 0.000000 0.000000 0.066469 0.000000
# 6 0.000000 0.000000 0.000000 0.000000 0.000000 0.051058
#
#
# Mechanical properties :
#
#
# Convention : Reuss Voigt Hill
#
# Bulk Modulus (GPa) = 35.76081 46.25050 41.00565
# Shear Modulus (GPa) = 11.08036 28.97606 20.02821
#
# Velocity S-wave (km/s) = 2.20026 3.55809 2.95814
# Velocity P-wave (km/s) = 4.69885 6.08995 5.43906
#
# Compressibility (1/GPa) = 0.02796358
#
# Stress axis : x y z
#
# Youngs Moduli (GPa) = 170.04967 122.36388 51.82986
#
# Poissons Ratio (x) = 0.06454 0.08660
# Poissons Ratio (y) = 0.08969 0.02557
# Poissons Ratio (z) = 0.28413 0.06037
#
# Static dielectric constant tensor:
#      x y z
#    x 1.824900 0.000000 0.000000 
#    y 0.000000 1.979810 0.000000 
#    z 0.000000 0.000000 1.860570 
# 
# From -- ./inp_files/5225.got.cif
#   From: 2010.05.17/outbox.cif.g08.bks.cpg/sg38_3_cif.got.tgz:5225.got - 2010.06.03 18:07:57.
