data_PCOD9357990
_publ_section_title
;
Structure prediction by ZEFSAII (Michael W. Deem and Ramdas Pophale) SiO2 
 PCOD9357990
Probable space group: A M M 2
;
_chemical_formula_sum "Si O2"
_cell_formula_units_Z 48
_cell_length_a 13.664852
_cell_length_b 25.216957
_cell_length_c 7.532377
_cell_angle_alpha 90.000000
_cell_angle_beta 90.000000
_cell_angle_gamma 90.000000
_cell_volume 2595.551550
_symmetry_space_group_name_H-M "A M M 2"
_symmetry_group_IT_number 38
_symmetry_cell_setting 'orthorhombic'
loop_
_space_group_symop_operation_xyz
x,y,z
-x,-y,z
-x,y,z
x,-y,z
x,1/2+y,1/2+z
-x,1/2-y,1/2+z
-x,1/2+y,1/2+z
x,1/2-y,1/2+z
loop_
_atom_site_type_symbol
_atom_site_label
_atom_site_fract_x
_atom_site_fract_y
_atom_site_fract_z
Si Si1 0.885333 0.306453 0.395230
Si Si2 0.387741 0.360039 0.842377
Si Si3 0.690292 0.060552 0.628817
Si Si4 0.808021 0.307859 0.779861
Si Si5 0.384302 0.439762 0.517787
Si Si6 0.888983 0.112299 0.568823
O O1 0.827400 0.319812 0.574002
O O2 0.845639 0.251050 0.319184
O O3 0.878212 0.350738 0.243337
O O4 0.000000 0.299775 0.441251
O O5 0.500000 0.341907 0.837147
O O6 0.305459 0.314997 0.832749
O O7 0.367767 0.398294 0.674035
O O8 0.369184 0.396854 0.013816
O O9 0.673748 0.070736 0.837248
O O10 0.803674 0.069089 0.578971
O O11 0.658939 0.000000 0.593001
O O12 0.866662 0.349493 0.902021
O O13 0.500000 0.438028 0.473855
O O14 0.361844 0.500000 0.577832
O O15 0.000000 0.092267 0.560823
#
# Coordination Sequence:
#
# PCOD9357990 Si02
#       6
#     8   8   8   8   8   8
#     4  11  20  34  57  80 104 138 179 222 265 317
#     4  10  21  36  53  77 108 142 177 219 268 316
#     4  10  20  34  55  81 108 139 178 222 264 316
#     4  11  21  34  55  79 106 136 181 224 263 315
#     4   9  17  31  53  78 103 135 176 218 259 308
#     4  10  21  35  53  79 109 141 176 219 270 319
#
# _framework density 18.493179999999999
#
# number of rings (size 3 to 8) (size 9 to 14) (size 15 to 20)
#    0.000    1.833    1.667    3.500    0.000    2.000 
#    0.000    0.833    0.000    0.000    0.000    4.667 
#    0.000    0.000    0.000    0.000    0.000    0.000 
#
# Total GULP energy -134006.822407 kJ/mol
# GULP energy per Si atom -5583.617600 kJ/mol
# Density = 1.845109 g / cm^3
# Si number density = 18.493180 Si / 1000 Ang^3
#
#
#
# Elastic Constant Matrix: (Units=GPa)
#
#
# Indices 1 2 3 4 5 6 
#
# 1 71.4084 3.2826 -11.8111 0.0000 0.0000 0.0000
# 2 3.2826 19.6644 -10.0081 0.0000 0.0000 0.0000
# 3 -11.8111 -10.0081 51.1983 0.0000 0.0000 0.0000
# 4 0.0000 0.0000 0.0000 17.7413 0.0000 0.0000
# 5 0.0000 0.0000 0.0000 0.0000 22.9563 0.0000
# 6 0.0000 0.0000 0.0000 0.0000 0.0000 13.1459
#
#
#
# Elastic Compliance Matrix: (Units=1/GPa)
#
#
# Indices 1 2 3 4 5 6 
#
# 1 0.014571 -0.000801 0.003205 0.000000 0.000000 0.000000
# 2 -0.000801 0.056515 0.010863 0.000000 0.000000 0.000000
# 3 0.003205 0.010863 0.022395 0.000000 0.000000 0.000000
# 4 0.000000 0.000000 0.000000 0.056366 0.000000 0.000000
# 5 0.000000 0.000000 0.000000 0.000000 0.043561 0.000000
# 6 0.000000 0.000000 0.000000 0.000000 0.000000 0.076070
#
#
# Mechanical properties :
#
#
# Convention : Reuss Voigt Hill
#
# Bulk Modulus (GPa) = 8.33243 11.68868 10.01056
# Shear Modulus (GPa) = 17.67101 21.48921 19.58011
#
# Velocity S-wave (km/s) = 3.09454 3.41252 3.25741
# Velocity P-wave (km/s) = 4.15736 4.67561 4.42408
#
# Compressibility (1/GPa) = 0.12001297
#
# Stress axis : x y z
#
# Youngs Moduli (GPa) = 68.63012 17.69426 44.65366
#
# Poissons Ratio (x) = 0.01418 -0.14310
# Poissons Ratio (y) = 0.05499 -0.48505
# Poissons Ratio (z) = -0.21994 -0.19221
#
# Static dielectric constant tensor:
#      x y z
#    x 1.657730 0.000000 0.000000 
#    y 0.000000 1.620070 0.000000 
#    z 0.000000 0.000000 1.626960 
# 
# From -- ./inp_files/4645.got.cif
#   From: 2010.05.17/outbox.cif.g08.bks.cpg/sg38_3_cif.got.tgz:4645.got - 2010.06.03 18:07:57.
