data_PCOD9357272
_publ_section_title
;
Structure prediction by ZEFSAII (Michael W. Deem and Ramdas Pophale) SiO2 
 PCOD9357272
Probable space group: A M M 2
;
_chemical_formula_sum "Si O2"
_cell_formula_units_Z 48
_cell_length_a 16.078606
_cell_length_b 8.626632
_cell_length_c 18.507857
_cell_angle_alpha 90.000000
_cell_angle_beta 90.000000
_cell_angle_gamma 90.000000
_cell_volume 2567.117814
_symmetry_space_group_name_H-M "A M M 2"
_symmetry_group_IT_number 38
_symmetry_cell_setting 'orthorhombic'
loop_
_space_group_symop_operation_xyz
x,y,z
-x,-y,z
-x,y,z
x,-y,z
x,1/2+y,1/2+z
-x,1/2-y,1/2+z
-x,1/2+y,1/2+z
x,1/2-y,1/2+z
loop_
_atom_site_type_symbol
_atom_site_label
_atom_site_fract_x
_atom_site_fract_y
_atom_site_fract_z
Si Si1 0.159199 0.815846 0.594660
Si Si2 0.000000 0.185974 0.179216
Si Si3 0.684321 0.815399 0.178895
Si Si4 0.680123 0.188386 0.841973
Si Si5 0.500000 0.182752 0.850531
Si Si6 0.500000 0.685079 0.691050
Si Si7 0.157893 0.686002 0.433097
Si Si8 0.000000 0.813922 0.347280
O O1 0.082229 0.748156 0.640080
O O2 0.245482 0.765842 0.631843
O O3 0.155344 0.751116 0.513696
O O4 0.152519 0.000000 0.593551
O O5 0.000000 0.232879 0.263263
O O6 0.000000 0.000000 0.175556
O O7 0.690539 0.759219 0.262077
O O8 0.588794 0.783819 0.154157
O O9 0.697504 0.000000 0.176140
O O10 0.590662 0.241935 0.873852
O O11 0.756663 0.230303 0.892847
O O12 0.678306 0.000000 0.834858
O O13 0.500000 0.215937 0.764527
O O14 0.500000 0.000000 0.865511
O O15 0.500000 0.500000 0.709562
O O16 0.153451 0.500000 0.435803
O O17 0.081012 0.749711 0.387233
O O18 0.000000 0.000000 0.350977
#
# Coordination Sequence:
#
# PCOD9357272 Si02
#       8
#     8   4   8   8   4   4   8   4
#     4  12  25  40  58  82 115 151 188 230 278 331
#     4  11  24  43  66  89 113 143 182 227 276 331
#     4  10  19  34  57  84 114 148 189 234 280 331
#     4   9  18  33  56  84 112 145 185 230 279 331
#     4   8  14  28  51  80 111 141 179 227 277 328
#     4   8  16  30  51  80 111 145 185 231 279 326
#     4  11  23  39  58  81 113 150 186 225 274 331
#     4  11  24  41  62  87 111 139 178 225 276 329
#
# _framework density 18.698011999999999
#
# number of rings (size 3 to 8) (size 9 to 14) (size 15 to 20)
#    0.000    1.833    0.000    4.500    0.000    6.000 
#    0.000    0.833    0.000    3.000    0.000    0.000 
#    0.000    0.000    0.000    0.000    0.000    0.000 
#
# Total GULP energy -133989.941545 kJ/mol
# GULP energy per Si atom -5582.914231 kJ/mol
# Density = 1.865545 g / cm^3
# Si number density = 18.698012 Si / 1000 Ang^3
#
#
#
# Elastic Constant Matrix: (Units=GPa)
#
#
# Indices 1 2 3 4 5 6 
#
# 1 205.1209 53.5481 104.7614 0.0000 0.0000 0.0000
# 2 53.5481 57.8622 45.8372 0.0000 0.0000 0.0000
# 3 104.7614 45.8372 134.5051 0.0000 0.0000 0.0000
# 4 0.0000 0.0000 0.0000 80.1757 0.0000 0.0000
# 5 0.0000 0.0000 0.0000 0.0000 -20.0762 0.0000
# 6 0.0000 0.0000 0.0000 0.0000 0.0000 12.7234
#
#
#
# Elastic Compliance Matrix: (Units=1/GPa)
#
#
# Indices 1 2 3 4 5 6 
#
# 1 0.008622 -0.003643 -0.005474 0.000000 0.000000 0.000000
# 2 -0.003643 0.025212 -0.005755 0.000000 0.000000 0.000000
# 3 -0.005474 -0.005755 0.013659 0.000000 0.000000 0.000000
# 4 0.000000 0.000000 0.000000 0.012473 0.000000 0.000000
# 5 0.000000 0.000000 0.000000 0.000000 -0.049810 0.000000
# 6 0.000000 0.000000 0.000000 0.000000 0.000000 0.078595
#
#
# Mechanical properties :
#
#
# Convention : Reuss Voigt Hill
#
# Bulk Modulus (GPa) = 56.33591 89.53130 72.93361
# Shear Modulus (GPa) = 40.18963 27.45402 33.82182
#
# Velocity S-wave (km/s) = 4.64120 3.83598 4.25767
# Velocity P-wave (km/s) = 7.67566 8.22231 7.95368
#
# Compressibility (1/GPa) = 0.01775067
#
# Stress axis : x y z
#
# Youngs Moduli (GPa) = 115.98536 39.66309 73.21084
#
# Poissons Ratio (x) = 0.14448 0.40074
# Poissons Ratio (y) = 0.42250 0.42131
# Poissons Ratio (z) = 0.63488 0.22825
#
# Static dielectric constant tensor:
#      x y z
#    x 1.669040 0.000000 0.000000 
#    y 0.000000 1.624680 0.000000 
#    z 0.000000 0.000000 1.596830 
# 
# From -- ./inp_files/18288.got.cif
#   From: 2010.05.17/outbox.cif.g08.bks.cpg/sg38_10_cif.got.tgz:18288.got - 2010.06.03 18:07:57.
