data_PCOD9357481
_publ_section_title
;
Structure prediction by ZEFSAII (Michael W. Deem and Ramdas Pophale) SiO2 
 PCOD9357481
Probable space group: A M M 2
;
_chemical_formula_sum "Si O2"
_cell_formula_units_Z 64
_cell_length_a 14.525604
_cell_length_b 7.567320
_cell_length_c 29.296834
_cell_angle_alpha 90.000000
_cell_angle_beta 90.000000
_cell_angle_gamma 90.000000
_cell_volume 3220.304878
_symmetry_space_group_name_H-M "A M M 2"
_symmetry_group_IT_number 38
_symmetry_cell_setting 'orthorhombic'
loop_
_space_group_symop_operation_xyz
x,y,z
-x,-y,z
-x,y,z
x,-y,z
x,1/2+y,1/2+z
-x,1/2-y,1/2+z
-x,1/2+y,1/2+z
x,1/2-y,1/2+z
loop_
_atom_site_type_symbol
_atom_site_label
_atom_site_fract_x
_atom_site_fract_y
_atom_site_fract_z
Si Si1 0.602086 0.210602 0.340210
Si Si2 0.394497 0.299843 0.978363
Si Si3 0.395435 0.211489 0.078019
Si Si4 0.106949 0.715628 0.589948
Si Si5 0.891790 0.284501 0.487057
Si Si6 0.603875 0.216241 0.235261
Si Si7 0.245926 0.808219 0.912558
Si Si8 0.258121 0.286576 0.659129
O O1 0.500000 0.273924 0.357676
O O2 0.611898 0.272614 0.287964
O O3 0.693764 0.245114 0.369538
O O4 0.594884 0.000000 0.338534
O O5 0.500000 0.240183 0.976490
O O6 0.389982 0.500000 0.959982
O O7 0.326471 0.183579 0.950008
O O8 0.366918 0.298298 0.030928
O O9 0.500000 0.262317 0.087657
O O10 0.332423 0.252075 0.120122
O O11 0.391936 0.000000 0.070748
O O12 0.112884 0.500000 0.589415
O O13 0.138093 0.771588 0.538568
O O14 0.165032 0.776600 0.633994
O O15 0.000000 0.763417 0.594152
O O16 0.883134 0.500000 0.486736
O O17 0.833648 0.217059 0.443375
O O18 0.000000 0.242541 0.482707
O O19 0.500000 0.266866 0.219055
O O20 0.690767 0.276916 0.204999
O O21 0.604726 0.000000 0.233880
O O22 0.208903 0.000000 0.899478
O O23 0.248461 0.500000 0.664202
#
# Coordination Sequence:
#
# PCOD9357481 Si02
#       8
#     8   8   8   8   8   8   8   8
#     4   9  18  32  47  63  88 122 153 180 219 273
#     4  10  20  31  41  57  88 126 152 170 206 266
#     4   9  16  25  39  61  86 109 139 181 219 249
#     4   8  13  21  34  55  85 116 140 166 208 260
#     4   8  15  28  44  64  91 118 143 176 221 270
#     4   8  14  25  41  60  82 112 149 181 211 256
#     4  11  20  29  47  70  86 107 146 193 231 259
#     4   9  14  21  38  63  86 107 138 182 221 248
#
# _framework density 19.873895000000001
#
# number of rings (size 3 to 8) (size 9 to 14) (size 15 to 20)
#    0.000    3.000    0.000    3.750    0.000    6.000 
#    0.000    0.000    0.000    3.000    0.000    3.500 
#    0.000    0.000    0.000    0.000    0.000    0.000 
#
# Total GULP energy -178145.566585 kJ/mol
# GULP energy per Si atom -5567.048956 kJ/mol
# Density = 1.982866 g / cm^3
# Si number density = 19.873895 Si / 1000 Ang^3
#
#
#
# Elastic Constant Matrix: (Units=GPa)
#
#
# Indices 1 2 3 4 5 6 
#
# 1 108.6861 7.3233 67.9969 0.0000 0.0000 0.0000
# 2 7.3233 30.3984 8.2933 0.0000 0.0000 0.0000
# 3 67.9969 8.2933 98.7362 0.0000 0.0000 0.0000
# 4 0.0000 0.0000 0.0000 8.9984 0.0000 0.0000
# 5 0.0000 0.0000 0.0000 0.0000 38.2471 0.0000
# 6 0.0000 0.0000 0.0000 0.0000 0.0000 1.6220
#
#
#
# Elastic Compliance Matrix: (Units=1/GPa)
#
#
# Indices 1 2 3 4 5 6 
#
# 1 0.016189 -0.000879 -0.011075 0.000000 0.000000 0.000000
# 2 -0.000879 0.033716 -0.002227 0.000000 0.000000 0.000000
# 3 -0.011075 -0.002227 0.017942 0.000000 0.000000 0.000000
# 4 0.000000 0.000000 0.000000 0.111131 0.000000 0.000000
# 5 0.000000 0.000000 0.000000 0.000000 0.026146 0.000000
# 6 0.000000 0.000000 0.000000 0.000000 0.000000 0.616516
#
#
# Mechanical properties :
#
#
# Convention : Reuss Voigt Hill
#
# Bulk Modulus (GPa) = 25.32566 45.00531 35.16549
# Shear Modulus (GPa) = 5.79266 20.05398 12.92332
#
# Velocity S-wave (km/s) = 1.70910 3.18002 2.55280
# Velocity P-wave (km/s) = 4.08235 6.01481 5.14021
#
# Compressibility (1/GPa) = 0.03948565
#
# Stress axis : x y z
#
# Youngs Moduli (GPa) = 61.77091 29.65981 55.73476
#
# Poissons Ratio (x) = 0.02606 0.61726
# Poissons Ratio (y) = 0.05427 0.12411
# Poissons Ratio (z) = 0.68411 0.06605
#
# Static dielectric constant tensor:
#      x y z
#    x 1.720280 0.000000 0.000000 
#    y 0.000000 1.742140 0.000000 
#    z 0.000000 0.000000 1.715500 
# 
# From -- ./inp_files/25130.got.cif
#   From: 2010.05.17/outbox.cif.g08.bks.cpg/sg38_13_cif.got.tgz:25130.got - 2010.06.03 18:07:57.
