data_PCOD9357773
_publ_section_title
;
Structure prediction by ZEFSAII (Michael W. Deem and Ramdas Pophale) SiO2 
 PCOD9357773
Probable space group: A M M 2
;
_chemical_formula_sum "Si O2"
_cell_formula_units_Z 58
_cell_length_a 7.320775
_cell_length_b 12.687172
_cell_length_c 27.492039
_cell_angle_alpha 90.000000
_cell_angle_beta 90.000000
_cell_angle_gamma 90.000000
_cell_volume 2553.458702
_symmetry_space_group_name_H-M "A M M 2"
_symmetry_group_IT_number 38
_symmetry_cell_setting 'orthorhombic'
loop_
_space_group_symop_operation_xyz
x,y,z
-x,-y,z
-x,y,z
x,-y,z
x,1/2+y,1/2+z
-x,1/2-y,1/2+z
-x,1/2+y,1/2+z
x,1/2-y,1/2+z
loop_
_atom_site_type_symbol
_atom_site_label
_atom_site_fract_x
_atom_site_fract_y
_atom_site_fract_z
Si Si1 0.708638 0.160474 0.559560
Si Si2 0.278865 0.885595 0.451418
Si Si3 0.722944 0.298612 0.741995
Si Si4 0.779055 0.885531 0.026533
Si Si5 0.292780 0.614283 0.310420
Si Si6 0.000000 0.000000 0.240736
Si Si7 0.721576 0.884172 0.666183
Si Si8 0.792150 0.339310 0.417868
O O1 0.500000 0.122588 0.558962
O O2 0.786681 0.125709 0.507429
O O3 0.710390 0.287072 0.556729
O O4 0.788565 0.125330 0.610553
O O5 0.500000 0.878608 0.452147
O O6 0.211388 0.787109 0.421124
O O7 0.226953 0.000000 0.432458
O O8 0.500000 0.317669 0.742545
O O9 0.777223 0.223065 0.787786
O O10 0.839303 0.405345 0.740569
O O11 0.769035 0.218457 0.697413
O O12 0.000000 0.878594 0.025747
O O13 0.726836 0.000000 0.045430
O O14 0.716769 0.874539 0.970319
O O15 0.500000 0.609417 0.291299
O O16 0.207802 0.500000 0.299054
O O17 0.297959 0.623895 0.368622
O O18 0.500000 0.883526 0.664736
O O19 0.776156 0.000000 0.685317
O O20 0.000000 0.376612 0.415659
#
# Coordination Sequence:
#
# PCOD9357773 Si02
#       8
#     8   8   8   8   8   2   8   8
#     4   9  17  30  52  82 111 145 196 248 301 359
#     4   9  17  31  50  75 110 152 199 251 299 356
#     4  10  23  45  70  97 129 165 206 255 311 374
#     4   9  18  33  48  69 107 156 197 241 298 360
#     4  10  21  39  64  93 121 153 197 255 319 374
#     4  12  26  48  70  94 128 172 214 246 308 370
#     4   9  17  35  64  93 121 156 199 255 319 375
#     4  10  20  33  52  79 113 151 198 246 302 364
#
# _framework density 22.714290999999999
#
# number of rings (size 3 to 8) (size 9 to 14) (size 15 to 20)
#    0.000    2.483    0.000    1.862    0.966    5.241 
#    3.724    1.034    0.000    0.828    0.000    0.000 
#    0.000    0.000    0.000    0.000    0.000    0.000 
#
# Total GULP energy -161581.775289 kJ/mol
# GULP energy per Si atom -5571.785355 kJ/mol
# Density = 2.266259 g / cm^3
# Si number density = 22.714291 Si / 1000 Ang^3
#
#
#
# Elastic Constant Matrix: (Units=GPa)
#
#
# Indices 1 2 3 4 5 6 
#
# 1 117.4411 36.2901 10.5811 0.0000 0.0000 0.0000
# 2 36.2901 243.0142 42.0791 0.0000 0.0000 0.0000
# 3 10.5811 42.0791 84.1337 0.0000 0.0000 0.0000
# 4 0.0000 0.0000 0.0000 -9.1159 0.0000 0.0000
# 5 0.0000 0.0000 0.0000 0.0000 -45.0779 0.0000
# 6 0.0000 0.0000 0.0000 0.0000 0.0000 14.0136
#
#
#
# Elastic Compliance Matrix: (Units=1/GPa)
#
#
# Indices 1 2 3 4 5 6 
#
# 1 0.008946 -0.001249 -0.000500 0.000000 0.000000 0.000000
# 2 -0.001249 0.004680 -0.002183 0.000000 0.000000 0.000000
# 3 -0.000500 -0.002183 0.013041 0.000000 0.000000 0.000000
# 4 0.000000 0.000000 0.000000 -0.109698 0.000000 0.000000
# 5 0.000000 0.000000 0.000000 0.000000 -0.022184 0.000000
# 6 0.000000 0.000000 0.000000 0.000000 0.000000 0.071359
#
#
# Mechanical properties :
#
#
# Convention : Reuss Voigt Hill
#
# Bulk Modulus (GPa) = 53.19004 69.16550 61.17777
# Shear Modulus (GPa) = -253.50304 15.67320 -118.91492
#
# Velocity S-wave (km/s) = -10.57579 2.62966 -7.24335
# Velocity P-wave (km/s) = 11.20991 6.30369 6.55460
#
# Compressibility (1/GPa) = 0.01880051
#
# Stress axis : x y z
#
# Youngs Moduli (GPa) = 111.78148 213.69305 76.68264
#
# Poissons Ratio (x) = 0.26697 0.03836
# Poissons Ratio (y) = 0.13965 0.16743
# Poissons Ratio (z) = 0.05592 0.46657
#
# Static dielectric constant tensor:
#      x y z
#    x 1.956910 0.000000 0.000000 
#    y 0.000000 1.835270 0.000000 
#    z 0.000000 0.000000 1.833650 
# 
# From -- ./inp_files/23464.got.cif
#   From: 2010.05.17/outbox.cif.g08.bks.cpg/sg38_12_cif.got.tgz:23464.got - 2010.06.03 18:07:57.
