data_PCOD9357245
_publ_section_title
;
Structure prediction by ZEFSAII (Michael W. Deem and Ramdas Pophale) SiO2 
 PCOD9357245
Probable space group: A M M 2
;
_chemical_formula_sum "Si O2"
_cell_formula_units_Z 64
_cell_length_a 8.823417
_cell_length_b 21.024032
_cell_length_c 20.033466
_cell_angle_alpha 90.000000
_cell_angle_beta 90.000000
_cell_angle_gamma 90.000000
_cell_volume 3716.284097
_symmetry_space_group_name_H-M "A M M 2"
_symmetry_group_IT_number 38
_symmetry_cell_setting 'orthorhombic'
loop_
_space_group_symop_operation_xyz
x,y,z
-x,-y,z
-x,y,z
x,-y,z
x,1/2+y,1/2+z
-x,1/2-y,1/2+z
-x,1/2+y,1/2+z
x,1/2-y,1/2+z
loop_
_atom_site_type_symbol
_atom_site_label
_atom_site_fract_x
_atom_site_fract_y
_atom_site_fract_z
Si Si1 0.819741 0.572792 0.978660
Si Si2 0.679596 0.231279 0.120599
Si Si3 0.819887 0.884474 0.756210
Si Si4 0.184579 0.930103 0.900426
Si Si5 0.680668 0.189488 0.399865
Si Si6 0.678327 0.115981 0.615476
Si Si7 0.820305 0.232232 0.262743
Si Si8 0.182435 0.306801 0.483271
O O1 0.785289 0.500000 0.960178
O O2 0.736333 0.623902 0.932458
O O3 0.000000 0.582810 0.973968
O O4 0.767681 0.584581 0.054790
O O5 0.500000 0.219746 0.121013
O O6 0.702090 0.307520 0.111466
O O7 0.752352 0.213185 0.191335
O O8 0.758152 0.197286 0.058497
O O9 0.768634 0.918677 0.823747
O O10 0.736055 0.903794 0.688574
O O11 0.797584 0.808761 0.767921
O O12 0.000000 0.895013 0.747238
O O13 0.232249 0.871476 0.946411
O O14 0.000000 0.928813 0.899967
O O15 0.233204 0.000000 0.923235
O O16 0.500000 0.193458 0.402776
O O17 0.739299 0.198810 0.324636
O O18 0.751486 0.246899 0.443081
O O19 0.500000 0.103301 0.608372
O O20 0.000000 0.220598 0.265296
O O21 0.000000 0.303177 0.481900
#
# Coordination Sequence:
#
# PCOD9357245 Si02
#       8
#     8   8   8   8   8   8   8   8
#     4  11  24  40  58  80 108 146 190 232 275 332
#     4  10  20  34  53  83 115 145 179 227 284 331
#     4   9  17  31  51  77 109 148 189 227 267 319
#     4   9  18  33  53  79 110 144 185 229 272 318
#     4  12  23  36  57  84 113 146 182 230 283 333
#     4  10  20  33  51  78 112 148 182 223 275 329
#     4  10  19  34  56  83 111 144 184 230 276 327
#     4  11  20  34  57  83 109 145 189 232 276 327
#
# _framework density 17.221503999999999
#
# number of rings (size 3 to 8) (size 9 to 14) (size 15 to 20)
#    0.000    1.750    2.500    3.000    0.000    3.000 
#    0.000    1.250    0.000    3.750    0.000    1.750 
#    0.000    0.000    0.000    0.000    0.000    0.000 
#
# Total GULP energy -178734.137203 kJ/mol
# GULP energy per Si atom -5585.441788 kJ/mol
# Density = 1.718231 g / cm^3
# Si number density = 17.221504 Si / 1000 Ang^3
#
#
#
# Elastic Constant Matrix: (Units=GPa)
#
#
# Indices 1 2 3 4 5 6 
#
# 1 69.3818 53.0561 48.7719 0.0000 0.0000 0.0000
# 2 53.0561 91.4248 63.3233 0.0000 0.0000 0.0000
# 3 48.7719 63.3233 131.3052 0.0000 0.0000 0.0000
# 4 0.0000 0.0000 0.0000 17.9340 0.0000 0.0000
# 5 0.0000 0.0000 0.0000 0.0000 13.3405 0.0000
# 6 0.0000 0.0000 0.0000 0.0000 0.0000 8.5081
#
#
#
# Elastic Compliance Matrix: (Units=1/GPa)
#
#
# Indices 1 2 3 4 5 6 
#
# 1 0.027072 -0.013132 -0.003722 0.000000 0.000000 0.000000
# 2 -0.013132 0.022794 -0.006115 0.000000 0.000000 0.000000
# 3 -0.003722 -0.006115 0.011947 0.000000 0.000000 0.000000
# 4 0.000000 0.000000 0.000000 0.055760 0.000000 0.000000
# 5 0.000000 0.000000 0.000000 0.000000 0.074960 0.000000
# 6 0.000000 0.000000 0.000000 0.000000 0.000000 0.117535
#
#
# Mechanical properties :
#
#
# Convention : Reuss Voigt Hill
#
# Bulk Modulus (GPa) = 62.99428 69.15716 66.07572
# Shear Modulus (GPa) = 13.83894 16.42055 15.12974
#
# Velocity S-wave (km/s) = 2.83783 3.09121 2.96723
# Velocity P-wave (km/s) = 6.88447 7.27911 7.08454
#
# Compressibility (1/GPa) = 0.01587446
#
# Stress axis : x y z
#
# Youngs Moduli (GPa) = 36.93881 43.87064 83.69963
#
# Poissons Ratio (x) = 0.57612 0.31156
# Poissons Ratio (y) = 0.48509 0.51182
# Poissons Ratio (z) = 0.13750 0.26827
#
# Static dielectric constant tensor:
#      x y z
#    x 1.572980 0.000000 0.000000 
#    y 0.000000 1.580540 0.000000 
#    z 0.000000 0.000000 1.567210 
# 
# From -- ./inp_files/17154.got.cif
#   From: 2010.05.17/outbox.cif.g08.bks.cpg/sg38_9_cif.got.tgz:17154.got - 2010.06.03 18:07:57.
