data_PCOD9357437
_publ_section_title
;
Structure prediction by ZEFSAII (Michael W. Deem and Ramdas Pophale) SiO2 
 PCOD9357437
Probable space group: A M M 2
;
_chemical_formula_sum "Si O2"
_cell_formula_units_Z 48
_cell_length_a 8.734897
_cell_length_b 15.497921
_cell_length_c 19.452285
_cell_angle_alpha 90.000000
_cell_angle_beta 90.000000
_cell_angle_gamma 90.000000
_cell_volume 2633.309191
_symmetry_space_group_name_H-M "A M M 2"
_symmetry_group_IT_number 38
_symmetry_cell_setting 'orthorhombic'
loop_
_space_group_symop_operation_xyz
x,y,z
-x,-y,z
-x,y,z
x,-y,z
x,1/2+y,1/2+z
-x,1/2-y,1/2+z
-x,1/2+y,1/2+z
x,1/2-y,1/2+z
loop_
_atom_site_type_symbol
_atom_site_label
_atom_site_fract_x
_atom_site_fract_y
_atom_site_fract_z
Si Si1 0.816287 0.500000 0.609261
Si Si2 0.815693 0.656633 0.853431
Si Si3 0.817124 0.000000 0.607732
Si Si4 0.816376 0.500000 0.448452
Si Si5 0.683306 0.349910 0.199809
Si Si6 0.316186 0.850080 0.202750
Si Si7 0.683966 0.845918 0.858636
Si Si8 0.186285 0.500000 0.950810
O O1 0.774484 0.500000 0.528891
O O2 0.750174 0.583559 0.647933
O O3 0.000000 0.500000 0.614885
O O4 0.752630 0.632026 0.778166
O O5 0.749959 0.750634 0.871420
O O6 0.767686 0.584887 0.908596
O O7 0.000000 0.660231 0.850766
O O8 0.760707 0.083883 0.648534
O O9 0.759745 0.000000 0.529206
O O10 0.000000 0.000000 0.606423
O O11 0.750428 0.416266 0.410097
O O12 0.000000 0.500000 0.443212
O O13 0.500000 0.358953 0.194300
O O14 0.722209 0.249756 0.186143
O O15 0.724719 0.368682 0.279386
O O16 0.500000 0.857295 0.206101
O O17 0.500000 0.843686 0.862953
O O18 0.000000 0.500000 0.951900
#
# Coordination Sequence:
#
# PCOD9357437 Si02
#       8
#     4   8   4   4   8   8   8   4
#     4  11  24  39  56  82 116 151 186 229 284 344
#     4  10  19  36  61  84 111 147 187 231 278 330
#     4  11  22  35  54  80 110 145 184 223 266 322
#     4  11  24  39  56  82 114 149 190 233 282 342
#     4   9  20  38  57  80 110 142 178 225 277 326
#     4  10  21  38  60  85 112 143 185 234 280 331
#     4  10  21  38  59  83 112 145 185 234 284 334
#     4   9  21  37  52  78 114 147 178 221 274 320
#
# _framework density 18.228014000000002
#
# number of rings (size 3 to 8) (size 9 to 14) (size 15 to 20)
#    0.000    2.000    0.000    4.250    0.000    9.333 
#    0.000    9.583    0.000    0.000    0.000    0.000 
#    0.000    0.000    0.000    0.000    0.000    0.000 
#
# Total GULP energy -134077.811387 kJ/mol
# GULP energy per Si atom -5586.575474 kJ/mol
# Density = 1.818653 g / cm^3
# Si number density = 18.228014 Si / 1000 Ang^3
#
#
#
# Elastic Constant Matrix: (Units=GPa)
#
#
# Indices 1 2 3 4 5 6 
#
# 1 58.4852 58.8988 66.8902 0.0000 0.0000 0.0000
# 2 58.8988 148.5615 144.0999 0.0000 0.0000 0.0000
# 3 66.8902 144.0999 183.8643 0.0000 0.0000 0.0000
# 4 0.0000 0.0000 0.0000 -26.8472 0.0000 0.0000
# 5 0.0000 0.0000 0.0000 0.0000 -12.2198 0.0000
# 6 0.0000 0.0000 0.0000 0.0000 0.0000 29.3489
#
#
#
# Elastic Compliance Matrix: (Units=1/GPa)
#
#
# Indices 1 2 3 4 5 6 
#
# 1 0.030327 -0.005512 -0.006713 0.000000 0.000000 0.000000
# 2 -0.005512 0.029071 -0.020779 0.000000 0.000000 0.000000
# 3 -0.006713 -0.020779 0.024166 0.000000 0.000000 0.000000
# 4 0.000000 0.000000 0.000000 -0.037248 0.000000 0.000000
# 5 0.000000 0.000000 0.000000 0.000000 -0.081835 0.000000
# 6 0.000000 0.000000 0.000000 0.000000 0.000000 0.034073
#
#
# Mechanical properties :
#
#
# Convention : Reuss Voigt Hill
#
# Bulk Modulus (GPa) = 56.95841 103.40986 80.18413
# Shear Modulus (GPa) = 71.00809 6.12451 38.56630
#
# Velocity S-wave (km/s) = 6.24820 1.83500 4.60474
# Velocity P-wave (km/s) = 9.13066 7.83225 8.50626
#
# Compressibility (1/GPa) = 0.01755667
#
# Stress axis : x y z
#
# Youngs Moduli (GPa) = 32.97359 34.39848 41.38056
#
# Poissons Ratio (x) = 0.18960 0.27780
# Poissons Ratio (y) = 0.18175 0.85983
# Poissons Ratio (z) = 0.22136 0.71475
#
# Static dielectric constant tensor:
#      x y z
#    x 1.612260 0.000000 0.000000 
#    y 0.000000 1.609480 0.000000 
#    z 0.000000 0.000000 1.602660 
# 
# From -- ./inp_files/16731.got.cif
#   From: 2010.05.17/outbox.cif.g08.bks.cpg/sg38_9_cif.got.tgz:16731.got - 2010.06.03 18:07:57.
