data_PCOD9357530
_publ_section_title
;
Structure prediction by ZEFSAII (Michael W. Deem and Ramdas Pophale) SiO2 
 PCOD9357530
Probable space group: A M M 2
;
_chemical_formula_sum "Si O2"
_cell_formula_units_Z 64
_cell_length_a 14.270860
_cell_length_b 29.005139
_cell_length_c 10.323669
_cell_angle_alpha 90.000000
_cell_angle_beta 90.000000
_cell_angle_gamma 90.000000
_cell_volume 4273.258531
_symmetry_space_group_name_H-M "A M M 2"
_symmetry_group_IT_number 38
_symmetry_cell_setting 'orthorhombic'
loop_
_space_group_symop_operation_xyz
x,y,z
-x,-y,z
-x,y,z
x,-y,z
x,1/2+y,1/2+z
-x,1/2-y,1/2+z
-x,1/2+y,1/2+z
x,1/2-y,1/2+z
loop_
_atom_site_type_symbol
_atom_site_label
_atom_site_fract_x
_atom_site_fract_y
_atom_site_fract_z
Si Si1 0.612949 0.646258 0.928770
Si Si2 0.297355 0.853356 0.949125
Si Si3 0.611698 0.206227 0.176099
Si Si4 0.387240 0.949781 0.315477
Si Si5 0.107208 0.731062 0.218513
Si Si6 0.298585 0.692624 0.175001
Si Si7 0.611451 0.052780 0.006480
Si Si8 0.892022 0.304278 0.499051
O O1 0.500000 0.645361 0.942172
O O2 0.634058 0.681392 0.811766
O O3 0.646925 0.595378 0.888630
O O4 0.658630 0.663743 0.059305
O O5 0.321822 0.829508 0.813219
O O6 0.327131 0.906624 0.946223
O O7 0.354681 0.827310 0.061766
O O8 0.188083 0.842388 0.978979
O O9 0.500000 0.212513 0.167731
O O10 0.661456 0.255501 0.167871
O O11 0.500000 0.950421 0.331520
O O12 0.351042 0.000000 0.357628
O O13 0.372259 0.945014 0.161551
O O14 0.186231 0.696589 0.167643
O O15 0.119307 0.730837 0.375313
O O16 0.121244 0.777639 0.135221
O O17 0.000000 0.716776 0.193815
O O18 0.500000 0.061225 0.985172
O O19 0.631328 0.000000 0.965054
O O20 0.000000 0.320726 0.494021
#
# Coordination Sequence:
#
# PCOD9357530 Si02
#       8
#     8   8   8   8   8   8   8   8
#     4  10  20  32  45  66  95 126 161 195 226 274
#     4  11  20  32  50  71  96 126 162 199 239 284
#     4  11  21  32  45  64  94 134 168 189 216 273
#     4   8  14  28  49  68  86 115 157 200 235 269
#     4   9  18  32  48  67  91 124 162 198 234 274
#     4  11  22  31  44  68 100 130 153 191 238 283
#     4   9  17  31  51  72  92 121 165 206 236 275
#     4   9  18  32  50  70  94 124 159 200 241 281
#
# _framework density 14.97686
#
# number of rings (size 3 to 8) (size 9 to 14) (size 15 to 20)
#    0.000    2.250    2.500    2.250    1.750    3.000 
#    0.000    0.625    0.000    1.875    0.000    0.000 
#    0.000    1.500    0.000    0.000    0.000    0.000 
#
# Total GULP energy -178250.237210 kJ/mol
# GULP energy per Si atom -5570.319913 kJ/mol
# Density = 1.494277 g / cm^3
# Si number density = 14.976860 Si / 1000 Ang^3
#
#
#
# Elastic Constant Matrix: (Units=GPa)
#
#
# Indices 1 2 3 4 5 6 
#
# 1 47.5399 28.6224 22.4106 0.0000 0.0000 0.0000
# 2 28.6224 84.4254 14.6711 0.0000 0.0000 0.0000
# 3 22.4106 14.6711 44.2385 0.0000 0.0000 0.0000
# 4 0.0000 0.0000 0.0000 -23.4883 0.0000 0.0000
# 5 0.0000 0.0000 0.0000 0.0000 19.4934 0.0000
# 6 0.0000 0.0000 0.0000 0.0000 0.0000 11.5907
#
#
#
# Elastic Compliance Matrix: (Units=1/GPa)
#
#
# Indices 1 2 3 4 5 6 
#
# 1 0.032741 -0.008720 -0.013694 0.000000 0.000000 0.000000
# 2 -0.008720 0.014892 -0.000521 0.000000 0.000000 0.000000
# 3 -0.013694 -0.000521 0.029715 0.000000 0.000000 0.000000
# 4 0.000000 0.000000 0.000000 -0.042574 0.000000 0.000000
# 5 0.000000 0.000000 0.000000 0.000000 0.051299 0.000000
# 6 0.000000 0.000000 0.000000 0.000000 0.000000 0.086276
#
#
# Mechanical properties :
#
#
# Convention : Reuss Voigt Hill
#
# Bulk Modulus (GPa) = 31.76979 34.17911 32.97445
# Shear Modulus (GPa) = 21.86165 8.88581 15.37373
#
# Velocity S-wave (km/s) = 3.82474 2.43842 3.20738
# Velocity P-wave (km/s) = 6.38463 5.54966 5.98173
#
# Compressibility (1/GPa) = 0.03147644
#
# Stress axis : x y z
#
# Youngs Moduli (GPa) = 30.54310 67.15146 33.65328
#
# Poissons Ratio (x) = 0.58558 0.46085
# Poissons Ratio (y) = 0.26634 0.01754
# Poissons Ratio (z) = 0.41826 0.03499
#
# Static dielectric constant tensor:
#      x y z
#    x 1.501310 0.000000 0.000000 
#    y 0.000000 1.494800 0.000000 
#    z 0.000000 0.000000 1.499800 
# 
# From -- ./inp_files/5985.got.cif
#   From: 2010.05.17/outbox.cif.g08.bks.cpg/sg38_3_cif.got.tgz:5985.got - 2010.06.03 18:07:57.
