data_PCOD9357568
_publ_section_title
;
Structure prediction by ZEFSAII (Michael W. Deem and Ramdas Pophale) SiO2 
 PCOD9357568
Probable space group: A M M 2
;
_chemical_formula_sum "Si O2"
_cell_formula_units_Z 64
_cell_length_a 8.764799
_cell_length_b 23.771230
_cell_length_c 19.663816
_cell_angle_alpha 90.000000
_cell_angle_beta 90.000000
_cell_angle_gamma 90.000000
_cell_volume 4096.957104
_symmetry_space_group_name_H-M "A M M 2"
_symmetry_group_IT_number 38
_symmetry_cell_setting 'orthorhombic'
loop_
_space_group_symop_operation_xyz
x,y,z
-x,-y,z
-x,y,z
x,-y,z
x,1/2+y,1/2+z
-x,1/2-y,1/2+z
-x,1/2+y,1/2+z
x,1/2-y,1/2+z
loop_
_atom_site_type_symbol
_atom_site_label
_atom_site_fract_x
_atom_site_fract_y
_atom_site_fract_z
Si Si1 0.316699 0.763970 0.438110
Si Si2 0.817842 0.622406 0.588297
Si Si3 0.682523 0.751828 0.090569
Si Si4 0.682054 0.433981 0.453238
Si Si5 0.182274 0.276159 0.229019
Si Si6 0.316754 0.330157 0.807806
Si Si7 0.315769 0.064390 0.221673
Si Si8 0.817522 0.343074 0.360872
O O1 0.500000 0.754925 0.434836
O O2 0.276612 0.772998 0.516619
O O3 0.278066 0.813647 0.385278
O O4 0.236733 0.707903 0.409694
O O5 0.749018 0.685010 0.593020
O O6 0.760650 0.593253 0.519250
O O7 0.758374 0.586714 0.652320
O O8 0.000000 0.625669 0.588884
O O9 0.500000 0.755167 0.095828
O O10 0.746959 0.718132 0.154693
O O11 0.500000 0.427550 0.460195
O O12 0.718033 0.500000 0.448889
O O13 0.739553 0.399172 0.388288
O O14 0.240937 0.217188 0.260421
O O15 0.224788 0.323386 0.284682
O O16 0.000000 0.274248 0.224356
O O17 0.500000 0.324713 0.800604
O O18 0.273726 0.391611 0.780995
O O19 0.500000 0.066319 0.213745
O O20 0.272188 0.000000 0.235291
O O21 0.000000 0.348085 0.364961
#
# Coordination Sequence:
#
# PCOD9357568 Si02
#       8
#     8   8   8   8   8   8   8   8
#     4   9  18  31  49  70  94 124 162 202 244 293
#     4  12  23  33  47  69  99 133 168 206 240 281
#     4  11  20  31  49  72  98 131 164 199 243 293
#     4  11  23  37  52  70  96 132 171 206 241 289
#     4  10  20  32  48  72  99 125 159 201 246 293
#     4   9  17  31  49  68  92 126 162 199 243 289
#     4  10  20  33  49  69  96 131 168 202 238 286
#     4  10  20  33  50  72  97 126 161 204 249 290
#
# _framework density 15.62135
#
# number of rings (size 3 to 8) (size 9 to 14) (size 15 to 20)
#    0.000    1.750    2.500    3.000    0.000    4.750 
#    0.000    0.000    0.000    0.000    0.000    0.875 
#    0.000    3.000    0.000    0.000    0.000    0.000 
#
# Total GULP energy -178598.891207 kJ/mol
# GULP energy per Si atom -5581.215350 kJ/mol
# Density = 1.558580 g / cm^3
# Si number density = 15.621350 Si / 1000 Ang^3
#
#
#
# Elastic Constant Matrix: (Units=GPa)
#
#
# Indices 1 2 3 4 5 6 
#
# 1 34.7507 27.5983 40.4595 0.0000 0.0000 0.0000
# 2 27.5983 72.4803 52.8998 0.0000 0.0000 0.0000
# 3 40.4595 52.8998 133.4339 0.0000 0.0000 0.0000
# 4 0.0000 0.0000 0.0000 18.9384 0.0000 0.0000
# 5 0.0000 0.0000 0.0000 0.0000 18.8233 0.0000
# 6 0.0000 0.0000 0.0000 0.0000 0.0000 -1.5814
#
#
#
# Elastic Compliance Matrix: (Units=1/GPa)
#
#
# Indices 1 2 3 4 5 6 
#
# 1 0.050279 -0.011282 -0.010773 0.000000 0.000000 0.000000
# 2 -0.011282 0.021946 -0.005280 0.000000 0.000000 0.000000
# 3 -0.010773 -0.005280 0.012854 0.000000 0.000000 0.000000
# 4 0.000000 0.000000 0.000000 0.052803 0.000000 0.000000
# 5 0.000000 0.000000 0.000000 0.000000 0.053126 0.000000
# 6 0.000000 0.000000 0.000000 0.000000 0.000000 -0.632336
#
#
# Mechanical properties :
#
#
# Convention : Reuss Voigt Hill
#
# Bulk Modulus (GPa) = 32.88388 53.62000 43.25194
# Shear Modulus (GPa) = -13.27939 15.21655 0.96858
#
# Velocity S-wave (km/s) = -2.91878 3.12442 0.78828
# Velocity P-wave (km/s) = 3.12046 6.88588 5.34568
#
# Compressibility (1/GPa) = 0.03041004
#
# Stress axis : x y z
#
# Youngs Moduli (GPa) = 19.88907 45.56625 77.79775
#
# Poissons Ratio (x) = 0.51409 0.83808
# Poissons Ratio (y) = 0.22439 0.41074
# Poissons Ratio (z) = 0.21426 0.24057
#
# Static dielectric constant tensor:
#      x y z
#    x 1.522100 0.000000 0.000000 
#    y 0.000000 1.499400 0.000000 
#    z 0.000000 0.000000 1.534570 
# 
# From -- ./inp_files/17313.got.cif
#   From: 2010.05.17/outbox.cif.g08.bks.cpg/sg38_9_cif.got.tgz:17313.got - 2010.06.03 18:07:57.
