data_PCOD9357952
_publ_section_title
;
Structure prediction by ZEFSAII (Michael W. Deem and Ramdas Pophale) SiO2 
 PCOD9357952
Probable space group: A M M 2
;
_chemical_formula_sum "Si O2"
_cell_formula_units_Z 64
_cell_length_a 8.353535
_cell_length_b 20.268565
_cell_length_c 20.897417
_cell_angle_alpha 90.000000
_cell_angle_beta 90.000000
_cell_angle_gamma 90.000000
_cell_volume 3538.228754
_symmetry_space_group_name_H-M "A M M 2"
_symmetry_group_IT_number 38
_symmetry_cell_setting 'orthorhombic'
loop_
_space_group_symop_operation_xyz
x,y,z
-x,-y,z
-x,y,z
x,-y,z
x,1/2+y,1/2+z
-x,1/2-y,1/2+z
-x,1/2+y,1/2+z
x,1/2-y,1/2+z
loop_
_atom_site_type_symbol
_atom_site_label
_atom_site_fract_x
_atom_site_fract_y
_atom_site_fract_z
Si Si1 0.694786 0.072805 0.822620
Si Si2 0.689964 0.425872 0.551819
Si Si3 0.689697 0.711037 0.377558
Si Si4 0.694449 0.427734 0.172590
Si Si5 0.310686 0.285898 0.135070
Si Si6 0.185255 0.287652 0.512961
Si Si7 0.192565 0.574220 0.696640
Si Si8 0.810709 0.208368 0.257960
O O1 0.500000 0.073199 0.825151
O O2 0.750109 0.137196 0.860120
O O3 0.737881 0.079703 0.747612
O O4 0.747434 0.000000 0.844978
O O5 0.500000 0.421953 0.540700
O O6 0.744031 0.500000 0.533958
O O7 0.772539 0.365234 0.516936
O O8 0.725582 0.417755 0.627490
O O9 0.500000 0.707142 0.389142
O O10 0.772092 0.735646 0.441993
O O11 0.722705 0.756702 0.316501
O O12 0.500000 0.429397 0.170441
O O13 0.751730 0.500000 0.150649
O O14 0.744815 0.362154 0.135577
O O15 0.500000 0.284695 0.149809
O O16 0.281387 0.249923 0.068215
O O17 0.223697 0.247741 0.192453
O O18 0.000000 0.278356 0.527214
O O19 0.227198 0.500000 0.719689
O O20 0.240255 0.633117 0.743536
O O21 0.000000 0.579489 0.686579
O O22 0.000000 0.209466 0.271079
#
# Coordination Sequence:
#
# PCOD9357952 Si02
#       8
#     8   8   8   8   8   8   8   8
#     4   8  14  27  49  77 106 136 173 216 261 308
#     4  10  20  34  54  80 109 144 188 230 268 322
#     4  11  22  37  56  79 107 145 188 231 271 323
#     4   8  14  27  51  83 111 135 170 219 271 317
#     4  11  20  34  58  84 108 142 186 229 269 322
#     4  12  25  39  53  76 112 151 185 229 283 335
#     4   9  18  33  54  80 110 144 180 222 276 329
#     4  11  21  34  55  83 113 145 179 225 279 330
#
# _framework density 18.088145999999998
#
# number of rings (size 3 to 8) (size 9 to 14) (size 15 to 20)
#    0.000    2.000    2.500    3.375    0.000    1.750 
#    0.000    1.250    0.000    4.125    0.000    0.000 
#    0.000    0.000    0.000    0.000    0.000    0.000 
#
# Total GULP energy -178585.921281 kJ/mol
# GULP energy per Si atom -5580.810040 kJ/mol
# Density = 1.804698 g / cm^3
# Si number density = 18.088146 Si / 1000 Ang^3
#
#
#
# Elastic Constant Matrix: (Units=GPa)
#
#
# Indices 1 2 3 4 5 6 
#
# 1 14.9252 1.6160 -12.0987 0.0000 0.0000 0.0000
# 2 1.6160 100.8771 28.1311 0.0000 0.0000 0.0000
# 3 -12.0987 28.1311 58.0574 0.0000 0.0000 0.0000
# 4 0.0000 0.0000 0.0000 18.7326 0.0000 0.0000
# 5 0.0000 0.0000 0.0000 0.0000 23.6412 0.0000
# 6 0.0000 0.0000 0.0000 0.0000 0.0000 16.5595
#
#
#
# Elastic Compliance Matrix: (Units=1/GPa)
#
#
# Indices 1 2 3 4 5 6 
#
# 1 0.085013 -0.007287 0.021247 0.000000 0.000000 0.000000
# 2 -0.007287 0.012086 -0.007375 0.000000 0.000000 0.000000
# 3 0.021247 -0.007375 0.025225 0.000000 0.000000 0.000000
# 4 0.000000 0.000000 0.000000 0.053383 0.000000 0.000000
# 5 0.000000 0.000000 0.000000 0.000000 0.042299 0.000000
# 6 0.000000 0.000000 0.000000 0.000000 0.000000 0.060388
#
#
# Mechanical properties :
#
#
# Convention : Reuss Voigt Hill
#
# Bulk Modulus (GPa) = 7.38033 23.23960 15.30996
# Shear Modulus (GPa) = 16.10877 22.20075 19.15476
#
# Velocity S-wave (km/s) = 2.98748 3.50718 3.25771
# Velocity P-wave (km/s) = 3.99864 5.41075 4.75738
#
# Compressibility (1/GPa) = 0.13549532
#
# Stress axis : x y z
#
# Youngs Moduli (GPa) = 11.76288 82.73774 39.64251
#
# Poissons Ratio (x) = 0.60290 -0.84228
# Poissons Ratio (y) = 0.08571 0.29236
# Poissons Ratio (z) = -0.24992 0.61018
#
# Static dielectric constant tensor:
#      x y z
#    x 1.607170 0.000000 0.000000 
#    y 0.000000 1.653370 0.000000 
#    z 0.000000 0.000000 1.588730 
# 
# From -- ./inp_files/20261.got.cif
#   From: 2010.05.17/outbox.cif.g08.bks.cpg/sg38_11_cif.got.tgz:20261.got - 2010.06.03 18:07:57.
