data_PCOD9357548
_publ_section_title
;
Structure prediction by ZEFSAII (Michael W. Deem and Ramdas Pophale) SiO2 
 PCOD9357548
Probable space group: A M M 2
;
_chemical_formula_sum "Si O2"
_cell_formula_units_Z 56
_cell_length_a 7.888400
_cell_length_b 24.511820
_cell_length_c 14.251920
_cell_angle_alpha 90.000000
_cell_angle_beta 90.000000
_cell_angle_gamma 90.000000
_cell_volume 2755.737582
_symmetry_space_group_name_H-M "A M M 2"
_symmetry_group_IT_number 38
_symmetry_cell_setting 'orthorhombic'
loop_
_space_group_symop_operation_xyz
x,y,z
-x,-y,z
-x,y,z
x,-y,z
x,1/2+y,1/2+z
-x,1/2-y,1/2+z
-x,1/2+y,1/2+z
x,1/2-y,1/2+z
loop_
_atom_site_type_symbol
_atom_site_label
_atom_site_fract_x
_atom_site_fract_y
_atom_site_fract_z
Si Si1 0.199768 0.836551 0.916620
Si Si2 0.700523 0.619503 0.900534
Si Si3 0.200011 0.440087 0.720084
Si Si4 0.793973 0.828423 0.125999
Si Si5 0.700218 0.768691 0.309083
Si Si6 0.204525 0.937715 0.586546
Si Si7 0.792457 0.062010 0.800560
O O1 0.220009 0.786939 0.844916
O O2 0.270429 0.891988 0.871542
O O3 0.000000 0.846495 0.930483
O O4 0.266230 0.821070 0.019578
O O5 0.500000 0.618910 0.883069
O O6 0.779414 0.575561 0.829285
O O7 0.764990 0.679149 0.869228
O O8 0.734105 0.603158 0.007009
O O9 0.273372 0.500000 0.700742
O O10 0.266307 0.387911 0.662902
O O11 0.000000 0.442580 0.699204
O O12 0.733223 0.784110 0.201147
O O13 0.000000 0.827301 0.129708
O O14 0.500000 0.763937 0.324360
O O15 0.258584 0.925361 0.693138
O O16 0.000000 0.937194 0.585320
O O17 0.259371 0.000000 0.564839
O O18 0.000000 0.062541 0.801307
O O19 0.740854 0.000000 0.822985
#
# Coordination Sequence:
#
# PCOD9357548 Si02
#       7
#     8   8   8   8   8   8   8
#     4  10  20  35  58  83 103 130 169 211 256 303
#     4  10  20  32  47  70 100 135 174 214 255 296
#     4   9  17  30  49  74 104 136 168 204 251 306
#     4   9  19  35  54  78 106 133 167 212 256 302
#     4  10  22  38  53  72 103 140 175 212 255 304
#     4   9  17  30  49  73 102 136 169 203 250 305
#     4   8  16  32  53  78 106 132 162 203 251 305
#
# _framework density 20.32124
#
# number of rings (size 3 to 8) (size 9 to 14) (size 15 to 20)
#    0.000    2.714    0.000    2.143    0.000    6.286 
#    0.000    7.857    0.000    1.286    0.000    2.000 
#    0.000    0.000    0.000    0.000    0.000    0.000 
#
# Total GULP energy -156201.800428 kJ/mol
# GULP energy per Si atom -5578.635730 kJ/mol
# Density = 2.027499 g / cm^3
# Si number density = 20.321240 Si / 1000 Ang^3
#
#
#
# Elastic Constant Matrix: (Units=GPa)
#
#
# Indices 1 2 3 4 5 6 
#
# 1 14.3017 -11.6644 -9.8188 0.0000 0.0000 0.0000
# 2 -11.6644 86.1569 60.5823 0.0000 0.0000 0.0000
# 3 -9.8188 60.5823 120.8996 0.0000 0.0000 0.0000
# 4 0.0000 0.0000 0.0000 18.1652 0.0000 0.0000
# 5 0.0000 0.0000 0.0000 0.0000 -17.6630 0.0000
# 6 0.0000 0.0000 0.0000 0.0000 0.0000 -0.4413
#
#
#
# Elastic Compliance Matrix: (Units=1/GPa)
#
#
# Indices 1 2 3 4 5 6 
#
# 1 0.078807 0.009525 0.001627 0.000000 0.000000 0.000000
# 2 0.009525 0.019073 -0.008784 0.000000 0.000000 0.000000
# 3 0.001627 -0.008784 0.012805 0.000000 0.000000 0.000000
# 4 0.000000 0.000000 0.000000 0.055050 0.000000 0.000000
# 5 0.000000 0.000000 0.000000 0.000000 -0.056615 0.000000
# 6 0.000000 0.000000 0.000000 0.000000 0.000000 -2.266027
#
#
# Mechanical properties :
#
#
# Convention : Reuss Voigt Hill
#
# Bulk Modulus (GPa) = 8.66382 33.28406 20.97394
# Shear Modulus (GPa) = -2.35497 12.16278 4.90391
#
# Velocity S-wave (km/s) = -1.07768 2.44913 1.55513
# Velocity P-wave (km/s) = 1.65051 4.94087 3.68350
#
# Compressibility (1/GPa) = 0.11542249
#
# Stress axis : x y z
#
# Youngs Moduli (GPa) = 12.68917 52.43122 78.09493
#
# Poissons Ratio (x) = -0.49941 -0.12709
# Poissons Ratio (y) = -0.12087 0.68596
# Poissons Ratio (z) = -0.02065 0.46054
#
# Static dielectric constant tensor:
#      x y z
#    x 1.732990 0.000000 0.000000 
#    y 0.000000 1.718630 0.000000 
#    z 0.000000 0.000000 1.712060 
# 
# From -- ./inp_files/12442.got.cif
#   From: 2010.05.17/outbox.cif.g08.bks.cpg/sg38_7_cif.got.tgz:12442.got - 2010.06.03 18:07:57.
