data_PCOD9357521
_publ_section_title
;
Structure prediction by ZEFSAII (Michael W. Deem and Ramdas Pophale) SiO2 
 PCOD9357521
Probable space group: A M M 2
;
_chemical_formula_sum "Si O2"
_cell_formula_units_Z 48
_cell_length_a 19.657591
_cell_length_b 28.318302
_cell_length_c 5.016507
_cell_angle_alpha 90.000000
_cell_angle_beta 90.000000
_cell_angle_gamma 90.000000
_cell_volume 2792.536938
_symmetry_space_group_name_H-M "A M M 2"
_symmetry_group_IT_number 38
_symmetry_cell_setting 'orthorhombic'
loop_
_space_group_symop_operation_xyz
x,y,z
-x,-y,z
-x,y,z
x,-y,z
x,1/2+y,1/2+z
-x,1/2-y,1/2+z
-x,1/2+y,1/2+z
x,1/2-y,1/2+z
loop_
_atom_site_type_symbol
_atom_site_label
_atom_site_fract_x
_atom_site_fract_y
_atom_site_fract_z
Si Si1 0.078909 0.782810 0.488850
Si Si2 0.154782 0.551426 0.843043
Si Si3 0.922192 0.418487 0.362792
Si Si4 0.165721 0.850596 0.143955
Si Si5 0.279077 0.716822 0.416084
Si Si6 0.573723 0.217407 0.025061
O O1 0.088881 0.760367 0.778627
O O2 0.130448 0.822219 0.383862
O O3 0.000000 0.798641 0.464278
O O4 0.188103 0.500000 0.824915
O O5 0.124862 0.560113 0.134404
O O6 0.091835 0.553209 0.634945
O O7 0.193979 0.598984 0.752843
O O8 0.894385 0.366848 0.443560
O O9 0.000000 0.418049 0.283342
O O10 0.221432 0.819749 0.996583
O O11 0.273658 0.739056 0.122773
O O12 0.354008 0.694165 0.461212
O O13 0.500000 0.193653 0.981166
O O14 0.574825 0.237543 0.324464
#
# Coordination Sequence:
#
# PCOD9357521 Si02
#       6
#     8   8   8   8   8   8
#     4  10  21  33  46  63  86 116 149 184 221 264
#     4  10  23  37  52  70  89 115 150 199 251 293
#     4  10  22  35  51  68  87 114 151 197 244 287
#     4  10  23  34  51  68  94 120 155 194 232 283
#     4  10  20  31  50  73  99 132 162 187 223 271
#     4   8  14  26  43  67  97 128 157 185 217 258
#
# _framework density 17.188670999999999
#
# number of rings (size 3 to 8) (size 9 to 14) (size 15 to 20)
#    1.000    1.333    0.000    2.500    4.667    2.000 
#    0.000    0.000    0.000    0.000    0.000    0.000 
#    0.000    0.667    0.000    0.333    0.000    0.000 
#
# Total GULP energy -133723.249586 kJ/mol
# GULP energy per Si atom -5571.802066 kJ/mol
# Density = 1.714955 g / cm^3
# Si number density = 17.188671 Si / 1000 Ang^3
#
#
#
# Elastic Constant Matrix: (Units=GPa)
#
#
# Indices 1 2 3 4 5 6 
#
# 1 51.7152 18.1275 -16.2205 0.0000 0.0000 0.0000
# 2 18.1275 69.8974 -2.1896 0.0000 0.0000 0.0000
# 3 -16.2205 -2.1896 60.0922 0.0000 0.0000 0.0000
# 4 0.0000 0.0000 0.0000 6.5342 0.0000 0.0000
# 5 0.0000 0.0000 0.0000 0.0000 14.1225 0.0000
# 6 0.0000 0.0000 0.0000 0.0000 0.0000 -0.8796
#
#
#
# Elastic Compliance Matrix: (Units=1/GPa)
#
#
# Indices 1 2 3 4 5 6 
#
# 1 0.023293 -0.005851 0.006074 0.000000 0.000000 0.000000
# 2 -0.005851 0.015793 -0.001004 0.000000 0.000000 0.000000
# 3 0.006074 -0.001004 0.018244 0.000000 0.000000 0.000000
# 4 0.000000 0.000000 0.000000 0.153042 0.000000 0.000000
# 5 0.000000 0.000000 0.000000 0.000000 0.070809 0.000000
# 6 0.000000 0.000000 0.000000 0.000000 0.000000 -1.136943
#
#
# Mechanical properties :
#
#
# Convention : Reuss Voigt Hill
#
# Bulk Modulus (GPa) = 17.93118 20.12663 19.02890
# Shear Modulus (GPa) = -5.98363 16.08791 5.05214
#
# Velocity S-wave (km/s) = -1.86781 3.06267 1.71628
# Velocity P-wave (km/s) = 2.40894 4.92354 3.87584
#
# Compressibility (1/GPa) = 0.05576879
#
# Stress axis : x y z
#
# Youngs Moduli (GPa) = 42.93215 63.32103 54.81235
#
# Poissons Ratio (x) = 0.37046 -0.33294
# Poissons Ratio (y) = 0.25118 0.05502
# Poissons Ratio (z) = -0.26077 0.06356
#
# Static dielectric constant tensor:
#      x y z
#    x 1.618130 0.000000 0.000000 
#    y 0.000000 1.630060 0.000000 
#    z 0.000000 0.000000 1.619100 
# 
# From -- ./inp_files/1987.got.cif
#   From: 2010.05.17/outbox.cif.g08.bks.cpg/sg38_1_cif.got.tgz:1987.got - 2010.06.03 18:07:57.
