data_PCOD9357001
_publ_section_title
;
Structure prediction by ZEFSAII (Michael W. Deem and Ramdas Pophale) SiO2 
 PCOD9357001
Probable space group: A M M 2
;
_chemical_formula_sum "Si O2"
_cell_formula_units_Z 56
_cell_length_a 18.535259
_cell_length_b 8.843298
_cell_length_c 19.167665
_cell_angle_alpha 90.000000
_cell_angle_beta 90.000000
_cell_angle_gamma 90.000000
_cell_volume 3141.826001
_symmetry_space_group_name_H-M "A M M 2"
_symmetry_group_IT_number 38
_symmetry_cell_setting 'orthorhombic'
loop_
_space_group_symop_operation_xyz
x,y,z
-x,-y,z
-x,y,z
x,-y,z
x,1/2+y,1/2+z
-x,1/2-y,1/2+z
-x,1/2+y,1/2+z
x,1/2-y,1/2+z
loop_
_atom_site_type_symbol
_atom_site_label
_atom_site_fract_x
_atom_site_fract_y
_atom_site_fract_z
Si Si1 0.701334 0.172997 0.555140
Si Si2 0.743062 0.181096 0.785382
Si Si3 0.416040 0.673234 0.954661
Si Si4 0.190413 0.173145 0.423919
Si Si5 0.417697 0.819415 0.805920
Si Si6 0.916362 0.182381 0.029792
Si Si7 0.191158 0.177672 0.152561
O O1 0.625173 0.220351 0.524041
O O2 0.751363 0.172098 0.486372
O O3 0.736585 0.285696 0.609135
O O4 0.699101 0.000000 0.583050
O O5 0.774222 0.243963 0.858181
O O6 0.659002 0.232439 0.772541
O O7 0.796418 0.236744 0.724656
O O8 0.742007 0.000000 0.787904
O O9 0.500000 0.668862 0.969021
O O10 0.392077 0.500000 0.937793
O O11 0.406006 0.776489 0.887160
O O12 0.122049 0.251321 0.461057
O O13 0.173809 0.000000 0.404963
O O14 0.500000 0.762286 0.787365
O O15 0.420548 0.000000 0.797350
O O16 0.872534 0.229873 0.099797
O O17 0.000000 0.225435 0.033836
O O18 0.911068 0.000000 0.026714
O O19 0.182278 0.000000 0.165194
#
# Coordination Sequence:
#
# PCOD9357001 Si02
#       7
#     8   8   8   8   8   8   8
#     4   9  17  31  49  72 101 133 170 213 258 312
#     4  11  21  34  53  77 108 144 181 223 269 316
#     4   9  16  27  46  72 100 132 171 217 268 314
#     4  10  19  32  54  82 108 135 171 214 258 309
#     4   9  18  31  48  72 101 136 179 225 271 315
#     4   9  19  38  61  83 107 136 171 213 264 321
#     4  10  21  35  54  77 103 138 177 217 264 318
#
# _framework density 17.824031000000002
#
# number of rings (size 3 to 8) (size 9 to 14) (size 15 to 20)
#    0.000    2.429    1.429    1.286    0.000    2.571 
#    0.000    1.429    0.000    6.857    0.000    0.000 
#    0.000    0.000    0.000    0.000    0.000    0.000 
#
# Total GULP energy -155897.321246 kJ/mol
# GULP energy per Si atom -5567.761473 kJ/mol
# Density = 1.778346 g / cm^3
# Si number density = 17.824031 Si / 1000 Ang^3
#
#
#
# Elastic Constant Matrix: (Units=GPa)
#
#
# Indices 1 2 3 4 5 6 
#
# 1 102.3145 25.9671 35.3328 0.0000 0.0000 0.0000
# 2 25.9671 31.6252 23.5836 0.0000 0.0000 0.0000
# 3 35.3328 23.5836 62.9884 0.0000 0.0000 0.0000
# 4 0.0000 0.0000 0.0000 28.9471 0.0000 0.0000
# 5 0.0000 0.0000 0.0000 0.0000 21.3283 0.0000
# 6 0.0000 0.0000 0.0000 0.0000 0.0000 20.2160
#
#
#
# Elastic Compliance Matrix: (Units=1/GPa)
#
#
# Indices 1 2 3 4 5 6 
#
# 1 0.013267 -0.007414 -0.004666 0.000000 0.000000 0.000000
# 2 -0.007414 0.048012 -0.013818 0.000000 0.000000 0.000000
# 3 -0.004666 -0.013818 0.023667 0.000000 0.000000 0.000000
# 4 0.000000 0.000000 0.000000 0.034546 0.000000 0.000000
# 5 0.000000 0.000000 0.000000 0.000000 0.046886 0.000000
# 6 0.000000 0.000000 0.000000 0.000000 0.000000 0.049466
#
#
# Mechanical properties :
#
#
# Convention : Reuss Voigt Hill
#
# Bulk Modulus (GPa) = 30.16525 40.74389 35.45457
# Shear Modulus (GPa) = 17.94125 21.56792 19.75458
#
# Velocity S-wave (km/s) = 3.17610 3.48235 3.33274
# Velocity P-wave (km/s) = 5.51460 6.25121 5.89442
#
# Compressibility (1/GPa) = 0.03315073
#
# Stress axis : x y z
#
# Youngs Moduli (GPa) = 75.37677 20.82831 42.25324
#
# Poissons Ratio (x) = 0.15441 0.19716
# Poissons Ratio (y) = 0.55881 0.58384
# Poissons Ratio (z) = 0.35172 0.28780
#
# Static dielectric constant tensor:
#      x y z
#    x 1.652290 0.000000 0.000000 
#    y 0.000000 1.620980 0.000000 
#    z 0.000000 0.000000 1.601270 
# 
# From -- ./inp_files/18806.got.cif
#   From: 2010.05.17/outbox.cif.g08.bks.cpg/sg38_10_cif.got.tgz:18806.got - 2010.06.03 18:07:57.
