data_PCOD9357891
_publ_section_title
;
Structure prediction by ZEFSAII (Michael W. Deem and Ramdas Pophale) SiO2 
 PCOD9357891
Probable space group: A M M 2
;
_chemical_formula_sum "Si O2"
_cell_formula_units_Z 64
_cell_length_a 20.420661
_cell_length_b 8.694018
_cell_length_c 20.776863
_cell_angle_alpha 90.000000
_cell_angle_beta 90.000000
_cell_angle_gamma 90.000000
_cell_volume 3688.674274
_symmetry_space_group_name_H-M "A M M 2"
_symmetry_group_IT_number 38
_symmetry_cell_setting 'orthorhombic'
loop_
_space_group_symop_operation_xyz
x,y,z
-x,-y,z
-x,y,z
x,-y,z
x,1/2+y,1/2+z
-x,1/2-y,1/2+z
-x,1/2+y,1/2+z
x,1/2-y,1/2+z
loop_
_atom_site_type_symbol
_atom_site_label
_atom_site_fract_x
_atom_site_fract_y
_atom_site_fract_z
Si Si1 0.180945 0.186337 0.288240
Si Si2 0.575764 0.314608 0.397309
Si Si3 0.325128 0.815321 0.784928
Si Si4 0.672323 0.315526 0.644123
Si Si5 0.576161 0.315948 0.036970
Si Si6 0.925400 0.312624 0.892363
Si Si7 0.823123 0.684735 0.640956
Si Si8 0.074977 0.685408 0.039308
O O1 0.252626 0.254279 0.300961
O O2 0.127563 0.238306 0.340210
O O3 0.161897 0.228842 0.215001
O O4 0.185609 0.000000 0.290317
O O5 0.500000 0.272713 0.383965
O O6 0.578926 0.500000 0.403076
O O7 0.623453 0.267318 0.339683
O O8 0.594494 0.242360 0.465771
O O9 0.343134 0.750040 0.714803
O O10 0.324310 0.000000 0.781814
O O11 0.670329 0.500000 0.646825
O O12 0.622814 0.254658 0.590782
O O13 0.747559 0.269338 0.628622
O O14 0.500000 0.271056 0.047654
O O15 0.580206 0.500000 0.039118
O O16 0.925244 0.500000 0.891532
O O17 0.000000 0.264379 0.877470
O O18 0.909894 0.265771 0.965738
O O19 0.826414 0.500000 0.637089
O O20 0.873459 0.753282 0.590340
O O21 0.076237 0.500000 0.040278
O O22 0.000000 0.733637 0.053682
#
# Coordination Sequence:
#
# PCOD9357891 Si02
#       8
#     8   8   8   8   8   8   8   8
#     4   9  18  33  52  73  97 128 167 209 251 299
#     4   9  19  36  55  75 103 138 172 208 252 300
#     4  10  20  34  53  77 105 136 170 212 259 305
#     4  10  21  37  55  76 104 137 174 215 258 307
#     4  10  21  36  55  80 107 135 171 213 255 304
#     4   8  15  30  51  72  94 124 165 208 246 291
#     4   9  19  33  49  72 100 129 164 206 249 296
#     4   9  18  32  50  73 100 130 165 205 250 301
#
# _framework density 17.350406
#
# number of rings (size 3 to 8) (size 9 to 14) (size 15 to 20)
#    0.000    2.750    0.000    2.625    0.000    6.500 
#    0.000    5.625    0.000    1.125    0.000    0.000 
#    0.000    0.000    0.000    0.000    0.000    0.000 
#
# Total GULP energy -178454.529467 kJ/mol
# GULP energy per Si atom -5576.704046 kJ/mol
# Density = 1.731092 g / cm^3
# Si number density = 17.350406 Si / 1000 Ang^3
#
#
#
# Elastic Constant Matrix: (Units=GPa)
#
#
# Indices 1 2 3 4 5 6 
#
# 1 131.2517 37.8408 140.5386 0.0000 0.0000 0.0000
# 2 37.8408 21.9084 43.7281 0.0000 0.0000 0.0000
# 3 140.5386 43.7281 178.3626 0.0000 0.0000 0.0000
# 4 0.0000 0.0000 0.0000 28.6485 0.0000 0.0000
# 5 0.0000 0.0000 0.0000 0.0000 44.6307 0.0000
# 6 0.0000 0.0000 0.0000 0.0000 0.0000 28.5071
#
#
#
# Elastic Compliance Matrix: (Units=1/GPa)
#
#
# Indices 1 2 3 4 5 6 
#
# 1 0.051305 -0.015526 -0.036619 0.000000 0.000000 0.000000
# 2 -0.015526 0.094082 -0.010832 0.000000 0.000000 0.000000
# 3 -0.036619 -0.010832 0.037115 0.000000 0.000000 0.000000
# 4 0.000000 0.000000 0.000000 0.034906 0.000000 0.000000
# 5 0.000000 0.000000 0.000000 0.000000 0.022406 0.000000
# 6 0.000000 0.000000 0.000000 0.000000 0.000000 0.035079
#
#
# Mechanical properties :
#
#
# Convention : Reuss Voigt Hill
#
# Bulk Modulus (GPa) = 17.68388 86.19309 51.93848
# Shear Modulus (GPa) = 11.91341 27.65161 19.78251
#
# Velocity S-wave (km/s) = 2.62322 3.99647 3.38031
# Velocity P-wave (km/s) = 4.40333 8.43098 6.72572
#
# Compressibility (1/GPa) = 0.05654868
#
# Stress axis : x y z
#
# Youngs Moduli (GPa) = 19.49134 10.62906 26.94313
#
# Poissons Ratio (x) = 0.16503 0.98662
# Poissons Ratio (y) = 0.30263 0.29184
# Poissons Ratio (z) = 0.71374 0.11513
#
# Static dielectric constant tensor:
#      x y z
#    x 1.575350 0.000000 0.000000 
#    y 0.000000 1.588700 0.000000 
#    z 0.000000 0.000000 1.567730 
# 
# From -- ./inp_files/21336.got.cif
#   From: 2010.05.17/outbox.cif.g08.bks.cpg/sg38_11_cif.got.tgz:21336.got - 2010.06.03 18:07:57.
