data_PCOD9357903
_publ_section_title
;
Structure prediction by ZEFSAII (Michael W. Deem and Ramdas Pophale) SiO2 
 PCOD9357903
Probable space group: A M M 2
;
_chemical_formula_sum "Si O2"
_cell_formula_units_Z 58
_cell_length_a 15.697489
_cell_length_b 7.779550
_cell_length_c 25.502471
_cell_angle_alpha 90.000000
_cell_angle_beta 90.000000
_cell_angle_gamma 90.000000
_cell_volume 3114.346471
_symmetry_space_group_name_H-M "A M M 2"
_symmetry_group_IT_number 38
_symmetry_cell_setting 'orthorhombic'
loop_
_space_group_symop_operation_xyz
x,y,z
-x,-y,z
-x,y,z
x,-y,z
x,1/2+y,1/2+z
-x,1/2-y,1/2+z
-x,1/2+y,1/2+z
x,1/2-y,1/2+z
loop_
_atom_site_type_symbol
_atom_site_label
_atom_site_fract_x
_atom_site_fract_y
_atom_site_fract_z
Si Si1 0.097021 0.298744 0.815000
Si Si2 0.098590 0.706978 0.196101
Si Si3 0.175778 0.795042 0.588894
Si Si4 0.629152 0.207683 0.556435
Si Si5 0.906707 0.797033 0.983212
Si Si6 0.227357 0.198182 0.902218
Si Si7 0.406522 0.796144 0.434992
Si Si8 0.500000 0.000000 0.091040
O O1 0.095622 0.500000 0.827955
O O2 0.117870 0.278275 0.753619
O O3 0.168849 0.215443 0.851052
O O4 0.000000 0.230005 0.823231
O O5 0.105692 0.500000 0.200129
O O6 0.154716 0.767943 0.147299
O O7 0.000000 0.748720 0.184414
O O8 0.272738 0.767224 0.571833
O O9 0.115180 0.720548 0.544108
O O10 0.160578 0.000000 0.589003
O O11 0.613978 0.254474 0.495103
O O12 0.573028 0.344912 0.587740
O O13 0.609716 0.000000 0.562786
O O14 0.829798 0.720064 0.948802
O O15 0.000000 0.722988 0.971111
O O16 0.761190 0.000000 0.915589
O O17 0.323771 0.262931 0.899760
O O18 0.089418 0.000000 0.970613
O O19 0.500000 0.724085 0.420040
O O20 0.414366 0.000000 0.436262
#
# Coordination Sequence:
#
# PCOD9357903 Si02
#       8
#     8   8   8   8   8   8   8   2
#     4  10  21  37  56  79 107 143 186 232 283 333
#     4   9  18  34  56  80 107 143 187 231 275 325
#     4  10  20  34  53  79 112 146 183 226 276 335
#     4  10  21  35  53  82 115 147 189 237 282 341
#     4  10  21  33  47  73 112 151 184 220 267 330
#     4  11  22  34  54  79 109 143 185 228 274 334
#     4  10  20  35  53  77 111 146 181 231 280 326
#     4  12  22  32  60  78 110 156 190 236 292 342
#
# _framework density 18.62349
#
# number of rings (size 3 to 8) (size 9 to 14) (size 15 to 20)
#    0.000    1.931    2.069    1.862    1.931    3.586 
#    0.000    1.379    0.000    0.000    1.793    0.000 
#    0.000    0.000    0.000    0.000    0.000    0.000 
#
# Total GULP energy -161449.772794 kJ/mol
# GULP energy per Si atom -5567.233545 kJ/mol
# Density = 1.858110 g / cm^3
# Si number density = 18.623490 Si / 1000 Ang^3
#
#
#
# Elastic Constant Matrix: (Units=GPa)
#
#
# Indices 1 2 3 4 5 6 
#
# 1 134.8413 18.4858 46.3534 0.0000 0.0000 0.0000
# 2 18.4858 37.7294 -3.7432 0.0000 0.0000 0.0000
# 3 46.3534 -3.7432 60.6983 0.0000 0.0000 0.0000
# 4 0.0000 0.0000 0.0000 16.2624 0.0000 0.0000
# 5 0.0000 0.0000 0.0000 0.0000 12.3789 0.0000
# 6 0.0000 0.0000 0.0000 0.0000 0.0000 27.5463
#
#
#
# Elastic Compliance Matrix: (Units=1/GPa)
#
#
# Indices 1 2 3 4 5 6 
#
# 1 0.011456 -0.006521 -0.009150 0.000000 0.000000 0.000000
# 2 -0.006521 0.030379 0.006853 0.000000 0.000000 0.000000
# 3 -0.009150 0.006853 0.023885 0.000000 0.000000 0.000000
# 4 0.000000 0.000000 0.000000 0.061492 0.000000 0.000000
# 5 0.000000 0.000000 0.000000 0.000000 0.080782 0.000000
# 6 0.000000 0.000000 0.000000 0.000000 0.000000 0.036302
#
#
# Mechanical properties :
#
#
# Convention : Reuss Voigt Hill
#
# Bulk Modulus (GPa) = 20.79678 39.49569 30.14623
# Shear Modulus (GPa) = 17.98813 22.71572 20.35192
#
# Velocity S-wave (km/s) = 3.11124 3.49626 3.30935
# Velocity P-wave (km/s) = 4.90893 6.12796 5.55201
#
# Compressibility (1/GPa) = 0.04808437
#
# Stress axis : x y z
#
# Youngs Moduli (GPa) = 87.29321 32.91717 41.86648
#
# Poissons Ratio (x) = 0.21464 0.38310
# Poissons Ratio (y) = 0.56921 -0.28691
# Poissons Ratio (z) = 0.79877 -0.22558
#
# Static dielectric constant tensor:
#      x y z
#    x 1.694710 0.000000 0.000000 
#    y 0.000000 1.683760 0.000000 
#    z 0.000000 0.000000 1.629420 
# 
# From -- ./inp_files/22849.got.cif
#   From: 2010.05.17/outbox.cif.g08.bks.cpg/sg38_12_cif.got.tgz:22849.got - 2010.06.03 18:07:57.
