data_PCOD9357916
_publ_section_title
;
Structure prediction by ZEFSAII (Michael W. Deem and Ramdas Pophale) SiO2 
 PCOD9357916
Probable space group: A M M 2
;
_chemical_formula_sum "Si O2"
_cell_formula_units_Z 56
_cell_length_a 19.991979
_cell_length_b 8.787968
_cell_length_c 16.446298
_cell_angle_alpha 90.000000
_cell_angle_beta 90.000000
_cell_angle_gamma 90.000000
_cell_volume 2889.431539
_symmetry_space_group_name_H-M "A M M 2"
_symmetry_group_IT_number 38
_symmetry_cell_setting 'orthorhombic'
loop_
_space_group_symop_operation_xyz
x,y,z
-x,-y,z
-x,y,z
x,-y,z
x,1/2+y,1/2+z
-x,1/2-y,1/2+z
-x,1/2+y,1/2+z
x,1/2-y,1/2+z
loop_
_atom_site_type_symbol
_atom_site_label
_atom_site_fract_x
_atom_site_fract_y
_atom_site_fract_z
Si Si1 0.573987 0.183045 0.358180
Si Si2 0.292250 0.319758 0.103955
Si Si3 0.077751 0.683566 0.193520
Si Si4 0.426393 0.318234 0.538763
Si Si5 0.711347 0.180892 0.274356
Si Si6 0.155088 0.814168 0.530659
Si Si7 0.149606 0.318933 0.851259
O O1 0.500000 0.219245 0.323715
O O2 0.578419 0.258114 0.446610
O O3 0.638363 0.227984 0.306159
O O4 0.577496 0.000000 0.368060
O O5 0.299108 0.500000 0.095839
O O6 0.363285 0.244708 0.086498
O O7 0.270852 0.274317 0.194400
O O8 0.232324 0.268852 0.044919
O O9 0.081776 0.500000 0.194450
O O10 0.113381 0.735558 0.109755
O O11 0.112796 0.744088 0.274982
O O12 0.000000 0.727850 0.192737
O O13 0.500000 0.270738 0.570403
O O14 0.424064 0.500000 0.539316
O O15 0.770566 0.202619 0.338992
O O16 0.709025 0.000000 0.255080
O O17 0.130616 0.763806 0.441710
O O18 0.153654 0.000000 0.529907
O O19 0.136903 0.500000 0.847198
#
# Coordination Sequence:
#
# PCOD9357916 Si02
#       7
#     8   8   8   8   8   8   8
#     4   9  18  34  55  77 105 144 189 236 286 342
#     4  11  21  35  57  81 110 147 193 241 286 345
#     4  10  21  39  61  86 119 153 188 234 286 341
#     4  10  21  36  53  76 109 146 187 238 293 346
#     4  10  20  34  53  81 116 149 188 238 290 338
#     4   9  19  37  60  86 115 152 193 232 282 342
#     4  10  20  36  60  86 115 152 195 238 280 339
#
# _framework density 19.380976
#
# number of rings (size 3 to 8) (size 9 to 14) (size 15 to 20)
#    0.000    2.143    1.429    1.714    0.000    5.143 
#    0.000    6.429    0.000    0.000    0.000    0.000 
#    0.000    0.000    0.000    0.000    0.000    0.000 
#
# Total GULP energy -156231.199127 kJ/mol
# GULP energy per Si atom -5579.685683 kJ/mol
# Density = 1.933686 g / cm^3
# Si number density = 19.380976 Si / 1000 Ang^3
#
#
#
# Elastic Constant Matrix: (Units=GPa)
#
#
# Indices 1 2 3 4 5 6 
#
# 1 113.0313 24.7873 57.5675 0.0000 0.0000 0.0000
# 2 24.7873 7.7532 18.6426 0.0000 0.0000 0.0000
# 3 57.5675 18.6426 124.4424 0.0000 0.0000 0.0000
# 4 0.0000 0.0000 0.0000 22.7065 0.0000 0.0000
# 5 0.0000 0.0000 0.0000 0.0000 19.1700 0.0000
# 6 0.0000 0.0000 0.0000 0.0000 0.0000 20.5290
#
#
#
# Elastic Compliance Matrix: (Units=1/GPa)
#
#
# Indices 1 2 3 4 5 6 
#
# 1 0.029645 -0.096596 0.000757 0.000000 0.000000 0.000000
# 2 -0.096596 0.516357 -0.032669 0.000000 0.000000 0.000000
# 3 0.000757 -0.032669 0.012580 0.000000 0.000000 0.000000
# 4 0.000000 0.000000 0.000000 0.044040 0.000000 0.000000
# 5 0.000000 0.000000 0.000000 0.000000 0.052165 0.000000
# 6 0.000000 0.000000 0.000000 0.000000 0.000000 0.048712
#
#
# Mechanical properties :
#
#
# Convention : Reuss Voigt Hill
#
# Bulk Modulus (GPa) = 3.31604 49.69131 26.50367
# Shear Modulus (GPa) = 4.71238 22.09640 13.40439
#
# Velocity S-wave (km/s) = 1.56100 3.38021 2.63273
# Velocity P-wave (km/s) = 2.22793 6.39760 4.79025
#
# Compressibility (1/GPa) = 0.30156475
#
# Stress axis : x y z
#
# Youngs Moduli (GPa) = 33.73292 1.93665 79.49361
#
# Poissons Ratio (x) = 0.18707 -0.06020
# Poissons Ratio (y) = 3.25848 2.59698
# Poissons Ratio (z) = -0.02555 0.06327
#
# Static dielectric constant tensor:
#      x y z
#    x 1.691480 0.000000 0.000000 
#    y 0.000000 1.655410 0.000000 
#    z 0.000000 0.000000 1.674870 
# 
# From -- ./inp_files/15438.got.cif
#   From: 2010.05.17/outbox.cif.g08.bks.cpg/sg38_8_cif.got.tgz:15438.got - 2010.06.03 18:07:57.
