data_PCOD9357541
_publ_section_title
;
Structure prediction by ZEFSAII (Michael W. Deem and Ramdas Pophale) SiO2 
 PCOD9357541
Probable space group: A M M 2
;
_chemical_formula_sum "Si O2"
_cell_formula_units_Z 64
_cell_length_a 17.962621
_cell_length_b 9.680483
_cell_length_c 22.498309
_cell_angle_alpha 90.000000
_cell_angle_beta 90.000000
_cell_angle_gamma 90.000000
_cell_volume 3912.160020
_symmetry_space_group_name_H-M "A M M 2"
_symmetry_group_IT_number 38
_symmetry_cell_setting 'orthorhombic'
loop_
_space_group_symop_operation_xyz
x,y,z
-x,-y,z
-x,y,z
x,-y,z
x,1/2+y,1/2+z
-x,1/2-y,1/2+z
-x,1/2+y,1/2+z
x,1/2-y,1/2+z
loop_
_atom_site_type_symbol
_atom_site_label
_atom_site_fract_x
_atom_site_fract_y
_atom_site_fract_z
Si Si1 0.418014 0.664328 0.234560
Si Si2 0.676069 0.263773 0.626185
Si Si3 0.798237 0.155683 0.219338
Si Si4 0.588200 0.842763 0.009779
Si Si5 0.914143 0.664864 0.619671
Si Si6 0.701867 0.335286 0.935678
Si Si7 0.195714 0.346322 0.047521
Si Si8 0.719439 0.332757 0.315658
O O1 0.500000 0.726361 0.240950
O O2 0.423547 0.500000 0.239023
O O3 0.382811 0.696425 0.170632
O O4 0.359888 0.704824 0.285303
O O5 0.731448 0.345911 0.670279
O O6 0.630433 0.336346 0.573410
O O7 0.733739 0.163604 0.592382
O O8 0.871855 0.192216 0.181918
O O9 0.778224 0.267608 0.269147
O O10 0.804616 0.000000 0.243960
O O11 0.500000 0.814390 0.016284
O O12 0.596407 0.000000 0.986493
O O13 0.629675 0.734360 0.966933
O O14 0.910893 0.500000 0.610921
O O15 0.865448 0.738958 0.569385
O O16 0.000000 0.708155 0.620149
O O17 0.691455 0.500000 0.924918
O O18 0.721718 0.247564 0.877559
O O19 0.768621 0.319839 0.983375
O O20 0.164363 0.500000 0.049831
O O21 0.725776 0.500000 0.320535
#
# Coordination Sequence:
#
# PCOD9357541 Si02
#       8
#     8   8   8   8   8   8   8   8
#     4   9  17  28  43  65  93 124 157 198 248 293
#     4   9  16  28  47  69  95 126 162 199 241 291
#     4   9  17  30  50  73  99 129 160 194 232 280
#     4  10  20  32  47  69  97 128 163 205 252 298
#     4   9  18  32  52  80 110 135 156 183 228 286
#     4  10  21  36  52  69  92 125 168 211 248 289
#     4   9  18  31  49  74  99 125 161 202 241 285
#     4  10  20  33  50  70  93 124 165 208 246 286
#
# _framework density 16.359248999999998
#
# number of rings (size 3 to 8) (size 9 to 14) (size 15 to 20)
#    0.000    2.625    0.000    1.875    0.000    8.000 
#    0.000    1.250    0.000    7.875    0.000    1.750 
#    0.000    0.000    0.000    0.000    0.000    0.000 
#
# Total GULP energy -178160.836325 kJ/mol
# GULP energy per Si atom -5567.526135 kJ/mol
# Density = 1.632201 g / cm^3
# Si number density = 16.359249 Si / 1000 Ang^3
#
#
#
# Elastic Constant Matrix: (Units=GPa)
#
#
# Indices 1 2 3 4 5 6 
#
# 1 101.5728 48.0850 35.5145 0.0000 0.0000 0.0000
# 2 48.0850 80.2914 62.5158 0.0000 0.0000 0.0000
# 3 35.5145 62.5158 99.5487 0.0000 0.0000 0.0000
# 4 0.0000 0.0000 0.0000 22.3225 0.0000 0.0000
# 5 0.0000 0.0000 0.0000 0.0000 -5.1682 0.0000
# 6 0.0000 0.0000 0.0000 0.0000 0.0000 19.8873
#
#
#
# Elastic Compliance Matrix: (Units=1/GPa)
#
#
# Indices 1 2 3 4 5 6 
#
# 1 0.013755 -0.008643 0.000520 0.000000 0.000000 0.000000
# 2 -0.008643 0.029802 -0.015632 0.000000 0.000000 0.000000
# 3 0.000520 -0.015632 0.019676 0.000000 0.000000 0.000000
# 4 0.000000 0.000000 0.000000 0.044798 0.000000 0.000000
# 5 0.000000 0.000000 0.000000 0.000000 -0.193491 0.000000
# 6 0.000000 0.000000 0.000000 0.000000 0.000000 0.050283
#
#
# Mechanical properties :
#
#
# Convention : Reuss Voigt Hill
#
# Bulk Modulus (GPa) = 63.59486 63.73817 63.66652
# Shear Modulus (GPa) = 284.52351 16.42816 150.47584
#
# Velocity S-wave (km/s) = 13.20226 3.17237 9.60114
# Velocity P-wave (km/s) = 16.47294 7.24325 12.72444
#
# Compressibility (1/GPa) = 0.01572454
#
# Stress axis : x y z
#
# Youngs Moduli (GPa) = 72.70272 33.55499 50.82218
#
# Poissons Ratio (x) = 0.29000 -0.02645
# Poissons Ratio (y) = 0.62834 0.79445
# Poissons Ratio (z) = -0.03784 0.52453
#
# Static dielectric constant tensor:
#      x y z
#    x 1.553610 0.000000 0.000000 
#    y 0.000000 1.560460 0.000000 
#    z 0.000000 0.000000 1.543210 
# 
# From -- ./inp_files/21335.got.cif
#   From: 2010.05.17/outbox.cif.g08.bks.cpg/sg38_11_cif.got.tgz:21335.got - 2010.06.03 18:07:57.
