data_PCOD9357400
_publ_section_title
;
Structure prediction by ZEFSAII (Michael W. Deem and Ramdas Pophale) SiO2 
 PCOD9357400
Probable space group: A M M 2
;
_chemical_formula_sum "Si O2"
_cell_formula_units_Z 32
_cell_length_a 7.819464
_cell_length_b 9.141847
_cell_length_c 24.119045
_cell_angle_alpha 90.000000
_cell_angle_beta 90.000000
_cell_angle_gamma 90.000000
_cell_volume 1724.134098
_symmetry_space_group_name_H-M "A M M 2"
_symmetry_group_IT_number 38
_symmetry_cell_setting 'orthorhombic'
loop_
_space_group_symop_operation_xyz
x,y,z
-x,-y,z
-x,y,z
x,-y,z
x,1/2+y,1/2+z
-x,1/2-y,1/2+z
-x,1/2+y,1/2+z
x,1/2-y,1/2+z
loop_
_atom_site_type_symbol
_atom_site_label
_atom_site_fract_x
_atom_site_fract_y
_atom_site_fract_z
Si Si1 0.695155 0.326215 0.235140
Si Si2 0.205891 0.671094 0.846747
Si Si3 0.000000 0.673703 0.538123
Si Si4 0.695529 0.824576 0.472354
Si Si5 0.000000 0.826045 0.169451
O O1 0.500000 0.296948 0.217520
O O2 0.724827 0.500000 0.233202
O O3 0.719950 0.268345 0.297693
O O4 0.833655 0.244390 0.197690
O O5 0.249417 0.500000 0.836943
O O6 0.272494 0.711562 0.907659
O O7 0.000000 0.683289 0.846556
O O8 0.166252 0.743908 0.509704
O O9 0.000000 0.500000 0.529051
O O10 0.000000 0.701217 0.603830
O O11 0.500000 0.789731 0.487216
O O12 0.719965 0.000000 0.477306
O O13 0.000000 0.000000 0.179658
#
# Coordination Sequence:
#
# PCOD9357400 Si02
#       5
#     8   8   4   8   4
#     4  11  24  40  61  91 123 155 193 243 301 353
#     4  10  19  35  62  92 122 158 196 236 288 351
#     4  11  25  42  61  86 119 156 198 249 300 349
#     4  10  21  39  64  91 120 157 199 241 289 349
#     4  11  25  44  63  84 113 158 206 247 294 349
#
# _framework density 18.560041999999999
#
# number of rings (size 3 to 8) (size 9 to 14) (size 15 to 20)
#    0.000    1.500    2.500    2.250    0.000    7.500 
#    0.000    5.000    0.000    0.000    0.000    0.000 
#    0.000    0.000    0.000    0.000    0.000    0.000 
#
# Total GULP energy -89452.088345 kJ/mol
# GULP energy per Si atom -5590.755522 kJ/mol
# Density = 1.851780 g / cm^3
# Si number density = 18.560042 Si / 1000 Ang^3
#
#
#
# Elastic Constant Matrix: (Units=GPa)
#
#
# Indices 1 2 3 4 5 6 
#
# 1 169.2787 95.4994 103.3197 0.0000 0.0000 0.0000
# 2 95.4994 89.1977 90.9948 0.0000 0.0000 0.0000
# 3 103.3197 90.9948 130.9721 0.0000 0.0000 0.0000
# 4 0.0000 0.0000 0.0000 33.7155 0.0000 0.0000
# 5 0.0000 0.0000 0.0000 0.0000 -9.3453 0.0000
# 6 0.0000 0.0000 0.0000 0.0000 0.0000 -8.0199
#
#
#
# Elastic Compliance Matrix: (Units=1/GPa)
#
#
# Indices 1 2 3 4 5 6 
#
# 1 0.015124 -0.013807 -0.002338 0.000000 0.000000 0.000000
# 2 -0.013807 0.051100 -0.024610 0.000000 0.000000 0.000000
# 3 -0.002338 -0.024610 0.026578 0.000000 0.000000 0.000000
# 4 0.000000 0.000000 0.000000 0.029660 0.000000 0.000000
# 5 0.000000 0.000000 0.000000 0.000000 -0.107006 0.000000
# 6 0.000000 0.000000 0.000000 0.000000 0.000000 -0.124690
#
#
# Mechanical properties :
#
#
# Convention : Reuss Voigt Hill
#
# Bulk Modulus (GPa) = 88.56874 107.67513 98.12193
# Shear Modulus (GPa) = -208.68133 9.91237 -99.38448
#
# Velocity S-wave (km/s) = -10.61508 2.31350 -7.32556
# Velocity P-wave (km/s) = 10.12009 8.07941 4.30925
#
# Compressibility (1/GPa) = 0.01129067
#
# Stress axis : x y z
#
# Youngs Moduli (GPa) = 66.12098 19.56952 37.62547
#
# Poissons Ratio (x) = 0.27020 0.08796
# Poissons Ratio (y) = 0.91295 0.92597
# Poissons Ratio (z) = 0.15458 0.48161
#
# Static dielectric constant tensor:
#      x y z
#    x 1.633720 0.000000 0.000000 
#    y 0.000000 1.617970 0.000000 
#    z 0.000000 0.000000 1.609860 
# 
# From -- ./inp_files/21621.got.cif
#   From: 2010.05.17/outbox.cif.g08.bks.cpg/sg38_11_cif.got.tgz:21621.got - 2010.06.03 18:07:57.
