data_PCOD9357096
_publ_section_title
;
Structure prediction by ZEFSAII (Michael W. Deem and Ramdas Pophale) SiO2 
 PCOD9357096
Probable space group: A M M 2
;
_chemical_formula_sum "Si O2"
_cell_formula_units_Z 64
_cell_length_a 7.912753
_cell_length_b 25.766555
_cell_length_c 15.537769
_cell_angle_alpha 90.000000
_cell_angle_beta 90.000000
_cell_angle_gamma 90.000000
_cell_volume 3167.908483
_symmetry_space_group_name_H-M "A M M 2"
_symmetry_group_IT_number 38
_symmetry_cell_setting 'orthorhombic'
loop_
_space_group_symop_operation_xyz
x,y,z
-x,-y,z
-x,y,z
x,-y,z
x,1/2+y,1/2+z
-x,1/2-y,1/2+z
-x,1/2+y,1/2+z
x,1/2-y,1/2+z
loop_
_atom_site_type_symbol
_atom_site_label
_atom_site_fract_x
_atom_site_fract_y
_atom_site_fract_z
Si Si1 0.796442 0.108197 0.362830
Si Si2 0.801126 0.232373 0.125891
Si Si3 0.204535 0.058102 0.539063
Si Si4 0.301914 0.867033 0.028307
Si Si5 0.700637 0.336023 0.349842
Si Si6 0.298842 0.845345 0.655704
Si Si7 0.795623 0.778250 0.325796
Si Si8 0.704226 0.559339 0.679580
O O1 0.735942 0.074866 0.443764
O O2 0.736915 0.167882 0.366751
O O3 0.750684 0.084059 0.271100
O O4 0.000000 0.109605 0.367049
O O5 0.711581 0.191263 0.065124
O O6 0.771553 0.293356 0.110723
O O7 0.746849 0.221956 0.224747
O O8 0.000000 0.221826 0.119425
O O9 0.258105 0.102594 0.604910
O O10 0.000000 0.057356 0.537811
O O11 0.263396 0.000000 0.560401
O O12 0.500000 0.880092 0.020322
O O13 0.229923 0.905509 0.100689
O O14 0.227766 0.866553 0.932002
O O15 0.500000 0.346034 0.346630
O O16 0.769172 0.347293 0.254143
O O17 0.727080 0.274691 0.365034
O O18 0.500000 0.838454 0.659951
O O19 0.000000 0.775979 0.329757
O O20 0.500000 0.559103 0.675388
O O21 0.763791 0.500000 0.674395
#
# Coordination Sequence:
#
# PCOD9357096 Si02
#       8
#     8   8   8   8   8   8   8   8
#     4  10  20  36  56  81 111 145 183 223 272 329
#     4  10  19  33  54  81 111 143 179 220 271 328
#     4  10  22  39  58  81 110 146 187 231 279 328
#     4  10  20  35  54  80 113 146 183 226 273 324
#     4   9  20  36  54  78 111 146 181 223 274 326
#     4  10  21  38  58  81 109 143 186 232 278 324
#     4   9  18  32  51  79 111 142 178 216 264 323
#     4  10  21  36  55  80 112 149 186 226 273 324
#
# _framework density 20.202601999999999
#
# number of rings (size 3 to 8) (size 9 to 14) (size 15 to 20)
#    0.000    2.250    1.250    1.125    1.750    3.500 
#    0.000    0.625    0.000    2.250    0.000    0.000 
#    0.000    0.000    0.000    0.000    0.000    0.000 
#
# Total GULP energy -178639.010748 kJ/mol
# GULP energy per Si atom -5582.469086 kJ/mol
# Density = 2.015662 g / cm^3
# Si number density = 20.202602 Si / 1000 Ang^3
#
#
#
# Elastic Constant Matrix: (Units=GPa)
#
#
# Indices 1 2 3 4 5 6 
#
# 1 16.7097 -4.7127 -1.7365 0.0000 0.0000 0.0000
# 2 -4.7127 121.3882 60.6474 0.0000 0.0000 0.0000
# 3 -1.7365 60.6474 100.5066 0.0000 0.0000 0.0000
# 4 0.0000 0.0000 0.0000 29.0157 0.0000 0.0000
# 5 0.0000 0.0000 0.0000 0.0000 7.2483 0.0000
# 6 0.0000 0.0000 0.0000 0.0000 0.0000 86.3230
#
#
#
# Elastic Compliance Matrix: (Units=1/GPa)
#
#
# Indices 1 2 3 4 5 6 
#
# 1 0.060528 0.002616 -0.000533 0.000000 0.000000 0.000000
# 2 0.002616 0.011907 -0.007139 0.000000 0.000000 0.000000
# 3 -0.000533 -0.007139 0.014248 0.000000 0.000000 0.000000
# 4 0.000000 0.000000 0.000000 0.034464 0.000000 0.000000
# 5 0.000000 0.000000 0.000000 0.000000 0.137964 0.000000
# 6 0.000000 0.000000 0.000000 0.000000 0.000000 0.011584
#
#
# Mechanical properties :
#
#
# Convention : Reuss Voigt Hill
#
# Bulk Modulus (GPa) = 13.05981 38.55566 25.80773
# Shear Modulus (GPa) = 16.32220 36.81114 26.56667
#
# Velocity S-wave (km/s) = 2.84549 4.27324 3.63024
# Velocity P-wave (km/s) = 4.15622 6.59343 5.51124
#
# Compressibility (1/GPa) = 0.07657079
#
# Stress axis : x y z
#
# Youngs Moduli (GPa) = 16.52126 83.98726 70.18304
#
# Poissons Ratio (x) = -0.21972 0.03739
# Poissons Ratio (y) = -0.04322 0.50107
# Poissons Ratio (z) = 0.00880 0.59962
#
# Static dielectric constant tensor:
#      x y z
#    x 1.726190 0.000000 0.000000 
#    y 0.000000 1.698210 0.000000 
#    z 0.000000 0.000000 1.738940 
# 
# From -- ./inp_files/12722.got.cif
#   From: 2010.05.17/outbox.cif.g08.bks.cpg/sg38_7_cif.got.tgz:12722.got - 2010.06.03 18:07:57.
