data_PCOD9357564
_publ_section_title
;
Structure prediction by ZEFSAII (Michael W. Deem and Ramdas Pophale) SiO2 
 PCOD9357564
Probable space group: A M M 2
;
_chemical_formula_sum "Si O2"
_cell_formula_units_Z 64
_cell_length_a 19.242147
_cell_length_b 25.009150
_cell_length_c 7.547568
_cell_angle_alpha 90.000000
_cell_angle_beta 90.000000
_cell_angle_gamma 90.000000
_cell_volume 3632.114191
_symmetry_space_group_name_H-M "A M M 2"
_symmetry_group_IT_number 38
_symmetry_cell_setting 'orthorhombic'
loop_
_space_group_symop_operation_xyz
x,y,z
-x,-y,z
-x,y,z
x,-y,z
x,1/2+y,1/2+z
-x,1/2-y,1/2+z
-x,1/2+y,1/2+z
x,1/2-y,1/2+z
loop_
_atom_site_type_symbol
_atom_site_label
_atom_site_fract_x
_atom_site_fract_y
_atom_site_fract_z
Si Si1 0.921901 0.232254 0.813750
Si Si2 0.581215 0.360744 0.855170
Si Si3 0.780189 0.121907 0.069177
Si Si4 0.077654 0.659767 0.667719
Si Si5 0.644849 0.938508 0.066943
Si Si6 0.582496 0.438713 0.183321
Si Si7 0.222692 0.188349 0.725665
Si Si8 0.286019 0.202600 0.348263
O O1 0.912871 0.296513 0.823546
O O2 0.855956 0.209728 0.710089
O O3 0.000000 0.223588 0.740190
O O4 0.919683 0.199778 0.997596
O O5 0.500000 0.347475 0.852237
O O6 0.601647 0.398737 0.690964
O O7 0.632376 0.310272 0.850051
O O8 0.596723 0.396162 0.030013
O O9 0.859324 0.118996 0.138916
O O10 0.726463 0.073799 0.094298
O O11 0.748026 0.170086 0.186341
O O12 0.778810 0.139503 0.863400
O O13 0.000000 0.636686 0.678430
O O14 0.628194 0.000000 0.107468
O O15 0.624407 0.928446 0.862898
O O16 0.500000 0.436054 0.223615
O O17 0.597063 0.500000 0.124521
O O18 0.254441 0.180898 0.532270
O O19 0.266130 0.236006 0.819713
#
# Coordination Sequence:
#
# PCOD9357564 Si02
#       8
#     8   8   8   8   8   8   8   8
#     4   9  16  25  41  66  93 124 158 197 237 274
#     4  10  21  35  50  73  99 124 158 200 242 292
#     4  10  20  32  48  71  98 128 162 200 240 290
#     4   9  16  26  41  64  95 127 158 195 237 278
#     4  10  20  34  54  76  96 121 158 204 250 294
#     4   9  17  31  52  75  96 118 146 190 251 300
#     4  11  18  32  49  68 100 135 164 196 234 283
#     4  11  20  31  50  68  93 134 168 190 236 286
#
# _framework density 17.620591999999998
#
# number of rings (size 3 to 8) (size 9 to 14) (size 15 to 20)
#    0.000    2.125    2.500    2.250    0.000    1.250 
#    0.000    0.625    0.000    0.375    0.000    0.000 
#    0.000    0.000    0.000    7.750    0.000    0.000 
#
# Total GULP energy -178369.507356 kJ/mol
# GULP energy per Si atom -5574.047105 kJ/mol
# Density = 1.758049 g / cm^3
# Si number density = 17.620592 Si / 1000 Ang^3
#
#
#
# Elastic Constant Matrix: (Units=GPa)
#
#
# Indices 1 2 3 4 5 6 
#
# 1 109.8825 16.4074 21.3765 0.0000 0.0000 0.0000
# 2 16.4074 15.1703 1.9644 0.0000 0.0000 0.0000
# 3 21.3765 1.9644 59.7916 0.0000 0.0000 0.0000
# 4 0.0000 0.0000 0.0000 11.3422 0.0000 0.0000
# 5 0.0000 0.0000 0.0000 0.0000 23.4249 0.0000
# 6 0.0000 0.0000 0.0000 0.0000 0.0000 8.9580
#
#
#
# Elastic Compliance Matrix: (Units=1/GPa)
#
#
# Indices 1 2 3 4 5 6 
#
# 1 0.011640 -0.012102 -0.003764 0.000000 0.000000 0.000000
# 2 -0.012102 0.078781 0.001738 0.000000 0.000000 0.000000
# 3 -0.003764 0.001738 0.018013 0.000000 0.000000 0.000000
# 4 0.000000 0.000000 0.000000 0.088167 0.000000 0.000000
# 5 0.000000 0.000000 0.000000 0.000000 0.042690 0.000000
# 6 0.000000 0.000000 0.000000 0.000000 0.000000 0.111633
#
#
# Mechanical properties :
#
#
# Convention : Reuss Voigt Hill
#
# Bulk Modulus (GPa) = 12.47192 29.37123 20.92158
# Shear Modulus (GPa) = 12.31817 18.41808 15.36813
#
# Velocity S-wave (km/s) = 2.64688 3.23655 2.95645
# Velocity P-wave (km/s) = 4.05397 5.53822 4.85317
#
# Compressibility (1/GPa) = 0.08018010
#
# Stress axis : x y z
#
# Youngs Moduli (GPa) = 85.91189 12.69335 55.51457
#
# Poissons Ratio (x) = 0.15361 0.20895
# Poissons Ratio (y) = 1.03967 -0.09650
# Poissons Ratio (z) = 0.32336 -0.02206
#
# Static dielectric constant tensor:
#      x y z
#    x 1.630770 0.000000 0.000000 
#    y 0.000000 1.575910 0.000000 
#    z 0.000000 0.000000 1.639060 
# 
# From -- ./inp_files/6573.got.cif
#   From: 2010.05.17/outbox.cif.g08.bks.cpg/sg38_4_cif.got.tgz:6573.got - 2010.06.03 18:07:57.
