data_PCOD9357631
_publ_section_title
;
Structure prediction by ZEFSAII (Michael W. Deem and Ramdas Pophale) SiO2 
 PCOD9357631
Probable space group: A M M 2
;
_chemical_formula_sum "Si O2"
_cell_formula_units_Z 34
_cell_length_a 8.138248
_cell_length_b 7.499706
_cell_length_c 27.642363
_cell_angle_alpha 90.000000
_cell_angle_beta 90.000000
_cell_angle_gamma 90.000000
_cell_volume 1687.136902
_symmetry_space_group_name_H-M "A M M 2"
_symmetry_group_IT_number 38
_symmetry_cell_setting 'orthorhombic'
loop_
_space_group_symop_operation_xyz
x,y,z
-x,-y,z
-x,y,z
x,-y,z
x,1/2+y,1/2+z
-x,1/2-y,1/2+z
-x,1/2+y,1/2+z
x,1/2-y,1/2+z
loop_
_atom_site_type_symbol
_atom_site_label
_atom_site_fract_x
_atom_site_fract_y
_atom_site_fract_z
Si Si1 0.697440 0.000000 0.908931
Si Si2 0.000000 0.500000 0.335447
Si Si3 0.676587 0.209418 0.194603
Si Si4 0.184714 0.215160 0.593178
Si Si5 0.303435 0.203948 0.488694
Si Si6 0.000000 0.217898 0.251789
O O1 0.729833 0.829501 0.943365
O O2 0.500000 0.000000 0.895894
O O3 0.832280 0.000000 0.866868
O O4 0.000000 0.675765 0.301771
O O5 0.500000 0.288009 0.208639
O O6 0.701118 0.227672 0.137086
O O7 0.838087 0.275991 0.221870
O O8 0.671551 0.000000 0.205648
O O9 0.231600 0.273754 0.539321
O O10 0.000000 0.274243 0.604699
O O11 0.189390 0.000000 0.592034
O O12 0.500000 0.200409 0.495056
O O13 0.246328 0.000000 0.480999
O O14 0.000000 0.000000 0.256748
#
# Coordination Sequence:
#
# PCOD9357631 Si02
#       6
#     4   2   8   8   8   4
#     4  10  24  44  64  94 124 154 208 262 305 366
#     4  12  28  44  70  94 114 154 216 260 326 372
#     4  10  21  37  59  87 121 164 204 241 301 365
#     4  10  20  32  53  88 127 164 202 240 291 359
#     4   9  19  37  59  86 126 167 200 242 298 361
#     4  10  24  46  63  87 123 153 198 268 310 361
#
# _framework density 20.152483
#
# number of rings (size 3 to 8) (size 9 to 14) (size 15 to 20)
#    0.000    2.118    1.176    0.706    4.941    3.294 
#    0.000    0.000    0.000    0.000    0.000    0.000 
#    0.000    0.000    0.000    0.000    0.000    0.000 
#
# Total GULP energy -94890.556297 kJ/mol
# GULP energy per Si atom -5581.797429 kJ/mol
# Density = 2.010662 g / cm^3
# Si number density = 20.152483 Si / 1000 Ang^3
#
#
#
# Elastic Constant Matrix: (Units=GPa)
#
#
# Indices 1 2 3 4 5 6 
#
# 1 152.9684 32.7681 83.4343 0.0000 0.0000 0.0000
# 2 32.7681 75.6682 29.1591 0.0000 0.0000 0.0000
# 3 83.4343 29.1591 116.2077 0.0000 0.0000 0.0000
# 4 0.0000 0.0000 0.0000 33.3745 0.0000 0.0000
# 5 0.0000 0.0000 0.0000 0.0000 -29.8054 0.0000
# 6 0.0000 0.0000 0.0000 0.0000 0.0000 -16.3107
#
#
#
# Elastic Compliance Matrix: (Units=1/GPa)
#
#
# Indices 1 2 3 4 5 6 
#
# 1 0.010987 -0.001902 -0.007411 0.000000 0.000000 0.000000
# 2 -0.001902 0.014960 -0.002388 0.000000 0.000000 0.000000
# 3 -0.007411 -0.002388 0.014526 0.000000 0.000000 0.000000
# 4 0.000000 0.000000 0.000000 0.029963 0.000000 0.000000
# 5 0.000000 0.000000 0.000000 0.000000 -0.033551 0.000000
# 6 0.000000 0.000000 0.000000 0.000000 0.000000 -0.061310
#
#
# Mechanical properties :
#
#
# Convention : Reuss Voigt Hill
#
# Bulk Modulus (GPa) = 58.58374 70.61859 64.60117
# Shear Modulus (GPa) = 1071.37585 10.75056 541.06320
#
# Velocity S-wave (km/s) = 23.08222 2.31218 16.40328
# Velocity P-wave (km/s) = 27.19409 6.49973 19.77075
#
# Compressibility (1/GPa) = 0.01706958
#
# Stress axis : x y z
#
# Youngs Moduli (GPa) = 91.01620 66.84713 68.84414
#
# Poissons Ratio (x) = 0.12714 0.51022
# Poissons Ratio (y) = 0.17311 0.16441
# Poissons Ratio (z) = 0.67454 0.15964
#
# Static dielectric constant tensor:
#      x y z
#    x 1.747630 0.000000 0.000000 
#    y 0.000000 1.735100 0.000000 
#    z 0.000000 0.000000 1.664170 
# 
# From -- ./inp_files/19274.got.cif
#   From: 2010.05.17/outbox.cif.g08.bks.cpg/sg38_10_cif.got.tgz:19274.got - 2010.06.03 18:07:57.
