data_PCOD9357031
_publ_section_title
;
Structure prediction by ZEFSAII (Michael W. Deem and Ramdas Pophale) SiO2 
 PCOD9357031
Probable space group: A M M 2
;
_chemical_formula_sum "Si O2"
_cell_formula_units_Z 64
_cell_length_a 8.518469
_cell_length_b 28.232551
_cell_length_c 15.104738
_cell_angle_alpha 90.000000
_cell_angle_beta 90.000000
_cell_angle_gamma 90.000000
_cell_volume 3632.660948
_symmetry_space_group_name_H-M "A M M 2"
_symmetry_group_IT_number 38
_symmetry_cell_setting 'orthorhombic'
loop_
_space_group_symop_operation_xyz
x,y,z
-x,-y,z
-x,y,z
x,-y,z
x,1/2+y,1/2+z
-x,1/2-y,1/2+z
-x,1/2+y,1/2+z
x,1/2-y,1/2+z
loop_
_atom_site_type_symbol
_atom_site_label
_atom_site_fract_x
_atom_site_fract_y
_atom_site_fract_z
Si Si1 0.190425 0.218588 0.122260
Si Si2 0.311327 0.555630 0.629030
Si Si3 0.187665 0.718428 0.420494
Si Si4 0.187387 0.636185 0.753571
Si Si5 0.685426 0.176158 0.426625
Si Si6 0.691334 0.945765 0.928000
Si Si7 0.187767 0.327149 0.118986
Si Si8 0.312792 0.636491 0.297092
O O1 0.245144 0.180573 0.193526
O O2 0.239451 0.272733 0.139520
O O3 0.000000 0.218097 0.124151
O O4 0.236422 0.206198 0.021520
O O5 0.500000 0.561672 0.634093
O O6 0.277834 0.500000 0.642656
O O7 0.231144 0.589268 0.699908
O O8 0.260918 0.567648 0.528175
O O9 0.232161 0.773256 0.407228
O O10 0.267523 0.683494 0.351636
O O11 0.000000 0.713716 0.412687
O O12 0.264772 0.640621 0.849347
O O13 0.000000 0.639812 0.763047
O O14 0.500000 0.183324 0.426824
O O15 0.740718 0.160371 0.523900
O O16 0.500000 0.945593 0.928139
O O17 0.744269 0.908115 0.855337
O O18 0.740549 0.000000 0.910895
O O19 0.239766 0.359509 0.200031
O O20 0.000000 0.326833 0.111156
O O21 0.500000 0.633587 0.289074
#
# Coordination Sequence:
#
# PCOD9357031 Si02
#       8
#     8   8   8   8   8   8   8   8
#     4   8  17  31  48  70  98 134 170 202 241 299
#     4   9  18  34  54  76 104 137 171 208 252 301
#     4  10  19  33  50  72 106 143 174 206 253 306
#     4  11  20  32  52  77 104 135 171 209 257 312
#     4  11  22  36  52  73 101 133 175 221 258 299
#     4   8  16  32  53  77 107 139 168 203 250 302
#     4  10  20  36  53  70 100 140 174 209 260 311
#     4  11  20  30  50  79 104 132 175 218 255 300
#
# _framework density 17.617939
#
# number of rings (size 3 to 8) (size 9 to 14) (size 15 to 20)
#    0.000    2.250    0.000    5.625    0.000    1.250 
#    0.000    6.875    0.000    3.750    0.000    1.750 
#    0.000    0.000    0.000    0.000    0.000    0.000 
#
# Total GULP energy -178644.930046 kJ/mol
# GULP energy per Si atom -5582.654064 kJ/mol
# Density = 1.757784 g / cm^3
# Si number density = 17.617939 Si / 1000 Ang^3
#
#
#
# Elastic Constant Matrix: (Units=GPa)
#
#
# Indices 1 2 3 4 5 6 
#
# 1 29.5399 5.5774 16.8858 0.0000 0.0000 0.0000
# 2 5.5774 48.9693 58.9824 0.0000 0.0000 0.0000
# 3 16.8858 58.9824 123.0973 0.0000 0.0000 0.0000
# 4 0.0000 0.0000 0.0000 28.7838 0.0000 0.0000
# 5 0.0000 0.0000 0.0000 0.0000 27.3852 0.0000
# 6 0.0000 0.0000 0.0000 0.0000 0.0000 17.9890
#
#
#
# Elastic Compliance Matrix: (Units=1/GPa)
#
#
# Indices 1 2 3 4 5 6 
#
# 1 0.037149 0.004509 -0.007256 0.000000 0.000000 0.000000
# 2 0.004509 0.048838 -0.024020 0.000000 0.000000 0.000000
# 3 -0.007256 -0.024020 0.020628 0.000000 0.000000 0.000000
# 4 0.000000 0.000000 0.000000 0.034742 0.000000 0.000000
# 5 0.000000 0.000000 0.000000 0.000000 0.036516 0.000000
# 6 0.000000 0.000000 0.000000 0.000000 0.000000 0.055590
#
#
# Mechanical properties :
#
#
# Convention : Reuss Voigt Hill
#
# Bulk Modulus (GPa) = 18.83885 40.49974 29.66930
# Shear Modulus (GPa) = 16.41007 22.84230 19.62618
#
# Velocity S-wave (km/s) = 3.05526 3.60465 3.34127
# Velocity P-wave (km/s) = 4.81273 6.35314 5.63581
#
# Compressibility (1/GPa) = 0.05308179
#
# Stress axis : x y z
#
# Youngs Moduli (GPa) = 26.91847 20.47571 48.47760
#
# Poissons Ratio (x) = -0.09233 0.35178
# Poissons Ratio (y) = -0.12138 1.16441
# Poissons Ratio (z) = 0.19533 0.49182
#
# Static dielectric constant tensor:
#      x y z
#    x 1.596000 0.000000 0.000000 
#    y 0.000000 1.589400 0.000000 
#    z 0.000000 0.000000 1.602640 
# 
# From -- ./inp_files/12837.got.cif
#   From: 2010.05.17/outbox.cif.g08.bks.cpg/sg38_7_cif.got.tgz:12837.got - 2010.06.03 18:07:57.
