data_PCOD9357240
_publ_section_title
;
Structure prediction by ZEFSAII (Michael W. Deem and Ramdas Pophale) SiO2 
 PCOD9357240
Probable space group: A M M 2
;
_chemical_formula_sum "Si O2"
_cell_formula_units_Z 64
_cell_length_a 21.627224
_cell_length_b 9.349760
_cell_length_c 16.537861
_cell_angle_alpha 90.000000
_cell_angle_beta 90.000000
_cell_angle_gamma 90.000000
_cell_volume 3344.110187
_symmetry_space_group_name_H-M "A M M 2"
_symmetry_group_IT_number 38
_symmetry_cell_setting 'orthorhombic'
loop_
_space_group_symop_operation_xyz
x,y,z
-x,-y,z
-x,y,z
x,-y,z
x,1/2+y,1/2+z
-x,1/2-y,1/2+z
-x,1/2+y,1/2+z
x,1/2-y,1/2+z
loop_
_atom_site_type_symbol
_atom_site_label
_atom_site_fract_x
_atom_site_fract_y
_atom_site_fract_z
Si Si1 0.110810 0.834821 0.965280
Si Si2 0.313058 0.161640 0.652903
Si Si3 0.928199 0.831394 0.626028
Si Si4 0.855080 0.826177 0.788983
Si Si5 0.353531 0.657948 0.426784
Si Si6 0.723088 0.668165 0.799161
Si Si7 0.430872 0.662216 0.035787
Si Si8 0.759555 0.345871 0.547562
O O1 0.106274 0.788770 0.871194
O O2 0.089709 0.000000 0.970392
O O3 0.082739 0.747452 0.040391
O O4 0.183942 0.831392 0.986452
O O5 0.313005 0.284538 0.718967
O O6 0.376245 0.167744 0.601893
O O7 0.252437 0.206037 0.600817
O O8 0.305898 0.000000 0.684346
O O9 0.887292 0.785124 0.703768
O O10 0.000000 0.813505 0.648495
O O11 0.916171 0.000000 0.613750
O O12 0.788657 0.750532 0.796270
O O13 0.848123 0.000000 0.790493
O O14 0.362858 0.500000 0.390646
O O15 0.320063 0.769256 0.368903
O O16 0.414105 0.724971 0.466598
O O17 0.303597 0.642715 0.498342
O O18 0.732573 0.500000 0.806664
O O19 0.500000 0.685512 0.068272
O O20 0.428319 0.500000 0.002675
O O21 0.769243 0.500000 0.591422
#
# Coordination Sequence:
#
# PCOD9357240 Si02
#       8
#     8   8   8   8   8   8   8   8
#     4  10  20  36  60  87 114 148 192 242 297 353
#     4  10  20  33  53  79 110 150 187 228 285 345
#     4  10  23  41  59  83 117 156 201 248 294 352
#     4  10  21  40  63  87 117 157 199 244 299 362
#     4  10  19  34  56  81 112 146 182 229 281 341
#     4  12  23  35  54  84 118 148 185 236 296 351
#     4   9  19  37  58  81 110 146 191 238 283 339
#     4   9  17  32  53  80 110 136 175 230 284 342
#
# _framework density 19.138124999999999
#
# number of rings (size 3 to 8) (size 9 to 14) (size 15 to 20)
#    0.000    2.000    1.250    2.625    0.000    5.500 
#    0.000    1.875    0.000    2.250    0.000    0.000 
#    0.000    0.000    0.000    0.000    0.000    0.000 
#
# Total GULP energy -178251.477884 kJ/mol
# GULP energy per Si atom -5570.358684 kJ/mol
# Density = 1.909457 g / cm^3
# Si number density = 19.138125 Si / 1000 Ang^3
#
#
#
# Elastic Constant Matrix: (Units=GPa)
#
#
# Indices 1 2 3 4 5 6 
#
# 1 48.7479 22.6127 26.1522 0.0000 0.0000 0.0000
# 2 22.6127 77.7223 41.4682 0.0000 0.0000 0.0000
# 3 26.1522 41.4682 81.1002 0.0000 0.0000 0.0000
# 4 0.0000 0.0000 0.0000 29.4364 0.0000 0.0000
# 5 0.0000 0.0000 0.0000 0.0000 17.7457 0.0000
# 6 0.0000 0.0000 0.0000 0.0000 0.0000 134.2570
#
#
#
# Elastic Compliance Matrix: (Units=1/GPa)
#
#
# Indices 1 2 3 4 5 6 
#
# 1 0.025771 -0.004213 -0.006156 0.000000 0.000000 0.000000
# 2 -0.004213 0.018382 -0.008040 0.000000 0.000000 0.000000
# 3 -0.006156 -0.008040 0.018427 0.000000 0.000000 0.000000
# 4 0.000000 0.000000 0.000000 0.033972 0.000000 0.000000
# 5 0.000000 0.000000 0.000000 0.000000 0.056352 0.000000
# 6 0.000000 0.000000 0.000000 0.000000 0.000000 0.007448
#
#
# Mechanical properties :
#
#
# Convention : Reuss Voigt Hill
#
# Bulk Modulus (GPa) = 38.81963 43.11516 40.96740
# Shear Modulus (GPa) = 24.30050 44.11030 34.20540
#
# Velocity S-wave (km/s) = 3.56721 4.80608 4.23222
# Velocity P-wave (km/s) = 6.10693 7.30584 6.73312
#
# Compressibility (1/GPa) = 0.02576016
#
# Stress axis : x y z
#
# Youngs Moduli (GPa) = 38.80391 54.40078 54.26900
#
# Poissons Ratio (x) = 0.22921 0.33407
# Poissons Ratio (y) = 0.16349 0.43635
# Poissons Ratio (z) = 0.23887 0.43741
#
# Static dielectric constant tensor:
#      x y z
#    x 1.660690 0.000000 0.000000 
#    y 0.000000 1.675130 0.000000 
#    z 0.000000 0.000000 1.772140 
# 
# From -- ./inp_files/18945.got.cif
#   From: 2010.05.17/outbox.cif.g08.bks.cpg/sg38_10_cif.got.tgz:18945.got - 2010.06.03 18:07:57.
