data_PCOD9357531
_publ_section_title
;
Structure prediction by ZEFSAII (Michael W. Deem and Ramdas Pophale) SiO2 
 PCOD9357531
Probable space group: A M M 2
;
_chemical_formula_sum "Si O2"
_cell_formula_units_Z 48
_cell_length_a 9.696583
_cell_length_b 7.340892
_cell_length_c 31.958466
_cell_angle_alpha 90.000000
_cell_angle_beta 90.000000
_cell_angle_gamma 90.000000
_cell_volume 2274.853739
_symmetry_space_group_name_H-M "A M M 2"
_symmetry_group_IT_number 38
_symmetry_cell_setting 'orthorhombic'
loop_
_space_group_symop_operation_xyz
x,y,z
-x,-y,z
-x,y,z
x,-y,z
x,1/2+y,1/2+z
-x,1/2-y,1/2+z
-x,1/2+y,1/2+z
x,1/2-y,1/2+z
loop_
_atom_site_type_symbol
_atom_site_label
_atom_site_fract_x
_atom_site_fract_y
_atom_site_fract_z
Si Si1 0.159097 0.221762 0.365100
Si Si2 0.659164 0.221719 0.287720
Si Si3 0.658876 0.777164 0.537322
Si Si4 0.840558 0.721689 0.958784
Si Si5 0.657612 0.280994 0.694103
Si Si6 0.844088 0.214683 0.614395
O O1 0.249496 0.285770 0.326299
O O2 0.201723 0.278498 0.411905
O O3 0.000000 0.273843 0.359530
O O4 0.163931 0.000000 0.364970
O O5 0.500000 0.272450 0.293744
O O6 0.699486 0.280210 0.240801
O O7 0.665139 0.000000 0.287830
O O8 0.500000 0.718717 0.538985
O O9 0.738204 0.720003 0.495271
O O10 0.747069 0.713815 0.577265
O O11 0.657174 0.000000 0.537620
O O12 0.841131 0.500000 0.959099
O O13 0.000000 0.776983 0.966145
O O14 0.500000 0.217875 0.685447
O O15 0.651818 0.500000 0.695275
O O16 0.764398 0.232594 0.658133
O O17 0.000000 0.289000 0.615315
O O18 0.856691 0.000000 0.606005
#
# Coordination Sequence:
#
# PCOD9357531 Si02
#       6
#     8   8   8   8   8   8
#     4   8  13  20  31  49  74 105 138 169 204 249
#     4   8  14  24  37  54  78 107 137 171 211 252
#     4   9  16  25  38  56  78 107 142 177 215 259
#     4   8  13  21  32  48  74 106 137 170 208 250
#     4   9  18  32  48  66  89 117 149 185 224 264
#     4  10  20  32  46  65  89 117 149 185 224 265
#
# _framework density 21.100258
#
# number of rings (size 3 to 8) (size 9 to 14) (size 15 to 20)
#    0.000    3.333    0.000    3.000    0.000    4.667 
#    0.000    5.000    0.000    0.000    0.000    0.000 
#    0.000    1.333    0.000    9.333    0.000   17.333 
#
# Total GULP energy -133925.281440 kJ/mol
# GULP energy per Si atom -5580.220060 kJ/mol
# Density = 2.105223 g / cm^3
# Si number density = 21.100258 Si / 1000 Ang^3
#
#
#
# Elastic Constant Matrix: (Units=GPa)
#
#
# Indices 1 2 3 4 5 6 
#
# 1 173.5605 6.0645 162.1557 0.0000 0.0000 0.0000
# 2 6.0645 78.9087 2.1425 0.0000 0.0000 0.0000
# 3 162.1557 2.1425 238.6316 0.0000 0.0000 0.0000
# 4 0.0000 0.0000 0.0000 5.6070 0.0000 0.0000
# 5 0.0000 0.0000 0.0000 0.0000 45.5221 0.0000
# 6 0.0000 0.0000 0.0000 0.0000 0.0000 -2.0443
#
#
#
# Elastic Compliance Matrix: (Units=1/GPa)
#
#
# Indices 1 2 3 4 5 6 
#
# 1 0.015847 -0.000926 -0.010760 0.000000 0.000000 0.000000
# 2 -0.000926 0.012730 0.000515 0.000000 0.000000 0.000000
# 3 -0.010760 0.000515 0.011498 0.000000 0.000000 0.000000
# 4 0.000000 0.000000 0.000000 0.178349 0.000000 0.000000
# 5 0.000000 0.000000 0.000000 0.000000 0.021967 0.000000
# 6 0.000000 0.000000 0.000000 0.000000 0.000000 -0.489169
#
#
# Mechanical properties :
#
#
# Convention : Reuss Voigt Hill
#
# Bulk Modulus (GPa) = 56.39335 92.42513 74.40924
# Shear Modulus (GPa) = -22.67323 31.19951 4.26314
#
# Velocity S-wave (km/s) = -3.28159 3.84947 1.42296
# Velocity P-wave (km/s) = 3.52505 7.97846 6.16773
#
# Compressibility (1/GPa) = 0.01773259
#
# Stress axis : x y z
#
# Youngs Moduli (GPa) = 63.10283 78.55432 86.97367
#
# Poissons Ratio (x) = 0.07272 0.93585
# Poissons Ratio (y) = 0.05842 -0.04477
# Poissons Ratio (z) = 0.67900 -0.04044
#
# Static dielectric constant tensor:
#      x y z
#    x 1.708620 0.000000 0.000000 
#    y 0.000000 1.921970 0.000000 
#    z 0.000000 0.000000 1.734940 
# 
# From -- ./inp_files/23342.got.cif
#   From: 2010.05.17/outbox.cif.g08.bks.cpg/sg38_12_cif.got.tgz:23342.got - 2010.06.03 18:07:57.
