data_PCOD9357011
_publ_section_title
;
Structure prediction by ZEFSAII (Michael W. Deem and Ramdas Pophale) SiO2 
 PCOD9357011
Probable space group: A M M 2
;
_chemical_formula_sum "Si O2"
_cell_formula_units_Z 40
_cell_length_a 11.842996
_cell_length_b 7.505054
_cell_length_c 23.878816
_cell_angle_alpha 90.000000
_cell_angle_beta 90.000000
_cell_angle_gamma 90.000000
_cell_volume 2122.404672
_symmetry_space_group_name_H-M "A M M 2"
_symmetry_group_IT_number 38
_symmetry_cell_setting 'orthorhombic'
loop_
_space_group_symop_operation_xyz
x,y,z
-x,-y,z
-x,y,z
x,-y,z
x,1/2+y,1/2+z
-x,1/2-y,1/2+z
-x,1/2+y,1/2+z
x,1/2-y,1/2+z
loop_
_atom_site_type_symbol
_atom_site_label
_atom_site_fract_x
_atom_site_fract_y
_atom_site_fract_z
Si Si1 0.370301 0.786031 0.114380
Si Si2 0.367337 0.000000 0.937787
Si Si3 0.763866 0.202523 0.505046
Si Si4 0.000000 0.786329 0.554365
Si Si5 0.756850 0.785805 0.230631
Si Si6 0.000000 0.712694 0.687724
Si Si7 0.367141 0.500000 0.303825
O O1 0.500000 0.730627 0.116066
O O2 0.305213 0.700777 0.063010
O O3 0.310423 0.750320 0.173083
O O4 0.365917 0.000000 0.105606
O O5 0.361414 0.000000 0.870851
O O6 0.500000 0.000000 0.954736
O O7 0.303516 0.829390 0.963270
O O8 0.886862 0.275221 0.523155
O O9 0.774301 0.000000 0.483755
O O10 0.000000 0.747168 0.620844
O O11 0.000000 0.000000 0.550681
O O12 0.696176 0.671792 0.278271
O O13 0.885227 0.726555 0.217595
O O14 0.754069 0.000000 0.241082
O O15 0.000000 0.500000 0.692625
O O16 0.500000 0.500000 0.287679
#
# Coordination Sequence:
#
# PCOD9357011 Si02
#       7
#     8   4   8   4   8   4   4
#     4  10  19  32  54  88 128 159 195 252 313 376
#     4  11  26  47  65  89 123 166 224 271 310 377
#     4  11  23  39  61  92 127 165 206 260 320 375
#     4  10  22  36  58  95 131 166 208 248 310 393
#     4  10  22  39  60  93 129 163 206 260 317 378
#     4  10  20  34  60  95 131 170 202 244 320 387
#     4  11  26  45  67  89 119 172 224 265 314 375
#
# _framework density 18.846547999999999
#
# number of rings (size 3 to 8) (size 9 to 14) (size 15 to 20)
#    0.000    1.600    3.000    1.200    4.200    3.600 
#    0.000    4.000    0.000    3.600    0.000    0.000 
#    0.000    0.000    0.000    0.000    0.000    0.000 
#
# Total GULP energy -111738.645501 kJ/mol
# GULP energy per Si atom -5586.932275 kJ/mol
# Density = 1.880365 g / cm^3
# Si number density = 18.846548 Si / 1000 Ang^3
#
#
#
# Elastic Constant Matrix: (Units=GPa)
#
#
# Indices 1 2 3 4 5 6 
#
# 1 199.8096 52.4952 65.1706 0.0000 0.0000 0.0000
# 2 52.4952 86.8433 45.3073 0.0000 0.0000 0.0000
# 3 65.1706 45.3073 88.3951 0.0000 0.0000 0.0000
# 4 0.0000 0.0000 0.0000 -10.3556 0.0000 0.0000
# 5 0.0000 0.0000 0.0000 0.0000 -210.2221 0.0000
# 6 0.0000 0.0000 0.0000 0.0000 0.0000 -16.5741
#
#
#
# Elastic Compliance Matrix: (Units=1/GPa)
#
#
# Indices 1 2 3 4 5 6 
#
# 1 0.006848 -0.002055 -0.003995 0.000000 0.000000 0.000000
# 2 -0.002055 0.016335 -0.006857 0.000000 0.000000 0.000000
# 3 -0.003995 -0.006857 0.017773 0.000000 0.000000 0.000000
# 4 0.000000 0.000000 0.000000 -0.096566 0.000000 0.000000
# 5 0.000000 0.000000 0.000000 0.000000 -0.004757 0.000000
# 6 0.000000 0.000000 0.000000 0.000000 0.000000 -0.060335
#
#
# Mechanical properties :
#
#
# Convention : Reuss Voigt Hill
#
# Bulk Modulus (GPa) = 66.04846 77.88823 71.96835
# Shear Modulus (GPa) = -55.65483 -33.29204 -44.47344
#
# Velocity S-wave (km/s) = -5.44009 -4.20751 -4.86301
# Velocity P-wave (km/s) = 2.08279 4.22056 2.59568
#
# Compressibility (1/GPa) = 0.01514040
#
# Stress axis : x y z
#
# Youngs Moduli (GPa) = 146.03249 61.21909 56.26416
#
# Poissons Ratio (x) = 0.12580 0.22480
# Poissons Ratio (y) = 0.30009 0.38583
# Poissons Ratio (z) = 0.58345 0.41981
#
# Static dielectric constant tensor:
#      x y z
#    x 1.675770 0.000000 0.000000 
#    y 0.000000 1.696920 0.000000 
#    z 0.000000 0.000000 1.597350 
# 
# From -- ./inp_files/20518.got.cif
#   From: 2010.05.17/outbox.cif.g08.bks.cpg/sg38_11_cif.got.tgz:20518.got - 2010.06.03 18:07:57.
