data_PCOD9357404
_publ_section_title
;
Structure prediction by ZEFSAII (Michael W. Deem and Ramdas Pophale) SiO2 
 PCOD9357404
Probable space group: A M M 2
;
_chemical_formula_sum "Si O2"
_cell_formula_units_Z 58
_cell_length_a 7.632097
_cell_length_b 20.178851
_cell_length_c 16.389696
_cell_angle_alpha 90.000000
_cell_angle_beta 90.000000
_cell_angle_gamma 90.000000
_cell_volume 2524.127063
_symmetry_space_group_name_H-M "A M M 2"
_symmetry_group_IT_number 38
_symmetry_cell_setting 'orthorhombic'
loop_
_space_group_symop_operation_xyz
x,y,z
-x,-y,z
-x,y,z
x,-y,z
x,1/2+y,1/2+z
-x,1/2-y,1/2+z
-x,1/2+y,1/2+z
x,1/2-y,1/2+z
loop_
_atom_site_type_symbol
_atom_site_label
_atom_site_fract_x
_atom_site_fract_y
_atom_site_fract_z
Si Si1 0.287778 0.426666 0.041090
Si Si2 0.789935 0.392642 0.732392
Si Si3 0.701378 0.293534 0.483530
Si Si4 0.500000 0.000000 0.187308
Si Si5 0.698987 0.610381 0.216266
Si Si6 0.200747 0.668565 0.897681
Si Si7 0.714870 0.575354 0.396542
Si Si8 0.802275 0.748335 0.158731
O O1 0.500000 0.418515 0.042286
O O2 0.246994 0.500000 0.010493
O O3 0.221404 0.419065 0.133543
O O4 0.214858 0.371825 0.981265
O O5 0.656207 0.442927 0.691700
O O6 0.737764 0.381127 0.827107
O O7 0.764780 0.319841 0.695320
O O8 0.000000 0.409690 0.726529
O O9 0.500000 0.303380 0.506975
O O10 0.709342 0.239451 0.410941
O O11 0.774073 0.364511 0.454863
O O12 0.788140 0.259852 0.561887
O O13 0.500000 0.584386 0.219630
O O14 0.774479 0.591992 0.304169
O O15 0.693672 0.688654 0.197009
O O16 0.000000 0.684003 0.877676
O O17 0.500000 0.578013 0.397770
O O18 0.764681 0.500000 0.418829
O O19 0.000000 0.729696 0.179603
#
# Coordination Sequence:
#
# PCOD9357404 Si02
#       8
#     8   8   8   2   8   8   8   8
#     4  10  21  34  55  89 126 163 208 258 311 382
#     4  10  26  45  65  97 129 170 222 270 326 398
#     4  11  22  37  63  95 126 163 220 268 311 391
#     4  12  26  44  76  90 128 172 214 280 336 390
#     4  10  19  35  63  92 123 162 207 257 314 386
#     4  11  23  40  61  88 128 170 209 261 324 381
#     4   9  19  37  61  93 128 160 199 259 323 377
#     4  11  23  42  63  89 128 166 211 270 327 377
#
# _framework density 22.978241000000001
#
# number of rings (size 3 to 8) (size 9 to 14) (size 15 to 20)
#    0.000    1.655    1.379    2.690    4.828    1.931 
#    1.241    0.690    0.000    4.138    0.000    0.000 
#    0.000    0.000    0.000    0.000    0.000    0.000 
#
# Total GULP energy -161746.084242 kJ/mol
# GULP energy per Si atom -5577.451181 kJ/mol
# Density = 2.292594 g / cm^3
# Si number density = 22.978241 Si / 1000 Ang^3
#
#
#
# Elastic Constant Matrix: (Units=GPa)
#
#
# Indices 1 2 3 4 5 6 
#
# 1 64.8917 28.3157 -4.5417 0.0000 0.0000 0.0000
# 2 28.3157 121.2041 -1.8590 0.0000 0.0000 0.0000
# 3 -4.5417 -1.8590 12.7516 0.0000 0.0000 0.0000
# 4 0.0000 0.0000 0.0000 -122.0272 0.0000 0.0000
# 5 0.0000 0.0000 0.0000 0.0000 11.1132 0.0000
# 6 0.0000 0.0000 0.0000 0.0000 0.0000 21.2932
#
#
#
# Elastic Compliance Matrix: (Units=1/GPa)
#
#
# Indices 1 2 3 4 5 6 
#
# 1 0.017559 -0.004015 0.005669 0.000000 0.000000 0.000000
# 2 -0.004015 0.009187 -0.000091 0.000000 0.000000 0.000000
# 3 0.005669 -0.000091 0.080427 0.000000 0.000000 0.000000
# 4 0.000000 0.000000 0.000000 -0.008195 0.000000 0.000000
# 5 0.000000 0.000000 0.000000 0.000000 0.089983 0.000000
# 6 0.000000 0.000000 0.000000 0.000000 0.000000 0.046963
#
#
# Mechanical properties :
#
#
# Convention : Reuss Voigt Hill
#
# Bulk Modulus (GPa) = 9.06629 26.96416 18.01523
# Shear Modulus (GPa) = 18.54836 -6.12866 6.20985
#
# Velocity S-wave (km/s) = 2.84423 -1.63492 1.64571
# Velocity P-wave (km/s) = 3.83932 2.86290 3.38649
#
# Compressibility (1/GPa) = 0.11029873
#
# Stress axis : x y z
#
# Youngs Moduli (GPa) = 56.95057 108.84723 12.43363
#
# Poissons Ratio (x) = 0.43704 -0.07048
# Poissons Ratio (y) = 0.22867 0.00113
# Poissons Ratio (z) = -0.32283 0.00988
#
# Static dielectric constant tensor:
#      x y z
#    x 1.867060 0.000000 0.000000 
#    y 0.000000 2.099190 0.000000 
#    z 0.000000 0.000000 1.915860 
# 
# From -- ./inp_files/16997.got.cif
#   From: 2010.05.17/outbox.cif.g08.bks.cpg/sg38_9_cif.got.tgz:16997.got - 2010.06.03 18:07:57.
