data_PCOD9357659
_publ_section_title
;
Structure prediction by ZEFSAII (Michael W. Deem and Ramdas Pophale) SiO2 
 PCOD9357659
Probable space group: A M M 2
;
_chemical_formula_sum "Si O2"
_cell_formula_units_Z 64
_cell_length_a 8.691544
_cell_length_b 14.888969
_cell_length_c 29.044998
_cell_angle_alpha 90.000000
_cell_angle_beta 90.000000
_cell_angle_gamma 90.000000
_cell_volume 3758.658853
_symmetry_space_group_name_H-M "A M M 2"
_symmetry_group_IT_number 38
_symmetry_cell_setting 'orthorhombic'
loop_
_space_group_symop_operation_xyz
x,y,z
-x,-y,z
-x,y,z
x,-y,z
x,1/2+y,1/2+z
-x,1/2-y,1/2+z
-x,1/2+y,1/2+z
x,1/2-y,1/2+z
loop_
_atom_site_type_symbol
_atom_site_label
_atom_site_fract_x
_atom_site_fract_y
_atom_site_fract_z
Si Si1 0.816414 0.727272 0.981270
Si Si2 0.316000 0.218049 0.210752
Si Si3 0.185572 0.102959 0.292975
Si Si4 0.683347 0.393725 0.061666
Si Si5 0.683909 0.603386 0.525678
Si Si6 0.817766 0.106658 0.126130
Si Si7 0.187395 0.897909 0.398484
Si Si8 0.687442 0.101175 0.667336
O O1 0.744217 0.824763 0.989257
O O2 0.760741 0.674345 0.935854
O O3 0.000000 0.735676 0.979099
O O4 0.770586 0.666252 0.024938
O O5 0.500000 0.217451 0.213020
O O6 0.250429 0.171935 0.256209
O O7 0.263007 0.161191 0.166472
O O8 0.262705 0.320176 0.201351
O O9 0.233263 0.121037 0.345789
O O10 0.000000 0.105676 0.291348
O O11 0.231662 0.000000 0.281624
O O12 0.500000 0.375788 0.058171
O O13 0.706860 0.500000 0.052992
O O14 0.731508 0.376540 0.114551
O O15 0.500000 0.607237 0.528165
O O16 0.729874 0.500000 0.516082
O O17 0.751134 0.628347 0.575827
O O18 0.000000 0.123930 0.126839
O O19 0.793548 0.000000 0.133519
O O20 0.000000 0.898242 0.399223
O O21 0.236239 0.000000 0.410313
O O22 0.500000 0.099537 0.667278
O O23 0.739679 0.000000 0.678208
#
# Coordination Sequence:
#
# PCOD9357659 Si02
#       8
#     8   8   8   8   8   8   8   8
#     4  11  20  30  50  76  99 125 160 203 248 297
#     4  11  20  29  48  75  99 126 161 202 246 290
#     4   9  18  34  53  70  94 129 162 194 238 292
#     4   9  17  30  48  70  98 132 166 197 234 287
#     4  10  21  36  51  68  96 133 168 203 242 285
#     4  10  20  33  49  71 100 132 164 197 236 286
#     4   8  16  32  52  73  97 126 159 194 238 292
#     4   8  16  31  47  63  89 127 164 192 224 273
#
# _framework density 17.027350999999999
#
# number of rings (size 3 to 8) (size 9 to 14) (size 15 to 20)
#    0.000    2.500    0.000    4.500    0.000    5.000 
#    0.000    1.875    0.000    5.250    0.000    3.500 
#    0.000    0.000    0.000    0.000    0.000    0.000 
#
# Total GULP energy -178540.979957 kJ/mol
# GULP energy per Si atom -5579.405624 kJ/mol
# Density = 1.698860 g / cm^3
# Si number density = 17.027351 Si / 1000 Ang^3
#
#
#
# Elastic Constant Matrix: (Units=GPa)
#
#
# Indices 1 2 3 4 5 6 
#
# 1 19.7059 26.5817 20.3372 0.0000 0.0000 0.0000
# 2 26.5817 108.3430 94.9374 0.0000 0.0000 0.0000
# 3 20.3372 94.9374 107.9794 0.0000 0.0000 0.0000
# 4 0.0000 0.0000 0.0000 33.2543 0.0000 0.0000
# 5 0.0000 0.0000 0.0000 0.0000 52.5747 0.0000
# 6 0.0000 0.0000 0.0000 0.0000 0.0000 22.3443
#
#
#
# Elastic Compliance Matrix: (Units=1/GPa)
#
#
# Indices 1 2 3 4 5 6 
#
# 1 0.077932 -0.027262 0.009292 0.000000 0.000000 0.000000
# 2 -0.027262 0.049742 -0.038600 0.000000 0.000000 0.000000
# 3 0.009292 -0.038600 0.041448 0.000000 0.000000 0.000000
# 4 0.000000 0.000000 0.000000 0.030071 0.000000 0.000000
# 5 0.000000 0.000000 0.000000 0.000000 0.019021 0.000000
# 6 0.000000 0.000000 0.000000 0.000000 0.000000 0.044754
#
#
# Mechanical properties :
#
#
# Convention : Reuss Voigt Hill
#
# Bulk Modulus (GPa) = 17.86294 57.74901 37.80597
# Shear Modulus (GPa) = 12.66561 27.91279 20.28920
#
# Velocity S-wave (km/s) = 2.73030 4.05321 3.45565
# Velocity P-wave (km/s) = 4.52249 7.47621 6.17846
#
# Compressibility (1/GPa) = 0.05598184
#
# Stress axis : x y z
#
# Youngs Moduli (GPa) = 12.83174 20.10363 24.12634
#
# Poissons Ratio (x) = 0.54807 -0.22417
# Poissons Ratio (y) = 0.34982 0.93127
# Poissons Ratio (z) = -0.11923 0.77599
#
# Static dielectric constant tensor:
#      x y z
#    x 1.574280 0.000000 0.000000 
#    y 0.000000 1.592000 0.000000 
#    z 0.000000 0.000000 1.556270 
# 
# From -- ./inp_files/22151.got.cif
#   From: 2010.05.17/outbox.cif.g08.bks.cpg/sg38_12_cif.got.tgz:22151.got - 2010.06.03 18:07:57.
