data_PCOD9357941
_publ_section_title
;
Structure prediction by ZEFSAII (Michael W. Deem and Ramdas Pophale) SiO2 
 PCOD9357941
Probable space group: A M M 2
;
_chemical_formula_sum "Si O2"
_cell_formula_units_Z 48
_cell_length_a 9.372879
_cell_length_b 8.132811
_cell_length_c 32.348822
_cell_angle_alpha 90.000000
_cell_angle_beta 90.000000
_cell_angle_gamma 90.000000
_cell_volume 2465.881262
_symmetry_space_group_name_H-M "A M M 2"
_symmetry_group_IT_number 38
_symmetry_cell_setting 'orthorhombic'
loop_
_space_group_symop_operation_xyz
x,y,z
-x,-y,z
-x,y,z
x,-y,z
x,1/2+y,1/2+z
-x,1/2-y,1/2+z
-x,1/2+y,1/2+z
x,1/2-y,1/2+z
loop_
_atom_site_type_symbol
_atom_site_label
_atom_site_fract_x
_atom_site_fract_y
_atom_site_fract_z
Si Si1 0.837008 0.196739 0.164090
Si Si2 0.173002 0.691983 0.415617
Si Si3 0.162732 0.696293 0.004820
Si Si4 0.662444 0.198697 0.583587
Si Si5 0.834228 0.701374 0.325312
Si Si6 0.663041 0.698745 0.244770
O O1 0.753964 0.255465 0.123527
O O2 0.753852 0.251507 0.205005
O O3 0.000000 0.259245 0.164330
O O4 0.840847 0.000000 0.163476
O O5 0.210107 0.500000 0.417727
O O6 0.219326 0.770748 0.458653
O O7 0.218702 0.757361 0.370662
O O8 0.000000 0.704811 0.414599
O O9 0.154051 0.500000 0.009553
O O10 0.260661 0.759984 0.041856
O O11 0.000000 0.762210 0.007948
O O12 0.500000 0.259003 0.586979
O O13 0.657295 0.000000 0.581559
O O14 0.833148 0.500000 0.326413
O O15 0.739289 0.755803 0.286894
O O16 0.000000 0.749834 0.319570
O O17 0.500000 0.757310 0.241715
O O18 0.660192 0.500000 0.246146
#
# Coordination Sequence:
#
# PCOD9357941 Si02
#       6
#     8   8   8   8   8   8
#     4  11  24  39  55  77 103 131 166 209 256 305
#     4   8  14  26  46  71  98 130 169 210 249 290
#     4   9  17  30  49  73 100 130 166 209 253 294
#     4  10  21  37  56  77 102 134 171 209 251 302
#     4   8  14  27  48  72  98 131 171 212 250 289
#     4  10  20  34  54  79 105 135 171 209 251 301
#
# _framework density 19.465658000000001
#
# number of rings (size 3 to 8) (size 9 to 14) (size 15 to 20)
#    0.000    2.667    0.000    3.000    0.000    6.000 
#    0.000    3.333    0.000    4.000    0.000    0.000 
#    0.000    0.000    0.000    0.000    0.000    0.000 
#
# Total GULP energy -133855.810645 kJ/mol
# GULP energy per Si atom -5577.325444 kJ/mol
# Density = 1.942135 g / cm^3
# Si number density = 19.465658 Si / 1000 Ang^3
#
#
#
# Elastic Constant Matrix: (Units=GPa)
#
#
# Indices 1 2 3 4 5 6 
#
# 1 141.3842 11.2338 115.1988 0.0000 0.0000 0.0000
# 2 11.2338 6.2770 12.4031 0.0000 0.0000 0.0000
# 3 115.1988 12.4031 219.5534 0.0000 0.0000 0.0000
# 4 0.0000 0.0000 0.0000 25.5852 0.0000 0.0000
# 5 0.0000 0.0000 0.0000 0.0000 -20.9218 0.0000
# 6 0.0000 0.0000 0.0000 0.0000 0.0000 13.1484
#
#
#
# Elastic Compliance Matrix: (Units=1/GPa)
#
#
# Indices 1 2 3 4 5 6 
#
# 1 0.012998 -0.011016 -0.006198 0.000000 0.000000 0.000000
# 2 -0.011016 0.188665 -0.004878 0.000000 0.000000 0.000000
# 3 -0.006198 -0.004878 0.008082 0.000000 0.000000 0.000000
# 4 0.000000 0.000000 0.000000 0.039085 0.000000 0.000000
# 5 0.000000 0.000000 0.000000 0.000000 -0.047797 0.000000
# 6 0.000000 0.000000 0.000000 0.000000 0.000000 0.076055
#
#
# Mechanical properties :
#
#
# Convention : Reuss Voigt Hill
#
# Bulk Modulus (GPa) = 6.04004 71.65401 38.84702
# Shear Modulus (GPa) = 13.28167 18.78763 16.03465
#
# Velocity S-wave (km/s) = 2.61495 3.11009 2.87320
# Velocity P-wave (km/s) = 3.49670 7.05601 5.56840
#
# Compressibility (1/GPa) = 0.16556183
#
# Stress axis : x y z
#
# Youngs Moduli (GPa) = 76.93454 5.30040 123.72886
#
# Poissons Ratio (x) = 0.05839 0.76684
# Poissons Ratio (y) = 0.84751 0.60356
# Poissons Ratio (z) = 0.47682 0.02586
#
# Static dielectric constant tensor:
#      x y z
#    x 1.671270 0.000000 0.000000 
#    y 0.000000 1.697180 0.000000 
#    z 0.000000 0.000000 1.675760 
# 
# From -- ./inp_files/24291.got.cif
#   From: 2010.05.17/outbox.cif.g08.bks.cpg/sg38_13_cif.got.tgz:24291.got - 2010.06.03 18:07:57.
