data_PCOD9357587
_publ_section_title
;
Structure prediction by ZEFSAII (Michael W. Deem and Ramdas Pophale) SiO2 
 PCOD9357587
Probable space group: A M M 2
;
_chemical_formula_sum "Si O2"
_cell_formula_units_Z 64
_cell_length_a 14.429765
_cell_length_b 7.408525
_cell_length_c 27.207784
_cell_angle_alpha 90.000000
_cell_angle_beta 90.000000
_cell_angle_gamma 90.000000
_cell_volume 2908.601208
_symmetry_space_group_name_H-M "A M M 2"
_symmetry_group_IT_number 38
_symmetry_cell_setting 'orthorhombic'
loop_
_space_group_symop_operation_xyz
x,y,z
-x,-y,z
-x,y,z
x,-y,z
x,1/2+y,1/2+z
-x,1/2-y,1/2+z
-x,1/2+y,1/2+z
x,1/2-y,1/2+z
loop_
_atom_site_type_symbol
_atom_site_label
_atom_site_fract_x
_atom_site_fract_y
_atom_site_fract_z
Si Si1 0.107250 0.279104 0.585330
Si Si2 0.789262 0.720374 0.486902
Si Si3 0.395233 0.217024 0.727021
Si Si4 0.394863 0.279122 0.441872
Si Si5 0.613116 0.793373 0.833786
Si Si6 0.893521 0.715882 0.781232
Si Si7 0.207129 0.285883 0.683835
Si Si8 0.105659 0.284506 0.389350
O O1 0.108334 0.500000 0.585110
O O2 0.159464 0.219856 0.536002
O O3 0.159314 0.216667 0.634517
O O4 0.000000 0.224636 0.585387
O O5 0.791634 0.500000 0.487157
O O6 0.682197 0.773638 0.481024
O O7 0.840679 0.781314 0.437165
O O8 0.500000 0.279805 0.716636
O O9 0.363173 0.288417 0.780866
O O10 0.317060 0.259304 0.687640
O O11 0.399687 0.000000 0.731719
O O12 0.500000 0.221436 0.451622
O O13 0.396241 0.500000 0.439407
O O14 0.364612 0.215846 0.387192
O O15 0.500000 0.799141 0.833183
O O16 0.647585 0.000000 0.834103
O O17 0.897571 0.500000 0.776915
O O18 0.838145 0.786960 0.734227
O O19 0.852588 0.751808 0.835312
O O20 0.000000 0.783799 0.780605
O O21 0.190250 0.500000 0.683799
O O22 0.101001 0.500000 0.394439
O O23 0.000000 0.214040 0.388819
#
# Coordination Sequence:
#
# PCOD9357587 Si02
#       8
#     8   8   8   8   8   8   8   8
#     4   9  17  31  49  66  89 126 170 209 244 291
#     4   9  16  25  42  68  95 124 157 196 247 296
#     4   9  18  32  50  72  99 132 167 199 239 294
#     4   8  13  21  34  57  91 124 152 185 229 284
#     4   7  11  21  37  58  86 121 155 183 217 270
#     4   9  18  32  47  65  94 131 166 198 241 301
#     4  10  20  32  49  72  96 128 170 208 244 283
#     4   9  17  28  44  70  98 119 148 197 252 298
#
# _framework density 22.003702000000001
#
# number of rings (size 3 to 8) (size 9 to 14) (size 15 to 20)
#    0.000    3.250    0.000    2.250    1.750    3.750 
#    0.000    0.625    0.000    4.125    0.000    0.000 
#    0.000    0.000    0.000    0.000    0.000    0.000 
#
# Total GULP energy -178584.770352 kJ/mol
# GULP energy per Si atom -5580.774073 kJ/mol
# Density = 2.195362 g / cm^3
# Si number density = 22.003702 Si / 1000 Ang^3
#
#
#
# Elastic Constant Matrix: (Units=GPa)
#
#
# Indices 1 2 3 4 5 6 
#
# 1 151.4322 0.0056 121.6323 0.0000 0.0000 0.0000
# 2 0.0056 73.8211 6.1428 0.0000 0.0000 0.0000
# 3 121.6323 6.1428 191.5257 0.0000 0.0000 0.0000
# 4 0.0000 0.0000 0.0000 7.5087 0.0000 0.0000
# 5 0.0000 0.0000 0.0000 0.0000 43.2499 0.0000
# 6 0.0000 0.0000 0.0000 0.0000 0.0000 3.1862
#
#
#
# Elastic Compliance Matrix: (Units=1/GPa)
#
#
# Indices 1 2 3 4 5 6 
#
# 1 0.013517 0.000715 -0.008607 0.000000 0.000000 0.000000
# 2 0.000715 0.013620 -0.000891 0.000000 0.000000 0.000000
# 3 -0.008607 -0.000891 0.010716 0.000000 0.000000 0.000000
# 4 0.000000 0.000000 0.000000 0.133180 0.000000 0.000000
# 5 0.000000 0.000000 0.000000 0.000000 0.023121 0.000000
# 6 0.000000 0.000000 0.000000 0.000000 0.000000 0.313856
#
#
# Mechanical properties :
#
#
# Convention : Reuss Voigt Hill
#
# Bulk Modulus (GPa) = 49.29205 74.70451 61.99828
# Shear Modulus (GPa) = 9.39252 30.05551 19.72401
#
# Velocity S-wave (km/s) = 2.06830 3.69986 2.99723
# Velocity P-wave (km/s) = 5.30605 7.23025 6.34156
#
# Compressibility (1/GPa) = 0.02028725
#
# Stress axis : x y z
#
# Youngs Moduli (GPa) = 73.98102 73.41958 93.31868
#
# Poissons Ratio (x) = -0.05251 0.80321
# Poissons Ratio (y) = -0.05291 0.08315
# Poissons Ratio (z) = 0.63677 0.06542
#
# Static dielectric constant tensor:
#      x y z
#    x 1.817580 0.000000 0.000000 
#    y 0.000000 1.888370 0.000000 
#    z 0.000000 0.000000 1.786610 
# 
# From -- ./inp_files/22912.got.cif
#   From: 2010.05.17/outbox.cif.g08.bks.cpg/sg38_12_cif.got.tgz:22912.got - 2010.06.03 18:07:57.
