data_PCOD9357393
_publ_section_title
;
Structure prediction by ZEFSAII (Michael W. Deem and Ramdas Pophale) SiO2 
 PCOD9357393
Probable space group: A M M 2
;
_chemical_formula_sum "Si O2"
_cell_formula_units_Z 48
_cell_length_a 8.326206
_cell_length_b 18.938663
_cell_length_c 15.429082
_cell_angle_alpha 90.000000
_cell_angle_beta 90.000000
_cell_angle_gamma 90.000000
_cell_volume 2432.968886
_symmetry_space_group_name_H-M "A M M 2"
_symmetry_group_IT_number 38
_symmetry_cell_setting 'orthorhombic'
loop_
_space_group_symop_operation_xyz
x,y,z
-x,-y,z
-x,y,z
x,-y,z
x,1/2+y,1/2+z
-x,1/2-y,1/2+z
-x,1/2+y,1/2+z
x,1/2-y,1/2+z
loop_
_atom_site_type_symbol
_atom_site_label
_atom_site_fract_x
_atom_site_fract_y
_atom_site_fract_z
Si Si1 0.308385 0.346916 0.846370
Si Si2 0.308150 0.230766 0.990305
Si Si3 0.805570 0.076690 0.932036
Si Si4 0.195174 0.611134 0.239849
Si Si5 0.803747 0.000000 0.601312
Si Si6 0.807289 0.500000 0.904672
Si Si7 0.192467 0.236946 0.187371
O O1 0.500000 0.346064 0.851508
O O2 0.248234 0.289113 0.919130
O O3 0.248887 0.426090 0.864401
O O4 0.257116 0.324011 0.749725
O O5 0.500000 0.235488 0.990542
O O6 0.259001 0.150274 0.968313
O O7 0.245678 0.242069 0.087857
O O8 0.758401 0.077908 0.830812
O O9 0.000000 0.079465 0.937571
O O10 0.755048 0.000000 0.969316
O O11 0.249082 0.567266 0.156876
O O12 0.249186 0.691107 0.233335
O O13 0.000000 0.610430 0.238296
O O14 0.746874 0.000000 0.503882
O O15 0.000000 0.000000 0.599523
O O16 0.000000 0.500000 0.904314
O O17 0.000000 0.233736 0.188591
#
# Coordination Sequence:
#
# PCOD9357393 Si02
#       7
#     8   8   8   8   4   4   8
#     4  11  24  43  64  88 127 169 206 254 315 379
#     4  11  24  41  62  89 127 168 206 249 309 379
#     4  10  19  35  61  90 122 156 199 253 305 358
#     4   9  16  29  54  88 121 149 185 244 306 355
#     4   9  16  29  53  90 125 150 185 243 312 366
#     4  11  23  39  63  92 123 160 209 261 310 366
#     4  11  22  38  64  92 119 158 213 264 306 362
#
# _framework density 19.728981000000001
#
# number of rings (size 3 to 8) (size 9 to 14) (size 15 to 20)
#    0.000    1.667    2.500    2.750    0.000    3.667 
#    1.500    0.000    0.000    1.000    0.000    0.000 
#    0.000    0.000    0.000    0.000    0.000    0.000 
#
# Total GULP energy -133899.579245 kJ/mol
# GULP energy per Si atom -5579.149135 kJ/mol
# Density = 1.968408 g / cm^3
# Si number density = 19.728981 Si / 1000 Ang^3
#
#
#
# Elastic Constant Matrix: (Units=GPa)
#
#
# Indices 1 2 3 4 5 6 
#
# 1 40.8449 22.9137 13.3089 0.0000 0.0000 0.0000
# 2 22.9137 134.4641 31.5470 0.0000 0.0000 0.0000
# 3 13.3089 31.5470 69.5833 0.0000 0.0000 0.0000
# 4 0.0000 0.0000 0.0000 88.3122 0.0000 0.0000
# 5 0.0000 0.0000 0.0000 0.0000 20.9201 0.0000
# 6 0.0000 0.0000 0.0000 0.0000 0.0000 246.8101
#
#
#
# Elastic Compliance Matrix: (Units=1/GPa)
#
#
# Indices 1 2 3 4 5 6 
#
# 1 0.027833 -0.003910 -0.003551 0.000000 0.000000 0.000000
# 2 -0.003910 0.008871 -0.003274 0.000000 0.000000 0.000000
# 3 -0.003551 -0.003274 0.016535 0.000000 0.000000 0.000000
# 4 0.000000 0.000000 0.000000 0.011323 0.000000 0.000000
# 5 0.000000 0.000000 0.000000 0.000000 0.047801 0.000000
# 6 0.000000 0.000000 0.000000 0.000000 0.000000 0.004052
#
#
# Mechanical properties :
#
#
# Convention : Reuss Voigt Hill
#
# Bulk Modulus (GPa) = 31.47671 42.27017 36.87344
# Shear Modulus (GPa) = 33.67559 83.01666 58.34613
#
# Velocity S-wave (km/s) = 4.13596 6.49383 5.44408
# Velocity P-wave (km/s) = 6.22876 8.81467 7.63203
#
# Compressibility (1/GPa) = 0.03176952
#
# Stress axis : x y z
#
# Youngs Moduli (GPa) = 35.92816 112.72210 60.47836
#
# Poissons Ratio (x) = 0.44074 0.21475
# Poissons Ratio (y) = 0.14048 0.19802
# Poissons Ratio (z) = 0.12758 0.36907
#
# Static dielectric constant tensor:
#      x y z
#    x 1.685110 0.000000 0.000000 
#    y 0.000000 1.641740 0.000000 
#    z 0.000000 0.000000 1.679510 
# 
# From -- ./inp_files/12117.got.cif
#   From: 2010.05.17/outbox.cif.g08.bks.cpg/sg38_7_cif.got.tgz:12117.got - 2010.06.03 18:07:57.
