data_PCOD9357783
_publ_section_title
;
Structure prediction by ZEFSAII (Michael W. Deem and Ramdas Pophale) SiO2 
 PCOD9357783
Probable space group: A M M 2
;
_chemical_formula_sum "Si O2"
_cell_formula_units_Z 56
_cell_length_a 8.963218
_cell_length_b 24.002284
_cell_length_c 14.146748
_cell_angle_alpha 90.000000
_cell_angle_beta 90.000000
_cell_angle_gamma 90.000000
_cell_volume 3043.498884
_symmetry_space_group_name_H-M "A M M 2"
_symmetry_group_IT_number 38
_symmetry_cell_setting 'orthorhombic'
loop_
_space_group_symop_operation_xyz
x,y,z
-x,-y,z
-x,y,z
x,-y,z
x,1/2+y,1/2+z
-x,1/2-y,1/2+z
-x,1/2+y,1/2+z
x,1/2-y,1/2+z
loop_
_atom_site_type_symbol
_atom_site_label
_atom_site_fract_x
_atom_site_fract_y
_atom_site_fract_z
Si Si1 0.323019 0.266846 0.863030
Si Si2 0.179652 0.563489 0.366551
Si Si3 0.322352 0.434327 0.567043
Si Si4 0.821624 0.936160 0.446971
Si Si5 0.321538 0.167248 0.550440
Si Si6 0.178078 0.830353 0.750758
Si Si7 0.321576 0.615842 0.765052
O O1 0.500000 0.253985 0.860172
O O2 0.229530 0.215049 0.826953
O O3 0.296995 0.320187 0.794891
O O4 0.284859 0.288265 0.968097
O O5 0.229482 0.500000 0.346539
O O6 0.241377 0.579804 0.469513
O O7 0.224724 0.608755 0.289024
O O8 0.000000 0.563454 0.370524
O O9 0.500000 0.427085 0.553967
O O10 0.295111 0.500000 0.586534
O O11 0.276187 0.399257 0.658743
O O12 0.745946 0.891483 0.515904
O O13 0.762672 0.921469 0.342195
O O14 0.000000 0.929551 0.450478
O O15 0.784742 0.000000 0.470464
O O16 0.500000 0.163122 0.554244
O O17 0.255566 0.182382 0.651452
O O18 0.000000 0.829627 0.739649
O O19 0.500000 0.605238 0.773638
#
# Coordination Sequence:
#
# PCOD9357783 Si02
#       7
#     8   8   8   8   8   8   8
#     4   9  20  38  57  79 108 142 180 221 265 317
#     4   9  20  38  55  74 105 141 176 217 266 321
#     4   9  17  30  51  79 108 139 178 223 265 308
#     4  10  20  33  52  81 115 148 183 227 278 328
#     4  10  22  40  60  81 108 144 185 227 270 321
#     4  11  23  38  59  84 108 139 177 220 275 330
#     4   9  18  33  53  78 110 148 187 225 269 322
#
# _framework density 18.399874000000001
#
# number of rings (size 3 to 8) (size 9 to 14) (size 15 to 20)
#    0.000    2.429    0.000    2.571    0.000    8.000 
#    0.000    7.143    0.000    0.000    0.000    0.000 
#    0.000    0.000    0.000    0.000    0.000    0.000 
#
# Total GULP energy -156279.628393 kJ/mol
# GULP energy per Si atom -5581.415300 kJ/mol
# Density = 1.835800 g / cm^3
# Si number density = 18.399874 Si / 1000 Ang^3
#
#
#
# Elastic Constant Matrix: (Units=GPa)
#
#
# Indices 1 2 3 4 5 6 
#
# 1 35.0836 40.3035 34.4772 0.0000 0.0000 0.0000
# 2 40.3035 75.3388 52.7830 0.0000 0.0000 0.0000
# 3 34.4772 52.7830 102.7600 0.0000 0.0000 0.0000
# 4 0.0000 0.0000 0.0000 13.9304 0.0000 0.0000
# 5 0.0000 0.0000 0.0000 0.0000 17.5374 0.0000
# 6 0.0000 0.0000 0.0000 0.0000 0.0000 26.7275
#
#
#
# Elastic Compliance Matrix: (Units=1/GPa)
#
#
# Indices 1 2 3 4 5 6 
#
# 1 0.077335 -0.036231 -0.007336 0.000000 0.000000 0.000000
# 2 -0.036231 0.037710 -0.007214 0.000000 0.000000 0.000000
# 3 -0.007336 -0.007214 0.015898 0.000000 0.000000 0.000000
# 4 0.000000 0.000000 0.000000 0.071786 0.000000 0.000000
# 5 0.000000 0.000000 0.000000 0.000000 0.057021 0.000000
# 6 0.000000 0.000000 0.000000 0.000000 0.000000 0.037415
#
#
# Mechanical properties :
#
#
# Convention : Reuss Voigt Hill
#
# Bulk Modulus (GPa) = 34.03682 52.03443 43.03563
# Shear Modulus (GPa) = 12.23928 17.34697 14.79313
#
# Velocity S-wave (km/s) = 2.58191 3.07380 2.83853
# Velocity P-wave (km/s) = 5.23707 6.39834 5.84661
#
# Compressibility (1/GPa) = 0.02937995
#
# Stress axis : x y z
#
# Youngs Moduli (GPa) = 12.93075 26.51829 62.90010
#
# Poissons Ratio (x) = 0.96080 0.46146
# Poissons Ratio (y) = 0.46850 0.45374
# Poissons Ratio (z) = 0.09487 0.19129
#
# Static dielectric constant tensor:
#      x y z
#    x 1.618630 0.000000 0.000000 
#    y 0.000000 1.631520 0.000000 
#    z 0.000000 0.000000 1.615060 
# 
# From -- ./inp_files/12360.got.cif
#   From: 2010.05.17/outbox.cif.g08.bks.cpg/sg38_7_cif.got.tgz:12360.got - 2010.06.03 18:07:57.
