data_PCOD9357786
_publ_section_title
;
Structure prediction by ZEFSAII (Michael W. Deem and Ramdas Pophale) SiO2 
 PCOD9357786
Probable space group: A M M 2
;
_chemical_formula_sum "Si O2"
_cell_formula_units_Z 40
_cell_length_a 7.967611
_cell_length_b 8.719576
_cell_length_c 29.999479
_cell_angle_alpha 90.000000
_cell_angle_beta 90.000000
_cell_angle_gamma 90.000000
_cell_volume 2084.189494
_symmetry_space_group_name_H-M "A M M 2"
_symmetry_group_IT_number 38
_symmetry_cell_setting 'orthorhombic'
loop_
_space_group_symop_operation_xyz
x,y,z
-x,-y,z
-x,y,z
x,-y,z
x,1/2+y,1/2+z
-x,1/2-y,1/2+z
-x,1/2+y,1/2+z
x,1/2-y,1/2+z
loop_
_atom_site_type_symbol
_atom_site_label
_atom_site_fract_x
_atom_site_fract_y
_atom_site_fract_z
Si Si1 0.183364 0.684546 0.966110
Si Si2 0.195453 0.317010 0.683543
Si Si3 0.201558 0.676602 0.278455
Si Si4 0.301967 0.820890 0.875320
Si Si5 0.500000 0.687500 0.023517
Si Si6 0.500000 0.684111 0.126631
O O1 0.186747 0.500000 0.967439
O O2 0.211026 0.735468 0.915284
O O3 0.000000 0.737019 0.981591
O O4 0.335218 0.740642 0.996917
O O5 0.200349 0.500000 0.679485
O O6 0.243227 0.268907 0.733998
O O7 0.332300 0.244167 0.650900
O O8 0.000000 0.267085 0.676017
O O9 0.260888 0.500000 0.273352
O O10 0.268348 0.738461 0.325440
O O11 0.000000 0.674511 0.281923
O O12 0.500000 0.812906 0.884048
O O13 0.249705 0.000000 0.875394
O O14 0.500000 0.500000 0.022666
O O15 0.500000 0.733459 0.074953
O O16 0.500000 0.500000 0.128499
#
# Coordination Sequence:
#
# PCOD9357786 Si02
#       6
#     8   8   8   8   4   4
#     4  10  20  36  59  83 110 146 186 230 282 335
#     4  10  22  40  60  86 121 155 190 236 291 349
#     4   9  18  33  53  79 113 152 194 236 275 326
#     4  10  20  33  52  82 118 153 189 229 274 327
#     4   9  20  39  58  83 112 139 182 239 288 335
#     4  11  23  39  64  89 112 147 194 245 294 347
#
# _framework density 19.192111000000001
#
# number of rings (size 3 to 8) (size 9 to 14) (size 15 to 20)
#    0.000    2.200    1.000    1.500    1.400    4.000 
#    0.000    6.000    0.000    0.000    0.000    0.000 
#    0.000    0.000    0.000    0.000    0.000    0.000 
#
# Total GULP energy -111628.876492 kJ/mol
# GULP energy per Si atom -5581.443825 kJ/mol
# Density = 1.914843 g / cm^3
# Si number density = 19.192111 Si / 1000 Ang^3
#
#
#
# Elastic Constant Matrix: (Units=GPa)
#
#
# Indices 1 2 3 4 5 6 
#
# 1 132.2666 32.3159 93.4342 0.0000 0.0000 0.0000
# 2 32.3159 25.0825 26.5036 0.0000 0.0000 0.0000
# 3 93.4342 26.5036 148.4998 0.0000 0.0000 0.0000
# 4 0.0000 0.0000 0.0000 25.4642 0.0000 0.0000
# 5 0.0000 0.0000 0.0000 0.0000 -6.9557 0.0000
# 6 0.0000 0.0000 0.0000 0.0000 0.0000 18.6474
#
#
#
# Elastic Compliance Matrix: (Units=1/GPa)
#
#
# Indices 1 2 3 4 5 6 
#
# 1 0.016271 -0.012504 -0.008006 0.000000 0.000000 0.000000
# 2 -0.012504 0.058743 -0.002617 0.000000 0.000000 0.000000
# 3 -0.008006 -0.002617 0.012238 0.000000 0.000000 0.000000
# 4 0.000000 0.000000 0.000000 0.039271 0.000000 0.000000
# 5 0.000000 0.000000 0.000000 0.000000 -0.143766 0.000000
# 6 0.000000 0.000000 0.000000 0.000000 0.000000 0.053627
#
#
# Mechanical properties :
#
#
# Convention : Reuss Voigt Hill
#
# Bulk Modulus (GPa) = 24.39065 67.81736 46.10400
# Shear Modulus (GPa) = 51.91908 17.67085 34.79497
#
# Velocity S-wave (km/s) = 5.20683 3.03765 4.26253
# Velocity P-wave (km/s) = 6.99173 6.90767 6.94983
#
# Compressibility (1/GPa) = 0.04099932
#
# Stress axis : x y z
#
# Youngs Moduli (GPa) = 61.45987 17.02318 81.71113
#
# Poissons Ratio (x) = 0.21285 0.65416
# Poissons Ratio (y) = 0.76848 0.21385
# Poissons Ratio (z) = 0.49203 0.04455
#
# Static dielectric constant tensor:
#      x y z
#    x 1.683940 0.000000 0.000000 
#    y 0.000000 1.660110 0.000000 
#    z 0.000000 0.000000 1.644390 
# 
# From -- ./inp_files/23230.got.cif
#   From: 2010.05.17/outbox.cif.g08.bks.cpg/sg38_12_cif.got.tgz:23230.got - 2010.06.03 18:07:57.
