data_PCOD9357135
_publ_section_title
;
Structure prediction by ZEFSAII (Michael W. Deem and Ramdas Pophale) SiO2 
 PCOD9357135
Probable space group: A M M 2
;
_chemical_formula_sum "Si O2"
_cell_formula_units_Z 40
_cell_length_a 13.443134
_cell_length_b 20.138500
_cell_length_c 8.135140
_cell_angle_alpha 90.000000
_cell_angle_beta 90.000000
_cell_angle_gamma 90.000000
_cell_volume 2202.382149
_symmetry_space_group_name_H-M "A M M 2"
_symmetry_group_IT_number 38
_symmetry_cell_setting 'orthorhombic'
loop_
_space_group_symop_operation_xyz
x,y,z
-x,-y,z
-x,y,z
x,-y,z
x,1/2+y,1/2+z
-x,1/2-y,1/2+z
-x,1/2+y,1/2+z
x,1/2-y,1/2+z
loop_
_atom_site_type_symbol
_atom_site_label
_atom_site_fract_x
_atom_site_fract_y
_atom_site_fract_z
Si Si1 0.500000 0.648729 0.800990
Si Si2 0.890163 0.148664 0.271959
Si Si3 0.182088 0.724446 0.080669
Si Si4 0.695224 0.679945 0.371809
Si Si5 0.307248 0.078479 0.163110
Si Si6 0.500000 0.710565 0.164990
O O1 0.400183 0.606947 0.767254
O O2 0.500000 0.709350 0.670119
O O3 0.500000 0.679861 0.983261
O O4 0.874983 0.210763 0.147237
O O5 0.877561 0.181351 0.451059
O O6 0.797759 0.099860 0.243150
O O7 0.000000 0.119866 0.250663
O O8 0.217620 0.681908 0.236022
O O9 0.278061 0.756213 0.986269
O O10 0.690968 0.616566 0.488526
O O11 0.595390 0.688634 0.269805
O O12 0.315396 0.000000 0.146258
#
# Coordination Sequence:
#
# PCOD9357135 Si02
#       6
#     4   8   8   8   8   4
#     4  12  23  37  60  86 113 141 175 226 279 328
#     4  10  19  34  59  85 112 143 178 228 279 325
#     4   9  18  33  54  87 115 135 173 228 287 329
#     4  10  19  33  55  82 115 145 175 223 276 327
#     4  11  24  40  55  75 111 155 192 220 258 322
#     4  12  20  33  60  90 110 133 175 230 287 330
#
# _framework density 18.162151999999999
#
# number of rings (size 3 to 8) (size 9 to 14) (size 15 to 20)
#    0.000    1.600    0.000    8.700    0.000    0.400 
#    0.000    6.000    0.000    0.000    0.000    0.000 
#    0.000    0.000    0.000    0.000    0.000    0.000 
#
# Total GULP energy -111700.285166 kJ/mol
# GULP energy per Si atom -5585.014258 kJ/mol
# Density = 1.812081 g / cm^3
# Si number density = 18.162152 Si / 1000 Ang^3
#
#
#
# Elastic Constant Matrix: (Units=GPa)
#
#
# Indices 1 2 3 4 5 6 
#
# 1 143.1540 52.6814 41.2143 0.0000 0.0000 0.0000
# 2 52.6814 104.1034 40.6597 0.0000 0.0000 0.0000
# 3 41.2143 40.6597 110.3163 0.0000 0.0000 0.0000
# 4 0.0000 0.0000 0.0000 15.1346 0.0000 0.0000
# 5 0.0000 0.0000 0.0000 0.0000 12.8071 0.0000
# 6 0.0000 0.0000 0.0000 0.0000 0.0000 6.1387
#
#
#
# Elastic Compliance Matrix: (Units=1/GPa)
#
#
# Indices 1 2 3 4 5 6 
#
# 1 0.008930 -0.003757 -0.001952 0.000000 0.000000 0.000000
# 2 -0.003757 0.012802 -0.003315 0.000000 0.000000 0.000000
# 3 -0.001952 -0.003315 0.011016 0.000000 0.000000 0.000000
# 4 0.000000 0.000000 0.000000 0.066074 0.000000 0.000000
# 5 0.000000 0.000000 0.000000 0.000000 0.078082 0.000000
# 6 0.000000 0.000000 0.000000 0.000000 0.000000 0.162901
#
#
# Mechanical properties :
#
#
# Convention : Reuss Voigt Hill
#
# Bulk Modulus (GPa) = 68.02290 69.63161 68.82725
# Shear Modulus (GPa) = 13.78359 21.68396 17.73377
#
# Velocity S-wave (km/s) = 2.75784 3.45905 3.12815
# Velocity P-wave (km/s) = 6.90473 7.37397 7.14320
#
# Compressibility (1/GPa) = 0.01470093
#
# Stress axis : x y z
#
# Youngs Moduli (GPa) = 111.98420 78.11530 90.77942
#
# Poissons Ratio (x) = 0.29346 0.17716
# Poissons Ratio (y) = 0.42069 0.30092
# Poissons Ratio (z) = 0.21855 0.25894
#
# Static dielectric constant tensor:
#      x y z
#    x 1.683640 0.000000 0.000000 
#    y 0.000000 1.578760 0.000000 
#    z 0.000000 0.000000 1.639690 
# 
# From -- ./inp_files/4474.got.cif
#   From: 2010.05.17/outbox.cif.g08.bks.cpg/sg38_3_cif.got.tgz:4474.got - 2010.06.03 18:07:57.
