data_PCOD9357553
_publ_section_title
;
Structure prediction by ZEFSAII (Michael W. Deem and Ramdas Pophale) SiO2 
 PCOD9357553
Probable space group: A M M 2
;
_chemical_formula_sum "Si O2"
_cell_formula_units_Z 48
_cell_length_a 9.019190
_cell_length_b 23.775208
_cell_length_c 14.142359
_cell_angle_alpha 90.000000
_cell_angle_beta 90.000000
_cell_angle_gamma 90.000000
_cell_volume 3032.590140
_symmetry_space_group_name_H-M "A M M 2"
_symmetry_group_IT_number 38
_symmetry_cell_setting 'orthorhombic'
loop_
_space_group_symop_operation_xyz
x,y,z
-x,-y,z
-x,y,z
x,-y,z
x,1/2+y,1/2+z
-x,1/2-y,1/2+z
-x,1/2+y,1/2+z
x,1/2-y,1/2+z
loop_
_atom_site_type_symbol
_atom_site_label
_atom_site_fract_x
_atom_site_fract_y
_atom_site_fract_z
Si Si1 0.324484 0.565662 0.051260
Si Si2 0.175985 0.433666 0.849565
Si Si3 0.175372 0.340635 0.169394
Si Si4 0.676698 0.164506 0.238755
Si Si5 0.176642 0.276958 0.565656
Si Si6 0.822061 0.732154 0.347538
O O1 0.500000 0.572563 0.036546
O O2 0.295532 0.500000 0.073073
O O3 0.267104 0.606880 0.132305
O O4 0.239840 0.579381 0.953752
O O5 0.202173 0.500000 0.832317
O O6 0.256267 0.394017 0.774619
O O7 0.000000 0.423374 0.848400
O O8 0.203845 0.286669 0.102028
O O9 0.210206 0.318343 0.274560
O O10 0.000000 0.353329 0.164320
O O11 0.500000 0.163613 0.241097
O O12 0.735659 0.182084 0.135417
O O13 0.738921 0.212967 0.308846
O O14 0.215338 0.281165 0.455579
O O15 0.000000 0.287130 0.576812
O O16 0.000000 0.742895 0.342021
#
# Coordination Sequence:
#
# PCOD9357553 Si02
#       6
#     8   8   8   8   8   8
#     4  10  20  32  47  70  99 128 158 196 242 288
#     4  10  20  34  52  71  93 125 162 198 236 280
#     4   9  17  29  48  73  97 125 160 196 236 282
#     4  11  21  31  48  74 102 128 154 192 241 289
#     4   9  18  33  51  70  95 126 160 196 234 280
#     4   9  18  33  52  72  96 128 164 200 235 275
#
# _framework density 15.828054
#
# number of rings (size 3 to 8) (size 9 to 14) (size 15 to 20)
#    0.000    2.333    0.000    4.500    0.000    6.667 
#    0.000    0.000    0.000    1.000    0.000    2.333 
#    0.000    0.000    0.000    0.000    0.000    0.000 
#
# Total GULP energy -133918.112296 kJ/mol
# GULP energy per Si atom -5579.921346 kJ/mol
# Density = 1.579203 g / cm^3
# Si number density = 15.828054 Si / 1000 Ang^3
#
#
#
# Elastic Constant Matrix: (Units=GPa)
#
#
# Indices 1 2 3 4 5 6 
#
# 1 73.1786 54.5941 62.9543 0.0000 0.0000 0.0000
# 2 54.5941 67.6420 62.7946 0.0000 0.0000 0.0000
# 3 62.9543 62.7946 141.1006 0.0000 0.0000 0.0000
# 4 0.0000 0.0000 0.0000 21.6673 0.0000 0.0000
# 5 0.0000 0.0000 0.0000 0.0000 11.5453 0.0000
# 6 0.0000 0.0000 0.0000 0.0000 0.0000 25.1206
#
#
#
# Elastic Compliance Matrix: (Units=1/GPa)
#
#
# Indices 1 2 3 4 5 6 
#
# 1 0.036635 -0.024528 -0.005430 0.000000 0.000000 0.000000
# 2 -0.024528 0.041613 -0.007576 0.000000 0.000000 0.000000
# 3 -0.005430 -0.007576 0.012881 0.000000 0.000000 0.000000
# 4 0.000000 0.000000 0.000000 0.046152 0.000000 0.000000
# 5 0.000000 0.000000 0.000000 0.000000 0.086616 0.000000
# 6 0.000000 0.000000 0.000000 0.000000 0.000000 0.039808
#
#
# Mechanical properties :
#
#
# Convention : Reuss Voigt Hill
#
# Bulk Modulus (GPa) = 62.25529 71.40080 66.82804
# Shear Modulus (GPa) = 14.52961 18.43852 16.48406
#
# Velocity S-wave (km/s) = 3.03308 3.41680 3.23065
# Velocity P-wave (km/s) = 7.18914 7.79579 7.49860
#
# Compressibility (1/GPa) = 0.01606289
#
# Stress axis : x y z
#
# Youngs Moduli (GPa) = 27.29656 24.03098 77.63295
#
# Poissons Ratio (x) = 0.58942 0.42151
# Poissons Ratio (y) = 0.66952 0.58814
# Poissons Ratio (z) = 0.14821 0.18206
#
# Static dielectric constant tensor:
#      x y z
#    x 1.524570 0.000000 0.000000 
#    y 0.000000 1.511990 0.000000 
#    z 0.000000 0.000000 1.519020 
# 
# From -- ./inp_files/12236.got.cif
#   From: 2010.05.17/outbox.cif.g08.bks.cpg/sg38_7_cif.got.tgz:12236.got - 2010.06.03 18:07:57.
