data_PCOD9357409
_publ_section_title
;
Structure prediction by ZEFSAII (Michael W. Deem and Ramdas Pophale) SiO2 
 PCOD9357409
Probable space group: A M M 2
;
_chemical_formula_sum "Si O2"
_cell_formula_units_Z 48
_cell_length_a 19.894673
_cell_length_b 7.659649
_cell_length_c 15.278224
_cell_angle_alpha 90.000000
_cell_angle_beta 90.000000
_cell_angle_gamma 90.000000
_cell_volume 2328.190684
_symmetry_space_group_name_H-M "A M M 2"
_symmetry_group_IT_number 38
_symmetry_cell_setting 'orthorhombic'
loop_
_space_group_symop_operation_xyz
x,y,z
-x,-y,z
-x,y,z
x,-y,z
x,1/2+y,1/2+z
-x,1/2-y,1/2+z
-x,1/2+y,1/2+z
x,1/2-y,1/2+z
loop_
_atom_site_type_symbol
_atom_site_label
_atom_site_fract_x
_atom_site_fract_y
_atom_site_fract_z
Si Si1 0.104586 0.286389 0.984520
Si Si2 0.000000 0.209282 0.630853
Si Si3 0.000000 0.790741 0.338007
Si Si4 0.500000 0.802553 0.364323
Si Si5 0.645616 0.704868 0.826760
Si Si6 0.356499 0.790941 0.632917
Si Si7 0.500000 0.699354 0.557798
Si Si8 0.258116 0.213791 0.477772
O O1 0.104533 0.500000 0.984676
O O2 0.063863 0.231647 0.896960
O O3 0.181432 0.226809 0.983463
O O4 0.063936 0.231315 0.072029
O O5 0.000000 0.249829 0.734450
O O6 0.000000 0.000000 0.626289
O O7 0.000000 0.000000 0.342366
O O8 0.429314 0.717802 0.337862
O O9 0.500000 0.810618 0.469398
O O10 0.500000 0.000000 0.326126
O O11 0.638363 0.500000 0.850020
O O12 0.665295 0.723353 0.726861
O O13 0.701930 0.774557 0.891795
O O14 0.432257 0.732552 0.611369
O O15 0.304799 0.732535 0.558627
O O16 0.356656 0.000000 0.634010
O O17 0.500000 0.500000 0.528247
O O18 0.255758 0.000000 0.477309
#
# Coordination Sequence:
#
# PCOD9357409 Si02
#       8
#     8   4   4   4   8   8   4   8
#     4   8  16  32  52  76 106 145 182 209 252 320
#     4   9  17  31  54  80 108 141 179 217 256 306
#     4   9  17  31  54  80 106 137 179 221 256 306
#     4  10  19  36  57  76 102 136 177 217 268 319
#     4  10  20  35  55  78 105 139 176 219 269 320
#     4  11  22  37  56  79 105 138 179 222 269 320
#     4  12  23  36  57  80 104 136 177 225 270 315
#     4   9  18  34  55  76 106 144 178 214 263 320
#
# _framework density 20.616868
#
# number of rings (size 3 to 8) (size 9 to 14) (size 15 to 20)
#    0.000    2.333    1.667    2.750    0.000    2.667 
#    0.000    1.667    0.000    4.000    0.000    0.000 
#    0.000    0.000    0.000    0.000    0.000    0.000 
#
# Total GULP energy -133932.233191 kJ/mol
# GULP energy per Si atom -5580.509716 kJ/mol
# Density = 2.056994 g / cm^3
# Si number density = 20.616868 Si / 1000 Ang^3
#
#
#
# Elastic Constant Matrix: (Units=GPa)
#
#
# Indices 1 2 3 4 5 6 
#
# 1 209.3391 5.2968 103.8319 0.0000 0.0000 0.0000
# 2 5.2968 37.3956 -16.8696 0.0000 0.0000 0.0000
# 3 103.8319 -16.8696 176.0604 0.0000 0.0000 0.0000
# 4 0.0000 0.0000 0.0000 12.0051 0.0000 0.0000
# 5 0.0000 0.0000 0.0000 0.0000 14.7183 0.0000
# 6 0.0000 0.0000 0.0000 0.0000 0.0000 -7.5469
#
#
#
# Elastic Compliance Matrix: (Units=1/GPa)
#
#
# Indices 1 2 3 4 5 6 
#
# 1 0.007062 -0.003009 -0.004453 0.000000 0.000000 0.000000
# 2 -0.003009 0.029231 0.004575 0.000000 0.000000 0.000000
# 3 -0.004453 0.004575 0.008744 0.000000 0.000000 0.000000
# 4 0.000000 0.000000 0.000000 0.083298 0.000000 0.000000
# 5 0.000000 0.000000 0.000000 0.000000 0.067943 0.000000
# 6 0.000000 0.000000 0.000000 0.000000 0.000000 -0.132505
#
#
# Mechanical properties :
#
#
# Convention : Reuss Voigt Hill
#
# Bulk Modulus (GPa) = 25.46839 67.47925 46.47382
# Shear Modulus (GPa) = 60.50740 25.87103 43.18921
#
# Velocity S-wave (km/s) = 5.42330 3.54623 4.58192
# Velocity P-wave (km/s) = 7.18305 7.04051 7.11214
#
# Compressibility (1/GPa) = 0.03926437
#
# Stress axis : x y z
#
# Youngs Moduli (GPa) = 141.60783 34.20984 114.35835
#
# Poissons Ratio (x) = 0.10294 0.50924
# Poissons Ratio (y) = 0.42611 -0.52324
# Poissons Ratio (z) = 0.63058 -0.15653
#
# Static dielectric constant tensor:
#      x y z
#    x 1.725910 0.000000 0.000000 
#    y 0.000000 1.780260 0.000000 
#    z 0.000000 0.000000 1.713280 
# 
# From -- ./inp_files/15125.got.cif
#   From: 2010.05.17/outbox.cif.g08.bks.cpg/sg38_8_cif.got.tgz:15125.got - 2010.06.03 18:07:57.
