data_PCOD9357159
_publ_section_title
;
Structure prediction by ZEFSAII (Michael W. Deem and Ramdas Pophale) SiO2 
 PCOD9357159
Probable space group: A M M 2
;
_chemical_formula_sum "Si O2"
_cell_formula_units_Z 64
_cell_length_a 20.094556
_cell_length_b 18.042018
_cell_length_c 9.740248
_cell_angle_alpha 90.000000
_cell_angle_beta 90.000000
_cell_angle_gamma 90.000000
_cell_volume 3531.291273
_symmetry_space_group_name_H-M "A M M 2"
_symmetry_group_IT_number 38
_symmetry_cell_setting 'orthorhombic'
loop_
_space_group_symop_operation_xyz
x,y,z
-x,-y,z
-x,y,z
x,-y,z
x,1/2+y,1/2+z
-x,1/2-y,1/2+z
-x,1/2+y,1/2+z
x,1/2-y,1/2+z
loop_
_atom_site_type_symbol
_atom_site_label
_atom_site_fract_x
_atom_site_fract_y
_atom_site_fract_z
Si Si1 0.344204 0.313191 0.012810
Si Si2 0.818668 0.666105 0.625239
Si Si3 0.578940 0.084751 0.306950
Si Si4 0.843837 0.912333 0.683836
Si Si5 0.667347 0.861315 0.059319
Si Si6 0.924851 0.089076 0.945707
Si Si7 0.309653 0.585341 0.258530
Si Si8 0.809079 0.312042 0.941292
O O1 0.351148 0.225475 0.037207
O O2 0.343347 0.356535 0.156661
O O3 0.396328 0.353669 0.914744
O O4 0.270682 0.324955 0.947429
O O5 0.743512 0.635233 0.613276
O O6 0.874421 0.612191 0.565311
O O7 0.830210 0.688136 0.783306
O O8 0.820342 0.736178 0.523240
O O9 0.500000 0.089966 0.287132
O O10 0.618242 0.101479 0.167088
O O11 0.594456 0.000000 0.352627
O O12 0.895583 0.885148 0.798480
O O13 0.769818 0.900289 0.746729
O O14 0.844312 0.873078 0.536825
O O15 0.852661 0.000000 0.665693
O O16 0.667152 0.900730 0.912447
O O17 0.000000 0.116150 0.967413
O O18 0.925899 0.000000 0.939723
O O19 0.321023 0.500000 0.217185
#
# Coordination Sequence:
#
# PCOD9357159 Si02
#       8
#     8   8   8   8   8   8   8   8
#     4  10  21  37  59  85 114 154 193 244 299 355
#     4  11  21  36  59  86 118 154 195 249 296 348
#     4  11  24  41  58  84 123 160 197 246 306 365
#     4   9  18  34  55  84 115 147 189 239 290 347
#     4  11  21  36  61  88 115 153 199 249 297 352
#     4  10  21  38  59  85 121 162 199 241 298 359
#     4  10  19  33  56  85 115 143 192 245 290 344
#     4  10  21  35  59  88 115 149 190 248 294 350
#
# _framework density 18.123681999999999
#
# number of rings (size 3 to 8) (size 9 to 14) (size 15 to 20)
#    0.000    1.750    2.500    2.250    7.000    2.000 
#    0.000    3.750    0.000    3.750    0.000    0.000 
#    0.000    0.000    0.000    0.000    0.000    0.000 
#
# Total GULP energy -178628.811150 kJ/mol
# GULP energy per Si atom -5582.150348 kJ/mol
# Density = 1.808243 g / cm^3
# Si number density = 18.123682 Si / 1000 Ang^3
#
#
#
# Elastic Constant Matrix: (Units=GPa)
#
#
# Indices 1 2 3 4 5 6 
#
# 1 79.2908 36.3120 38.7042 0.0000 0.0000 0.0000
# 2 36.3120 44.6295 10.5815 0.0000 0.0000 0.0000
# 3 38.7042 10.5815 95.9486 0.0000 0.0000 0.0000
# 4 0.0000 0.0000 0.0000 28.0194 0.0000 0.0000
# 5 0.0000 0.0000 0.0000 0.0000 19.7084 0.0000
# 6 0.0000 0.0000 0.0000 0.0000 0.0000 22.6988
#
#
#
# Elastic Compliance Matrix: (Units=1/GPa)
#
#
# Indices 1 2 3 4 5 6 
#
# 1 0.024967 -0.018407 -0.008041 0.000000 0.000000 0.000000
# 2 -0.018407 0.036579 0.003391 0.000000 0.000000 0.000000
# 3 -0.008041 0.003391 0.013292 0.000000 0.000000 0.000000
# 4 0.000000 0.000000 0.000000 0.035690 0.000000 0.000000
# 5 0.000000 0.000000 0.000000 0.000000 0.050740 0.000000
# 6 0.000000 0.000000 0.000000 0.000000 0.000000 0.044055
#
#
# Mechanical properties :
#
#
# Convention : Reuss Voigt Hill
#
# Bulk Modulus (GPa) = 34.81471 43.45157 39.13314
# Shear Modulus (GPa) = 19.15625 23.03674 21.09649
#
# Velocity S-wave (km/s) = 3.25464 3.56910 3.41549
# Velocity P-wave (km/s) = 5.77709 6.40403 6.09862
#
# Compressibility (1/GPa) = 0.02872349
#
# Stress axis : x y z
#
# Youngs Moduli (GPa) = 40.05339 27.33786 75.23346
#
# Poissons Ratio (x) = 0.50321 0.60497
# Poissons Ratio (y) = 0.73727 -0.25512
# Poissons Ratio (z) = 0.32208 -0.09271
#
# Static dielectric constant tensor:
#      x y z
#    x 1.610240 0.000000 0.000000 
#    y 0.000000 1.638460 0.000000 
#    z 0.000000 0.000000 1.610300 
# 
# From -- ./inp_files/6831.got.cif
#   From: 2010.05.17/outbox.cif.g08.bks.cpg/sg38_4_cif.got.tgz:6831.got - 2010.06.03 18:07:57.
