data_PCOD9357170
_publ_section_title
;
Structure prediction by ZEFSAII (Michael W. Deem and Ramdas Pophale) SiO2 
 PCOD9357170
Probable space group: A M M 2
;
_chemical_formula_sum "Si O2"
_cell_formula_units_Z 56
_cell_length_a 10.972573
_cell_length_b 20.185173
_cell_length_c 13.584327
_cell_angle_alpha 90.000000
_cell_angle_beta 90.000000
_cell_angle_gamma 90.000000
_cell_volume 3008.701358
_symmetry_space_group_name_H-M "A M M 2"
_symmetry_group_IT_number 38
_symmetry_cell_setting 'orthorhombic'
loop_
_space_group_symop_operation_xyz
x,y,z
-x,-y,z
-x,y,z
x,-y,z
x,1/2+y,1/2+z
-x,1/2-y,1/2+z
-x,1/2+y,1/2+z
x,1/2-y,1/2+z
loop_
_atom_site_type_symbol
_atom_site_label
_atom_site_fract_x
_atom_site_fract_y
_atom_site_fract_z
Si Si1 0.356736 0.572284 0.075130
Si Si2 0.129899 0.224831 0.699515
Si Si3 0.133883 0.635986 0.785564
Si Si4 0.359541 0.077860 0.182127
Si Si5 0.359749 0.645234 0.272879
Si Si6 0.358874 0.331911 0.491055
Si Si7 0.212796 0.305640 0.989913
O O1 0.500000 0.570517 0.054966
O O2 0.303489 0.500000 0.051426
O O3 0.343164 0.587984 0.191854
O O4 0.301635 0.633496 0.016544
O O5 0.133896 0.303743 0.707769
O O6 0.253423 0.197222 0.747597
O O7 0.131911 0.201823 0.587082
O O8 0.000000 0.203068 0.745499
O O9 0.253756 0.593708 0.760907
O O10 0.000000 0.602801 0.781430
O O11 0.147751 0.673086 0.890053
O O12 0.500000 0.092817 0.214726
O O13 0.334225 0.121949 0.084932
O O14 0.355425 0.000000 0.158160
O O15 0.500000 0.670488 0.258947
O O16 0.346858 0.628791 0.387797
O O17 0.500000 0.310993 0.499631
O O18 0.281263 0.264787 0.482637
#
# Coordination Sequence:
#
# PCOD9357170 Si02
#       7
#     8   8   8   8   8   8   8
#     4   9  19  34  53  81 117 153 189 230 281 340
#     4  10  20  35  55  83 116 146 181 232 287 339
#     4  11  23  38  59  86 117 153 192 239 293 348
#     4  10  23  42  61  84 119 161 201 243 293 351
#     4   9  18  33  56  84 113 146 186 233 287 337
#     4  10  19  33  57  89 116 146 190 245 296 344
#     4  11  20  35  57  85 114 150 188 241 288 349
#
# _framework density 18.612683000000001
#
# number of rings (size 3 to 8) (size 9 to 14) (size 15 to 20)
#    0.000    2.000    2.857    0.857    0.000    3.714 
#    0.000    5.000    0.000   10.286    0.000    0.000 
#    0.000    0.000    0.000    0.000    0.000    0.000 
#
# Total GULP energy -155921.302909 kJ/mol
# GULP energy per Si atom -5568.617961 kJ/mol
# Density = 1.857032 g / cm^3
# Si number density = 18.612683 Si / 1000 Ang^3
#
#
#
# Elastic Constant Matrix: (Units=GPa)
#
#
# Indices 1 2 3 4 5 6 
#
# 1 110.3091 32.0462 41.4763 0.0000 0.0000 0.0000
# 2 32.0462 71.4458 15.0968 0.0000 0.0000 0.0000
# 3 41.4763 15.0968 68.7002 0.0000 0.0000 0.0000
# 4 0.0000 0.0000 0.0000 8.0855 0.0000 0.0000
# 5 0.0000 0.0000 0.0000 0.0000 8.7979 0.0000
# 6 0.0000 0.0000 0.0000 0.0000 0.0000 13.6381
#
#
#
# Elastic Compliance Matrix: (Units=1/GPa)
#
#
# Indices 1 2 3 4 5 6 
#
# 1 0.012895 -0.004340 -0.006831 0.000000 0.000000 0.000000
# 2 -0.004340 0.016139 -0.000926 0.000000 0.000000 0.000000
# 3 -0.006831 -0.000926 0.018884 0.000000 0.000000 0.000000
# 4 0.000000 0.000000 0.000000 0.123678 0.000000 0.000000
# 5 0.000000 0.000000 0.000000 0.000000 0.113664 0.000000
# 6 0.000000 0.000000 0.000000 0.000000 0.000000 0.073324
#
#
# Mechanical properties :
#
#
# Convention : Reuss Voigt Hill
#
# Bulk Modulus (GPa) = 42.15454 47.52154 44.83804
# Shear Modulus (GPa) = 12.79798 16.89336 14.84567
#
# Velocity S-wave (km/s) = 2.62505 3.01595 2.82726
# Velocity P-wave (km/s) = 5.64671 6.14127 5.89917
#
# Compressibility (1/GPa) = 0.02372224
#
# Stress axis : x y z
#
# Youngs Moduli (GPa) = 77.54987 61.96114 52.95565
#
# Poissons Ratio (x) = 0.26894 0.36175
# Poissons Ratio (y) = 0.33660 0.04904
# Poissons Ratio (z) = 0.52976 0.05739
#
# Static dielectric constant tensor:
#      x y z
#    x 1.681720 0.000000 0.000000 
#    y 0.000000 1.627870 0.000000 
#    z 0.000000 0.000000 1.664370 
# 
# From -- ./inp_files/9384.got.cif
#   From: 2010.05.17/outbox.cif.g08.bks.cpg/sg38_5_cif.got.tgz:9384.got - 2010.06.03 18:07:57.
