data_PCOD9357842
_publ_section_title
;
Structure prediction by ZEFSAII (Michael W. Deem and Ramdas Pophale) SiO2 
 PCOD9357842
Probable space group: A M M 2
;
_chemical_formula_sum "Si O2"
_cell_formula_units_Z 64
_cell_length_a 14.575714
_cell_length_b 8.740298
_cell_length_c 32.246515
_cell_angle_alpha 90.000000
_cell_angle_beta 90.000000
_cell_angle_gamma 90.000000
_cell_volume 4108.079731
_symmetry_space_group_name_H-M "A M M 2"
_symmetry_group_IT_number 38
_symmetry_cell_setting 'orthorhombic'
loop_
_space_group_symop_operation_xyz
x,y,z
-x,-y,z
-x,y,z
x,-y,z
x,1/2+y,1/2+z
-x,1/2-y,1/2+z
-x,1/2+y,1/2+z
x,1/2-y,1/2+z
loop_
_atom_site_type_symbol
_atom_site_label
_atom_site_fract_x
_atom_site_fract_y
_atom_site_fract_z
Si Si1 0.783926 0.183317 0.375000
Si Si2 0.605086 0.682899 0.003361
Si Si3 0.892301 0.314347 0.115692
Si Si4 0.888620 0.822466 0.706613
Si Si5 0.892599 0.814396 0.797467
Si Si6 0.107530 0.684401 0.958844
Si Si7 0.395066 0.817102 0.911052
Si Si8 0.214734 0.817920 0.037741
O O1 0.832546 0.248319 0.334340
O O2 0.842671 0.227720 0.415948
O O3 0.682226 0.248513 0.381560
O O4 0.781540 0.000000 0.373327
O O5 0.500000 0.718502 0.015438
O O6 0.616097 0.500000 0.002362
O O7 0.618819 0.746750 0.956848
O O8 0.682295 0.755638 0.032079
O O9 0.886828 0.500000 0.115300
O O10 0.862371 0.258054 0.161662
O O11 0.832728 0.247099 0.078856
O O12 0.000000 0.275528 0.109738
O O13 0.862213 0.757963 0.751536
O O14 0.000000 0.823197 0.706656
O O15 0.859113 0.000000 0.706541
O O16 0.000000 0.773428 0.803388
O O17 0.887960 0.000000 0.797473
O O18 0.114523 0.500000 0.963147
O O19 0.000000 0.724576 0.957701
O O20 0.157706 0.759495 0.997837
O O21 0.500000 0.781861 0.898519
O O22 0.385326 0.000000 0.913610
O O23 0.214697 0.000000 0.038325
#
# Coordination Sequence:
#
# PCOD9357842 Si02
#       8
#     8   8   8   8   8   8   8   8
#     4  11  21  32  48  70  97 131 167 197 234 286
#     4  10  20  35  54  72  91 120 159 200 241 286
#     4   9  17  31  51  71  95 129 167 203 238 281
#     4   7  12  26  48  71  92 121 162 203 241 281
#     4   9  17  30  49  72  99 129 163 203 243 283
#     4  10  21  35  47  61  90 133 173 201 227 269
#     4  10  20  34  52  73  95 120 155 201 248 287
#     4  12  23  32  46  70  99 129 161 197 241 288
#
# _framework density 15.579055
#
# number of rings (size 3 to 8) (size 9 to 14) (size 15 to 20)
#    0.000    2.250    1.250    4.500    0.000    4.750 
#    0.000    0.625    0.000    2.250    0.000    0.875 
#    0.000    7.000    0.000    0.000    0.000    0.000 
#
# Total GULP energy -178444.198439 kJ/mol
# GULP energy per Si atom -5576.381201 kJ/mol
# Density = 1.554360 g / cm^3
# Si number density = 15.579055 Si / 1000 Ang^3
#
#
#
# Elastic Constant Matrix: (Units=GPa)
#
#
# Indices 1 2 3 4 5 6 
#
# 1 108.5733 41.8867 80.1115 0.0000 0.0000 0.0000
# 2 41.8867 37.0364 43.5032 0.0000 0.0000 0.0000
# 3 80.1115 43.5032 156.7801 0.0000 0.0000 0.0000
# 4 0.0000 0.0000 0.0000 20.9125 0.0000 0.0000
# 5 0.0000 0.0000 0.0000 0.0000 7.2868 0.0000
# 6 0.0000 0.0000 0.0000 0.0000 0.0000 18.5399
#
#
#
# Elastic Compliance Matrix: (Units=1/GPa)
#
#
# Indices 1 2 3 4 5 6 
#
# 1 0.019172 -0.015096 -0.005608 0.000000 0.000000 0.000000
# 2 -0.015096 0.051942 -0.006699 0.000000 0.000000 0.000000
# 3 -0.005608 -0.006699 0.011103 0.000000 0.000000 0.000000
# 4 0.000000 0.000000 0.000000 0.047818 0.000000 0.000000
# 5 0.000000 0.000000 0.000000 0.000000 0.137235 0.000000
# 6 0.000000 0.000000 0.000000 0.000000 0.000000 0.053938
#
#
# Mechanical properties :
#
#
# Convention : Reuss Voigt Hill
#
# Bulk Modulus (GPa) = 36.48128 70.37695 53.42911
# Shear Modulus (GPa) = 12.98196 18.47374 15.72785
#
# Velocity S-wave (km/s) = 2.88982 3.44729 3.18079
# Velocity P-wave (km/s) = 5.88238 7.81775 6.91808
#
# Compressibility (1/GPa) = 0.02741132
#
# Stress axis : x y z
#
# Youngs Moduli (GPa) = 52.15975 19.25217 90.06856
#
# Poissons Ratio (x) = 0.29063 0.50507
# Poissons Ratio (y) = 0.78739 0.60339
# Poissons Ratio (z) = 0.29249 0.12897
#
# Static dielectric constant tensor:
#      x y z
#    x 1.509160 0.000000 0.000000 
#    y 0.000000 1.525600 0.000000 
#    z 0.000000 0.000000 1.519960 
# 
# From -- ./inp_files/25086.got.cif
#   From: 2010.05.17/outbox.cif.g08.bks.cpg/sg38_13_cif.got.tgz:25086.got - 2010.06.03 18:07:57.
