data_PCOD9357252
_publ_section_title
;
Structure prediction by ZEFSAII (Michael W. Deem and Ramdas Pophale) SiO2 
 PCOD9357252
Probable space group: A M M 2
;
_chemical_formula_sum "Si O2"
_cell_formula_units_Z 64
_cell_length_a 8.749668
_cell_length_b 25.488801
_cell_length_c 15.465001
_cell_angle_alpha 90.000000
_cell_angle_beta 90.000000
_cell_angle_gamma 90.000000
_cell_volume 3448.982044
_symmetry_space_group_name_H-M "A M M 2"
_symmetry_group_IT_number 38
_symmetry_cell_setting 'orthorhombic'
loop_
_space_group_symop_operation_xyz
x,y,z
-x,-y,z
-x,y,z
x,-y,z
x,1/2+y,1/2+z
-x,1/2-y,1/2+z
-x,1/2+y,1/2+z
x,1/2-y,1/2+z
loop_
_atom_site_type_symbol
_atom_site_label
_atom_site_fract_x
_atom_site_fract_y
_atom_site_fract_z
Si Si1 0.317438 0.646401 0.385030
Si Si2 0.182830 0.559550 0.258896
Si Si3 0.818202 0.717591 0.052918
Si Si4 0.316091 0.863418 0.249718
Si Si5 0.316481 0.265459 0.864974
Si Si6 0.682917 0.890944 0.588829
Si Si7 0.817494 0.337333 0.573159
Si Si8 0.686178 0.560460 0.904818
O O1 0.500000 0.641836 0.384171
O O2 0.245710 0.601228 0.327246
O O3 0.277777 0.704666 0.349021
O O4 0.257729 0.644890 0.483376
O O5 0.228379 0.500000 0.280760
O O6 0.246964 0.574788 0.165065
O O7 0.000000 0.562444 0.257061
O O8 0.767190 0.717387 0.952655
O O9 0.000000 0.711291 0.060171
O O10 0.735540 0.669180 0.098223
O O11 0.775440 0.775709 0.085413
O O12 0.500000 0.866540 0.240683
O O13 0.278433 0.806372 0.290094
O O14 0.240139 0.868365 0.156558
O O15 0.266725 0.906046 0.321220
O O16 0.500000 0.268940 0.880158
O O17 0.500000 0.893646 0.592824
O O18 0.733361 0.912220 0.494642
O O19 0.000000 0.340337 0.564910
O O20 0.500000 0.560972 0.905084
O O21 0.735823 0.500000 0.901634
#
# Coordination Sequence:
#
# PCOD9357252 Si02
#       8
#     8   8   8   8   8   8   8   8
#     4  10  21  39  63  88 113 149 197 247 295 350
#     4  11  25  43  61  85 119 154 192 243 298 354
#     4  10  20  34  53  82 118 155 192 233 288 351
#     4  10  19  34  56  84 117 152 194 244 291 342
#     4   9  18  34  55  84 115 148 191 239 291 343
#     4  11  21  36  59  86 118 156 196 240 285 345
#     4  10  22  38  56  83 119 158 195 240 296 354
#     4   9  18  34  57  84 114 149 190 236 284 333
#
# _framework density 18.556198999999999
#
# number of rings (size 3 to 8) (size 9 to 14) (size 15 to 20)
#    0.000    2.000    1.250    2.250    1.750    4.000 
#    0.000    0.625    0.000    4.125    0.000    0.000 
#    0.000    0.000    0.000    0.000    0.000    0.000 
#
# Total GULP energy -178714.664155 kJ/mol
# GULP energy per Si atom -5584.833255 kJ/mol
# Density = 1.851396 g / cm^3
# Si number density = 18.556199 Si / 1000 Ang^3
#
#
#
# Elastic Constant Matrix: (Units=GPa)
#
#
# Indices 1 2 3 4 5 6 
#
# 1 28.9390 36.8643 23.9915 0.0000 0.0000 0.0000
# 2 36.8643 119.1603 62.7286 0.0000 0.0000 0.0000
# 3 23.9915 62.7286 94.7844 0.0000 0.0000 0.0000
# 4 0.0000 0.0000 0.0000 26.8473 0.0000 0.0000
# 5 0.0000 0.0000 0.0000 0.0000 8.6782 0.0000
# 6 0.0000 0.0000 0.0000 0.0000 0.0000 21.0479
#
#
#
# Elastic Compliance Matrix: (Units=1/GPa)
#
#
# Indices 1 2 3 4 5 6 
#
# 1 0.058160 -0.015720 -0.004318 0.000000 0.000000 0.000000
# 2 -0.015720 0.017128 -0.007356 0.000000 0.000000 0.000000
# 3 -0.004318 -0.007356 0.016512 0.000000 0.000000 0.000000
# 4 0.000000 0.000000 0.000000 0.037248 0.000000 0.000000
# 5 0.000000 0.000000 0.000000 0.000000 0.115232 0.000000
# 6 0.000000 0.000000 0.000000 0.000000 0.000000 0.047511
#
#
# Mechanical properties :
#
#
# Convention : Reuss Voigt Hill
#
# Bulk Modulus (GPa) = 27.01864 54.45027 40.73446
# Shear Modulus (GPa) = 13.93090 19.26796 16.59943
#
# Velocity S-wave (km/s) = 2.74294 3.22585 2.99415
# Velocity P-wave (km/s) = 4.96222 6.57890 5.82690
#
# Compressibility (1/GPa) = 0.03701148
#
# Stress axis : x y z
#
# Youngs Moduli (GPa) = 17.19396 58.38487 60.56364
#
# Poissons Ratio (x) = 0.91780 0.26151
# Poissons Ratio (y) = 0.27029 0.44552
# Poissons Ratio (z) = 0.07424 0.42949
#
# Static dielectric constant tensor:
#      x y z
#    x 1.621910 0.000000 0.000000 
#    y 0.000000 1.643100 0.000000 
#    z 0.000000 0.000000 1.619220 
# 
# From -- ./inp_files/12818.got.cif
#   From: 2010.05.17/outbox.cif.g08.bks.cpg/sg38_7_cif.got.tgz:12818.got - 2010.06.03 18:07:57.
