data_PCOD9357086
_publ_section_title
;
Structure prediction by ZEFSAII (Michael W. Deem and Ramdas Pophale) SiO2 
 PCOD9357086
Probable space group: A M M 2
;
_chemical_formula_sum "Si O2"
_cell_formula_units_Z 64
_cell_length_a 16.750996
_cell_length_b 21.590197
_cell_length_c 9.028053
_cell_angle_alpha 90.000000
_cell_angle_beta 90.000000
_cell_angle_gamma 90.000000
_cell_volume 3265.061305
_symmetry_space_group_name_H-M "A M M 2"
_symmetry_group_IT_number 38
_symmetry_cell_setting 'orthorhombic'
loop_
_space_group_symop_operation_xyz
x,y,z
-x,-y,z
-x,y,z
x,-y,z
x,1/2+y,1/2+z
-x,1/2-y,1/2+z
-x,1/2+y,1/2+z
x,1/2-y,1/2+z
loop_
_atom_site_type_symbol
_atom_site_label
_atom_site_fract_x
_atom_site_fract_y
_atom_site_fract_z
Si Si1 0.820423 0.748527 0.357820
Si Si2 0.747628 0.571501 0.125588
Si Si3 0.333779 0.814465 0.726063
Si Si4 0.086154 0.802330 0.122723
Si Si5 0.849011 0.072241 0.104758
Si Si6 0.406707 0.211711 0.404582
Si Si7 0.273854 0.373357 0.815223
Si Si8 0.908794 0.426649 0.266725
O O1 0.752356 0.713077 0.268113
O O2 0.898774 0.757486 0.259852
O O3 0.843874 0.714482 0.507621
O O4 0.784037 0.817339 0.370093
O O5 0.744166 0.500000 0.169385
O O6 0.684098 0.612800 0.215822
O O7 0.838654 0.594818 0.156497
O O8 0.726942 0.579758 0.952734
O O9 0.365769 0.794446 0.565133
O O10 0.391354 0.780629 0.842118
O O11 0.094238 0.874127 0.170479
O O12 0.000000 0.792405 0.055858
O O13 0.763366 0.094405 0.169910
O O14 0.862596 0.000000 0.143517
O O15 0.869201 0.078710 0.930250
O O16 0.500000 0.198371 0.412134
O O17 0.358429 0.162070 0.302812
O O18 0.917308 0.500000 0.239229
O O19 0.000000 0.400963 0.261421
#
# Coordination Sequence:
#
# PCOD9357086 Si02
#       8
#     8   8   8   8   8   8   8   8
#     4  10  20  36  52  73 104 141 182 228 274 315
#     4  10  19  33  54  79 110 146 180 217 264 320
#     4  10  20  35  56  82 110 141 178 217 263 324
#     4  11  21  33  51  74 104 142 186 233 274 311
#     4  10  20  34  52  74 104 142 179 217 263 316
#     4  10  20  36  59  85 110 134 169 221 271 316
#     4   9  20  36  56  78 105 138 178 220 263 324
#     4   9  18  32  49  73 105 141 185 228 260 295
#
# _framework density 19.601469000000002
#
# number of rings (size 3 to 8) (size 9 to 14) (size 15 to 20)
#    0.000    2.125    0.000    4.500    0.000    2.750 
#    0.000    6.875    0.000   18.750    0.000    0.000 
#    0.000   41.000    0.000    0.000    0.000    0.000 
#
# Total GULP energy -178182.571177 kJ/mol
# GULP energy per Si atom -5568.205349 kJ/mol
# Density = 1.955686 g / cm^3
# Si number density = 19.601469 Si / 1000 Ang^3
#
#
#
# Elastic Constant Matrix: (Units=GPa)
#
#
# Indices 1 2 3 4 5 6 
#
# 1 86.8571 13.1185 31.7850 0.0000 0.0000 0.0000
# 2 13.1185 70.5915 26.6479 0.0000 0.0000 0.0000
# 3 31.7850 26.6479 36.3454 0.0000 0.0000 0.0000
# 4 0.0000 0.0000 0.0000 25.6165 0.0000 0.0000
# 5 0.0000 0.0000 0.0000 0.0000 10.0669 0.0000
# 6 0.0000 0.0000 0.0000 0.0000 0.0000 17.8142
#
#
#
# Elastic Compliance Matrix: (Units=1/GPa)
#
#
# Indices 1 2 3 4 5 6 
#
# 1 0.017535 0.003498 -0.017900 0.000000 0.000000 0.000000
# 2 0.003498 0.020285 -0.017932 0.000000 0.000000 0.000000
# 3 -0.017900 -0.017932 0.056316 0.000000 0.000000 0.000000
# 4 0.000000 0.000000 0.000000 0.039037 0.000000 0.000000
# 5 0.000000 0.000000 0.000000 0.000000 0.099336 0.000000
# 6 0.000000 0.000000 0.000000 0.000000 0.000000 0.056135
#
#
# Mechanical properties :
#
#
# Convention : Reuss Voigt Hill
#
# Bulk Modulus (GPa) = 33.93487 37.43299 35.68393
# Shear Modulus (GPa) = 13.76900 18.84901 16.30900
#
# Velocity S-wave (km/s) = 2.65325 3.10435 2.88762
# Velocity P-wave (km/s) = 5.17071 5.65578 5.41868
#
# Compressibility (1/GPa) = 0.02946822
#
# Stress axis : x y z
#
# Youngs Moduli (GPa) = 57.02811 49.29694 17.75707
#
# Poissons Ratio (x) = -0.17246 0.31785
# Poissons Ratio (y) = -0.19951 0.31843
# Poissons Ratio (z) = 1.02080 0.88401
#
# Static dielectric constant tensor:
#      x y z
#    x 1.715600 0.000000 0.000000 
#    y 0.000000 1.723150 0.000000 
#    z 0.000000 0.000000 1.718560 
# 
# From -- ./inp_files/6478.got.cif
#   From: 2010.05.17/outbox.cif.g08.bks.cpg/sg38_4_cif.got.tgz:6478.got - 2010.06.03 18:07:57.
