data_PCOD9357438
_publ_section_title
;
Structure prediction by ZEFSAII (Michael W. Deem and Ramdas Pophale) SiO2 
 PCOD9357438
Probable space group: A M M 2
;
_chemical_formula_sum "Si O2"
_cell_formula_units_Z 64
_cell_length_a 9.254194
_cell_length_b 28.533787
_cell_length_c 12.823272
_cell_angle_alpha 90.000000
_cell_angle_beta 90.000000
_cell_angle_gamma 90.000000
_cell_volume 3386.077305
_symmetry_space_group_name_H-M "A M M 2"
_symmetry_group_IT_number 38
_symmetry_cell_setting 'orthorhombic'
loop_
_space_group_symop_operation_xyz
x,y,z
-x,-y,z
-x,y,z
x,-y,z
x,1/2+y,1/2+z
-x,1/2-y,1/2+z
-x,1/2+y,1/2+z
x,1/2-y,1/2+z
loop_
_atom_site_type_symbol
_atom_site_label
_atom_site_fract_x
_atom_site_fract_y
_atom_site_fract_z
Si Si1 0.329531 0.197852 0.402380
Si Si2 0.165522 0.429459 0.749384
Si Si3 0.828918 0.789459 0.966634
Si Si4 0.161914 0.181098 0.202104
Si Si5 0.667791 0.947432 0.040135
Si Si6 0.827253 0.445119 0.165470
Si Si7 0.826136 0.615378 0.370271
Si Si8 0.673571 0.410074 0.956879
O O1 0.500000 0.202881 0.408984
O O2 0.252095 0.240579 0.458848
O O3 0.275893 0.201131 0.283097
O O4 0.293045 0.145809 0.445456
O O5 0.158727 0.374024 0.724965
O O6 0.253844 0.448661 0.651630
O O7 0.000000 0.446234 0.755309
O O8 0.250075 0.434734 0.857939
O O9 0.785996 0.829845 0.883642
O O10 0.000000 0.781334 0.954319
O O11 0.804677 0.810271 0.081883
O O12 0.000000 0.200035 0.223408
O O13 0.500000 0.934024 0.053471
O O14 0.673504 0.000000 0.995388
O O15 0.749056 0.912691 0.962795
O O16 0.799261 0.500000 0.190992
O O17 0.791665 0.410552 0.261812
O O18 0.739183 0.430066 0.063313
O O19 0.000000 0.440781 0.145552
O O20 0.000000 0.612508 0.385147
O O21 0.500000 0.415680 0.952368
#
# Coordination Sequence:
#
# PCOD9357438 Si02
#       8
#     8   8   8   8   8   8   8   8
#     4  10  22  37  55  85 119 155 197 241 298 358
#     4  10  19  36  61  85 110 145 192 241 291 348
#     4  10  20  36  59  87 116 151 199 246 297 354
#     4   9  18  35  57  80 109 145 187 237 290 344
#     4  11  23  36  54  85 121 153 187 231 291 357
#     4  10  22  40  63  89 118 158 206 255 307 362
#     4  10  21  40  62  86 116 153 202 252 296 353
#     4  10  22  40  60  84 119 158 199 247 301 360
#
# _framework density 18.900928
#
# number of rings (size 3 to 8) (size 9 to 14) (size 15 to 20)
#    0.000    2.000    1.250    1.875    0.000    6.750 
#    0.000    3.750    0.000    0.000    0.000    0.000 
#    0.000    0.000    0.000    0.000    0.000    0.000 
#
# Total GULP energy -178593.900148 kJ/mol
# GULP energy per Si atom -5581.059380 kJ/mol
# Density = 1.885791 g / cm^3
# Si number density = 18.900928 Si / 1000 Ang^3
#
#
#
# Elastic Constant Matrix: (Units=GPa)
#
#
# Indices 1 2 3 4 5 6 
#
# 1 48.3026 24.4241 35.7110 0.0000 0.0000 0.0000
# 2 24.4241 49.4360 18.3691 0.0000 0.0000 0.0000
# 3 35.7110 18.3691 82.4409 0.0000 0.0000 0.0000
# 4 0.0000 0.0000 0.0000 20.9008 0.0000 0.0000
# 5 0.0000 0.0000 0.0000 0.0000 -2.8721 0.0000
# 6 0.0000 0.0000 0.0000 0.0000 0.0000 21.8384
#
#
#
# Elastic Compliance Matrix: (Units=1/GPa)
#
#
# Indices 1 2 3 4 5 6 
#
# 1 0.037239 -0.013524 -0.013118 0.000000 0.000000 0.000000
# 2 -0.013524 0.026966 -0.000150 0.000000 0.000000 0.000000
# 3 -0.013118 -0.000150 0.017846 0.000000 0.000000 0.000000
# 4 0.000000 0.000000 0.000000 0.047845 0.000000 0.000000
# 5 0.000000 0.000000 0.000000 0.000000 -0.348173 0.000000
# 6 0.000000 0.000000 0.000000 0.000000 0.000000 0.045791
#
#
# Mechanical properties :
#
#
# Convention : Reuss Voigt Hill
#
# Bulk Modulus (GPa) = 35.12865 37.46531 36.29698
# Shear Modulus (GPa) = -45.69815 14.75176 -15.47320
#
# Velocity S-wave (km/s) = -4.92242 2.79673 -2.86431
# Velocity P-wave (km/s) = 3.69877 5.50399 2.88210
#
# Compressibility (1/GPa) = 0.02846679
#
# Stress axis : x y z
#
# Youngs Moduli (GPa) = 26.85328 37.08428 56.03647
#
# Poissons Ratio (x) = 0.50153 0.73507
# Poissons Ratio (y) = 0.36317 0.00841
# Poissons Ratio (z) = 0.35225 0.00557
#
# Static dielectric constant tensor:
#      x y z
#    x 1.637890 0.000000 0.000000 
#    y 0.000000 1.672170 0.000000 
#    z 0.000000 0.000000 1.628100 
# 
# From -- ./inp_files/8600.got.cif
#   From: 2010.05.17/outbox.cif.g08.bks.cpg/sg38_5_cif.got.tgz:8600.got - 2010.06.03 18:07:57.
