data_PCOD9357614
_publ_section_title
;
Structure prediction by ZEFSAII (Michael W. Deem and Ramdas Pophale) SiO2 
 PCOD9357614
Probable space group: A M M 2
;
_chemical_formula_sum "Si O2"
_cell_formula_units_Z 56
_cell_length_a 8.749658
_cell_length_b 23.707676
_cell_length_c 14.518696
_cell_angle_alpha 90.000000
_cell_angle_beta 90.000000
_cell_angle_gamma 90.000000
_cell_volume 3011.672013
_symmetry_space_group_name_H-M "A M M 2"
_symmetry_group_IT_number 38
_symmetry_cell_setting 'orthorhombic'
loop_
_space_group_symop_operation_xyz
x,y,z
-x,-y,z
-x,y,z
x,-y,z
x,1/2+y,1/2+z
-x,1/2-y,1/2+z
-x,1/2+y,1/2+z
x,1/2-y,1/2+z
loop_
_atom_site_type_symbol
_atom_site_label
_atom_site_fract_x
_atom_site_fract_y
_atom_site_fract_z
Si Si1 0.684725 0.161547 0.096080
Si Si2 0.178860 0.784270 0.602448
Si Si3 0.178078 0.217353 0.381911
Si Si4 0.685845 0.500000 0.891055
Si Si5 0.315949 0.839544 0.886294
Si Si6 0.181783 0.500000 0.096786
Si Si7 0.682583 0.392511 0.200685
Si Si8 0.316291 0.610380 0.780669
O O1 0.500000 0.166432 0.096748
O O2 0.753595 0.222439 0.122288
O O3 0.730654 0.116785 0.173930
O O4 0.731966 0.147572 0.991331
O O5 0.191186 0.791333 0.491979
O O6 0.269287 0.834418 0.651092
O O7 0.000000 0.786639 0.627738
O O8 0.248634 0.278418 0.361083
O O9 0.262059 0.166707 0.331446
O O10 0.000000 0.217242 0.357028
O O11 0.500000 0.500000 0.894896
O O12 0.737696 0.444582 0.835309
O O13 0.747628 0.500000 0.994499
O O14 0.500000 0.835003 0.885232
O O15 0.273164 0.884219 0.807893
O O16 0.237564 0.555319 0.151167
O O17 0.000000 0.500000 0.089649
O O18 0.500000 0.399758 0.194582
O O19 0.500000 0.608680 0.782321
#
# Coordination Sequence:
#
# PCOD9357614 Si02
#       8
#     8   8   8   4   8   4   8   8
#     4   9  18  34  54  79 110 142 176 218 265 316
#     4  10  20  33  51  80 113 145 179 218 266 318
#     4  10  20  32  50  78 111 143 176 216 265 317
#     4  10  22  40  59  80 106 138 177 222 265 312
#     4   9  19  35  55  79 108 140 175 215 262 314
#     4  12  26  42  59  80 106 138 175 218 265 316
#     4  11  22  37  57  80 106 141 181 221 265 313
#     4  10  20  34  54  78 105 139 179 220 266 314
#
# _framework density 18.594322999999999
#
# number of rings (size 3 to 8) (size 9 to 14) (size 15 to 20)
#    0.000    2.000    0.000    3.643    0.000    9.714 
#    0.000    0.714    0.000    3.429    0.000    1.000 
#    0.000    0.000    0.000    0.000    0.000    0.000 
#
# Total GULP energy -156368.916273 kJ/mol
# GULP energy per Si atom -5584.604153 kJ/mol
# Density = 1.855200 g / cm^3
# Si number density = 18.594323 Si / 1000 Ang^3
#
#
#
# Elastic Constant Matrix: (Units=GPa)
#
#
# Indices 1 2 3 4 5 6 
#
# 1 28.5888 26.5703 34.8013 0.0000 0.0000 0.0000
# 2 26.5703 101.5371 99.5429 0.0000 0.0000 0.0000
# 3 34.8013 99.5429 126.6199 0.0000 0.0000 0.0000
# 4 0.0000 0.0000 0.0000 33.4483 0.0000 0.0000
# 5 0.0000 0.0000 0.0000 0.0000 12.8502 0.0000
# 6 0.0000 0.0000 0.0000 0.0000 0.0000 -21.3182
#
#
#
# Elastic Compliance Matrix: (Units=1/GPa)
#
#
# Indices 1 2 3 4 5 6 
#
# 1 0.052640 0.001784 -0.015871 0.000000 0.000000 0.000000
# 2 0.001784 0.043014 -0.034306 0.000000 0.000000 0.000000
# 3 -0.015871 -0.034306 0.039230 0.000000 0.000000 0.000000
# 4 0.000000 0.000000 0.000000 0.029897 0.000000 0.000000
# 5 0.000000 0.000000 0.000000 0.000000 0.077820 0.000000
# 6 0.000000 0.000000 0.000000 0.000000 0.000000 -0.046908
#
#
# Mechanical properties :
#
#
# Convention : Reuss Voigt Hill
#
# Bulk Modulus (GPa) = 26.24781 64.28609 45.26695
# Shear Modulus (GPa) = 16.38396 11.38482 13.88439
#
# Velocity S-wave (km/s) = 2.97160 2.47710 2.73555
# Velocity P-wave (km/s) = 5.09122 6.54442 5.86302
#
# Compressibility (1/GPa) = 0.03809842
#
# Stress axis : x y z
#
# Youngs Moduli (GPa) = 18.99694 23.24820 25.49100
#
# Poissons Ratio (x) = -0.04147 0.40456
# Poissons Ratio (y) = -0.03389 0.87450
# Poissons Ratio (z) = 0.30149 0.79755
#
# Static dielectric constant tensor:
#      x y z
#    x 1.619270 0.000000 0.000000 
#    y 0.000000 1.597780 0.000000 
#    z 0.000000 0.000000 1.680280 
# 
# From -- ./inp_files/12456.got.cif
#   From: 2010.05.17/outbox.cif.g08.bks.cpg/sg38_7_cif.got.tgz:12456.got - 2010.06.03 18:07:57.
