data_PCOD9357848
_publ_section_title
;
Structure prediction by ZEFSAII (Michael W. Deem and Ramdas Pophale) SiO2 
 PCOD9357848
Probable space group: A M M 2
;
_chemical_formula_sum "Si O2"
_cell_formula_units_Z 56
_cell_length_a 7.552878
_cell_length_b 21.586939
_cell_length_c 14.594573
_cell_angle_alpha 90.000000
_cell_angle_beta 90.000000
_cell_angle_gamma 90.000000
_cell_volume 2379.550506
_symmetry_space_group_name_H-M "A M M 2"
_symmetry_group_IT_number 38
_symmetry_cell_setting 'orthorhombic'
loop_
_space_group_symop_operation_xyz
x,y,z
-x,-y,z
-x,y,z
x,-y,z
x,1/2+y,1/2+z
-x,1/2-y,1/2+z
-x,1/2+y,1/2+z
x,1/2-y,1/2+z
loop_
_atom_site_type_symbol
_atom_site_label
_atom_site_fract_x
_atom_site_fract_y
_atom_site_fract_z
Si Si1 0.716712 0.067856 0.007990
Si Si2 0.208526 0.655471 0.950898
Si Si3 0.698480 0.668473 0.642182
Si Si4 0.214040 0.929676 0.288025
Si Si5 0.283430 0.104558 0.808137
Si Si6 0.711691 0.432568 0.108538
Si Si7 0.290726 0.754971 0.800163
O O1 0.500000 0.069610 0.014323
O O2 0.781265 0.131177 0.057073
O O3 0.772474 0.000000 0.045781
O O4 0.767725 0.071509 0.901823
O O5 0.261151 0.597921 0.886349
O O6 0.274387 0.714991 0.893805
O O7 0.000000 0.663013 0.948573
O O8 0.252208 0.630068 0.051182
O O9 0.500000 0.689101 0.614512
O O10 0.691237 0.612024 0.713945
O O11 0.783091 0.720664 0.708427
O O12 0.000000 0.923712 0.276526
O O13 0.264169 0.000000 0.279963
O O14 0.500000 0.103684 0.807496
O O15 0.224592 0.075365 0.712673
O O16 0.223925 0.175913 0.811552
O O17 0.500000 0.436296 0.110670
O O18 0.777481 0.500000 0.072124
O O19 0.500000 0.758391 0.782410
#
# Coordination Sequence:
#
# PCOD9357848 Si02
#       7
#     8   8   8   8   8   8   8
#     4   9  16  27  46  73 101 128 161 202 248 297
#     4  10  20  34  52  74 103 138 174 214 262 315
#     4   9  17  28  45  71  98 123 156 200 246 293
#     4   9  17  29  45  66  94 128 162 197 244 302
#     4   9  18  32  51  74 103 138 172 211 256 304
#     4  10  20  34  54  81 109 138 177 223 268 314
#     4   9  18  33  52  76 104 133 168 209 256 309
#
# _framework density 23.533859
#
# number of rings (size 3 to 8) (size 9 to 14) (size 15 to 20)
#    0.000    2.714    0.000    1.714    0.000    5.143 
#    0.000    5.000    0.000    5.143    0.000    0.000 
#    0.000    0.000    0.000    0.000    0.000    0.000 
#
# Total GULP energy -156101.254222 kJ/mol
# GULP energy per Si atom -5575.044794 kJ/mol
# Density = 2.348029 g / cm^3
# Si number density = 23.533859 Si / 1000 Ang^3
#
#
#
# Elastic Constant Matrix: (Units=GPa)
#
#
# Indices 1 2 3 4 5 6 
#
# 1 46.5590 -0.1646 -5.1748 0.0000 0.0000 0.0000
# 2 -0.1646 114.2364 12.6640 0.0000 0.0000 0.0000
# 3 -5.1748 12.6640 91.8593 0.0000 0.0000 0.0000
# 4 0.0000 0.0000 0.0000 27.7675 0.0000 0.0000
# 5 0.0000 0.0000 0.0000 0.0000 29.1782 0.0000
# 6 0.0000 0.0000 0.0000 0.0000 0.0000 37.5533
#
#
#
# Elastic Compliance Matrix: (Units=1/GPa)
#
#
# Indices 1 2 3 4 5 6 
#
# 1 0.021615 -0.000105 0.001232 0.000000 0.000000 0.000000
# 2 -0.000105 0.008890 -0.001232 0.000000 0.000000 0.000000
# 3 0.001232 -0.001232 0.011125 0.000000 0.000000 0.000000
# 4 0.000000 0.000000 0.000000 0.036013 0.000000 0.000000
# 5 0.000000 0.000000 0.000000 0.000000 0.034272 0.000000
# 6 0.000000 0.000000 0.000000 0.000000 0.000000 0.026629
#
#
# Mechanical properties :
#
#
# Convention : Reuss Voigt Hill
#
# Bulk Modulus (GPa) = 24.14259 29.70044 26.92152
# Shear Modulus (GPa) = 32.77375 35.25515 34.01445
#
# Velocity S-wave (km/s) = 3.73583 3.87468 3.80589
# Velocity P-wave (km/s) = 5.37490 5.71535 5.54774
#
# Compressibility (1/GPa) = 0.04142058
#
# Stress axis : x y z
#
# Youngs Moduli (GPa) = 46.26485 112.48402 89.88433
#
# Poissons Ratio (x) = 0.01186 -0.11075
# Poissons Ratio (y) = 0.00488 0.11070
# Poissons Ratio (z) = -0.05701 0.13853
#
# Static dielectric constant tensor:
#      x y z
#    x 1.926120 0.000000 0.000000 
#    y 0.000000 1.906680 0.000000 
#    z 0.000000 0.000000 1.963990 
# 
# From -- ./inp_files/12444.got.cif
#   From: 2010.05.17/outbox.cif.g08.bks.cpg/sg38_7_cif.got.tgz:12444.got - 2010.06.03 18:07:57.
