data_PCOD9357168
_publ_section_title
;
Structure prediction by ZEFSAII (Michael W. Deem and Ramdas Pophale) SiO2 
 PCOD9357168
Probable space group: A M M 2
;
_chemical_formula_sum "Si O2"
_cell_formula_units_Z 64
_cell_length_a 11.688539
_cell_length_b 29.419530
_cell_length_c 9.898618
_cell_angle_alpha 90.000000
_cell_angle_beta 90.000000
_cell_angle_gamma 90.000000
_cell_volume 3403.850875
_symmetry_space_group_name_H-M "A M M 2"
_symmetry_group_IT_number 38
_symmetry_cell_setting 'orthorhombic'
loop_
_space_group_symop_operation_xyz
x,y,z
-x,-y,z
-x,y,z
x,-y,z
x,1/2+y,1/2+z
-x,1/2-y,1/2+z
-x,1/2+y,1/2+z
x,1/2-y,1/2+z
loop_
_atom_site_type_symbol
_atom_site_label
_atom_site_fract_x
_atom_site_fract_y
_atom_site_fract_z
Si Si1 0.367239 0.092918 0.108920
Si Si2 0.367903 0.712282 0.975183
Si Si3 0.872375 0.823985 0.772902
Si Si4 0.246131 0.767952 0.201684
Si Si5 0.634490 0.050521 0.815094
Si Si6 0.724655 0.879684 0.595220
Si Si7 0.369228 0.947556 0.398845
Si Si8 0.868431 0.851149 0.081993
O O1 0.500000 0.113302 0.105428
O O2 0.366861 0.060777 0.239393
O O3 0.251442 0.123416 0.120751
O O4 0.353172 0.065148 0.970513
O O5 0.500000 0.721144 0.955665
O O6 0.311480 0.709343 0.827298
O O7 0.317422 0.752306 0.069809
O O8 0.348929 0.664329 0.051875
O O9 0.794918 0.779825 0.762180
O O10 0.840532 0.858006 0.651912
O O11 0.000000 0.807564 0.756358
O O12 0.861706 0.846621 0.919454
O O13 0.147969 0.801710 0.149945
O O14 0.500000 0.047591 0.787656
O O15 0.679886 0.090131 0.719382
O O16 0.684448 0.000000 0.791203
O O17 0.719003 0.913984 0.470504
O O18 0.500000 0.936285 0.444547
O O19 0.348241 0.000000 0.431892
O O20 0.000000 0.867842 0.113096
#
# Coordination Sequence:
#
# PCOD9357168 Si02
#       8
#     8   8   8   8   8   8   8   8
#     4  10  21  38  60  91 125 158 198 247 303 359
#     4  11  23  37  57  85 126 160 195 247 307 362
#     4  10  22  41  60  82 115 153 203 253 295 348
#     4  11  22  41  59  88 113 158 209 244 295 351
#     4  10  19  33  57  86 116 152 198 244 290 352
#     4  11  21  36  56  85 116 152 196 245 303 350
#     4  10  20  36  60  89 124 159 192 241 303 363
#     4  11  22  40  64  89 120 160 203 248 298 356
#
# _framework density 18.802233999999999
#
# number of rings (size 3 to 8) (size 9 to 14) (size 15 to 20)
#    0.000    1.500    2.500    3.375    0.000    4.500 
#    0.000    3.750    0.000    4.500    0.000    0.000 
#    0.000    0.000    0.000    0.000    0.000    0.000 
#
# Total GULP energy -178245.163503 kJ/mol
# GULP energy per Si atom -5570.161359 kJ/mol
# Density = 1.875944 g / cm^3
# Si number density = 18.802234 Si / 1000 Ang^3
#
#
#
# Elastic Constant Matrix: (Units=GPa)
#
#
# Indices 1 2 3 4 5 6 
#
# 1 83.0179 22.3298 19.1430 0.0000 0.0000 0.0000
# 2 22.3298 65.8605 15.2018 0.0000 0.0000 0.0000
# 3 19.1430 15.2018 95.5617 0.0000 0.0000 0.0000
# 4 0.0000 0.0000 0.0000 -15.0182 0.0000 0.0000
# 5 0.0000 0.0000 0.0000 0.0000 14.5494 0.0000
# 6 0.0000 0.0000 0.0000 0.0000 0.0000 17.9824
#
#
#
# Elastic Compliance Matrix: (Units=1/GPa)
#
#
# Indices 1 2 3 4 5 6 
#
# 1 0.013639 -0.004146 -0.002073 0.000000 0.000000 0.000000
# 2 -0.004146 0.017023 -0.001877 0.000000 0.000000 0.000000
# 3 -0.002073 -0.001877 0.011178 0.000000 0.000000 0.000000
# 4 0.000000 0.000000 0.000000 -0.066586 0.000000 0.000000
# 5 0.000000 0.000000 0.000000 0.000000 0.068731 0.000000
# 6 0.000000 0.000000 0.000000 0.000000 0.000000 0.055610
#
#
# Mechanical properties :
#
#
# Convention : Reuss Voigt Hill
#
# Bulk Modulus (GPa) = 38.98955 39.75437 39.37196
# Shear Modulus (GPa) = 40.21380 16.02044 28.11712
#
# Velocity S-wave (km/s) = 4.62971 2.92216 3.87125
# Velocity P-wave (km/s) = 7.02571 5.70742 6.40060
#
# Compressibility (1/GPa) = 0.02564790
#
# Stress axis : x y z
#
# Youngs Moduli (GPa) = 73.32126 58.74564 89.45909
#
# Poissons Ratio (x) = 0.24354 0.18541
# Poissons Ratio (y) = 0.30397 0.16795
# Poissons Ratio (z) = 0.15197 0.11029
#
# Static dielectric constant tensor:
#      x y z
#    x 1.650080 0.000000 0.000000 
#    y 0.000000 1.670850 0.000000 
#    z 0.000000 0.000000 1.666350 
# 
# From -- ./inp_files/4934.got.cif
#   From: 2010.05.17/outbox.cif.g08.bks.cpg/sg38_3_cif.got.tgz:4934.got - 2010.06.03 18:07:57.
