data_PCOD9357801
_publ_section_title
;
Structure prediction by ZEFSAII (Michael W. Deem and Ramdas Pophale) SiO2 
 PCOD9357801
Probable space group: A M M 2
;
_chemical_formula_sum "Si O2"
_cell_formula_units_Z 64
_cell_length_a 8.870240
_cell_length_b 19.896472
_cell_length_c 21.118802
_cell_angle_alpha 90.000000
_cell_angle_beta 90.000000
_cell_angle_gamma 90.000000
_cell_volume 3727.183065
_symmetry_space_group_name_H-M "A M M 2"
_symmetry_group_IT_number 38
_symmetry_cell_setting 'orthorhombic'
loop_
_space_group_symop_operation_xyz
x,y,z
-x,-y,z
-x,y,z
x,-y,z
x,1/2+y,1/2+z
-x,1/2-y,1/2+z
-x,1/2+y,1/2+z
x,1/2-y,1/2+z
loop_
_atom_site_type_symbol
_atom_site_label
_atom_site_fract_x
_atom_site_fract_y
_atom_site_fract_z
Si Si1 0.319483 0.290728 0.129710
Si Si2 0.178907 0.789443 0.012427
Si Si3 0.320145 0.076775 0.059392
Si Si4 0.819967 0.576535 0.178735
Si Si5 0.178140 0.076700 0.198401
Si Si6 0.680734 0.424601 0.318392
Si Si7 0.681020 0.286406 0.381148
Si Si8 0.319165 0.295978 0.754659
O O1 0.500000 0.291046 0.124820
O O2 0.249898 0.252887 0.069823
O O3 0.257468 0.365852 0.137679
O O4 0.278976 0.250268 0.194097
O O5 0.237994 0.865713 0.020383
O O6 0.000000 0.787439 0.016674
O O7 0.236633 0.764286 0.944600
O O8 0.500000 0.086288 0.055498
O O9 0.266788 0.084484 0.132153
O O10 0.285214 0.000000 0.040083
O O11 0.783374 0.500000 0.158802
O O12 0.760970 0.583636 0.250800
O O13 0.000000 0.584607 0.177599
O O14 0.237766 0.133137 0.245586
O O15 0.000000 0.085667 0.186314
O O16 0.202016 0.000000 0.220460
O O17 0.500000 0.419767 0.307594
O O18 0.712922 0.500000 0.342538
O O19 0.722159 0.363422 0.363835
O O20 0.500000 0.283825 0.390572
O O21 0.718341 0.241942 0.319622
O O22 0.500000 0.305480 0.752990
#
# Coordination Sequence:
#
# PCOD9357801 Si02
#       8
#     8   8   8   8   8   8   8   8
#     4  11  21  37  60  84 109 145 189 231 274 327
#     4  12  25  38  54  81 114 149 185 229 284 336
#     4  10  20  35  55  78 108 149 192 229 268 321
#     4  10  20  33  53  84 118 147 179 226 281 329
#     4  10  20  33  53  83 115 145 180 227 281 331
#     4   9  17  32  54  78 108 148 190 227 266 319
#     4  10  21  38  55  78 111 147 189 232 271 325
#     4  10  20  35  58  84 109 143 188 232 276 325
#
# _framework density 17.171144000000002
#
# number of rings (size 3 to 8) (size 9 to 14) (size 15 to 20)
#    0.000    1.750    2.500    2.625    0.000    4.250 
#    0.000    1.250    0.000    0.750    0.000    3.500 
#    0.000    0.000    0.000    0.000    0.000    0.000 
#
# Total GULP energy -178702.564259 kJ/mol
# GULP energy per Si atom -5584.455133 kJ/mol
# Density = 1.713206 g / cm^3
# Si number density = 17.171144 Si / 1000 Ang^3
#
#
#
# Elastic Constant Matrix: (Units=GPa)
#
#
# Indices 1 2 3 4 5 6 
#
# 1 55.3648 48.3126 48.2182 0.0000 0.0000 0.0000
# 2 48.3126 99.5247 57.2836 0.0000 0.0000 0.0000
# 3 48.2182 57.2836 106.2956 0.0000 0.0000 0.0000
# 4 0.0000 0.0000 0.0000 20.9270 0.0000 0.0000
# 5 0.0000 0.0000 0.0000 0.0000 2.4525 0.0000
# 6 0.0000 0.0000 0.0000 0.0000 0.0000 28.9860
#
#
#
# Elastic Compliance Matrix: (Units=1/GPa)
#
#
# Indices 1 2 3 4 5 6 
#
# 1 0.038123 -0.012398 -0.010612 0.000000 0.000000 0.000000
# 2 -0.012398 0.018598 -0.004398 0.000000 0.000000 0.000000
# 3 -0.010612 -0.004398 0.016592 0.000000 0.000000 0.000000
# 4 0.000000 0.000000 0.000000 0.047785 0.000000 0.000000
# 5 0.000000 0.000000 0.000000 0.000000 0.407739 0.000000
# 6 0.000000 0.000000 0.000000 0.000000 0.000000 0.034499
#
#
# Mechanical properties :
#
#
# Convention : Reuss Voigt Hill
#
# Bulk Modulus (GPa) = 54.06696 63.20153 58.63425
# Shear Modulus (GPa) = 8.00872 17.63116 12.81994
#
# Velocity S-wave (km/s) = 2.16199 3.20783 2.73536
# Velocity P-wave (km/s) = 6.14717 7.11386 6.64811
#
# Compressibility (1/GPa) = 0.01849558
#
# Stress axis : x y z
#
# Youngs Moduli (GPa) = 26.23071 53.76953 60.27022
#
# Poissons Ratio (x) = 0.66665 0.63959
# Poissons Ratio (y) = 0.32522 0.26509
# Poissons Ratio (z) = 0.27836 0.23650
#
# Static dielectric constant tensor:
#      x y z
#    x 1.570810 0.000000 0.000000 
#    y 0.000000 1.594810 0.000000 
#    z 0.000000 0.000000 1.561610 
# 
# From -- ./inp_files/20107.got.cif
#   From: 2010.05.17/outbox.cif.g08.bks.cpg/sg38_11_cif.got.tgz:20107.got - 2010.06.03 18:07:57.
