data_PCOD9357672
_publ_section_title
;
Structure prediction by ZEFSAII (Michael W. Deem and Ramdas Pophale) SiO2 
 PCOD9357672
Probable space group: A M M 2
;
_chemical_formula_sum "Si O2"
_cell_formula_units_Z 48
_cell_length_a 7.298702
_cell_length_b 23.429267
_cell_length_c 12.079809
_cell_angle_alpha 90.000000
_cell_angle_beta 90.000000
_cell_angle_gamma 90.000000
_cell_volume 2065.686452
_symmetry_space_group_name_H-M "A M M 2"
_symmetry_group_IT_number 38
_symmetry_cell_setting 'orthorhombic'
loop_
_space_group_symop_operation_xyz
x,y,z
-x,-y,z
-x,y,z
x,-y,z
x,1/2+y,1/2+z
-x,1/2-y,1/2+z
-x,1/2+y,1/2+z
x,1/2-y,1/2+z
loop_
_atom_site_type_symbol
_atom_site_label
_atom_site_fract_x
_atom_site_fract_y
_atom_site_fract_z
Si Si1 0.222743 0.359687 0.730990
Si Si2 0.795737 0.348531 0.108238
Si Si3 0.784233 0.651379 0.481963
Si Si4 0.718430 0.064693 0.798345
Si Si5 0.223915 0.935356 0.425611
Si Si6 0.223678 0.735151 0.289955
O O1 0.289221 0.354422 0.605357
O O2 0.277052 0.414107 0.803457
O O3 0.274142 0.300980 0.792066
O O4 0.000000 0.361251 0.727738
O O5 0.806101 0.394770 0.207057
O O6 0.714492 0.294672 0.174493
O O7 0.000000 0.330784 0.070427
O O8 0.712275 0.385815 0.009733
O O9 0.760000 0.592252 0.416647
O O10 0.712489 0.699444 0.396683
O O11 0.000000 0.663772 0.493162
O O12 0.500000 0.066651 0.781075
O O13 0.780398 0.000000 0.788810
O O14 0.000000 0.935733 0.433187
O O15 0.283481 0.000000 0.451240
O O16 0.000000 0.731344 0.287476
#
# Coordination Sequence:
#
# PCOD9357672 Si02
#       6
#     8   8   8   8   8   8
#     4   9  17  27  44  71 103 132 159 199 245 294
#     4   9  17  30  50  75  99 125 161 206 247 289
#     4   9  18  31  48  73  99 127 163 202 245 291
#     4  10  20  33  50  71  96 128 164 204 249 292
#     4   9  17  27  41  67 102 135 162 195 243 292
#     4   8  15  26  43  69  96 122 159 202 245 284
#
# _framework density 23.236827999999999
#
# number of rings (size 3 to 8) (size 9 to 14) (size 15 to 20)
#    0.000    3.000    0.000    2.000    2.333    2.667 
#    0.000    1.667    0.000    5.000    0.000    2.333 
#    0.000    0.000    0.000    0.000    0.000    0.000 
#
# Total GULP energy -133964.033300 kJ/mol
# GULP energy per Si atom -5581.834721 kJ/mol
# Density = 2.318394 g / cm^3
# Si number density = 23.236828 Si / 1000 Ang^3
#
#
#
# Elastic Constant Matrix: (Units=GPa)
#
#
# Indices 1 2 3 4 5 6 
#
# 1 93.0345 -8.3020 12.4502 0.0000 0.0000 0.0000
# 2 -8.3020 68.1096 11.8737 0.0000 0.0000 0.0000
# 3 12.4502 11.8737 80.2588 0.0000 0.0000 0.0000
# 4 0.0000 0.0000 0.0000 19.4665 0.0000 0.0000
# 5 0.0000 0.0000 0.0000 0.0000 -45.8009 0.0000
# 6 0.0000 0.0000 0.0000 0.0000 0.0000 2.4454
#
#
#
# Elastic Compliance Matrix: (Units=1/GPa)
#
#
# Indices 1 2 3 4 5 6 
#
# 1 0.011167 0.001707 -0.001985 0.000000 0.000000 0.000000
# 2 0.001707 0.015332 -0.002533 0.000000 0.000000 0.000000
# 3 -0.001985 -0.002533 0.013142 0.000000 0.000000 0.000000
# 4 0.000000 0.000000 0.000000 0.051370 0.000000 0.000000
# 5 0.000000 0.000000 0.000000 0.000000 -0.021834 0.000000
# 6 0.000000 0.000000 0.000000 0.000000 0.000000 0.408936
#
#
# Mechanical properties :
#
#
# Convention : Reuss Voigt Hill
#
# Bulk Modulus (GPa) = 29.39497 30.38299 29.88898
# Shear Modulus (GPa) = 10.09948 10.24759 10.17353
#
# Velocity S-wave (km/s) = 2.08705 2.10229 2.09468
# Velocity P-wave (km/s) = 4.29945 4.35851 4.32908
#
# Compressibility (1/GPa) = 0.03401942
#
# Stress axis : x y z
#
# Youngs Moduli (GPa) = 89.55241 65.22353 76.09000
#
# Poissons Ratio (x) = -0.11135 0.15102
# Poissons Ratio (y) = -0.15288 0.19274
# Poissons Ratio (z) = 0.17774 0.16522
#
# Static dielectric constant tensor:
#      x y z
#    x 1.948440 0.000000 0.000000 
#    y 0.000000 1.822700 0.000000 
#    z 0.000000 0.000000 1.865770 
# 
# From -- ./inp_files/8110.got.cif
#   From: 2010.05.17/outbox.cif.g08.bks.cpg/sg38_5_cif.got.tgz:8110.got - 2010.06.03 18:07:57.
