data_PCOD9357477
_publ_section_title
;
Structure prediction by ZEFSAII (Michael W. Deem and Ramdas Pophale) SiO2 
 PCOD9357477
Probable space group: A M M 2
;
_chemical_formula_sum "Si O2"
_cell_formula_units_Z 58
_cell_length_a 7.293245
_cell_length_b 22.432488
_cell_length_c 14.666763
_cell_angle_alpha 90.000000
_cell_angle_beta 90.000000
_cell_angle_gamma 90.000000
_cell_volume 2399.565015
_symmetry_space_group_name_H-M "A M M 2"
_symmetry_group_IT_number 38
_symmetry_cell_setting 'orthorhombic'
loop_
_space_group_symop_operation_xyz
x,y,z
-x,-y,z
-x,y,z
x,-y,z
x,1/2+y,1/2+z
-x,1/2-y,1/2+z
-x,1/2+y,1/2+z
x,1/2-y,1/2+z
loop_
_atom_site_type_symbol
_atom_site_label
_atom_site_fract_x
_atom_site_fract_y
_atom_site_fract_z
Si Si1 0.725200 0.750966 0.522220
Si Si2 0.722221 0.614244 0.529150
Si Si3 0.275935 0.431871 0.725716
Si Si4 0.703582 0.317609 0.194741
Si Si5 0.721724 0.405465 0.330777
Si Si6 0.282272 0.358780 0.897297
Si Si7 0.000000 0.000000 0.762636
Si Si8 0.219242 0.432193 0.075897
O O1 0.500000 0.753751 0.522899
O O2 0.777924 0.682657 0.515037
O O3 0.790868 0.773959 0.621552
O O4 0.786017 0.797520 0.444219
O O5 0.500000 0.613674 0.531926
O O6 0.783639 0.586282 0.623994
O O7 0.773121 0.582317 0.435279
O O8 0.500000 0.431147 0.726432
O O9 0.221530 0.500000 0.746820
O O10 0.213614 0.384042 0.801168
O O11 0.500000 0.293690 0.212137
O O12 0.771610 0.339522 0.292633
O O13 0.696107 0.379420 0.136441
O O14 0.500000 0.411450 0.322172
O O15 0.839615 0.449555 0.271547
O O16 0.500000 0.350705 0.886795
O O17 0.250059 0.410121 0.972628
O O18 0.285524 0.500000 0.087693
O O19 0.000000 0.433660 0.091999
#
# Coordination Sequence:
#
# PCOD9357477 Si02
#       8
#     8   8   8   8   8   8   2   8
#     4   8  15  30  53  83 115 144 186 240 290 349
#     4   9  18  33  56  85 112 147 193 241 296 353
#     4   9  17  28  48  78 109 140 180 228 279 338
#     4   9  19  34  53  82 113 145 190 238 289 352
#     4  10  23  40  61  88 120 161 202 247 303 357
#     4   9  17  31  51  77 105 140 184 231 284 342
#     4  12  26  40  64  82 124 154 210 256 294 362
#     4  10  20  30  47  72 106 144 184 226 286 348
#
# _framework density 24.171047999999999
#
# number of rings (size 3 to 8) (size 9 to 14) (size 15 to 20)
#    0.000    2.759    0.000    1.862    2.897    2.759 
#    0.000    5.517    7.586    0.000    0.000    0.000 
#    0.000    0.000    0.000    0.000    0.000    0.000 
#
# Total GULP energy -161656.460827 kJ/mol
# GULP energy per Si atom -5574.360718 kJ/mol
# Density = 2.411603 g / cm^3
# Si number density = 24.171048 Si / 1000 Ang^3
#
#
#
# Elastic Constant Matrix: (Units=GPa)
#
#
# Indices 1 2 3 4 5 6 
#
# 1 107.4593 -0.6308 -0.1740 0.0000 0.0000 0.0000
# 2 -0.6308 49.7340 -12.0915 0.0000 0.0000 0.0000
# 3 -0.1740 -12.0915 115.8603 0.0000 0.0000 0.0000
# 4 0.0000 0.0000 0.0000 -225.5298 0.0000 0.0000
# 5 0.0000 0.0000 0.0000 0.0000 -18.1538 0.0000
# 6 0.0000 0.0000 0.0000 0.0000 0.0000 -3.9382
#
#
#
# Elastic Compliance Matrix: (Units=1/GPa)
#
#
# Indices 1 2 3 4 5 6 
#
# 1 0.009307 0.000125 0.000027 0.000000 0.000000 0.000000
# 2 0.000125 0.020632 0.002153 0.000000 0.000000 0.000000
# 3 0.000027 0.002153 0.008856 0.000000 0.000000 0.000000
# 4 0.000000 0.000000 0.000000 -0.004434 0.000000 0.000000
# 5 0.000000 0.000000 0.000000 0.000000 -0.055085 0.000000
# 6 0.000000 0.000000 0.000000 0.000000 0.000000 -0.253922
#
#
# Mechanical properties :
#
#
# Convention : Reuss Voigt Hill
#
# Bulk Modulus (GPa) = 23.03907 27.47345 25.25626
# Shear Modulus (GPa) = -18.88302 -30.46104 -24.67203
#
# Velocity S-wave (km/s) = -2.79807 -3.55382 -3.19835
# Velocity P-wave (km/s) = 0.94158 2.33422 1.77977
#
# Compressibility (1/GPa) = 0.04340454
#
# Stress axis : x y z
#
# Youngs Moduli (GPa) = 107.45038 48.46821 112.91958
#
# Poissons Ratio (x) = -0.00604 -0.00305
# Poissons Ratio (y) = -0.01339 -0.24316
# Poissons Ratio (z) = -0.00290 -0.10437
#
# Static dielectric constant tensor:
#      x y z
#    x 1.933590 0.000000 0.000000 
#    y 0.000000 3.994830 0.000000 
#    z 0.000000 0.000000 1.969280 
# 
# From -- ./inp_files/12676.got.cif
#   From: 2010.05.17/outbox.cif.g08.bks.cpg/sg38_7_cif.got.tgz:12676.got - 2010.06.03 18:07:57.
