data_PCOD9357431
_publ_section_title
;
Structure prediction by ZEFSAII (Michael W. Deem and Ramdas Pophale) SiO2 
 PCOD9357431
Probable space group: A M M 2
;
_chemical_formula_sum "Si O2"
_cell_formula_units_Z 48
_cell_length_a 16.621970
_cell_length_b 16.158784
_cell_length_c 8.959562
_cell_angle_alpha 90.000000
_cell_angle_beta 90.000000
_cell_angle_gamma 90.000000
_cell_volume 2406.456130
_symmetry_space_group_name_H-M "A M M 2"
_symmetry_group_IT_number 38
_symmetry_cell_setting 'orthorhombic'
loop_
_space_group_symop_operation_xyz
x,y,z
-x,-y,z
-x,y,z
x,-y,z
x,1/2+y,1/2+z
-x,1/2-y,1/2+z
-x,1/2+y,1/2+z
x,1/2-y,1/2+z
loop_
_atom_site_type_symbol
_atom_site_label
_atom_site_fract_x
_atom_site_fract_y
_atom_site_fract_z
Si Si1 0.404708 0.500000 0.515970
Si Si2 0.903779 0.000000 0.002701
Si Si3 0.596151 0.500000 0.874771
Si Si4 0.594152 0.678702 0.875227
Si Si5 0.842078 0.831690 0.152875
Si Si6 0.096615 0.167848 0.487638
Si Si7 0.341422 0.829562 0.050676
Si Si8 0.097788 0.500000 0.160453
O O1 0.500000 0.500000 0.485827
O O2 0.391954 0.500000 0.695946
O O3 0.364248 0.414660 0.466892
O O4 0.873811 0.000000 0.831554
O O5 0.876257 0.083119 0.085230
O O6 0.000000 0.000000 0.999883
O O7 0.500000 0.500000 0.898254
O O8 0.625670 0.588727 0.929831
O O9 0.500000 0.687372 0.914840
O O10 0.601642 0.679192 0.695971
O O11 0.644096 0.752413 0.944556
O O12 0.860104 0.829793 0.328273
O O13 0.748125 0.831324 0.113997
O O14 0.882009 0.750688 0.078600
O O15 0.000000 0.164967 0.464317
O O16 0.121064 0.084425 0.576033
O O17 0.000000 0.500000 0.163800
#
# Coordination Sequence:
#
# PCOD9357431 Si02
#       8
#     4   4   4   8   8   8   8   4
#     4   9  17  34  57  79 106 149 190 224 276 353
#     4  11  22  40  63  89 120 162 208 255 310 377
#     4   7  14  29  53  79 104 138 186 228 268 330
#     4  10  19  36  60  85 113 154 199 241 291 360
#     4  12  24  38  59  90 125 161 204 261 315 358
#     4  11  22  40  62  87 118 161 211 257 305 371
#     4  11  22  37  57  86 120 151 193 250 301 350
#     4   9  21  39  63  89 114 147 202 261 306 358
#
# _framework density 19.946342999999999
#
# number of rings (size 3 to 8) (size 9 to 14) (size 15 to 20)
#    0.000    1.667    0.000    7.000    0.000    2.000 
#    0.000    3.333    0.000    1.000    0.000    0.000 
#    0.000    0.000    0.000    0.000    0.000    0.000 
#
# Total GULP energy -134065.231482 kJ/mol
# GULP energy per Si atom -5586.051312 kJ/mol
# Density = 1.990094 g / cm^3
# Si number density = 19.946343 Si / 1000 Ang^3
#
#
#
# Elastic Constant Matrix: (Units=GPa)
#
#
# Indices 1 2 3 4 5 6 
#
# 1 44.1104 6.7228 -19.1957 0.0000 0.0000 0.0000
# 2 6.7228 195.4085 50.4594 0.0000 0.0000 0.0000
# 3 -19.1957 50.4594 70.0373 0.0000 0.0000 0.0000
# 4 0.0000 0.0000 0.0000 40.7977 0.0000 0.0000
# 5 0.0000 0.0000 0.0000 0.0000 21.8377 0.0000
# 6 0.0000 0.0000 0.0000 0.0000 0.0000 -36.9225
#
#
#
# Elastic Compliance Matrix: (Units=1/GPa)
#
#
# Indices 1 2 3 4 5 6 
#
# 1 0.027629 -0.003570 0.010145 0.000000 0.000000 0.000000
# 2 -0.003570 0.006748 -0.005841 0.000000 0.000000 0.000000
# 3 0.010145 -0.005841 0.021266 0.000000 0.000000 0.000000
# 4 0.000000 0.000000 0.000000 0.024511 0.000000 0.000000
# 5 0.000000 0.000000 0.000000 0.000000 0.045792 0.000000
# 6 0.000000 0.000000 0.000000 0.000000 0.000000 -0.027084
#
#
# Mechanical properties :
#
#
# Convention : Reuss Voigt Hill
#
# Bulk Modulus (GPa) = 17.50937 42.83657 30.17297
# Shear Modulus (GPa) = 42.94298 23.24723 33.09510
#
# Velocity S-wave (km/s) = 4.64500 3.41763 4.07776
# Velocity P-wave (km/s) = 6.12905 6.09066 6.10988
#
# Compressibility (1/GPa) = 0.05711228
#
# Stress axis : x y z
#
# Youngs Moduli (GPa) = 36.19354 148.18120 47.02231
#
# Poissons Ratio (x) = 0.52903 -0.47703
# Poissons Ratio (y) = 0.12922 0.27464
# Poissons Ratio (z) = -0.36718 0.86546
#
# Static dielectric constant tensor:
#      x y z
#    x 1.683400 0.000000 0.000000 
#    y 0.000000 1.704440 0.000000 
#    z 0.000000 0.000000 1.678380 
# 
# From -- ./inp_files/6244.got.cif
#   From: 2010.05.17/outbox.cif.g08.bks.cpg/sg38_4_cif.got.tgz:6244.got - 2010.06.03 18:07:57.
