data_PCOD9357375
_publ_section_title
;
Structure prediction by ZEFSAII (Michael W. Deem and Ramdas Pophale) SiO2 
 PCOD9357375
Probable space group: A M M 2
;
_chemical_formula_sum "Si O2"
_cell_formula_units_Z 56
_cell_length_a 7.745668
_cell_length_b 21.068329
_cell_length_c 15.770752
_cell_angle_alpha 90.000000
_cell_angle_beta 90.000000
_cell_angle_gamma 90.000000
_cell_volume 2573.601921
_symmetry_space_group_name_H-M "A M M 2"
_symmetry_group_IT_number 38
_symmetry_cell_setting 'orthorhombic'
loop_
_space_group_symop_operation_xyz
x,y,z
-x,-y,z
-x,y,z
x,-y,z
x,1/2+y,1/2+z
-x,1/2-y,1/2+z
-x,1/2+y,1/2+z
x,1/2-y,1/2+z
loop_
_atom_site_type_symbol
_atom_site_label
_atom_site_fract_x
_atom_site_fract_y
_atom_site_fract_z
Si Si1 0.211396 0.927815 0.772330
Si Si2 0.799710 0.071813 0.294253
Si Si3 0.209505 0.194826 0.676419
Si Si4 0.304674 0.879661 0.116516
Si Si5 0.299946 0.239911 0.013983
Si Si6 0.794759 0.211489 0.329621
Si Si7 0.194207 0.926837 0.950663
O O1 0.261916 0.875134 0.705757
O O2 0.268557 0.899780 0.863956
O O3 0.000000 0.928758 0.775919
O O4 0.269944 0.000000 0.756172
O O5 0.791475 0.087545 0.193702
O O6 0.725557 0.138431 0.331773
O O7 0.000000 0.068520 0.320785
O O8 0.726539 0.000000 0.308373
O O9 0.278767 0.204621 0.581888
O O10 0.268022 0.246600 0.748538
O O11 0.000000 0.198070 0.674257
O O12 0.500000 0.866572 0.145359
O O13 0.224407 0.817228 0.072173
O O14 0.303860 0.923515 0.034370
O O15 0.500000 0.223289 0.001690
O O16 0.229919 0.255270 0.921004
O O17 0.000000 0.205938 0.315847
O O18 0.000000 0.902351 0.966214
O O19 0.176718 0.000000 0.927572
#
# Coordination Sequence:
#
# PCOD9357375 Si02
#       7
#     8   8   8   8   8   8   8
#     4   8  15  29  51  80 109 137 175 226 282 333
#     4  10  21  38  60  85 114 149 192 245 299 345
#     4  10  19  35  60  85 108 142 188 236 284 337
#     4  11  22  34  50  78 113 149 186 228 283 345
#     4  11  24  38  55  81 114 151 190 235 289 345
#     4  10  21  38  61  87 112 147 196 244 288 342
#     4   9  17  30  50  76 107 142 178 220 272 330
#
# _framework density 21.759387
#
# number of rings (size 3 to 8) (size 9 to 14) (size 15 to 20)
#    0.000    2.143    1.429    3.000    0.000    6.286 
#    0.000    1.429    0.000    5.571    0.000    0.000 
#    0.000    0.000    0.000    0.000    0.000    0.000 
#
# Total GULP energy -155939.850567 kJ/mol
# GULP energy per Si atom -5569.280377 kJ/mol
# Density = 2.170986 g / cm^3
# Si number density = 21.759387 Si / 1000 Ang^3
#
#
#
# Elastic Constant Matrix: (Units=GPa)
#
#
# Indices 1 2 3 4 5 6 
#
# 1 33.0347 6.2148 -3.8028 0.0000 0.0000 0.0000
# 2 6.2148 113.9662 24.1866 0.0000 0.0000 0.0000
# 3 -3.8028 24.1866 82.6690 0.0000 0.0000 0.0000
# 4 0.0000 0.0000 0.0000 7.5674 0.0000 0.0000
# 5 0.0000 0.0000 0.0000 0.0000 -53.5970 0.0000
# 6 0.0000 0.0000 0.0000 0.0000 0.0000 4.9135
#
#
#
# Elastic Compliance Matrix: (Units=1/GPa)
#
#
# Indices 1 2 3 4 5 6 
#
# 1 0.030905 -0.002119 0.002041 0.000000 0.000000 0.000000
# 2 -0.002119 0.009501 -0.002877 0.000000 0.000000 0.000000
# 3 0.002041 -0.002877 0.013032 0.000000 0.000000 0.000000
# 4 0.000000 0.000000 0.000000 0.132146 0.000000 0.000000
# 5 0.000000 0.000000 0.000000 0.000000 -0.018658 0.000000
# 6 0.000000 0.000000 0.000000 0.000000 0.000000 0.203522
#
#
# Mechanical properties :
#
#
# Convention : Reuss Voigt Hill
#
# Bulk Modulus (GPa) = 21.03969 31.42966 26.23468
# Shear Modulus (GPa) = 12.74863 5.31485 9.03174
#
# Velocity S-wave (km/s) = 2.42314 1.56456 2.03955
# Velocity P-wave (km/s) = 4.18558 4.21181 4.19872
#
# Compressibility (1/GPa) = 0.04752921
#
# Stress axis : x y z
#
# Youngs Moduli (GPa) = 32.35747 105.25596 76.73362
#
# Poissons Ratio (x) = 0.22299 -0.15665
# Poissons Ratio (y) = 0.06855 0.22077
# Poissons Ratio (z) = -0.06606 0.30283
#
# Static dielectric constant tensor:
#      x y z
#    x 1.853580 0.000000 0.000000 
#    y 0.000000 2.790270 0.000000 
#    z 0.000000 0.000000 1.806530 
# 
# From -- ./inp_files/12377.got.cif
#   From: 2010.05.17/outbox.cif.g08.bks.cpg/sg38_7_cif.got.tgz:12377.got - 2010.06.03 18:07:57.
