data_PCOD9357740
_publ_section_title
;
Structure prediction by ZEFSAII (Michael W. Deem and Ramdas Pophale) SiO2 
 PCOD9357740
Probable space group: A M M 2
;
_chemical_formula_sum "Si O2"
_cell_formula_units_Z 64
_cell_length_a 7.630282
_cell_length_b 29.412706
_cell_length_c 13.097372
_cell_angle_alpha 90.000000
_cell_angle_beta 90.000000
_cell_angle_gamma 90.000000
_cell_volume 2939.407064
_symmetry_space_group_name_H-M "A M M 2"
_symmetry_group_IT_number 38
_symmetry_cell_setting 'orthorhombic'
loop_
_space_group_symop_operation_xyz
x,y,z
-x,-y,z
-x,y,z
x,-y,z
x,1/2+y,1/2+z
-x,1/2-y,1/2+z
-x,1/2+y,1/2+z
x,1/2-y,1/2+z
loop_
_atom_site_type_symbol
_atom_site_label
_atom_site_fract_x
_atom_site_fract_y
_atom_site_fract_z
Si Si1 0.791618 0.551368 0.399310
Si Si2 0.209088 0.091927 0.112369
Si Si3 0.715449 0.206062 0.602809
Si Si4 0.212677 0.049202 0.549843
Si Si5 0.800713 0.931447 0.329320
Si Si6 0.709742 0.195728 0.163847
Si Si7 0.711072 0.831161 0.383299
Si Si8 0.700647 0.620155 0.218986
O O1 0.724010 0.500000 0.378082
O O2 0.721671 0.571462 0.506611
O O3 0.770115 0.587921 0.308732
O O4 0.000000 0.547102 0.411833
O O5 0.280342 0.068054 0.216116
O O6 0.232457 0.146501 0.122106
O O7 0.000000 0.084321 0.115163
O O8 0.500000 0.205980 0.606631
O O9 0.776071 0.257766 0.615059
O O10 0.765750 0.188318 0.491262
O O11 0.776764 0.169384 0.687599
O O12 0.277884 0.048698 0.433042
O O13 0.287187 0.089955 0.616096
O O14 0.000000 0.054149 0.548128
O O15 0.252260 0.000000 0.597347
O O16 0.801929 0.878407 0.358194
O O17 0.000000 0.948702 0.321973
O O18 0.500000 0.195127 0.152489
O O19 0.748786 0.199092 0.284490
O O20 0.500000 0.838879 0.385945
O O21 0.500000 0.628382 0.246404
#
# Coordination Sequence:
#
# PCOD9357740 Si02
#       8
#     8   8   8   8   8   8   8   8
#     4  10  22  40  59  78 108 151 190 228 281 339
#     4   9  19  36  56  79 108 139 178 226 273 321
#     4   9  18  32  51  77 106 140 182 223 269 326
#     4  10  20  33  51  77 107 137 170 212 266 325
#     4   9  17  31  52  76 101 131 168 212 260 313
#     4   9  18  32  53  79 105 141 182 221 270 324
#     4   9  16  30  50  70 100 136 168 210 262 315
#     4  11  22  36  55  79 107 141 185 232 272 319
#
# _framework density 21.773097
#
# number of rings (size 3 to 8) (size 9 to 14) (size 15 to 20)
#    0.000    2.500    1.250    0.750    0.000    4.000 
#    0.000    6.875    0.000    3.000    0.000    5.250 
#    0.000    0.000    0.000    0.000    0.000    0.000 
#
# Total GULP energy -178412.365610 kJ/mol
# GULP energy per Si atom -5575.386425 kJ/mol
# Density = 2.172354 g / cm^3
# Si number density = 21.773097 Si / 1000 Ang^3
#
#
#
# Elastic Constant Matrix: (Units=GPa)
#
#
# Indices 1 2 3 4 5 6 
#
# 1 38.1437 3.0938 7.8763 0.0000 0.0000 0.0000
# 2 3.0938 60.0847 30.9783 0.0000 0.0000 0.0000
# 3 7.8763 30.9783 124.0668 0.0000 0.0000 0.0000
# 4 0.0000 0.0000 0.0000 20.0347 0.0000 0.0000
# 5 0.0000 0.0000 0.0000 0.0000 -7.6728 0.0000
# 6 0.0000 0.0000 0.0000 0.0000 0.0000 8.3043
#
#
#
# Elastic Compliance Matrix: (Units=1/GPa)
#
#
# Indices 1 2 3 4 5 6 
#
# 1 0.026582 -0.000572 -0.001545 0.000000 0.000000 0.000000
# 2 -0.000572 0.019115 -0.004736 0.000000 0.000000 0.000000
# 3 -0.001545 -0.004736 0.009341 0.000000 0.000000 0.000000
# 4 0.000000 0.000000 0.000000 0.049913 0.000000 0.000000
# 5 0.000000 0.000000 0.000000 0.000000 -0.130330 0.000000
# 6 0.000000 0.000000 0.000000 0.000000 0.000000 0.120419
#
#
# Mechanical properties :
#
#
# Convention : Reuss Voigt Hill
#
# Bulk Modulus (GPa) = 24.19506 34.02133 29.10820
# Shear Modulus (GPa) = 40.80843 16.15636 28.48240
#
# Velocity S-wave (km/s) = 4.33397 2.72698 3.62075
# Velocity P-wave (km/s) = 6.01505 5.05713 5.55677
#
# Compressibility (1/GPa) = 0.04133074
#
# Stress axis : x y z
#
# Youngs Moduli (GPa) = 37.61946 52.31600 107.05647
#
# Poissons Ratio (x) = 0.02994 0.16536
# Poissons Ratio (y) = 0.02153 0.50706
# Poissons Ratio (z) = 0.05811 0.24779
#
# Static dielectric constant tensor:
#      x y z
#    x 1.823850 0.000000 0.000000 
#    y 0.000000 1.793760 0.000000 
#    z 0.000000 0.000000 1.806930 
# 
# From -- ./inp_files/8626.got.cif
#   From: 2010.05.17/outbox.cif.g08.bks.cpg/sg38_5_cif.got.tgz:8626.got - 2010.06.03 18:07:57.
