data_PCOD9357299
_publ_section_title
;
Structure prediction by ZEFSAII (Michael W. Deem and Ramdas Pophale) SiO2 
 PCOD9357299
Probable space group: A M M 2
;
_chemical_formula_sum "Si O2"
_cell_formula_units_Z 58
_cell_length_a 17.571277
_cell_length_b 10.542072
_cell_length_c 14.527883
_cell_angle_alpha 90.000000
_cell_angle_beta 90.000000
_cell_angle_gamma 90.000000
_cell_volume 2691.111157
_symmetry_space_group_name_H-M "A M M 2"
_symmetry_group_IT_number 38
_symmetry_cell_setting 'orthorhombic'
loop_
_space_group_symop_operation_xyz
x,y,z
-x,-y,z
-x,y,z
x,-y,z
x,1/2+y,1/2+z
-x,1/2-y,1/2+z
-x,1/2+y,1/2+z
x,1/2-y,1/2+z
loop_
_atom_site_type_symbol
_atom_site_label
_atom_site_fract_x
_atom_site_fract_y
_atom_site_fract_z
Si Si1 0.375265 0.643941 0.738590
Si Si2 0.087101 0.356911 0.947575
Si Si3 0.500000 0.500000 0.443142
Si Si4 0.086856 0.856915 0.671975
Si Si5 0.204387 0.141133 0.948262
Si Si6 0.797521 0.640160 0.671268
Si Si7 0.370556 0.279036 0.424733
Si Si8 0.413355 0.858492 0.597374
O O1 0.401012 0.500000 0.718006
O O2 0.284976 0.648234 0.717831
O O3 0.392140 0.686693 0.841594
O O4 0.410376 0.752319 0.675034
O O5 0.108699 0.500000 0.919335
O O6 0.086643 0.355723 0.059764
O O7 0.000000 0.332312 0.918441
O O8 0.146403 0.250234 0.918796
O O9 0.432978 0.388002 0.441131
O O10 0.146506 0.751271 0.701097
O O11 0.000000 0.830704 0.701021
O O12 0.107495 0.000000 0.700312
O O13 0.288018 0.160868 0.906841
O O14 0.175828 0.000000 0.926787
O O15 0.212799 0.148025 0.060117
O O16 0.829708 0.500000 0.690517
O O17 0.362635 0.191371 0.514669
O O18 0.500000 0.863896 0.562752
O O19 0.392530 0.000000 0.630124
#
# Coordination Sequence:
#
# PCOD9357299 Si02
#       8
#     8   8   2   8   8   8   8   8
#     4  11  26  44  67  94 130 169 212 265 329 394
#     4   8  15  28  49  82 122 164 209 259 317 380
#     4  12  28  44  74  96 130 178 222 276 332 400
#     4   8  14  26  46  77 118 160 203 252 308 368
#     4  10  19  34  59  87 123 166 212 264 322 383
#     4   9  18  34  55  84 119 158 207 256 313 382
#     4  12  25  45  68  94 132 172 221 268 334 390
#     4  11  26  44  68  97 127 160 211 267 322 392
#
# _framework density 21.552436
#
# number of rings (size 3 to 8) (size 9 to 14) (size 15 to 20)
#    0.000    2.069    2.759    1.241    2.897    2.483 
#    0.000    2.759    0.000    0.828    0.000    0.000 
#    0.000    0.000    0.000    0.000    0.000    0.000 
#
# Total GULP energy -161766.590189 kJ/mol
# GULP energy per Si atom -5578.158282 kJ/mol
# Density = 2.150338 g / cm^3
# Si number density = 21.552436 Si / 1000 Ang^3
#
#
#
# Elastic Constant Matrix: (Units=GPa)
#
#
# Indices 1 2 3 4 5 6 
#
# 1 91.9766 76.6284 -11.8758 0.0000 0.0000 0.0000
# 2 76.6284 194.4328 20.2430 0.0000 0.0000 0.0000
# 3 -11.8758 20.2430 56.1608 0.0000 0.0000 0.0000
# 4 0.0000 0.0000 0.0000 6.8404 0.0000 0.0000
# 5 0.0000 0.0000 0.0000 0.0000 -18.7568 0.0000
# 6 0.0000 0.0000 0.0000 0.0000 0.0000 40.9428
#
#
#
# Elastic Compliance Matrix: (Units=1/GPa)
#
#
# Indices 1 2 3 4 5 6 
#
# 1 0.018354 -0.007935 0.006741 0.000000 0.000000 0.000000
# 2 -0.007935 0.008775 -0.004841 0.000000 0.000000 0.000000
# 3 0.006741 -0.004841 0.020976 0.000000 0.000000 0.000000
# 4 0.000000 0.000000 0.000000 0.146190 0.000000 0.000000
# 5 0.000000 0.000000 0.000000 0.000000 -0.053314 0.000000
# 6 0.000000 0.000000 0.000000 0.000000 0.000000 0.024424
#
#
# Mechanical properties :
#
#
# Convention : Reuss Voigt Hill
#
# Bulk Modulus (GPa) = 27.75043 56.95125 42.35084
# Shear Modulus (GPa) = 26.38709 22.97693 24.68201
#
# Velocity S-wave (km/s) = 3.50283 3.26865 3.38776
# Velocity P-wave (km/s) = 5.40957 6.38180 5.91569
#
# Compressibility (1/GPa) = 0.03603548
#
# Stress axis : x y z
#
# Youngs Moduli (GPa) = 54.48409 113.96531 47.67254
#
# Poissons Ratio (x) = 0.90436 -0.32138
# Poissons Ratio (y) = 0.43235 0.23077
# Poissons Ratio (z) = -0.36730 0.55168
#
# Static dielectric constant tensor:
#      x y z
#    x 1.778150 0.000000 0.000000 
#    y 0.000000 1.766680 0.000000 
#    z 0.000000 0.000000 1.817160 
# 
# From -- ./inp_files/18698.got.cif
#   From: 2010.05.17/outbox.cif.g08.bks.cpg/sg38_10_cif.got.tgz:18698.got - 2010.06.03 18:07:57.
