data_PCOD9357278
_publ_section_title
;
Structure prediction by ZEFSAII (Michael W. Deem and Ramdas Pophale) SiO2 
 PCOD9357278
Probable space group: A M M 2
;
_chemical_formula_sum "Si O2"
_cell_formula_units_Z 56
_cell_length_a 13.954260
_cell_length_b 14.290023
_cell_length_c 12.267151
_cell_angle_alpha 90.000000
_cell_angle_beta 90.000000
_cell_angle_gamma 90.000000
_cell_volume 2446.152055
_symmetry_space_group_name_H-M "A M M 2"
_symmetry_group_IT_number 38
_symmetry_cell_setting 'orthorhombic'
loop_
_space_group_symop_operation_xyz
x,y,z
-x,-y,z
-x,y,z
x,-y,z
x,1/2+y,1/2+z
-x,1/2-y,1/2+z
-x,1/2+y,1/2+z
x,1/2-y,1/2+z
loop_
_atom_site_type_symbol
_atom_site_label
_atom_site_fract_x
_atom_site_fract_y
_atom_site_fract_z
Si Si1 0.395652 0.892237 0.133580
Si Si2 0.111533 0.700301 0.216711
Si Si3 0.187510 0.893634 0.179321
Si Si4 0.389754 0.757936 0.438017
Si Si5 0.613573 0.601359 0.264193
Si Si6 0.109870 0.110208 0.940943
Si Si7 0.254936 0.892721 0.553068
O O1 0.500000 0.881810 0.188135
O O2 0.299963 0.882397 0.203523
O O3 0.392060 0.000000 0.090932
O O4 0.390801 0.815016 0.039655
O O5 0.127081 0.810832 0.229856
O O6 0.146500 0.654497 0.329476
O O7 0.167205 0.660790 0.111478
O O8 0.000000 0.677566 0.206035
O O9 0.157295 0.000000 0.203733
O O10 0.173023 0.878525 0.048732
O O11 0.500000 0.794188 0.430546
O O12 0.367328 0.691761 0.336092
O O13 0.308615 0.834496 0.460106
O O14 0.500000 0.601355 0.245513
O O15 0.638605 0.500000 0.316748
O O16 0.667441 0.605228 0.150590
O O17 0.000000 0.143922 0.963246
O O18 0.104304 0.000000 0.920960
O O19 0.231134 0.000000 0.523261
#
# Coordination Sequence:
#
# PCOD9357278 Si02
#       7
#     8   8   8   8   8   8   8
#     4   9  17  30  52  85 120 150 184 228 278 335
#     4  11  23  38  57  85 117 149 191 243 297 344
#     4  10  20  37  64  91 116 149 190 236 288 345
#     4  10  19  34  57  85 118 153 188 231 283 335
#     4   9  19  36  60  90 119 149 190 236 281 339
#     4   9  19  36  59  87 115 145 187 239 287 333
#     4  11  23  37  57  85 116 153 198 241 285 337
#
# _framework density 22.893097999999998
#
# number of rings (size 3 to 8) (size 9 to 14) (size 15 to 20)
#    0.000    2.143    1.429    1.714    2.000    4.286 
#    0.000    0.000    0.000    6.857    0.000   10.000 
#    0.000    0.000    0.000    0.000    0.000    0.000 
#
# Total GULP energy -156565.566850 kJ/mol
# GULP energy per Si atom -5591.627387 kJ/mol
# Density = 2.284099 g / cm^3
# Si number density = 22.893098 Si / 1000 Ang^3
#
#
#
# Elastic Constant Matrix: (Units=GPa)
#
#
# Indices 1 2 3 4 5 6 
#
# 1 99.7891 29.5827 18.5891 0.0000 0.0000 0.0000
# 2 29.5827 97.6321 17.8810 0.0000 0.0000 0.0000
# 3 18.5891 17.8810 43.6248 0.0000 0.0000 0.0000
# 4 0.0000 0.0000 0.0000 33.9344 0.0000 0.0000
# 5 0.0000 0.0000 0.0000 0.0000 12.8028 0.0000
# 6 0.0000 0.0000 0.0000 0.0000 0.0000 26.3983
#
#
#
# Elastic Compliance Matrix: (Units=1/GPa)
#
#
# Indices 1 2 3 4 5 6 
#
# 1 0.011557 -0.002811 -0.003773 0.000000 0.000000 0.000000
# 2 -0.002811 0.011758 -0.003621 0.000000 0.000000 0.000000
# 3 -0.003773 -0.003621 0.026015 0.000000 0.000000 0.000000
# 4 0.000000 0.000000 0.000000 0.029469 0.000000 0.000000
# 5 0.000000 0.000000 0.000000 0.000000 0.078108 0.000000
# 6 0.000000 0.000000 0.000000 0.000000 0.000000 0.037881
#
#
# Mechanical properties :
#
#
# Convention : Reuss Voigt Hill
#
# Bulk Modulus (GPa) = 34.57864 41.46128 38.01996
# Shear Modulus (GPa) = 22.23839 26.29332 24.26585
#
# Velocity S-wave (km/s) = 3.12011 3.39267 3.25924
# Velocity P-wave (km/s) = 5.30258 5.78766 5.55042
#
# Compressibility (1/GPa) = 0.02891959
#
# Stress axis : x y z
#
# Youngs Moduli (GPa) = 86.52613 85.05208 38.43996
#
# Poissons Ratio (x) = 0.23908 0.14502
# Poissons Ratio (y) = 0.24322 0.13921
# Poissons Ratio (z) = 0.32642 0.30801
#
# Static dielectric constant tensor:
#      x y z
#    x 1.872730 0.000000 0.000000 
#    y 0.000000 1.865150 0.000000 
#    z 0.000000 0.000000 1.856350 
# 
# From -- ./inp_files/10098.got.cif
#   From: 2010.05.17/outbox.cif.g08.bks.cpg/sg38_6_cif.got.tgz:10098.got - 2010.06.03 18:07:57.
