data_PCOD9357085
_publ_section_title
;
Structure prediction by ZEFSAII (Michael W. Deem and Ramdas Pophale) SiO2 
 PCOD9357085
Probable space group: A M M 2
;
_chemical_formula_sum "Si O2"
_cell_formula_units_Z 64
_cell_length_a 11.501557
_cell_length_b 30.636719
_cell_length_c 9.479368
_cell_angle_alpha 90.000000
_cell_angle_beta 90.000000
_cell_angle_gamma 90.000000
_cell_volume 3340.244617
_symmetry_space_group_name_H-M "A M M 2"
_symmetry_group_IT_number 38
_symmetry_cell_setting 'orthorhombic'
loop_
_space_group_symop_operation_xyz
x,y,z
-x,-y,z
-x,y,z
x,-y,z
x,1/2+y,1/2+z
-x,1/2-y,1/2+z
-x,1/2+y,1/2+z
x,1/2-y,1/2+z
loop_
_atom_site_type_symbol
_atom_site_label
_atom_site_fract_x
_atom_site_fract_y
_atom_site_fract_z
Si Si1 0.373598 0.052273 0.190200
Si Si2 0.364602 0.363893 0.183110
Si Si3 0.358804 0.300157 0.659741
Si Si4 0.131961 0.953007 0.904951
Si Si5 0.719371 0.882739 0.993517
Si Si6 0.261932 0.451619 0.110194
Si Si7 0.640865 0.714191 0.983866
Si Si8 0.129703 0.948086 0.336791
O O1 0.500000 0.063311 0.256949
O O2 0.254398 0.066060 0.269588
O O3 0.371434 0.000000 0.173608
O O4 0.366812 0.078285 0.042768
O O5 0.500000 0.355361 0.208662
O O6 0.305835 0.365358 0.336733
O O7 0.347702 0.410825 0.109301
O O8 0.318329 0.326100 0.080463
O O9 0.500000 0.306099 0.654351
O O10 0.298959 0.343539 0.601002
O O11 0.324497 0.290065 0.820859
O O12 0.328271 0.259581 0.558748
O O13 0.160833 0.909763 0.991334
O O14 0.212961 0.953248 0.768407
O O15 0.000000 0.951875 0.858177
O O16 0.149302 0.000000 0.980424
O O17 0.309978 0.500000 0.073724
O O18 0.156059 0.442918 0.003184
O O19 0.500000 0.712514 0.983089
O O20 0.000000 0.930663 0.299616
O O21 0.124219 0.000000 0.309806
#
# Coordination Sequence:
#
# PCOD9357085 Si02
#       8
#     8   8   8   8   8   8   8   8
#     4  10  21  34  48  71 108 151 191 230 280 338
#     4  10  20  33  50  77 114 149 187 227 272 338
#     4  10  19  33  54  79 109 142 179 225 277 334
#     4   9  18  34  55  78 106 142 190 242 284 328
#     4  11  21  33  52  79 109 147 183 229 280 338
#     4   9  18  31  50  77 108 145 188 235 285 330
#     4   9  19  34  54  79 108 144 183 225 273 332
#     4   9  18  33  52  73 102 143 190 237 280 326
#
# _framework density 19.160273
#
# number of rings (size 3 to 8) (size 9 to 14) (size 15 to 20)
#    0.000    2.375    0.000    2.625    1.750    5.250 
#    0.000    2.500    0.000    0.000    0.000    8.750 
#    0.000    0.000    0.000    0.000    0.000    0.000 
#
# Total GULP energy -178227.197768 kJ/mol
# GULP energy per Si atom -5569.599930 kJ/mol
# Density = 1.911666 g / cm^3
# Si number density = 19.160273 Si / 1000 Ang^3
#
#
#
# Elastic Constant Matrix: (Units=GPa)
#
#
# Indices 1 2 3 4 5 6 
#
# 1 47.5011 12.5620 18.3088 0.0000 0.0000 0.0000
# 2 12.5620 119.4217 51.7871 0.0000 0.0000 0.0000
# 3 18.3088 51.7871 107.8745 0.0000 0.0000 0.0000
# 4 0.0000 0.0000 0.0000 28.0494 0.0000 0.0000
# 5 0.0000 0.0000 0.0000 0.0000 17.5966 0.0000
# 6 0.0000 0.0000 0.0000 0.0000 0.0000 14.1072
#
#
#
# Elastic Compliance Matrix: (Units=1/GPa)
#
#
# Indices 1 2 3 4 5 6 
#
# 1 0.022602 -0.000902 -0.003403 0.000000 0.000000 0.000000
# 2 -0.000902 0.010611 -0.004941 0.000000 0.000000 0.000000
# 3 -0.003403 -0.004941 0.012220 0.000000 0.000000 0.000000
# 4 0.000000 0.000000 0.000000 0.035651 0.000000 0.000000
# 5 0.000000 0.000000 0.000000 0.000000 0.056829 0.000000
# 6 0.000000 0.000000 0.000000 0.000000 0.000000 0.070886
#
#
# Mechanical properties :
#
#
# Convention : Reuss Voigt Hill
#
# Bulk Modulus (GPa) = 37.11790 48.90144 43.00967
# Shear Modulus (GPa) = 21.16204 24.75995 22.96099
#
# Velocity S-wave (km/s) = 3.32697 3.59869 3.46550
# Velocity P-wave (km/s) = 5.84574 6.54562 6.20556
#
# Compressibility (1/GPa) = 0.02694118
#
# Stress axis : x y z
#
# Youngs Moduli (GPa) = 44.24322 94.23978 81.83519
#
# Poissons Ratio (x) = 0.08498 0.27850
# Poissons Ratio (y) = 0.03990 0.40435
# Poissons Ratio (z) = 0.15057 0.46565
#
# Static dielectric constant tensor:
#      x y z
#    x 1.674720 0.000000 0.000000 
#    y 0.000000 1.684200 0.000000 
#    z 0.000000 0.000000 1.735890 
# 
# From -- ./inp_files/4952.got.cif
#   From: 2010.05.17/outbox.cif.g08.bks.cpg/sg38_3_cif.got.tgz:4952.got - 2010.06.03 18:07:57.
