data_PCOD9357452
_publ_section_title
;
Structure prediction by ZEFSAII (Michael W. Deem and Ramdas Pophale) SiO2 
 PCOD9357452
Probable space group: A M M 2
;
_chemical_formula_sum "Si O2"
_cell_formula_units_Z 48
_cell_length_a 15.280253
_cell_length_b 16.915253
_cell_length_c 9.742694
_cell_angle_alpha 90.000000
_cell_angle_beta 90.000000
_cell_angle_gamma 90.000000
_cell_volume 2518.187741
_symmetry_space_group_name_H-M "A M M 2"
_symmetry_group_IT_number 38
_symmetry_cell_setting 'orthorhombic'
loop_
_space_group_symop_operation_xyz
x,y,z
-x,-y,z
-x,y,z
x,-y,z
x,1/2+y,1/2+z
-x,1/2-y,1/2+z
-x,1/2+y,1/2+z
x,1/2-y,1/2+z
loop_
_atom_site_type_symbol
_atom_site_label
_atom_site_fract_x
_atom_site_fract_y
_atom_site_fract_z
Si Si1 0.848377 0.303125 0.203300
Si Si2 0.714547 0.591250 0.351742
Si Si3 0.400489 0.868994 0.597192
Si Si4 0.283145 0.910594 0.342052
Si Si5 0.320860 0.204432 0.108251
Si Si6 0.904543 0.665647 0.901451
O O1 0.802836 0.377846 0.276713
O O2 0.767531 0.252335 0.142646
O O3 0.894071 0.248177 0.317538
O O4 0.901370 0.323263 0.066164
O O5 0.721937 0.500000 0.393235
O O6 0.636294 0.602297 0.242870
O O7 0.694770 0.650710 0.475986
O O8 0.500000 0.892992 0.573741
O O9 0.333999 0.903039 0.484853
O O10 0.391420 0.773439 0.590925
O O11 0.332404 0.852528 0.237607
O O12 0.182337 0.883509 0.361722
O O13 0.285122 0.000000 0.291711
O O14 0.000000 0.631568 0.864347
#
# Coordination Sequence:
#
# PCOD9357452 Si02
#       6
#     8   8   8   8   8   8
#     4  10  19  37  57  89 115 155 198 243 294 343
#     4  11  21  36  60  88 120 153 192 245 302 353
#     4  11  23  40  63  88 118 156 200 246 294 353
#     4  11  23  39  60  90 124 156 193 245 306 351
#     4  10  20  39  61  83 114 155 201 238 286 353
#     4  11  21  36  62  89 120 160 207 247 285 348
#
# _framework density 19.061326999999999
#
# number of rings (size 3 to 8) (size 9 to 14) (size 15 to 20)
#    0.000    1.333    5.000    3.500    0.000    4.333 
#    0.000    0.000    0.000    4.500    0.000    0.000 
#    0.000    0.000    0.000    0.000    0.000    0.000 
#
# Total GULP energy -133945.029064 kJ/mol
# GULP energy per Si atom -5581.042878 kJ/mol
# Density = 1.901794 g / cm^3
# Si number density = 19.061327 Si / 1000 Ang^3
#
#
#
# Elastic Constant Matrix: (Units=GPa)
#
#
# Indices 1 2 3 4 5 6 
#
# 1 88.5762 3.5644 -5.3666 0.0000 0.0000 0.0000
# 2 3.5644 86.4942 -4.7777 0.0000 0.0000 0.0000
# 3 -5.3666 -4.7777 55.4947 0.0000 0.0000 0.0000
# 4 0.0000 0.0000 0.0000 10.3994 0.0000 0.0000
# 5 0.0000 0.0000 0.0000 0.0000 6.7452 0.0000
# 6 0.0000 0.0000 0.0000 0.0000 0.0000 -4.4533
#
#
#
# Elastic Compliance Matrix: (Units=1/GPa)
#
#
# Indices 1 2 3 4 5 6 
#
# 1 0.011371 -0.000410 0.001064 0.000000 0.000000 0.000000
# 2 -0.000410 0.011631 0.000962 0.000000 0.000000 0.000000
# 3 0.001064 0.000962 0.018205 0.000000 0.000000 0.000000
# 4 0.000000 0.000000 0.000000 0.096159 0.000000 0.000000
# 5 0.000000 0.000000 0.000000 0.000000 0.148254 0.000000
# 6 0.000000 0.000000 0.000000 0.000000 0.000000 -0.224554
#
#
# Mechanical properties :
#
#
# Convention : Reuss Voigt Hill
#
# Bulk Modulus (GPa) = 22.50213 24.15613 23.32913
# Shear Modulus (GPa) = 68.82510 18.34794 43.58652
#
# Velocity S-wave (km/s) = 6.01544 3.10590 4.78708
# Velocity P-wave (km/s) = 7.75101 5.05594 6.54373
#
# Compressibility (1/GPa) = 0.04444024
#
# Stress axis : x y z
#
# Youngs Moduli (GPa) = 87.94545 85.97355 54.92857
#
# Poissons Ratio (x) = 0.03523 -0.05846
# Poissons Ratio (y) = 0.03604 -0.05283
# Poissons Ratio (z) = -0.09360 -0.08269
#
# Static dielectric constant tensor:
#      x y z
#    x 1.672100 0.000000 0.000000 
#    y 0.000000 1.671420 0.000000 
#    z 0.000000 0.000000 1.675800 
# 
# From -- ./inp_files/5453.got.cif
#   From: 2010.05.17/outbox.cif.g08.bks.cpg/sg38_3_cif.got.tgz:5453.got - 2010.06.03 18:07:57.
