data_PCOD9357996
_publ_section_title
;
Structure prediction by ZEFSAII (Michael W. Deem and Ramdas Pophale) SiO2 
 PCOD9357996
Probable space group: A M M 2
;
_chemical_formula_sum "Si O2"
_cell_formula_units_Z 64
_cell_length_a 24.888549
_cell_length_b 7.627445
_cell_length_c 15.890802
_cell_angle_alpha 90.000000
_cell_angle_beta 90.000000
_cell_angle_gamma 90.000000
_cell_volume 3016.646902
_symmetry_space_group_name_H-M "A M M 2"
_symmetry_group_IT_number 38
_symmetry_cell_setting 'orthorhombic'
loop_
_space_group_symop_operation_xyz
x,y,z
-x,-y,z
-x,y,z
x,-y,z
x,1/2+y,1/2+z
-x,1/2-y,1/2+z
-x,1/2+y,1/2+z
x,1/2-y,1/2+z
loop_
_atom_site_type_symbol
_atom_site_label
_atom_site_fract_x
_atom_site_fract_y
_atom_site_fract_z
Si Si1 0.326387 0.206688 0.312610
Si Si2 0.742922 0.784862 0.471516
Si Si3 0.866246 0.715032 0.964226
Si Si4 0.440814 0.790117 0.883534
Si Si5 0.938797 0.210274 0.309619
Si Si6 0.558676 0.294890 0.079194
Si Si7 0.938834 0.789670 0.619007
Si Si8 0.327105 0.705959 0.126785
O O1 0.292409 0.274284 0.391878
O O2 0.389405 0.240002 0.329263
O O3 0.309147 0.278708 0.222553
O O4 0.318047 0.000000 0.309442
O O5 0.804524 0.728316 0.465508
O O6 0.713759 0.724583 0.557002
O O7 0.743235 0.000000 0.471332
O O8 0.866023 0.500000 0.964116
O O9 0.898482 0.773601 0.881343
O O10 0.898758 0.773290 0.046948
O O11 0.500000 0.736164 0.851141
O O12 0.440791 0.000000 0.890777
O O13 0.435052 0.715373 0.977941
O O14 0.921618 0.249730 0.214277
O O15 0.000000 0.277433 0.320704
O O16 0.941278 0.000000 0.317855
O O17 0.500000 0.217484 0.099781
O O18 0.556312 0.500000 0.103907
O O19 0.612858 0.216448 0.117519
O O20 0.000000 0.722548 0.607964
O O21 0.941246 0.000000 0.611055
O O22 0.332820 0.500000 0.106727
#
# Coordination Sequence:
#
# PCOD9357996 Si02
#       8
#     8   8   8   8   8   8   8   8
#     4  11  22  37  56  79 105 138 177 218 263 315
#     4   9  19  36  54  74 104 139 178 219 263 310
#     4   9  17  31  53  75  99 139 182 217 254 308
#     4  10  20  34  55  82 109 136 169 212 262 315
#     4   9  17  30  50  77 107 138 174 215 260 310
#     4   9  17  32  55  79 105 137 169 207 259 315
#     4   9  17  30  50  77 106 135 171 215 262 311
#     4  10  20  36  55  77 104 138 176 216 262 316
#
# _framework density 21.215608
#
# number of rings (size 3 to 8) (size 9 to 14) (size 15 to 20)
#    0.000    2.500    1.250    1.125    0.000    4.250 
#    0.000    1.875    0.000    6.000    0.000    0.000 
#    0.000    0.000    0.000    0.000    0.000    0.000 
#
# Total GULP energy -178641.004399 kJ/mol
# GULP energy per Si atom -5582.531387 kJ/mol
# Density = 2.116732 g / cm^3
# Si number density = 21.215608 Si / 1000 Ang^3
#
#
#
# Elastic Constant Matrix: (Units=GPa)
#
#
# Indices 1 2 3 4 5 6 
#
# 1 160.4783 5.2665 119.4639 0.0000 0.0000 0.0000
# 2 5.2665 36.8844 -9.4534 0.0000 0.0000 0.0000
# 3 119.4639 -9.4534 161.9586 0.0000 0.0000 0.0000
# 4 0.0000 0.0000 0.0000 11.7640 0.0000 0.0000
# 5 0.0000 0.0000 0.0000 0.0000 -72.8561 0.0000
# 6 0.0000 0.0000 0.0000 0.0000 0.0000 4.5276
#
#
#
# Elastic Compliance Matrix: (Units=1/GPa)
#
#
# Indices 1 2 3 4 5 6 
#
# 1 0.014655 -0.004937 -0.011098 0.000000 0.000000 0.000000
# 2 -0.004937 0.029187 0.005345 0.000000 0.000000 0.000000
# 3 -0.011098 0.005345 0.014672 0.000000 0.000000 0.000000
# 4 0.000000 0.000000 0.000000 0.085005 0.000000 0.000000
# 5 0.000000 0.000000 0.000000 0.000000 -0.013726 0.000000
# 6 0.000000 0.000000 0.000000 0.000000 0.000000 0.220870
#
#
# Mechanical properties :
#
#
# Convention : Reuss Voigt Hill
#
# Bulk Modulus (GPa) = 26.92904 65.54170 46.23537
# Shear Modulus (GPa) = 13.00658 4.95672 8.98165
#
# Velocity S-wave (km/s) = 2.47870 1.53017 2.05978
# Velocity P-wave (km/s) = 4.57302 5.83799 5.24379
#
# Compressibility (1/GPa) = 0.03713464
#
# Stress axis : x y z
#
# Youngs Moduli (GPa) = 68.23614 34.26231 68.15475
#
# Poissons Ratio (x) = 0.16915 0.75638
# Poissons Ratio (y) = 0.33688 -0.36430
# Poissons Ratio (z) = 0.75728 -0.18314
#
# Static dielectric constant tensor:
#      x y z
#    x 1.758250 0.000000 0.000000 
#    y 0.000000 1.803880 0.000000 
#    z 0.000000 0.000000 1.738500 
# 
# From -- ./inp_files/15764.got.cif
#   From: 2010.05.17/outbox.cif.g08.bks.cpg/sg38_8_cif.got.tgz:15764.got - 2010.06.03 18:07:57.
