data_PCOD9357686
_publ_section_title
;
Structure prediction by ZEFSAII (Michael W. Deem and Ramdas Pophale) SiO2 
 PCOD9357686
Probable space group: A M M 2
;
_chemical_formula_sum "Si O2"
_cell_formula_units_Z 64
_cell_length_a 7.970498
_cell_length_b 18.358785
_cell_length_c 21.293669
_cell_angle_alpha 90.000000
_cell_angle_beta 90.000000
_cell_angle_gamma 90.000000
_cell_volume 3115.874033
_symmetry_space_group_name_H-M "A M M 2"
_symmetry_group_IT_number 38
_symmetry_cell_setting 'orthorhombic'
loop_
_space_group_symop_operation_xyz
x,y,z
-x,-y,z
-x,y,z
x,-y,z
x,1/2+y,1/2+z
-x,1/2-y,1/2+z
-x,1/2+y,1/2+z
x,1/2-y,1/2+z
loop_
_atom_site_type_symbol
_atom_site_label
_atom_site_fract_x
_atom_site_fract_y
_atom_site_fract_z
Si Si1 0.198914 0.578772 0.965330
Si Si2 0.806039 0.380287 0.696494
Si Si3 0.701011 0.701240 0.328469
Si Si4 0.206070 0.370401 0.560726
Si Si5 0.701244 0.787107 0.691636
Si Si6 0.201468 0.202193 0.557289
Si Si7 0.698069 0.368539 0.833441
Si Si8 0.798421 0.921419 0.925959
O O1 0.270109 0.500000 0.983936
O O2 0.221833 0.589514 0.891172
O O3 0.000000 0.577388 0.978095
O O4 0.267629 0.647646 0.004160
O O5 0.737389 0.402707 0.627928
O O6 0.788101 0.292238 0.692295
O O7 0.726670 0.399431 0.763423
O O8 0.000000 0.401488 0.699963
O O9 0.500000 0.705122 0.330076
O O10 0.748558 0.676624 0.257827
O O11 0.762533 0.784564 0.336077
O O12 0.754473 0.645920 0.381842
O O13 0.261547 0.285904 0.553342
O O14 0.259907 0.410135 0.497532
O O15 0.000000 0.370997 0.563232
O O16 0.500000 0.775397 0.691469
O O17 0.752943 0.824801 0.627123
O O18 0.000000 0.206219 0.551911
O O19 0.500000 0.367424 0.844327
O O20 0.000000 0.923156 0.928544
O O21 0.737808 0.000000 0.901997
#
# Coordination Sequence:
#
# PCOD9357686 Si02
#       8
#     8   8   8   8   8   8   8   8
#     4  10  21  36  53  75 104 138 175 213 255 306
#     4   9  16  29  51  76 101 131 166 207 255 302
#     4   9  19  34  51  73 101 133 167 203 248 301
#     4   8  15  29  49  73  99 127 161 201 248 298
#     4   9  17  30  49  75 103 128 162 210 257 303
#     4   9  17  31  52  75  99 130 167 208 253 301
#     4  10  20  34  53  78 105 133 168 210 256 306
#     4  10  20  33  50  73 100 131 168 208 248 292
#
# _framework density 20.539982999999999
#
# number of rings (size 3 to 8) (size 9 to 14) (size 15 to 20)
#    0.000    2.750    0.000    3.375    0.000    5.000 
#    0.000    5.625    0.000    4.500    0.000    0.000 
#    0.000    0.000    0.000    0.000    0.000    0.000 
#
# Total GULP energy -178372.683119 kJ/mol
# GULP energy per Si atom -5574.146347 kJ/mol
# Density = 2.049323 g / cm^3
# Si number density = 20.539983 Si / 1000 Ang^3
#
#
#
# Elastic Constant Matrix: (Units=GPa)
#
#
# Indices 1 2 3 4 5 6 
#
# 1 8.9931 3.4572 -12.2689 0.0000 0.0000 0.0000
# 2 3.4572 53.4034 19.3578 0.0000 0.0000 0.0000
# 3 -12.2689 19.3578 88.1164 0.0000 0.0000 0.0000
# 4 0.0000 0.0000 0.0000 -19.4274 0.0000 0.0000
# 5 0.0000 0.0000 0.0000 0.0000 114.5900 0.0000
# 6 0.0000 0.0000 0.0000 0.0000 0.0000 0.5963
#
#
#
# Elastic Compliance Matrix: (Units=1/GPa)
#
#
# Indices 1 2 3 4 5 6 
#
# 1 0.153499 -0.019214 0.025593 0.000000 0.000000 0.000000
# 2 -0.019214 0.022751 -0.007673 0.000000 0.000000 0.000000
# 3 0.025593 -0.007673 0.016598 0.000000 0.000000 0.000000
# 4 0.000000 0.000000 0.000000 -0.051474 0.000000 0.000000
# 5 0.000000 0.000000 0.000000 0.000000 0.008727 0.000000
# 6 0.000000 0.000000 0.000000 0.000000 0.000000 1.676978
#
#
# Mechanical properties :
#
#
# Convention : Reuss Voigt Hill
#
# Bulk Modulus (GPa) = 5.25599 19.06722 12.16160
# Shear Modulus (GPa) = 2.64119 28.48290 15.56204
#
# Velocity S-wave (km/s) = 1.13520 3.72789 2.75552
# Velocity P-wave (km/s) = 2.06947 5.27567 4.00720
#
# Compressibility (1/GPa) = 0.19025912
#
# Stress axis : x y z
#
# Youngs Moduli (GPa) = 6.51472 43.95473 60.24883
#
# Poissons Ratio (x) = 0.84456 -1.54198
# Poissons Ratio (y) = 0.12518 0.46230
# Poissons Ratio (z) = -0.16673 0.33728
#
# Static dielectric constant tensor:
#      x y z
#    x 1.734870 0.000000 0.000000 
#    y 0.000000 1.744130 0.000000 
#    z 0.000000 0.000000 1.760350 
# 
# From -- ./inp_files/20111.got.cif
#   From: 2010.05.17/outbox.cif.g08.bks.cpg/sg38_11_cif.got.tgz:20111.got - 2010.06.03 18:07:57.
