data_PCOD9357193
_publ_section_title
;
Structure prediction by ZEFSAII (Michael W. Deem and Ramdas Pophale) SiO2 
 PCOD9357193
Probable space group: A M M 2
;
_chemical_formula_sum "Si O2"
_cell_formula_units_Z 56
_cell_length_a 7.717472
_cell_length_b 21.546269
_cell_length_c 15.274050
_cell_angle_alpha 90.000000
_cell_angle_beta 90.000000
_cell_angle_gamma 90.000000
_cell_volume 2539.810697
_symmetry_space_group_name_H-M "A M M 2"
_symmetry_group_IT_number 38
_symmetry_cell_setting 'orthorhombic'
loop_
_space_group_symop_operation_xyz
x,y,z
-x,-y,z
-x,y,z
x,-y,z
x,1/2+y,1/2+z
-x,1/2-y,1/2+z
-x,1/2+y,1/2+z
x,1/2-y,1/2+z
loop_
_atom_site_type_symbol
_atom_site_label
_atom_site_fract_x
_atom_site_fract_y
_atom_site_fract_z
Si Si1 0.791676 0.113819 0.560270
Si Si2 0.212129 0.865195 0.369809
Si Si3 0.204065 0.881938 0.991804
Si Si4 0.209654 0.221331 0.863374
Si Si5 0.210470 0.500000 0.178389
Si Si6 0.198555 0.127211 0.179420
Si Si7 0.700380 0.231868 0.670711
Si Si8 0.703075 0.500000 0.381773
O O1 0.730100 0.104509 0.460543
O O2 0.750424 0.182006 0.597649
O O3 0.000000 0.109370 0.557932
O O4 0.728543 0.061028 0.626395
O O5 0.260903 0.792621 0.375829
O O6 0.275360 0.888091 0.274844
O O7 0.000000 0.867447 0.367320
O O8 0.276756 0.822599 0.940308
O O9 0.000000 0.869031 0.006378
O O10 0.219358 0.939595 0.927520
O O11 0.279406 0.894735 0.088071
O O12 0.268982 0.201790 0.766478
O O13 0.000000 0.218624 0.863263
O O14 0.266230 0.500000 0.278502
O O15 0.000000 0.500000 0.177985
O O16 0.199459 0.202688 0.171251
O O17 0.000000 0.104556 0.182739
O O18 0.500000 0.247923 0.661381
O O19 0.500000 0.500000 0.399203
#
# Coordination Sequence:
#
# PCOD9357193 Si02
#       8
#     8   8   8   8   4   8   8   4
#     4  10  19  34  54  76 104 139 177 219 265 312
#     4   8  15  30  54  81 106 131 165 209 261 313
#     4  10  20  36  59  81 103 137 182 223 262 310
#     4   9  17  31  52  77 104 137 174 215 263 315
#     4  10  22  38  57  78 102 136 181 226 263 306
#     4   9  18  35  57  80 106 137 171 213 262 313
#     4  11  21  31  48  78 111 142 175 214 260 314
#     4  12  26  40  55  76 108 142 173 216 267 316
#
# _framework density 22.048888000000002
#
# number of rings (size 3 to 8) (size 9 to 14) (size 15 to 20)
#    0.000    2.286    0.000    4.500    0.000    7.429 
#    0.000    6.429    0.000    3.429    0.000    1.000 
#    0.000    0.000    0.000    0.000    0.000    0.000 
#
# Total GULP energy -156328.235753 kJ/mol
# GULP energy per Si atom -5583.151277 kJ/mol
# Density = 2.199870 g / cm^3
# Si number density = 22.048888 Si / 1000 Ang^3
#
#
#
# Elastic Constant Matrix: (Units=GPa)
#
#
# Indices 1 2 3 4 5 6 
#
# 1 43.9230 -8.3555 -2.3410 0.0000 0.0000 0.0000
# 2 -8.3555 20.7694 31.6332 0.0000 0.0000 0.0000
# 3 -2.3410 31.6332 211.4010 0.0000 0.0000 0.0000
# 4 0.0000 0.0000 0.0000 -31.8301 0.0000 0.0000
# 5 0.0000 0.0000 0.0000 0.0000 -50.4138 0.0000
# 6 0.0000 0.0000 0.0000 0.0000 0.0000 -38.1029
#
#
#
# Elastic Compliance Matrix: (Units=1/GPa)
#
#
# Indices 1 2 3 4 5 6 
#
# 1 0.025062 0.012511 -0.001595 0.000000 0.000000 0.000000
# 2 0.012511 0.068606 -0.010127 0.000000 0.000000 0.000000
# 3 -0.001595 -0.010127 0.006228 0.000000 0.000000 0.000000
# 4 0.000000 0.000000 0.000000 -0.031417 0.000000 0.000000
# 5 0.000000 0.000000 0.000000 0.000000 -0.019836 0.000000
# 6 0.000000 0.000000 0.000000 0.000000 0.000000 -0.026245
#
#
# Mechanical properties :
#
#
# Convention : Reuss Voigt Hill
#
# Bulk Modulus (GPa) = 9.85468 35.32963 22.59216
# Shear Modulus (GPa) = 91.49969 -7.05892 42.22038
#
# Velocity S-wave (km/s) = 6.44893 -1.79121 4.38065
# Velocity P-wave (km/s) = 7.74149 3.43223 5.98794
#
# Compressibility (1/GPa) = 0.10147461
#
# Stress axis : x y z
#
# Youngs Moduli (GPa) = 39.90079 14.57603 160.56251
#
# Poissons Ratio (x) = -0.18236 0.25603
# Poissons Ratio (y) = -0.49921 1.62607
# Poissons Ratio (z) = 0.06363 0.14762
#
# Static dielectric constant tensor:
#      x y z
#    x 1.806710 0.000000 0.000000 
#    y 0.000000 1.776610 0.000000 
#    z 0.000000 0.000000 1.851310 
# 
# From -- ./inp_files/12477.got.cif
#   From: 2010.05.17/outbox.cif.g08.bks.cpg/sg38_7_cif.got.tgz:12477.got - 2010.06.03 18:07:57.
