data_PCOD9357248
_publ_section_title
;
Structure prediction by ZEFSAII (Michael W. Deem and Ramdas Pophale) SiO2 
 PCOD9357248
Probable space group: A M M 2
;
_chemical_formula_sum "Si O2"
_cell_formula_units_Z 48
_cell_length_a 7.495777
_cell_length_b 18.773994
_cell_length_c 15.725635
_cell_angle_alpha 90.000000
_cell_angle_beta 90.000000
_cell_angle_gamma 90.000000
_cell_volume 2213.000560
_symmetry_space_group_name_H-M "A M M 2"
_symmetry_group_IT_number 38
_symmetry_cell_setting 'orthorhombic'
loop_
_space_group_symop_operation_xyz
x,y,z
-x,-y,z
-x,y,z
x,-y,z
x,1/2+y,1/2+z
-x,1/2-y,1/2+z
-x,1/2+y,1/2+z
x,1/2-y,1/2+z
loop_
_atom_site_type_symbol
_atom_site_label
_atom_site_fract_x
_atom_site_fract_y
_atom_site_fract_z
Si Si1 0.787094 0.000000 0.332240
Si Si2 0.718759 0.269384 0.252364
Si Si3 0.217585 0.500000 0.639769
Si Si4 0.288478 0.156873 0.395209
Si Si5 0.702848 0.227582 0.560206
Si Si6 0.288805 0.077055 0.818714
Si Si7 0.213727 0.381797 0.508788
O O1 0.733614 0.926037 0.375300
O O2 0.717716 0.000000 0.235565
O O3 0.000000 0.000000 0.328396
O O4 0.500000 0.266470 0.253733
O O5 0.779576 0.208112 0.318645
O O6 0.779475 0.261144 0.154609
O O7 0.778319 0.348153 0.281678
O O8 0.273213 0.430964 0.586741
O O9 0.000000 0.500000 0.640060
O O10 0.500000 0.171860 0.400053
O O11 0.213333 0.177227 0.488167
O O12 0.500000 0.202105 0.575062
O O13 0.702727 0.304479 0.515999
O O14 0.500000 0.076516 0.801020
O O15 0.216297 0.000000 0.789488
O O16 0.261747 0.082538 0.919791
O O17 0.000000 0.374373 0.512369
#
# Coordination Sequence:
#
# PCOD9357248 Si02
#       7
#     4   8   4   8   8   8   8
#     4  11  23  39  57  78 109 146 188 229 273 324
#     4   9  18  35  58  85 112 141 182 231 275 324
#     4   9  20  35  51  78 113 144 176 225 279 330
#     4  10  20  37  58  81 113 144 180 228 276 326
#     4  10  20  36  58  82 109 144 185 229 274 322
#     4  10  19  34  56  83 114 144 181 225 271 326
#     4  11  20  33  54  80 113 145 179 221 276 335
#
# _framework density 21.690006
#
# number of rings (size 3 to 8) (size 9 to 14) (size 15 to 20)
#    0.000    2.000    2.500    1.750    0.000    0.667 
#    1.500    3.333    0.000    0.000    0.000    0.000 
#    0.000    0.000    0.000    0.000    0.000    0.000 
#
# Total GULP energy -133983.492891 kJ/mol
# GULP energy per Si atom -5582.645537 kJ/mol
# Density = 2.164064 g / cm^3
# Si number density = 21.690006 Si / 1000 Ang^3
#
#
#
# Elastic Constant Matrix: (Units=GPa)
#
#
# Indices 1 2 3 4 5 6 
#
# 1 58.4193 -4.1124 -3.3237 0.0000 0.0000 0.0000
# 2 -4.1124 151.3712 54.4635 0.0000 0.0000 0.0000
# 3 -3.3237 54.4635 103.1079 0.0000 0.0000 0.0000
# 4 0.0000 0.0000 0.0000 11.1570 0.0000 0.0000
# 5 0.0000 0.0000 0.0000 0.0000 3.3542 0.0000
# 6 0.0000 0.0000 0.0000 0.0000 0.0000 -1.6107
#
#
#
# Elastic Compliance Matrix: (Units=1/GPa)
#
#
# Indices 1 2 3 4 5 6 
#
# 1 0.017162 0.000330 0.000379 0.000000 0.000000 0.000000
# 2 0.000330 0.008163 -0.004301 0.000000 0.000000 0.000000
# 3 0.000379 -0.004301 0.011983 0.000000 0.000000 0.000000
# 4 0.000000 0.000000 0.000000 0.089630 0.000000 0.000000
# 5 0.000000 0.000000 0.000000 0.000000 0.298130 0.000000
# 6 0.000000 0.000000 0.000000 0.000000 0.000000 -0.620866
#
#
# Mechanical properties :
#
#
# Convention : Reuss Voigt Hill
#
# Bulk Modulus (GPa) = 33.19670 45.21702 39.20686
# Shear Modulus (GPa) = -27.99972 20.30485 -3.84743
#
# Velocity S-wave (km/s) = -3.59681 3.06296 -1.33330
# Velocity P-wave (km/s) = 1.38244 5.77937 3.96800
#
# Compressibility (1/GPa) = 0.03012347
#
# Stress axis : x y z
#
# Youngs Moduli (GPa) = 58.26682 122.50733 83.45355
#
# Poissons Ratio (x) = -0.04042 -0.03163
# Poissons Ratio (y) = -0.01922 0.35894
# Poissons Ratio (z) = -0.02208 0.52692
#
# Static dielectric constant tensor:
#      x y z
#    x 1.820530 0.000000 0.000000 
#    y 0.000000 1.806840 0.000000 
#    z 0.000000 0.000000 1.788170 
# 
# From -- ./inp_files/12083.got.cif
#   From: 2010.05.17/outbox.cif.g08.bks.cpg/sg38_7_cif.got.tgz:12083.got - 2010.06.03 18:07:57.
