data_PCOD9357177
_publ_section_title
;
Structure prediction by ZEFSAII (Michael W. Deem and Ramdas Pophale) SiO2 
 PCOD9357177
Probable space group: A M M 2
;
_chemical_formula_sum "Si O2"
_cell_formula_units_Z 48
_cell_length_a 19.543476
_cell_length_b 8.114854
_cell_length_c 15.216083
_cell_angle_alpha 90.000000
_cell_angle_beta 90.000000
_cell_angle_gamma 90.000000
_cell_volume 2413.155949
_symmetry_space_group_name_H-M "A M M 2"
_symmetry_group_IT_number 38
_symmetry_cell_setting 'orthorhombic'
loop_
_space_group_symop_operation_xyz
x,y,z
-x,-y,z
-x,y,z
x,-y,z
x,1/2+y,1/2+z
-x,1/2-y,1/2+z
-x,1/2+y,1/2+z
x,1/2-y,1/2+z
loop_
_atom_site_type_symbol
_atom_site_label
_atom_site_fract_x
_atom_site_fract_y
_atom_site_fract_z
Si Si1 0.000000 0.200524 0.340001
Si Si2 0.394379 0.301049 0.438104
Si Si3 0.500000 0.701084 0.288994
Si Si4 0.849434 0.192207 0.588728
Si Si5 0.238480 0.193010 0.929838
Si Si6 0.500000 0.696583 0.085624
Si Si7 0.853697 0.193209 0.272518
Si Si8 0.000000 0.300076 0.044462
O O1 0.929821 0.257155 0.295929
O O2 0.000000 0.246875 0.442153
O O3 0.000000 0.000000 0.337910
O O4 0.394751 0.500000 0.438049
O O5 0.435447 0.248169 0.350071
O O6 0.316092 0.244272 0.436954
O O7 0.435314 0.248818 0.525608
O O8 0.500000 0.500000 0.286306
O O9 0.500000 0.758522 0.187238
O O10 0.801282 0.284825 0.521042
O O11 0.825679 0.213554 0.688056
O O12 0.928007 0.256111 0.584441
O O13 0.849971 0.000000 0.562986
O O14 0.194323 0.283410 0.856087
O O15 0.240658 0.000000 0.906739
O O16 0.500000 0.500000 0.090684
O O17 0.858726 0.000000 0.251511
O O18 0.000000 0.500000 0.050997
#
# Coordination Sequence:
#
# PCOD9357177 Si02
#       8
#     4   8   4   8   8   4   8   4
#     4   9  17  34  58  81 108 146 190 241 300 349
#     4   9  20  39  59  80 115 155 186 224 277 333
#     4   8  16  35  60  83 108 143 179 216 266 322
#     4  11  22  38  59  82 113 151 194 244 295 350
#     4  11  23  39  58  84 116 154 198 238 285 344
#     4  10  19  33  60  93 116 141 187 230 270 330
#     4  11  22  38  59  83 114 150 192 243 297 352
#     4   9  17  34  58  81 106 146 194 241 298 349
#
# _framework density 19.890965999999999
#
# number of rings (size 3 to 8) (size 9 to 14) (size 15 to 20)
#    0.000    2.000    1.667    2.750    0.000    2.667 
#    0.000    8.333    0.000    0.000    0.000    0.000 
#    0.000    0.000    0.000    0.000    0.000    0.000 
#
# Total GULP energy -133988.233716 kJ/mol
# GULP energy per Si atom -5582.843072 kJ/mol
# Density = 1.984569 g / cm^3
# Si number density = 19.890966 Si / 1000 Ang^3
#
#
#
# Elastic Constant Matrix: (Units=GPa)
#
#
# Indices 1 2 3 4 5 6 
#
# 1 147.9783 8.6674 58.6936 0.0000 0.0000 0.0000
# 2 8.6674 24.7456 -2.7222 0.0000 0.0000 0.0000
# 3 58.6936 -2.7222 146.8980 0.0000 0.0000 0.0000
# 4 0.0000 0.0000 0.0000 27.0430 0.0000 0.0000
# 5 0.0000 0.0000 0.0000 0.0000 -41.2123 0.0000
# 6 0.0000 0.0000 0.0000 0.0000 0.0000 13.9509
#
#
#
# Elastic Compliance Matrix: (Units=1/GPa)
#
#
# Indices 1 2 3 4 5 6 
#
# 1 0.008287 -0.003273 -0.003372 0.000000 0.000000 0.000000
# 2 -0.003273 0.041787 0.002082 0.000000 0.000000 0.000000
# 3 -0.003372 0.002082 0.008193 0.000000 0.000000 0.000000
# 4 0.000000 0.000000 0.000000 0.036978 0.000000 0.000000
# 5 0.000000 0.000000 0.000000 0.000000 -0.024265 0.000000
# 6 0.000000 0.000000 0.000000 0.000000 0.000000 0.071680
#
#
# Mechanical properties :
#
#
# Convention : Reuss Voigt Hill
#
# Bulk Modulus (GPa) = 20.34954 49.87771 35.11362
# Shear Modulus (GPa) = 29.73242 16.95519 23.34381
#
# Velocity S-wave (km/s) = 3.87042 2.92277 3.42948
# Velocity P-wave (km/s) = 5.49784 6.04319 5.77695
#
# Compressibility (1/GPa) = 0.04914116
#
# Stress axis : x y z
#
# Youngs Moduli (GPa) = 120.67362 23.93098 122.05244
#
# Poissons Ratio (x) = 0.07834 0.41152
# Poissons Ratio (y) = 0.39502 -0.25415
# Poissons Ratio (z) = 0.40687 -0.04983
#
# Static dielectric constant tensor:
#      x y z
#    x 1.703340 0.000000 0.000000 
#    y 0.000000 1.699530 0.000000 
#    z 0.000000 0.000000 1.673630 
# 
# From -- ./inp_files/15118.got.cif
#   From: 2010.05.17/outbox.cif.g08.bks.cpg/sg38_8_cif.got.tgz:15118.got - 2010.06.03 18:07:57.
