data_PCOD9357119
_publ_section_title
;
Structure prediction by ZEFSAII (Michael W. Deem and Ramdas Pophale) SiO2 
 PCOD9357119
Probable space group: A M M 2
;
_chemical_formula_sum "Si O2"
_cell_formula_units_Z 64
_cell_length_a 8.295892
_cell_length_b 29.484281
_cell_length_c 12.916007
_cell_angle_alpha 90.000000
_cell_angle_beta 90.000000
_cell_angle_gamma 90.000000
_cell_volume 3159.234787
_symmetry_space_group_name_H-M "A M M 2"
_symmetry_group_IT_number 38
_symmetry_cell_setting 'orthorhombic'
loop_
_space_group_symop_operation_xyz
x,y,z
-x,-y,z
-x,y,z
x,-y,z
x,1/2+y,1/2+z
-x,1/2-y,1/2+z
-x,1/2+y,1/2+z
x,1/2-y,1/2+z
loop_
_atom_site_type_symbol
_atom_site_label
_atom_site_fract_x
_atom_site_fract_y
_atom_site_fract_z
Si Si1 0.191360 0.551293 0.400630
Si Si2 0.308332 0.092997 0.114300
Si Si3 0.696741 0.207103 0.613348
Si Si4 0.194682 0.049237 0.556496
Si Si5 0.815256 0.929187 0.332513
Si Si6 0.691104 0.194615 0.165477
Si Si7 0.689529 0.834178 0.391300
Si Si8 0.690016 0.618839 0.223090
O O1 0.257287 0.500000 0.382427
O O2 0.235539 0.568122 0.515550
O O3 0.245072 0.589347 0.318348
O O4 0.000000 0.548428 0.391689
O O5 0.500000 0.094825 0.101252
O O6 0.271786 0.067698 0.222641
O O7 0.246860 0.145369 0.127410
O O8 0.500000 0.208819 0.622259
O O9 0.759587 0.258238 0.624075
O O10 0.731733 0.188758 0.498815
O O11 0.753432 0.169468 0.696834
O O12 0.248851 0.048129 0.437082
O O13 0.274876 0.088979 0.620897
O O14 0.000000 0.055717 0.556744
O O15 0.227804 0.000000 0.604835
O O16 0.800311 0.876771 0.366229
O O17 0.000000 0.942957 0.317650
O O18 0.500000 0.193690 0.139931
O O19 0.702950 0.196743 0.289911
O O20 0.500000 0.849013 0.395819
O O21 0.500000 0.622965 0.238603
#
# Coordination Sequence:
#
# PCOD9357119 Si02
#       8
#     8   8   8   8   8   8   8   8
#     4  11  25  44  63  82 114 161 202 241 300 368
#     4  10  21  38  62  88 115 147 192 245 293 340
#     4   9  17  30  52  83 115 150 193 241 293 346
#     4  10  21  36  54  78 110 149 188 226 279 347
#     4  10  19  33  55  80 110 148 186 226 282 348
#     4   8  16  30  52  83 114 150 190 236 292 348
#     4   9  16  30  51  74 107 145 185 235 285 334
#     4  11  22  36  58  87 115 147 195 248 293 339
#
# _framework density 20.258071000000001
#
# number of rings (size 3 to 8) (size 9 to 14) (size 15 to 20)
#    0.000    2.250    1.250    2.625    0.000    4.750 
#    0.000    5.000    0.000   14.250    0.000    0.000 
#    0.000    0.000    0.000    0.000    0.000    0.000 
#
# Total GULP energy -178414.895543 kJ/mol
# GULP energy per Si atom -5575.465486 kJ/mol
# Density = 2.021196 g / cm^3
# Si number density = 20.258071 Si / 1000 Ang^3
#
#
#
# Elastic Constant Matrix: (Units=GPa)
#
#
# Indices 1 2 3 4 5 6 
#
# 1 17.8414 5.0130 6.8067 0.0000 0.0000 0.0000
# 2 5.0130 58.7739 15.1129 0.0000 0.0000 0.0000
# 3 6.8067 15.1129 75.4647 0.0000 0.0000 0.0000
# 4 0.0000 0.0000 0.0000 16.6589 0.0000 0.0000
# 5 0.0000 0.0000 0.0000 0.0000 15.1291 0.0000
# 6 0.0000 0.0000 0.0000 0.0000 0.0000 23.3028
#
#
#
# Elastic Compliance Matrix: (Units=1/GPa)
#
#
# Indices 1 2 3 4 5 6 
#
# 1 0.058863 -0.003854 -0.004537 0.000000 0.000000 0.000000
# 2 -0.003854 0.018190 -0.003295 0.000000 0.000000 0.000000
# 3 -0.004537 -0.003295 0.014320 0.000000 0.000000 0.000000
# 4 0.000000 0.000000 0.000000 0.060028 0.000000 0.000000
# 5 0.000000 0.000000 0.000000 0.000000 0.066098 0.000000
# 6 0.000000 0.000000 0.000000 0.000000 0.000000 0.042913
#
#
# Mechanical properties :
#
#
# Convention : Reuss Voigt Hill
#
# Bulk Modulus (GPa) = 14.70571 22.88280 18.79425
# Shear Modulus (GPa) = 16.31571 19.36134 17.83852
#
# Velocity S-wave (km/s) = 2.84102 3.09485 2.97065
# Velocity P-wave (km/s) = 4.24698 4.90825 4.58954
#
# Compressibility (1/GPa) = 0.06800080
#
# Stress axis : x y z
#
# Youngs Moduli (GPa) = 16.98853 54.97401 69.83036
#
# Poissons Ratio (x) = 0.21186 0.31685
# Poissons Ratio (y) = 0.06547 0.23011
# Poissons Ratio (z) = 0.07709 0.18115
#
# Static dielectric constant tensor:
#      x y z
#    x 1.727820 0.000000 0.000000 
#    y 0.000000 1.765550 0.000000 
#    z 0.000000 0.000000 1.710390 
# 
# From -- ./inp_files/8623.got.cif
#   From: 2010.05.17/outbox.cif.g08.bks.cpg/sg38_5_cif.got.tgz:8623.got - 2010.06.03 18:07:57.
