data_PCOD9357271
_publ_section_title
;
Structure prediction by ZEFSAII (Michael W. Deem and Ramdas Pophale) SiO2 
 PCOD9357271
Probable space group: A M M 2
;
_chemical_formula_sum "Si O2"
_cell_formula_units_Z 56
_cell_length_a 9.404854
_cell_length_b 20.289688
_cell_length_c 15.493228
_cell_angle_alpha 90.000000
_cell_angle_beta 90.000000
_cell_angle_gamma 90.000000
_cell_volume 2956.441833
_symmetry_space_group_name_H-M "A M M 2"
_symmetry_group_IT_number 38
_symmetry_cell_setting 'orthorhombic'
loop_
_space_group_symop_operation_xyz
x,y,z
-x,-y,z
-x,y,z
x,-y,z
x,1/2+y,1/2+z
-x,1/2-y,1/2+z
-x,1/2+y,1/2+z
x,1/2-y,1/2+z
loop_
_atom_site_type_symbol
_atom_site_label
_atom_site_fract_x
_atom_site_fract_y
_atom_site_fract_z
Si Si1 0.329029 0.295563 0.539880
Si Si2 0.336578 0.751164 0.355335
Si Si3 0.344618 0.103914 0.440476
Si Si4 0.334457 0.921994 0.644604
Si Si5 0.332410 0.075139 0.139466
Si Si6 0.172063 0.208740 0.686392
Si Si7 0.151329 0.575708 0.796753
O O1 0.500000 0.280933 0.549352
O O2 0.294575 0.291686 0.438664
O O3 0.301584 0.370138 0.569095
O O4 0.241865 0.246840 0.603504
O O5 0.500000 0.736932 0.328132
O O6 0.339121 0.822587 0.401748
O O7 0.234207 0.741957 0.273900
O O8 0.500000 0.076699 0.415059
O O9 0.332394 0.094618 0.542110
O O10 0.213489 0.073020 0.391575
O O11 0.500000 0.913215 0.672568
O O12 0.232425 0.866629 0.685470
O O13 0.298600 0.000000 0.656398
O O14 0.500000 0.073993 0.154760
O O15 0.261420 0.101406 0.227161
O O16 0.290350 0.000000 0.117049
O O17 0.000000 0.210696 0.682563
O O18 0.135959 0.500000 0.770382
O O19 0.000000 0.610162 0.792682
#
# Coordination Sequence:
#
# PCOD9357271 Si02
#       7
#     8   8   8   8   8   8   8
#     4  10  20  39  63  85 114 153 200 253 302 355
#     4  10  21  38  61  85 114 152 200 252 300 357
#     4  10  19  34  57  84 110 143 190 247 300 349
#     4  10  21  40  65  89 117 158 210 261 310 367
#     4   9  18  33  55  82 110 144 189 242 296 348
#     4  12  25  39  59  89 127 163 201 251 308 378
#     4  10  20  31  45  72 112 151 182 218 275 349
#
# _framework density 18.941689
#
# number of rings (size 3 to 8) (size 9 to 14) (size 15 to 20)
#    0.000    1.857    1.429    3.000    0.000    7.429 
#    0.000    0.714    0.000    2.571    0.000    0.000 
#    0.000    0.000    0.000    0.000    0.000    0.000 
#
# Total GULP energy -155983.432670 kJ/mol
# GULP energy per Si atom -5570.836881 kJ/mol
# Density = 1.889858 g / cm^3
# Si number density = 18.941689 Si / 1000 Ang^3
#
#
#
# Elastic Constant Matrix: (Units=GPa)
#
#
# Indices 1 2 3 4 5 6 
#
# 1 56.7354 45.3976 23.6709 0.0000 0.0000 0.0000
# 2 45.3976 97.9602 19.0586 0.0000 0.0000 0.0000
# 3 23.6709 19.0586 49.8581 0.0000 0.0000 0.0000
# 4 0.0000 0.0000 0.0000 26.7671 0.0000 0.0000
# 5 0.0000 0.0000 0.0000 0.0000 -12.9199 0.0000
# 6 0.0000 0.0000 0.0000 0.0000 0.0000 12.2030
#
#
#
# Elastic Compliance Matrix: (Units=1/GPa)
#
#
# Indices 1 2 3 4 5 6 
#
# 1 0.032335 -0.012962 -0.010397 0.000000 0.000000 0.000000
# 2 -0.012962 0.016225 -0.000048 0.000000 0.000000 0.000000
# 3 -0.010397 -0.000048 0.025011 0.000000 0.000000 0.000000
# 4 0.000000 0.000000 0.000000 0.037359 0.000000 0.000000
# 5 0.000000 0.000000 0.000000 0.000000 -0.077400 0.000000
# 6 0.000000 0.000000 0.000000 0.000000 0.000000 0.081947
#
#
# Mechanical properties :
#
#
# Convention : Reuss Voigt Hill
#
# Bulk Modulus (GPa) = 37.37310 42.31201 39.84256
# Shear Modulus (GPa) = 29.20364 12.97180 21.08772
#
# Velocity S-wave (km/s) = 3.93079 2.61976 3.34023
# Velocity P-wave (km/s) = 6.35413 5.61582 5.99635
#
# Compressibility (1/GPa) = 0.02675721
#
# Stress axis : x y z
#
# Youngs Moduli (GPa) = 30.92585 61.63433 39.98206
#
# Poissons Ratio (x) = 0.79893 0.41568
# Poissons Ratio (y) = 0.40087 0.00192
# Poissons Ratio (z) = 0.32153 0.00295
#
# Static dielectric constant tensor:
#      x y z
#    x 1.707250 0.000000 0.000000 
#    y 0.000000 1.788460 0.000000 
#    z 0.000000 0.000000 1.643370 
# 
# From -- ./inp_files/12365.got.cif
#   From: 2010.05.17/outbox.cif.g08.bks.cpg/sg38_7_cif.got.tgz:12365.got - 2010.06.03 18:07:57.
