data_PCOD9357778
_publ_section_title
;
Structure prediction by ZEFSAII (Michael W. Deem and Ramdas Pophale) SiO2 
 PCOD9357778
Probable space group: A M M 2
;
_chemical_formula_sum "Si O2"
_cell_formula_units_Z 64
_cell_length_a 9.059927
_cell_length_b 15.222859
_cell_length_c 23.829790
_cell_angle_alpha 90.000000
_cell_angle_beta 90.000000
_cell_angle_gamma 90.000000
_cell_volume 3286.556769
_symmetry_space_group_name_H-M "A M M 2"
_symmetry_group_IT_number 38
_symmetry_cell_setting 'orthorhombic'
loop_
_space_group_symop_operation_xyz
x,y,z
-x,-y,z
-x,y,z
x,-y,z
x,1/2+y,1/2+z
-x,1/2-y,1/2+z
-x,1/2+y,1/2+z
x,1/2-y,1/2+z
loop_
_atom_site_type_symbol
_atom_site_label
_atom_site_fract_x
_atom_site_fract_y
_atom_site_fract_z
Si Si1 0.823530 0.275665 0.656470
Si Si2 0.320035 0.397211 0.192571
Si Si3 0.177250 0.229673 0.031518
Si Si4 0.324011 0.895799 0.252349
Si Si5 0.324099 0.096576 0.487144
Si Si6 0.166624 0.339527 0.416277
Si Si7 0.340068 0.397781 0.313755
Si Si8 0.170206 0.860475 0.371965
O O1 0.756682 0.176972 0.655873
O O2 0.795432 0.308552 0.592909
O O3 0.747158 0.335783 0.703634
O O4 0.000000 0.272815 0.665897
O O5 0.500000 0.391143 0.190478
O O6 0.282278 0.500000 0.181466
O O7 0.269921 0.367032 0.255616
O O8 0.000000 0.241402 0.024881
O O9 0.251412 0.324071 0.021120
O O10 0.226586 0.169852 0.979109
O O11 0.500000 0.879446 0.255291
O O12 0.249808 0.874838 0.312656
O O13 0.301393 0.000000 0.241119
O O14 0.500000 0.109065 0.484371
O O15 0.257728 0.098167 0.424209
O O16 0.294602 0.000000 0.511986
O O17 0.257742 0.392581 0.371617
O O18 0.165957 0.242149 0.388939
O O19 0.000000 0.372787 0.419020
O O20 0.500000 0.354074 0.319917
O O21 0.358861 0.500000 0.300959
O O22 0.000000 0.891070 0.369387
#
# Coordination Sequence:
#
# PCOD9357778 Si02
#       8
#     8   8   8   8   8   8   8   8
#     4  11  23  39  59  81 108 146 191 238 285 332
#     4   9  19  36  57  82 115 151 181 216 271 336
#     4   9  21  39  54  72 102 140 182 224 268 323
#     4  11  24  40  58  82 112 146 187 235 285 340
#     4  10  20  33  52  81 113 143 177 217 264 322
#     4   9  18  33  52  75 102 133 170 212 260 313
#     4   9  18  32  50  75 105 134 165 204 256 318
#     4  10  20  34  55  83 113 143 176 218 271 331
#
# _framework density 19.473267
#
# number of rings (size 3 to 8) (size 9 to 14) (size 15 to 20)
#    0.000    2.250    0.000    4.125    0.000   10.500 
#    0.000    4.375    0.000    3.750    0.000    0.000 
#    0.000    0.000    0.000    0.000    0.000    0.000 
#
# Total GULP energy -178386.104187 kJ/mol
# GULP energy per Si atom -5574.565756 kJ/mol
# Density = 1.942895 g / cm^3
# Si number density = 19.473267 Si / 1000 Ang^3
#
#
#
# Elastic Constant Matrix: (Units=GPa)
#
#
# Indices 1 2 3 4 5 6 
#
# 1 45.4551 11.1588 29.7685 0.0000 0.0000 0.0000
# 2 11.1588 31.5250 19.4794 0.0000 0.0000 0.0000
# 3 29.7685 19.4794 111.8316 0.0000 0.0000 0.0000
# 4 0.0000 0.0000 0.0000 14.7443 0.0000 0.0000
# 5 0.0000 0.0000 0.0000 0.0000 -129.7841 0.0000
# 6 0.0000 0.0000 0.0000 0.0000 0.0000 33.8511
#
#
#
# Elastic Compliance Matrix: (Units=1/GPa)
#
#
# Indices 1 2 3 4 5 6 
#
# 1 0.027577 -0.005856 -0.006321 0.000000 0.000000 0.000000
# 2 -0.005856 0.036790 -0.004850 0.000000 0.000000 0.000000
# 3 -0.006321 -0.004850 0.011469 0.000000 0.000000 0.000000
# 4 0.000000 0.000000 0.000000 0.067823 0.000000 0.000000
# 5 0.000000 0.000000 0.000000 0.000000 -0.007705 0.000000
# 6 0.000000 0.000000 0.000000 0.000000 0.000000 0.029541
#
#
# Mechanical properties :
#
#
# Convention : Reuss Voigt Hill
#
# Bulk Modulus (GPa) = 23.93248 34.40280 29.16764
# Shear Modulus (GPa) = 23.42195 -7.67741 7.87227
#
# Velocity S-wave (km/s) = 3.47187 -1.98774 2.01280
# Velocity P-wave (km/s) = 5.32808 3.52660 4.51804
#
# Compressibility (1/GPa) = 0.04178421
#
# Stress axis : x y z
#
# Youngs Moduli (GPa) = 36.26257 27.18115 87.18972
#
# Poissons Ratio (x) = 0.15916 0.55110
# Poissons Ratio (y) = 0.21234 0.42283
# Poissons Ratio (z) = 0.22920 0.13182
#
# Static dielectric constant tensor:
#      x y z
#    x 1.698170 0.000000 0.000000 
#    y 0.000000 1.718030 0.000000 
#    z 0.000000 0.000000 1.691530 
# 
# From -- ./inp_files/22216.got.cif
#   From: 2010.05.17/outbox.cif.g08.bks.cpg/sg38_12_cif.got.tgz:22216.got - 2010.06.03 18:07:57.
