data_PCOD9357881
_publ_section_title
;
Structure prediction by ZEFSAII (Michael W. Deem and Ramdas Pophale) SiO2 
 PCOD9357881
Probable space group: A M M 2
;
_chemical_formula_sum "Si O2"
_cell_formula_units_Z 56
_cell_length_a 22.810851
_cell_length_b 8.105524
_cell_length_c 15.244381
_cell_angle_alpha 90.000000
_cell_angle_beta 90.000000
_cell_angle_gamma 90.000000
_cell_volume 2818.593060
_symmetry_space_group_name_H-M "A M M 2"
_symmetry_group_IT_number 38
_symmetry_cell_setting 'orthorhombic'
loop_
_space_group_symop_operation_xyz
x,y,z
-x,-y,z
-x,y,z
x,-y,z
x,1/2+y,1/2+z
-x,1/2-y,1/2+z
-x,1/2+y,1/2+z
x,1/2-y,1/2+z
loop_
_atom_site_type_symbol
_atom_site_label
_atom_site_fract_x
_atom_site_fract_y
_atom_site_fract_z
Si Si1 0.846553 0.301864 0.128790
Si Si2 0.065930 0.300733 0.778540
Si Si3 0.626322 0.698084 0.981304
Si Si4 0.934170 0.298660 0.980466
Si Si5 0.626642 0.196379 0.280028
Si Si6 0.713629 0.698481 0.130027
Si Si7 0.500000 0.303316 0.483002
Si Si8 0.500000 0.696676 0.277976
O O1 0.843232 0.500000 0.120370
O O2 0.884210 0.262985 0.214736
O O3 0.780154 0.238017 0.132279
O O4 0.884459 0.238765 0.046356
O O5 0.066479 0.500000 0.776368
O O6 0.075275 0.249737 0.879561
O O7 0.000000 0.246488 0.752148
O O8 0.630555 0.500000 0.977289
O O9 0.631069 0.760986 0.880733
O O10 0.561770 0.739702 0.018253
O O11 0.676416 0.760960 0.046499
O O12 0.933876 0.500000 0.982034
O O13 0.000000 0.246773 0.007127
O O14 0.677180 0.261793 0.217222
O O15 0.562109 0.240777 0.243090
O O16 0.630965 0.000000 0.283316
O O17 0.716065 0.500000 0.122522
O O18 0.500000 0.500000 0.486767
O O19 0.500000 0.249270 0.380480
O O20 0.500000 0.500000 0.273851
#
# Coordination Sequence:
#
# PCOD9357881 Si02
#       8
#     8   8   8   8   8   8   4   4
#     4  10  20  34  53  76 103 137 177 215 250 299
#     4   9  18  33  54  80 107 134 167 210 260 308
#     4   9  19  36  55  74 101 136 172 211 256 307
#     4   8  15  30  53  78 102 132 170 209 252 305
#     4  10  20  35  56  80 103 131 173 220 258 301
#     4  10  22  37  51  73 105 141 177 210 254 309
#     4   9  17  30  53  82 104 126 164 214 265 309
#     4   9  17  32  55  80 106 136 166 206 265 317
#
# _framework density 19.868068000000001
#
# number of rings (size 3 to 8) (size 9 to 14) (size 15 to 20)
#    0.000    2.714    0.000    2.143    0.000    6.000 
#    0.000    4.286    0.000    0.857    0.000    0.000 
#    0.000    0.000    0.000    0.000    0.000    0.000 
#
# Total GULP energy -156216.034799 kJ/mol
# GULP energy per Si atom -5579.144100 kJ/mol
# Density = 1.982285 g / cm^3
# Si number density = 19.868068 Si / 1000 Ang^3
#
#
#
# Elastic Constant Matrix: (Units=GPa)
#
#
# Indices 1 2 3 4 5 6 
#
# 1 224.8512 13.6731 106.5315 0.0000 0.0000 0.0000
# 2 13.6731 7.7269 4.9047 0.0000 0.0000 0.0000
# 3 106.5315 4.9047 111.4247 0.0000 0.0000 0.0000
# 4 0.0000 0.0000 0.0000 21.5034 0.0000 0.0000
# 5 0.0000 0.0000 0.0000 0.0000 -21.7630 0.0000
# 6 0.0000 0.0000 0.0000 0.0000 0.0000 12.0641
#
#
#
# Elastic Compliance Matrix: (Units=1/GPa)
#
#
# Indices 1 2 3 4 5 6 
#
# 1 0.008908 -0.010655 -0.008048 0.000000 0.000000 0.000000
# 2 -0.010655 0.145883 0.003766 0.000000 0.000000 0.000000
# 3 -0.008048 0.003766 0.016504 0.000000 0.000000 0.000000
# 4 0.000000 0.000000 0.000000 0.046504 0.000000 0.000000
# 5 0.000000 0.000000 0.000000 0.000000 -0.045950 0.000000
# 6 0.000000 0.000000 0.000000 0.000000 0.000000 0.082891
#
#
# Mechanical properties :
#
#
# Convention : Reuss Voigt Hill
#
# Bulk Modulus (GPa) = 7.07117 66.02461 36.54789
# Shear Modulus (GPa) = 15.07135 16.95379 16.01257
#
# Velocity S-wave (km/s) = 2.75721 2.92433 2.84200
# Velocity P-wave (km/s) = 3.70176 6.68625 5.40412
#
# Compressibility (1/GPa) = 0.14141937
#
# Stress axis : x y z
#
# Youngs Moduli (GPa) = 112.25276 6.85483 60.59252
#
# Poissons Ratio (x) = 0.07304 0.48766
# Poissons Ratio (y) = 1.19608 -0.22818
# Poissons Ratio (z) = 0.90344 -0.02581
#
# Static dielectric constant tensor:
#      x y z
#    x 1.698110 0.000000 0.000000 
#    y 0.000000 1.701450 0.000000 
#    z 0.000000 0.000000 1.714980 
# 
# From -- ./inp_files/15560.got.cif
#   From: 2010.05.17/outbox.cif.g08.bks.cpg/sg38_8_cif.got.tgz:15560.got - 2010.06.03 18:07:57.
