data_PCOD9357221
_publ_section_title
;
Structure prediction by ZEFSAII (Michael W. Deem and Ramdas Pophale) SiO2 
 PCOD9357221
Probable space group: A M M 2
;
_chemical_formula_sum "Si O2"
_cell_formula_units_Z 56
_cell_length_a 9.027582
_cell_length_b 20.436483
_cell_length_c 15.689180
_cell_angle_alpha 90.000000
_cell_angle_beta 90.000000
_cell_angle_gamma 90.000000
_cell_volume 2894.528606
_symmetry_space_group_name_H-M "A M M 2"
_symmetry_group_IT_number 38
_symmetry_cell_setting 'orthorhombic'
loop_
_space_group_symop_operation_xyz
x,y,z
-x,-y,z
-x,y,z
x,-y,z
x,1/2+y,1/2+z
-x,1/2-y,1/2+z
-x,1/2+y,1/2+z
x,1/2-y,1/2+z
loop_
_atom_site_type_symbol
_atom_site_label
_atom_site_fract_x
_atom_site_fract_y
_atom_site_fract_z
Si Si1 0.339447 0.074154 0.469770
Si Si2 0.822350 0.573531 0.329196
Si Si3 0.672123 0.888187 0.656089
Si Si4 0.325173 0.691438 0.740031
Si Si5 0.323097 0.750744 0.067262
Si Si6 0.835655 0.421724 0.816441
Si Si7 0.178718 0.282161 0.386938
O O1 0.500000 0.108378 0.455998
O O2 0.313294 0.071556 0.569484
O O3 0.203473 0.098253 0.414019
O O4 0.355920 0.000000 0.439672
O O5 0.769400 0.500000 0.355275
O O6 0.771043 0.586600 0.232327
O O7 0.776428 0.640683 0.377278
O O8 0.000000 0.572065 0.333420
O O9 0.500000 0.889611 0.683984
O O10 0.705515 0.816528 0.618743
O O11 0.500000 0.705500 0.745377
O O12 0.279518 0.698596 0.641214
O O13 0.287281 0.617626 0.765884
O O14 0.244608 0.740229 0.807393
O O15 0.500000 0.754692 0.051149
O O16 0.240406 0.756860 0.977667
O O17 0.833595 0.500000 0.804799
O O18 0.000000 0.398487 0.794210
O O19 0.000000 0.277880 0.384510
#
# Coordination Sequence:
#
# PCOD9357221 Si02
#       7
#     8   8   8   8   8   8   8
#     4   9  17  29  48  77 112 149 186 227 283 348
#     4  10  22  39  58  84 121 162 201 247 305 365
#     4  10  19  34  55  83 113 146 191 242 296 354
#     4  11  22  39  62  87 118 155 197 248 303 363
#     4  10  22  38  59  87 118 153 197 251 306 361
#     4  10  21  36  55  82 115 152 195 242 297 359
#     4  11  23  39  62  90 121 160 205 254 306 367
#
# _framework density 19.346845999999999
#
# number of rings (size 3 to 8) (size 9 to 14) (size 15 to 20)
#    0.000    1.857    1.429    2.571    0.000    5.714 
#    0.000    2.143    0.000    2.571    0.000    0.000 
#    0.000    0.000    0.000    0.000    0.000    0.000 
#
# Total GULP energy -155958.377531 kJ/mol
# GULP energy per Si atom -5569.942055 kJ/mol
# Density = 1.930281 g / cm^3
# Si number density = 19.346846 Si / 1000 Ang^3
#
#
#
# Elastic Constant Matrix: (Units=GPa)
#
#
# Indices 1 2 3 4 5 6 
#
# 1 36.6317 10.9251 24.4745 0.0000 0.0000 0.0000
# 2 10.9251 69.0766 13.1413 0.0000 0.0000 0.0000
# 3 24.4745 13.1413 73.2329 0.0000 0.0000 0.0000
# 4 0.0000 0.0000 0.0000 29.3174 0.0000 0.0000
# 5 0.0000 0.0000 0.0000 0.0000 17.2697 0.0000
# 6 0.0000 0.0000 0.0000 0.0000 0.0000 21.0956
#
#
#
# Elastic Compliance Matrix: (Units=1/GPa)
#
#
# Indices 1 2 3 4 5 6 
#
# 1 0.035955 -0.003521 -0.011384 0.000000 0.000000 0.000000
# 2 -0.003521 0.015333 -0.001575 0.000000 0.000000 0.000000
# 3 -0.011384 -0.001575 0.017742 0.000000 0.000000 0.000000
# 4 0.000000 0.000000 0.000000 0.034109 0.000000 0.000000
# 5 0.000000 0.000000 0.000000 0.000000 0.057905 0.000000
# 6 0.000000 0.000000 0.000000 0.000000 0.000000 0.047403
#
#
# Mechanical properties :
#
#
# Convention : Reuss Voigt Hill
#
# Bulk Modulus (GPa) = 27.72355 30.66923 29.19639
# Shear Modulus (GPa) = 19.72919 22.22988 20.97954
#
# Velocity S-wave (km/s) = 3.19684 3.39339 3.29658
# Velocity P-wave (km/s) = 5.29029 5.58930 5.44185
#
# Compressibility (1/GPa) = 0.03607042
#
# Stress axis : x y z
#
# Youngs Moduli (GPa) = 27.81254 65.21825 56.36234
#
# Poissons Ratio (x) = 0.22962 0.64165
# Poissons Ratio (y) = 0.09792 0.08876
# Poissons Ratio (z) = 0.31663 0.10271
#
# Static dielectric constant tensor:
#      x y z
#    x 1.692330 0.000000 0.000000 
#    y 0.000000 1.570640 0.000000 
#    z 0.000000 0.000000 1.662050 
# 
# From -- ./inp_files/12419.got.cif
#   From: 2010.05.17/outbox.cif.g08.bks.cpg/sg38_7_cif.got.tgz:12419.got - 2010.06.03 18:07:57.
