data_PCOD9357330
_publ_section_title
;
Structure prediction by ZEFSAII (Michael W. Deem and Ramdas Pophale) SiO2 
 PCOD9357330
Probable space group: A M M 2
;
_chemical_formula_sum "Si O2"
_cell_formula_units_Z 48
_cell_length_a 8.603612
_cell_length_b 16.937181
_cell_length_c 18.976872
_cell_angle_alpha 90.000000
_cell_angle_beta 90.000000
_cell_angle_gamma 90.000000
_cell_volume 2765.327507
_symmetry_space_group_name_H-M "A M M 2"
_symmetry_group_IT_number 38
_symmetry_cell_setting 'orthorhombic'
loop_
_space_group_symop_operation_xyz
x,y,z
-x,-y,z
-x,y,z
x,-y,z
x,1/2+y,1/2+z
-x,1/2-y,1/2+z
-x,1/2+y,1/2+z
x,1/2-y,1/2+z
loop_
_atom_site_type_symbol
_atom_site_label
_atom_site_fract_x
_atom_site_fract_y
_atom_site_fract_z
Si Si1 0.688369 0.680301 0.764010
Si Si2 0.813506 0.500000 0.531520
Si Si3 0.814791 0.760495 0.483656
Si Si4 0.814121 0.500000 0.366395
Si Si5 0.686970 0.657522 0.604477
Si Si6 0.686374 0.832486 0.849796
Si Si7 0.311691 0.409447 0.904091
O O1 0.500000 0.677029 0.762265
O O2 0.742571 0.662759 0.685349
O O3 0.731008 0.767474 0.791425
O O4 0.736791 0.619892 0.825755
O O5 0.768589 0.500000 0.449212
O O6 0.748648 0.577716 0.568971
O O7 0.000000 0.500000 0.534952
O O8 0.745894 0.730067 0.557080
O O9 0.756343 0.699931 0.423099
O O10 0.756223 0.846291 0.458822
O O11 0.000000 0.758404 0.486071
O O12 0.747411 0.419557 0.334614
O O13 0.000000 0.500000 0.362038
O O14 0.500000 0.656691 0.603596
O O15 0.500000 0.832877 0.856295
O O16 0.500000 0.404521 0.907090
O O17 0.266148 0.500000 0.916185
#
# Coordination Sequence:
#
# PCOD9357330 Si02
#       7
#     8   4   8   4   8   8   8
#     4   8  18  34  55  82 107 133 172 223 265 307
#     4  11  23  35  49  79 118 143 170 213 266 316
#     4  11  21  34  52  77 111 143 176 218 266 316
#     4  11  21  33  53  81 114 139 170 219 268 314
#     4  11  21  35  57  80 107 142 181 216 261 316
#     4  10  19  35  57  79 103 138 183 222 262 310
#     4   9  18  35  59  82 105 135 178 224 265 310
#
# _framework density 17.357800000000001
#
# number of rings (size 3 to 8) (size 9 to 14) (size 15 to 20)
#    0.000    2.000    1.667    4.000    1.167    1.000 
#    0.000    8.333    1.833    0.000    0.000    0.000 
#    0.000    0.000    0.000    0.000    0.000    0.000 
#
# Total GULP energy -133955.766587 kJ/mol
# GULP energy per Si atom -5581.490274 kJ/mol
# Density = 1.731829 g / cm^3
# Si number density = 17.357800 Si / 1000 Ang^3
#
#
#
# Elastic Constant Matrix: (Units=GPa)
#
#
# Indices 1 2 3 4 5 6 
#
# 1 50.4321 28.1507 17.1115 0.0000 0.0000 0.0000
# 2 28.1507 135.4657 34.7777 0.0000 0.0000 0.0000
# 3 17.1115 34.7777 74.9112 0.0000 0.0000 0.0000
# 4 0.0000 0.0000 0.0000 16.5785 0.0000 0.0000
# 5 0.0000 0.0000 0.0000 0.0000 -4.5299 0.0000
# 6 0.0000 0.0000 0.0000 0.0000 0.0000 11.2189
#
#
#
# Elastic Compliance Matrix: (Units=1/GPa)
#
#
# Indices 1 2 3 4 5 6 
#
# 1 0.023201 -0.003929 -0.003476 0.000000 0.000000 0.000000
# 2 -0.003929 0.009046 -0.003302 0.000000 0.000000 0.000000
# 3 -0.003476 -0.003302 0.015676 0.000000 0.000000 0.000000
# 4 0.000000 0.000000 0.000000 0.060319 0.000000 0.000000
# 5 0.000000 0.000000 0.000000 0.000000 -0.220755 0.000000
# 6 0.000000 0.000000 0.000000 0.000000 0.000000 0.089135
#
#
# Mechanical properties :
#
#
# Convention : Reuss Voigt Hill
#
# Bulk Modulus (GPa) = 37.72219 46.76545 42.24382
# Shear Modulus (GPa) = 727.49829 16.70477 372.10153
#
# Velocity S-wave (km/s) = 20.49460 3.10559 14.65731
# Velocity P-wave (km/s) = 24.12090 6.31348 17.63062
#
# Compressibility (1/GPa) = 0.02650960
#
# Stress axis : x y z
#
# Youngs Moduli (GPa) = 43.10141 110.54364 63.79125
#
# Poissons Ratio (x) = 0.43433 0.22171
# Poissons Ratio (y) = 0.16935 0.21065
# Poissons Ratio (z) = 0.14980 0.36504
#
# Static dielectric constant tensor:
#      x y z
#    x 1.584000 0.000000 0.000000 
#    y 0.000000 1.582060 0.000000 
#    z 0.000000 0.000000 1.579100 
# 
# From -- ./inp_files/16678.got.cif
#   From: 2010.05.17/outbox.cif.g08.bks.cpg/sg38_9_cif.got.tgz:16678.got - 2010.06.03 18:07:57.
