data_PCOD9357250
_publ_section_title
;
Structure prediction by ZEFSAII (Michael W. Deem and Ramdas Pophale) SiO2 
 PCOD9357250
Probable space group: A M M 2
;
_chemical_formula_sum "Si O2"
_cell_formula_units_Z 64
_cell_length_a 8.736503
_cell_length_b 25.665938
_cell_length_c 15.476231
_cell_angle_alpha 90.000000
_cell_angle_beta 90.000000
_cell_angle_gamma 90.000000
_cell_volume 3470.243701
_symmetry_space_group_name_H-M "A M M 2"
_symmetry_group_IT_number 38
_symmetry_cell_setting 'orthorhombic'
loop_
_space_group_symop_operation_xyz
x,y,z
-x,-y,z
-x,y,z
x,-y,z
x,1/2+y,1/2+z
-x,1/2-y,1/2+z
-x,1/2+y,1/2+z
x,1/2-y,1/2+z
loop_
_atom_site_type_symbol
_atom_site_label
_atom_site_fract_x
_atom_site_fract_y
_atom_site_fract_z
Si Si1 0.683319 0.108810 0.396020
Si Si2 0.819417 0.239698 0.158668
Si Si3 0.183358 0.059718 0.567860
Si Si4 0.315379 0.860010 0.066857
Si Si5 0.684345 0.331096 0.383901
Si Si6 0.316410 0.851107 0.688207
Si Si7 0.819761 0.780702 0.362627
Si Si8 0.686682 0.559727 0.712105
O O1 0.500000 0.105823 0.402046
O O2 0.756509 0.076952 0.474044
O O3 0.735637 0.168751 0.398837
O O4 0.731821 0.085294 0.303293
O O5 0.744596 0.195341 0.100629
O O6 0.744371 0.296479 0.149832
O O7 0.797889 0.222147 0.258665
O O8 0.000000 0.243508 0.141625
O O9 0.250607 0.100272 0.636527
O O10 0.000000 0.062884 0.568906
O O11 0.229035 0.000000 0.585525
O O12 0.500000 0.859385 0.071210
O O13 0.260707 0.904785 0.132159
O O14 0.271465 0.865598 0.966490
O O15 0.500000 0.326548 0.382463
O O16 0.731435 0.351347 0.289404
O O17 0.753277 0.273624 0.396346
O O18 0.500000 0.851441 0.683662
O O19 0.000000 0.784230 0.380771
O O20 0.500000 0.559608 0.710929
O O21 0.737666 0.500000 0.706301
#
# Coordination Sequence:
#
# PCOD9357250 Si02
#       8
#     8   8   8   8   8   8   8   8
#     4  11  21  35  58  85 115 152 192 237 284 341
#     4  10  20  34  54  82 116 152 190 232 284 342
#     4  11  25  43  61  83 113 150 193 242 295 350
#     4  10  19  34  56  83 116 151 190 236 285 338
#     4   9  20  36  56  83 116 151 190 236 288 342
#     4  10  21  39  61  84 112 148 194 243 290 340
#     4  10  20  34  53  80 116 154 191 231 281 340
#     4   9  18  33  55  83 114 149 189 232 281 336
#
# _framework density 18.442509000000001
#
# number of rings (size 3 to 8) (size 9 to 14) (size 15 to 20)
#    0.000    2.000    1.250    2.250    1.750    3.500 
#    0.000    0.625    0.000    3.375    0.000    0.000 
#    0.000    0.000    0.000    0.000    0.000    0.000 
#
# Total GULP energy -178717.204114 kJ/mol
# GULP energy per Si atom -5584.912629 kJ/mol
# Density = 1.840053 g / cm^3
# Si number density = 18.442509 Si / 1000 Ang^3
#
#
#
# Elastic Constant Matrix: (Units=GPa)
#
#
# Indices 1 2 3 4 5 6 
#
# 1 19.6856 26.3575 18.3490 0.0000 0.0000 0.0000
# 2 26.3575 137.8238 72.8143 0.0000 0.0000 0.0000
# 3 18.3490 72.8143 104.2843 0.0000 0.0000 0.0000
# 4 0.0000 0.0000 0.0000 22.5507 0.0000 0.0000
# 5 0.0000 0.0000 0.0000 0.0000 17.7902 0.0000
# 6 0.0000 0.0000 0.0000 0.0000 0.0000 22.4165
#
#
#
# Elastic Compliance Matrix: (Units=1/GPa)
#
#
# Indices 1 2 3 4 5 6 
#
# 1 0.069698 -0.010854 -0.004685 0.000000 0.000000 0.000000
# 2 -0.010854 0.013187 -0.007298 0.000000 0.000000 0.000000
# 3 -0.004685 -0.007298 0.015509 0.000000 0.000000 0.000000
# 4 0.000000 0.000000 0.000000 0.044344 0.000000 0.000000
# 5 0.000000 0.000000 0.000000 0.000000 0.056211 0.000000
# 6 0.000000 0.000000 0.000000 0.000000 0.000000 0.044610
#
#
# Mechanical properties :
#
#
# Convention : Reuss Voigt Hill
#
# Bulk Modulus (GPa) = 18.96789 55.20394 37.08591
# Shear Modulus (GPa) = 16.29697 22.16968 19.23332
#
# Velocity S-wave (km/s) = 2.97587 3.47089 3.23287
# Velocity P-wave (km/s) = 4.70265 6.78680 5.83848
#
# Compressibility (1/GPa) = 0.05272067
#
# Stress axis : x y z
#
# Youngs Moduli (GPa) = 14.34761 75.83347 64.47902
#
# Poissons Ratio (x) = 0.82309 0.30208
# Poissons Ratio (y) = 0.15573 0.47054
# Poissons Ratio (z) = 0.06722 0.55340
#
# Static dielectric constant tensor:
#      x y z
#    x 1.610660 0.000000 0.000000 
#    y 0.000000 1.598110 0.000000 
#    z 0.000000 0.000000 1.660790 
# 
# From -- ./inp_files/12820.got.cif
#   From: 2010.05.17/outbox.cif.g08.bks.cpg/sg38_7_cif.got.tgz:12820.got - 2010.06.03 18:07:57.
