data_PCOD9357963
_publ_section_title
;
Structure prediction by ZEFSAII (Michael W. Deem and Ramdas Pophale) SiO2 
 PCOD9357963
Probable space group: A M M 2
;
_chemical_formula_sum "Si O2"
_cell_formula_units_Z 48
_cell_length_a 9.268546
_cell_length_b 7.773606
_cell_length_c 31.824617
_cell_angle_alpha 90.000000
_cell_angle_beta 90.000000
_cell_angle_gamma 90.000000
_cell_volume 2292.964444
_symmetry_space_group_name_H-M "A M M 2"
_symmetry_group_IT_number 38
_symmetry_cell_setting 'orthorhombic'
loop_
_space_group_symop_operation_xyz
x,y,z
-x,-y,z
-x,y,z
x,-y,z
x,1/2+y,1/2+z
-x,1/2-y,1/2+z
-x,1/2+y,1/2+z
x,1/2-y,1/2+z
loop_
_atom_site_type_symbol
_atom_site_label
_atom_site_fract_x
_atom_site_fract_y
_atom_site_fract_z
Si Si1 0.163912 0.205237 0.870420
Si Si2 0.835678 0.707138 0.035965
Si Si3 0.336167 0.793689 0.454502
Si Si4 0.833484 0.789212 0.203550
Si Si5 0.335952 0.706454 0.786225
Si Si6 0.664618 0.207253 0.120452
O O1 0.249815 0.259481 0.911905
O O2 0.249608 0.257060 0.828701
O O3 0.000000 0.274495 0.870306
O O4 0.156011 0.000000 0.870803
O O5 0.842660 0.500000 0.032556
O O6 0.749775 0.748209 0.078256
O O7 0.000000 0.772326 0.037508
O O8 0.750415 0.772816 0.995050
O O9 0.500000 0.726490 0.452581
O O10 0.345331 0.000000 0.459009
O O11 0.750492 0.730709 0.245367
O O12 0.750112 0.732231 0.161704
O O13 0.000000 0.734559 0.203464
O O14 0.833380 0.000000 0.203641
O O15 0.500000 0.773071 0.787987
O O16 0.344585 0.500000 0.782158
O O17 0.500000 0.271598 0.119334
O O18 0.658665 0.000000 0.123150
#
# Coordination Sequence:
#
# PCOD9357963 Si02
#       6
#     8   8   8   8   8   8
#     4  11  24  39  55  79 111 144 178 219 268 320
#     4  10  21  37  57  81 109 142 180 222 268 318
#     4  10  21  38  60  83 106 137 179 223 267 319
#     4   9  17  31  53  80 109 142 180 222 266 313
#     4  10  20  35  57  83 109 140 180 223 267 318
#     4  10  20  34  54  81 112 145 181 222 268 317
#
# _framework density 20.933599999999998
#
# number of rings (size 3 to 8) (size 9 to 14) (size 15 to 20)
#    0.000    2.000    0.000    3.500    0.000   10.000 
#    0.000    0.833    0.000    5.000    0.000    0.000 
#    0.000    0.000    0.000    0.000    0.000    0.000 
#
# Total GULP energy -134155.350329 kJ/mol
# GULP energy per Si atom -5589.806264 kJ/mol
# Density = 2.088595 g / cm^3
# Si number density = 20.933600 Si / 1000 Ang^3
#
#
#
# Elastic Constant Matrix: (Units=GPa)
#
#
# Indices 1 2 3 4 5 6 
#
# 1 271.1346 9.9019 159.9653 0.0000 0.0000 0.0000
# 2 9.9019 28.4514 -1.6412 0.0000 0.0000 0.0000
# 3 159.9653 -1.6412 248.5922 0.0000 0.0000 0.0000
# 4 0.0000 0.0000 0.0000 24.4665 0.0000 0.0000
# 5 0.0000 0.0000 0.0000 0.0000 49.9698 0.0000
# 6 0.0000 0.0000 0.0000 0.0000 0.0000 17.1191
#
#
#
# Elastic Compliance Matrix: (Units=1/GPa)
#
#
# Indices 1 2 3 4 5 6 
#
# 1 0.006098 -0.002350 -0.003940 0.000000 0.000000 0.000000
# 2 -0.002350 0.036066 0.001750 0.000000 0.000000 0.000000
# 3 -0.003940 0.001750 0.006569 0.000000 0.000000 0.000000
# 4 0.000000 0.000000 0.000000 0.040872 0.000000 0.000000
# 5 0.000000 0.000000 0.000000 0.000000 0.020012 0.000000
# 6 0.000000 0.000000 0.000000 0.000000 0.000000 0.058414
#
#
# Mechanical properties :
#
#
# Convention : Reuss Voigt Hill
#
# Bulk Modulus (GPa) = 25.21717 98.29224 61.75471
# Shear Modulus (GPa) = 26.27018 43.64123 34.95570
#
# Velocity S-wave (km/s) = 3.54634 4.57085 4.09080
# Velocity P-wave (km/s) = 5.37039 8.65524 7.20258
#
# Compressibility (1/GPa) = 0.03965551
#
# Stress axis : x y z
#
# Youngs Moduli (GPa) = 163.97734 27.72664 152.22158
#
# Poissons Ratio (x) = 0.06515 0.59971
# Poissons Ratio (y) = 0.38529 -0.26640
# Poissons Ratio (z) = 0.64603 -0.04852
#
# Static dielectric constant tensor:
#      x y z
#    x 1.738930 0.000000 0.000000 
#    y 0.000000 1.786410 0.000000 
#    z 0.000000 0.000000 1.693380 
# 
# From -- ./inp_files/24280.got.cif
#   From: 2010.05.17/outbox.cif.g08.bks.cpg/sg38_13_cif.got.tgz:24280.got - 2010.06.03 18:07:57.
