data_PCOD9357270
_publ_section_title
;
Structure prediction by ZEFSAII (Michael W. Deem and Ramdas Pophale) SiO2 
 PCOD9357270
Probable space group: A M M 2
;
_chemical_formula_sum "Si O2"
_cell_formula_units_Z 52
_cell_length_a 7.600497
_cell_length_b 31.382014
_cell_length_c 9.663209
_cell_angle_alpha 90.000000
_cell_angle_beta 90.000000
_cell_angle_gamma 90.000000
_cell_volume 2304.858013
_symmetry_space_group_name_H-M "A M M 2"
_symmetry_group_IT_number 38
_symmetry_cell_setting 'orthorhombic'
loop_
_space_group_symop_operation_xyz
x,y,z
-x,-y,z
-x,y,z
x,-y,z
x,1/2+y,1/2+z
-x,1/2-y,1/2+z
-x,1/2+y,1/2+z
x,1/2-y,1/2+z
loop_
_atom_site_type_symbol
_atom_site_label
_atom_site_fract_x
_atom_site_fract_y
_atom_site_fract_z
Si Si1 0.291274 0.577350 0.386650
Si Si2 0.253024 0.000000 0.691970
Si Si3 0.789714 0.351456 0.169939
Si Si4 0.791740 0.071961 0.481282
Si Si5 0.283252 0.196504 0.242000
Si Si6 0.703264 0.266134 0.033340
Si Si7 0.288509 0.599986 0.689447
O O1 0.500000 0.567075 0.388584
O O2 0.209971 0.538135 0.303604
O O3 0.266943 0.621635 0.303642
O O4 0.224969 0.583388 0.541891
O O5 0.296005 0.963191 0.575648
O O6 0.711961 0.305296 0.141777
O O7 0.000000 0.347366 0.172365
O O8 0.739318 0.381855 0.040617
O O9 0.757918 0.070772 0.319430
O O10 0.000000 0.065687 0.506916
O O11 0.500000 0.196554 0.244354
O O12 0.222671 0.225334 0.112990
O O13 0.221984 0.217024 0.387634
O O14 0.225390 0.147885 0.222246
O O15 0.500000 0.255971 0.004404
O O16 0.500000 0.602122 0.679871
#
# Coordination Sequence:
#
# PCOD9357270 Si02
#       7
#     8   4   8   8   8   8   8
#     4  10  22  38  61  88 120 154 194 247 303 359
#     4  10  22  40  60  88 116 148 194 240 292 356
#     4  10  21  37  57  83 117 157 201 245 296 355
#     4  10  21  39  62  85 115 156 196 241 293 357
#     4   9  19  33  55  87 118 153 198 246 294 348
#     4  10  19  34  57  83 116 157 203 248 294 349
#     4  10  21  38  60  90 123 155 194 246 303 355
#
# _framework density 22.561042
#
# number of rings (size 3 to 8) (size 9 to 14) (size 15 to 20)
#    0.000    2.154    1.538    0.923    2.154    4.923 
#    0.000    2.308    0.000    0.000    0.000    0.000 
#    0.000    0.000    0.000    0.000    0.000    0.000 
#
# Total GULP energy -144753.339146 kJ/mol
# GULP energy per Si atom -5567.436121 kJ/mol
# Density = 2.250969 g / cm^3
# Si number density = 22.561042 Si / 1000 Ang^3
#
#
#
# Elastic Constant Matrix: (Units=GPa)
#
#
# Indices 1 2 3 4 5 6 
#
# 1 48.6455 6.1911 6.6768 0.0000 0.0000 0.0000
# 2 6.1911 95.3377 54.1248 0.0000 0.0000 0.0000
# 3 6.6768 54.1248 193.7144 0.0000 0.0000 0.0000
# 4 0.0000 0.0000 0.0000 24.2637 0.0000 0.0000
# 5 0.0000 0.0000 0.0000 0.0000 4.5009 0.0000
# 6 0.0000 0.0000 0.0000 0.0000 0.0000 -9.3987
#
#
#
# Elastic Compliance Matrix: (Units=1/GPa)
#
#
# Indices 1 2 3 4 5 6 
#
# 1 0.020755 -0.001119 -0.000403 0.000000 0.000000 0.000000
# 2 -0.001119 0.012527 -0.003461 0.000000 0.000000 0.000000
# 3 -0.000403 -0.003461 0.006143 0.000000 0.000000 0.000000
# 4 0.000000 0.000000 0.000000 0.041214 0.000000 0.000000
# 5 0.000000 0.000000 0.000000 0.000000 0.222178 0.000000
# 6 0.000000 0.000000 0.000000 0.000000 0.000000 -0.106398
#
#
# Mechanical properties :
#
#
# Convention : Reuss Voigt Hill
#
# Bulk Modulus (GPa) = 33.94657 52.40924 43.17790
# Shear Modulus (GPa) = 23.12619 21.92016 22.52317
#
# Velocity S-wave (km/s) = 3.20511 3.12042 3.16305
# Velocity P-wave (km/s) = 5.36435 6.02189 5.70260
#
# Compressibility (1/GPa) = 0.02945806
#
# Stress axis : x y z
#
# Youngs Moduli (GPa) = 48.18212 79.82850 162.77953
#
# Poissons Ratio (x) = 0.08934 0.06554
# Poissons Ratio (y) = 0.05392 0.56346
# Poissons Ratio (z) = 0.01940 0.27633
#
# Static dielectric constant tensor:
#      x y z
#    x 1.882620 0.000000 0.000000 
#    y 0.000000 1.794360 0.000000 
#    z 0.000000 0.000000 1.830230 
# 
# From -- ./inp_files/4780.got.cif
#   From: 2010.05.17/outbox.cif.g08.bks.cpg/sg38_3_cif.got.tgz:4780.got - 2010.06.03 18:07:57.
