data_PCOD9357554
_publ_section_title
;
Structure prediction by ZEFSAII (Michael W. Deem and Ramdas Pophale) SiO2 
 PCOD9357554
Probable space group: A M M 2
;
_chemical_formula_sum "Si O2"
_cell_formula_units_Z 64
_cell_length_a 14.631850
_cell_length_b 8.884137
_cell_length_c 31.903590
_cell_angle_alpha 90.000000
_cell_angle_beta 90.000000
_cell_angle_gamma 90.000000
_cell_volume 4147.191052
_symmetry_space_group_name_H-M "A M M 2"
_symmetry_group_IT_number 38
_symmetry_cell_setting 'orthorhombic'
loop_
_space_group_symop_operation_xyz
x,y,z
-x,-y,z
-x,y,z
x,-y,z
x,1/2+y,1/2+z
-x,1/2-y,1/2+z
-x,1/2+y,1/2+z
x,1/2-y,1/2+z
loop_
_atom_site_type_symbol
_atom_site_label
_atom_site_fract_x
_atom_site_fract_y
_atom_site_fract_z
Si Si1 0.895423 0.319085 0.841640
Si Si2 0.389188 0.673201 0.045996
Si Si3 0.393152 0.182167 0.452656
Si Si4 0.284240 0.180563 0.875603
Si Si5 0.395054 0.316900 0.292550
Si Si6 0.392748 0.179237 0.132827
Si Si7 0.895648 0.180949 0.243190
Si Si8 0.715722 0.819551 0.709657
O O1 0.886507 0.500000 0.845051
O O2 0.818223 0.239238 0.868642
O O3 0.882098 0.279918 0.792409
O O4 0.000000 0.279481 0.852707
O O5 0.500000 0.671988 0.044618
O O6 0.359469 0.500000 0.051679
O O7 0.363052 0.769312 0.086351
O O8 0.361897 0.727112 0.999627
O O9 0.500000 0.225457 0.446975
O O10 0.332024 0.252354 0.416520
O O11 0.389467 0.000000 0.451114
O O12 0.341977 0.229895 0.834458
O O13 0.285502 0.000000 0.877339
O O14 0.500000 0.265323 0.292608
O O15 0.395948 0.500000 0.292431
O O16 0.342091 0.269232 0.250675
O O17 0.500000 0.222825 0.138051
O O18 0.332769 0.256375 0.168476
O O19 0.386752 0.000000 0.136417
O O20 0.817952 0.259337 0.216171
O O21 0.000000 0.221928 0.232074
O O22 0.887607 0.000000 0.239880
O O23 0.715585 0.000000 0.708584
#
# Coordination Sequence:
#
# PCOD9357554 Si02
#       8
#     8   8   8   8   8   8   8   8
#     4   9  18  33  51  68  90 123 160 200 245 289
#     4   8  15  30  50  69  91 122 160 200 240 281
#     4   9  18  32  49  70  97 129 164 199 236 283
#     4  11  20  30  46  70  98 128 161 200 241 281
#     4   9  18  30  41  59  92 130 163 192 225 269
#     4  10  20  32  47  70  99 128 161 200 240 284
#     4   9  18  33  51  69  92 122 156 200 249 289
#     4  11  20  31  48  69  95 129 164 199 237 280
#
# _framework density 15.432131999999999
#
# number of rings (size 3 to 8) (size 9 to 14) (size 15 to 20)
#    0.000    2.500    1.250    3.375    0.000    3.000 
#    0.000    2.500    0.000    3.000    0.000    0.875 
#    0.000    1.000    0.000    0.000    0.000    0.000 
#
# Total GULP energy -178419.002696 kJ/mol
# GULP energy per Si atom -5575.593834 kJ/mol
# Density = 1.539701 g / cm^3
# Si number density = 15.432132 Si / 1000 Ang^3
#
#
#
# Elastic Constant Matrix: (Units=GPa)
#
#
# Indices 1 2 3 4 5 6 
#
# 1 111.1441 40.2532 74.6384 0.0000 0.0000 0.0000
# 2 40.2532 33.6926 44.7844 0.0000 0.0000 0.0000
# 3 74.6384 44.7844 136.7071 0.0000 0.0000 0.0000
# 4 0.0000 0.0000 0.0000 23.8389 0.0000 0.0000
# 5 0.0000 0.0000 0.0000 0.0000 8.3633 0.0000
# 6 0.0000 0.0000 0.0000 0.0000 0.0000 22.1787
#
#
#
# Elastic Compliance Matrix: (Units=1/GPa)
#
#
# Indices 1 2 3 4 5 6 
#
# 1 0.017462 -0.014507 -0.004782 0.000000 0.000000 0.000000
# 2 -0.014507 0.064624 -0.013250 0.000000 0.000000 0.000000
# 3 -0.004782 -0.013250 0.014266 0.000000 0.000000 0.000000
# 4 0.000000 0.000000 0.000000 0.041948 0.000000 0.000000
# 5 0.000000 0.000000 0.000000 0.000000 0.119570 0.000000
# 6 0.000000 0.000000 0.000000 0.000000 0.000000 0.045088
#
#
# Mechanical properties :
#
#
# Convention : Reuss Voigt Hill
#
# Bulk Modulus (GPa) = 31.97409 66.76623 49.37016
# Shear Modulus (GPa) = 13.21140 19.00070 16.10605
#
# Velocity S-wave (km/s) = 2.92909 3.51271 3.23409
# Velocity P-wave (km/s) = 5.67482 7.73373 6.78285
#
# Compressibility (1/GPa) = 0.03127532
#
# Stress axis : x y z
#
# Youngs Moduli (GPa) = 57.26590 15.47417 70.09592
#
# Poissons Ratio (x) = 0.22448 0.33517
# Poissons Ratio (y) = 0.83075 0.92877
# Poissons Ratio (z) = 0.27382 0.20503
#
# Static dielectric constant tensor:
#      x y z
#    x 1.499350 0.000000 0.000000 
#    y 0.000000 1.515030 0.000000 
#    z 0.000000 0.000000 1.504020 
# 
# From -- ./inp_files/25062.got.cif
#   From: 2010.05.17/outbox.cif.g08.bks.cpg/sg38_13_cif.got.tgz:25062.got - 2010.06.03 18:07:57.
