data_PCOD9357236
_publ_section_title
;
Structure prediction by ZEFSAII (Michael W. Deem and Ramdas Pophale) SiO2 
 PCOD9357236
Probable space group: A M M 2
;
_chemical_formula_sum "Si O2"
_cell_formula_units_Z 48
_cell_length_a 8.159537
_cell_length_b 32.812903
_cell_length_c 8.941682
_cell_angle_alpha 90.000000
_cell_angle_beta 90.000000
_cell_angle_gamma 90.000000
_cell_volume 2394.028915
_symmetry_space_group_name_H-M "A M M 2"
_symmetry_group_IT_number 38
_symmetry_cell_setting 'orthorhombic'
loop_
_space_group_symop_operation_xyz
x,y,z
-x,-y,z
-x,y,z
x,-y,z
x,1/2+y,1/2+z
-x,1/2-y,1/2+z
-x,1/2+y,1/2+z
x,1/2-y,1/2+z
loop_
_atom_site_type_symbol
_atom_site_label
_atom_site_fract_x
_atom_site_fract_y
_atom_site_fract_z
Si Si1 0.689768 0.215388 0.289180
Si Si2 0.304494 0.543815 0.658409
Si Si3 0.700176 0.131944 0.139276
Si Si4 0.803446 0.544278 0.312616
Si Si5 0.813734 0.291341 0.111788
Si Si6 0.304668 0.868952 0.789838
O O1 0.500000 0.219535 0.243144
O O2 0.753513 0.172440 0.224314
O O3 0.783491 0.253998 0.223753
O O4 0.701927 0.214150 0.467045
O O5 0.500000 0.543352 0.684171
O O6 0.237399 0.500000 0.714094
O O7 0.241852 0.588460 0.706444
O O8 0.273488 0.544100 0.479329
O O9 0.500000 0.130971 0.143314
O O10 0.747434 0.134461 0.964357
O O11 0.762313 0.500000 0.243900
O O12 0.740172 0.585435 0.237208
O O13 0.000000 0.546659 0.327030
O O14 0.776168 0.333507 0.194611
O O15 0.000000 0.290825 0.058750
O O16 0.500000 0.863830 0.784297
#
# Coordination Sequence:
#
# PCOD9357236 Si02
#       6
#     8   8   8   8   8   8
#     4  11  22  39  60  80 106 143 183 222 271 332
#     4   8  13  24  44  71 103 138 177 221 265 310
#     4   8  16  30  52  80 106 135 176 222 264 311
#     4   9  16  26  43  72 109 144 177 218 268 317
#     4  12  25  40  57  81 110 139 177 227 280 329
#     4  10  19  34  56  81 108 142 184 226 270 323
#
# _framework density 20.049883000000001
#
# number of rings (size 3 to 8) (size 9 to 14) (size 15 to 20)
#    0.000    2.333    0.000    5.000    0.000    2.333 
#    0.000    7.500    0.000    1.000    0.000    2.333 
#    0.000    0.000    0.000    0.000    0.000    0.000 
#
# Total GULP energy -133821.410444 kJ/mol
# GULP energy per Si atom -5575.892102 kJ/mol
# Density = 2.000425 g / cm^3
# Si number density = 20.049883 Si / 1000 Ang^3
#
#
#
# Elastic Constant Matrix: (Units=GPa)
#
#
# Indices 1 2 3 4 5 6 
#
# 1 30.5615 4.2210 -7.9769 0.0000 0.0000 0.0000
# 2 4.2210 178.4646 32.4172 0.0000 0.0000 0.0000
# 3 -7.9769 32.4172 36.3427 0.0000 0.0000 0.0000
# 4 0.0000 0.0000 0.0000 24.4176 0.0000 0.0000
# 5 0.0000 0.0000 0.0000 0.0000 6.0517 0.0000
# 6 0.0000 0.0000 0.0000 0.0000 0.0000 22.2771
#
#
#
# Elastic Compliance Matrix: (Units=1/GPa)
#
#
# Indices 1 2 3 4 5 6 
#
# 1 0.035776 -0.002712 0.010272 0.000000 0.000000 0.000000
# 2 -0.002712 0.006892 -0.006743 0.000000 0.000000 0.000000
# 3 0.010272 -0.006743 0.035785 0.000000 0.000000 0.000000
# 4 0.000000 0.000000 0.000000 0.040954 0.000000 0.000000
# 5 0.000000 0.000000 0.000000 0.000000 0.165243 0.000000
# 6 0.000000 0.000000 0.000000 0.000000 0.000000 0.044889
#
#
# Mechanical properties :
#
#
# Convention : Reuss Voigt Hill
#
# Bulk Modulus (GPa) = 12.48641 33.63238 23.05940
# Shear Modulus (GPa) = 14.10027 24.99645 19.54836
#
# Velocity S-wave (km/s) = 2.65478 3.53471 3.12586
# Velocity P-wave (km/s) = 3.95453 5.78530 4.95520
#
# Compressibility (1/GPa) = 0.08008709
#
# Stress axis : x y z
#
# Youngs Moduli (GPa) = 27.95135 145.08831 27.94451
#
# Poissons Ratio (x) = 0.39347 -0.28704
# Poissons Ratio (y) = 0.07580 0.18843
# Poissons Ratio (z) = -0.28711 0.97835
#
# Static dielectric constant tensor:
#      x y z
#    x 1.700270 0.000000 0.000000 
#    y 0.000000 1.760140 0.000000 
#    z 0.000000 0.000000 1.667930 
# 
# From -- ./inp_files/3753.got.cif
#   From: 2010.05.17/outbox.cif.g08.bks.cpg/sg38_2_cif.got.tgz:3753.got - 2010.06.03 18:07:57.
