data_PCOD9357745
_publ_section_title
;
Structure prediction by ZEFSAII (Michael W. Deem and Ramdas Pophale) SiO2 
 PCOD9357745
Probable space group: A M M 2
;
_chemical_formula_sum "Si O2"
_cell_formula_units_Z 56
_cell_length_a 16.044839
_cell_length_b 7.935834
_cell_length_c 20.909220
_cell_angle_alpha 90.000000
_cell_angle_beta 90.000000
_cell_angle_gamma 90.000000
_cell_volume 2662.353813
_symmetry_space_group_name_H-M "A M M 2"
_symmetry_group_IT_number 38
_symmetry_cell_setting 'orthorhombic'
loop_
_space_group_symop_operation_xyz
x,y,z
-x,-y,z
-x,y,z
x,-y,z
x,1/2+y,1/2+z
-x,1/2-y,1/2+z
-x,1/2+y,1/2+z
x,1/2-y,1/2+z
loop_
_atom_site_type_symbol
_atom_site_label
_atom_site_fract_x
_atom_site_fract_y
_atom_site_fract_z
Si Si1 0.726189 0.301364 0.315120
Si Si2 0.089895 0.203066 0.352266
Si Si3 0.144214 0.296591 0.993143
Si Si4 0.730567 0.196329 0.176109
Si Si5 0.407257 0.707165 0.577401
Si Si6 0.326044 0.301934 0.451554
Si Si7 0.910197 0.798124 0.632756
O O1 0.710316 0.500000 0.311986
O O2 0.825818 0.275662 0.323021
O O3 0.699898 0.223185 0.248194
O O4 0.683761 0.230267 0.379901
O O5 0.094869 0.241071 0.428177
O O6 0.000000 0.261901 0.327140
O O7 0.093819 0.000000 0.345080
O O8 0.153274 0.500000 0.995851
O O9 0.103310 0.240466 0.059249
O O10 0.235153 0.218049 0.983710
O O11 0.665562 0.269504 0.124637
O O12 0.825235 0.258921 0.169431
O O13 0.735252 0.000000 0.162460
O O14 0.500000 0.756248 0.597854
O O15 0.404656 0.500000 0.577053
O O16 0.388931 0.765234 0.504826
O O17 0.343977 0.500000 0.443726
O O18 0.000000 0.733048 0.656837
O O19 0.915176 0.000000 0.631355
#
# Coordination Sequence:
#
# PCOD9357745 Si02
#       7
#     8   8   8   8   8   8   8
#     4  10  21  35  53  76 108 146 180 221 275 325
#     4   9  17  30  49  74 104 140 186 231 269 319
#     4   9  16  28  49  76 107 140 174 220 274 321
#     4  11  22  37  57  80 110 147 187 228 270 322
#     4   9  18  35  61  88 110 137 177 224 275 330
#     4   9  17  33  56  81 106 135 175 220 266 321
#     4  10  20  33  51  77 111 150 187 225 274 325
#
# _framework density 21.034019000000001
#
# number of rings (size 3 to 8) (size 9 to 14) (size 15 to 20)
#    0.000    2.429    1.429    1.286    0.000    3.429 
#    0.000    0.714    0.000    7.286    0.000    0.000 
#    0.000    0.000    0.000    0.000    0.000    0.000 
#
# Total GULP energy -156179.630764 kJ/mol
# GULP energy per Si atom -5577.843956 kJ/mol
# Density = 2.098614 g / cm^3
# Si number density = 21.034019 Si / 1000 Ang^3
#
#
#
# Elastic Constant Matrix: (Units=GPa)
#
#
# Indices 1 2 3 4 5 6 
#
# 1 83.1877 4.9989 50.6107 0.0000 0.0000 0.0000
# 2 4.9989 14.1250 -0.3030 0.0000 0.0000 0.0000
# 3 50.6107 -0.3030 116.7589 0.0000 0.0000 0.0000
# 4 0.0000 0.0000 0.0000 15.6379 0.0000 0.0000
# 5 0.0000 0.0000 0.0000 0.0000 -2.9985 0.0000
# 6 0.0000 0.0000 0.0000 0.0000 0.0000 25.4143
#
#
#
# Elastic Compliance Matrix: (Units=1/GPa)
#
#
# Indices 1 2 3 4 5 6 
#
# 1 0.016839 -0.006116 -0.007315 0.000000 0.000000 0.000000
# 2 -0.006116 0.073022 0.002841 0.000000 0.000000 0.000000
# 3 -0.007315 0.002841 0.011743 0.000000 0.000000 0.000000
# 4 0.000000 0.000000 0.000000 0.063947 0.000000 0.000000
# 5 0.000000 0.000000 0.000000 0.000000 -0.333501 0.000000
# 6 0.000000 0.000000 0.000000 0.000000 0.000000 0.039348
#
#
# Mechanical properties :
#
#
# Convention : Reuss Voigt Hill
#
# Bulk Modulus (GPa) = 12.43427 36.07608 24.25517
# Shear Modulus (GPa) = -62.02475 18.19506 -21.91484
#
# Velocity S-wave (km/s) = -5.43616 2.94433 -3.23131
# Velocity P-wave (km/s) = 5.78603 5.36165 1.53799
#
# Compressibility (1/GPa) = 0.08042289
#
# Stress axis : x y z
#
# Youngs Moduli (GPa) = 59.38633 13.69446 85.15870
#
# Poissons Ratio (x) = 0.08376 0.62293
# Poissons Ratio (y) = 0.36322 -0.24191
# Poissons Ratio (z) = 0.43441 -0.03890
#
# Static dielectric constant tensor:
#      x y z
#    x 1.787340 0.000000 0.000000 
#    y 0.000000 1.761790 0.000000 
#    z 0.000000 0.000000 1.776420 
# 
# From -- ./inp_files/21029.got.cif
#   From: 2010.05.17/outbox.cif.g08.bks.cpg/sg38_11_cif.got.tgz:21029.got - 2010.06.03 18:07:57.
