data_PCOD9357166
_publ_section_title
;
Structure prediction by ZEFSAII (Michael W. Deem and Ramdas Pophale) SiO2 
 PCOD9357166
Probable space group: A M M 2
;
_chemical_formula_sum "Si O2"
_cell_formula_units_Z 48
_cell_length_a 8.622494
_cell_length_b 14.875575
_cell_length_c 20.987648
_cell_angle_alpha 90.000000
_cell_angle_beta 90.000000
_cell_angle_gamma 90.000000
_cell_volume 2691.971356
_symmetry_space_group_name_H-M "A M M 2"
_symmetry_group_IT_number 38
_symmetry_cell_setting 'orthorhombic'
loop_
_space_group_symop_operation_xyz
x,y,z
-x,-y,z
-x,y,z
x,-y,z
x,1/2+y,1/2+z
-x,1/2-y,1/2+z
-x,1/2+y,1/2+z
x,1/2-y,1/2+z
loop_
_atom_site_type_symbol
_atom_site_label
_atom_site_fract_x
_atom_site_fract_y
_atom_site_fract_z
Si Si1 0.187322 0.812470 0.793250
Si Si2 0.314000 0.500000 0.343479
Si Si3 0.186312 0.190647 0.412230
Si Si4 0.684638 0.500000 0.949277
Si Si5 0.186937 0.000000 0.592855
Si Si6 0.313754 0.303727 0.531830
Si Si7 0.688360 0.000000 0.991586
Si Si8 0.187175 0.306782 0.149150
O O1 0.235263 0.742401 0.847953
O O2 0.235289 0.787498 0.721610
O O3 0.000000 0.817217 0.794004
O O4 0.251335 0.910335 0.810741
O O5 0.500000 0.500000 0.341886
O O6 0.263393 0.500000 0.417596
O O7 0.246511 0.246466 0.473037
O O8 0.000000 0.187863 0.414619
O O9 0.250729 0.090203 0.417205
O O10 0.500000 0.500000 0.947321
O O11 0.739572 0.500000 0.022898
O O12 0.229999 0.909140 0.630008
O O13 0.000000 0.000000 0.585410
O O14 0.500000 0.300563 0.527971
O O15 0.261511 0.407155 0.523991
O O16 0.258787 0.259382 0.597273
O O17 0.500000 0.000000 0.992151
O O18 0.000000 0.300698 0.145307
#
# Coordination Sequence:
#
# PCOD9357166 Si02
#       8
#     8   4   8   4   4   8   4   8
#     4  10  22  39  59  85 118 155 193 235 286 345
#     4  11  20  34  58  88 122 153 185 235 289 342
#     4  11  22  38  60  85 115 151 192 238 287 337
#     4  12  24  37  58  87 117 148 194 240 283 341
#     4  10  19  33  57  84 118 152 183 230 291 343
#     4  11  21  37  59  84 116 153 194 236 284 340
#     4   9  20  36  55  83 119 151 182 235 289 330
#     4  10  21  38  58  84 118 154 191 237 290 339
#
# _framework density 17.830797
#
# number of rings (size 3 to 8) (size 9 to 14) (size 15 to 20)
#    0.000    1.500    3.333    2.500    0.000    2.667 
#    0.000    3.333    0.000    3.000    0.000    0.000 
#    0.000    0.000    0.000    0.000    0.000    0.000 
#
# Total GULP energy -134089.784875 kJ/mol
# GULP energy per Si atom -5587.074370 kJ/mol
# Density = 1.779021 g / cm^3
# Si number density = 17.830797 Si / 1000 Ang^3
#
#
#
# Elastic Constant Matrix: (Units=GPa)
#
#
# Indices 1 2 3 4 5 6 
#
# 1 28.2043 36.6119 42.4576 0.0000 0.0000 0.0000
# 2 36.6119 169.3903 100.5546 0.0000 0.0000 0.0000
# 3 42.4576 100.5546 180.8831 0.0000 0.0000 0.0000
# 4 0.0000 0.0000 0.0000 20.2161 0.0000 0.0000
# 5 0.0000 0.0000 0.0000 0.0000 8.1213 0.0000
# 6 0.0000 0.0000 0.0000 0.0000 0.0000 13.8165
#
#
#
# Elastic Compliance Matrix: (Units=1/GPa)
#
#
# Indices 1 2 3 4 5 6 
#
# 1 0.059711 -0.006845 -0.010211 0.000000 0.000000 0.000000
# 2 -0.006845 0.009596 -0.003728 0.000000 0.000000 0.000000
# 3 -0.010211 -0.003728 0.009997 0.000000 0.000000 0.000000
# 4 0.000000 0.000000 0.000000 0.049466 0.000000 0.000000
# 5 0.000000 0.000000 0.000000 0.000000 0.123132 0.000000
# 6 0.000000 0.000000 0.000000 0.000000 0.000000 0.072377
#
#
# Mechanical properties :
#
#
# Convention : Reuss Voigt Hill
#
# Bulk Modulus (GPa) = 26.49819 81.96952 54.23385
# Shear Modulus (GPa) = 13.21262 21.68769 17.45015
#
# Velocity S-wave (km/s) = 2.72508 3.49134 3.13174
# Velocity P-wave (km/s) = 4.97942 7.89450 6.59992
#
# Compressibility (1/GPa) = 0.03773843
#
# Stress axis : x y z
#
# Youngs Moduli (GPa) = 16.74721 104.21164 100.02547
#
# Poissons Ratio (x) = 0.71329 1.02133
# Poissons Ratio (y) = 0.11463 0.37288
# Poissons Ratio (z) = 0.17100 0.38848
#
# Static dielectric constant tensor:
#      x y z
#    x 1.603190 0.000000 0.000000 
#    y 0.000000 1.589590 0.000000 
#    z 0.000000 0.000000 1.592770 
# 
# From -- ./inp_files/16721.got.cif
#   From: 2010.05.17/outbox.cif.g08.bks.cpg/sg38_9_cif.got.tgz:16721.got - 2010.06.03 18:07:57.
