data_PCOD9357812
_publ_section_title
;
Structure prediction by ZEFSAII (Michael W. Deem and Ramdas Pophale) SiO2 
 PCOD9357812
Probable space group: A M M 2
;
_chemical_formula_sum "Si O2"
_cell_formula_units_Z 58
_cell_length_a 7.360839
_cell_length_b 15.111001
_cell_length_c 25.061427
_cell_angle_alpha 90.000000
_cell_angle_beta 90.000000
_cell_angle_gamma 90.000000
_cell_volume 2787.573641
_symmetry_space_group_name_H-M "A M M 2"
_symmetry_group_IT_number 38
_symmetry_cell_setting 'orthorhombic'
loop_
_space_group_symop_operation_xyz
x,y,z
-x,-y,z
-x,y,z
x,-y,z
x,1/2+y,1/2+z
-x,1/2-y,1/2+z
-x,1/2+y,1/2+z
x,1/2-y,1/2+z
loop_
_atom_site_type_symbol
_atom_site_label
_atom_site_fract_x
_atom_site_fract_y
_atom_site_fract_z
Si Si1 0.782606 0.268696 0.197810
Si Si2 0.289182 0.213258 0.884409
Si Si3 0.780209 0.655663 0.603573
Si Si4 0.288921 0.904055 0.387039
Si Si5 0.780164 0.595552 0.761065
Si Si6 0.712489 0.099378 0.786969
Si Si7 0.217904 0.101176 0.987432
Si Si8 0.500000 0.500000 0.633485
O O1 0.738370 0.244730 0.136823
O O2 0.716653 0.182784 0.231095
O O3 0.722189 0.355607 0.228993
O O4 0.000000 0.270223 0.201483
O O5 0.500000 0.232676 0.871766
O O6 0.209423 0.308281 0.901848
O O7 0.209255 0.166257 0.831719
O O8 0.282554 0.145831 0.933342
O O9 0.736424 0.655247 0.540772
O O10 0.659955 0.577469 0.627766
O O11 0.000000 0.638416 0.609279
O O12 0.500000 0.906416 0.403644
O O13 0.276936 0.901434 0.322565
O O14 0.209621 0.000000 0.403134
O O15 0.714602 0.500000 0.739526
O O16 0.000000 0.595220 0.758896
O O17 0.500000 0.091730 0.800553
O O18 0.788737 0.000000 0.788691
O O19 0.000000 0.097949 0.984299
O O20 0.283647 0.000000 0.993499
#
# Coordination Sequence:
#
# PCOD9357812 Si02
#       8
#     8   8   8   8   8   8   8   2
#     4  10  21  36  55  77 112 150 186 237 285 343
#     4  10  20  33  54  81 112 149 190 234 282 346
#     4  10  23  40  56  87 125 152 196 250 292 345
#     4   9  17  31  48  72 105 140 173 222 276 323
#     4   9  17  28  46  71 100 138 173 210 267 324
#     4  10  21  37  54  79 114 148 188 248 296 342
#     4  10  21  37  56  79 114 150 183 240 292 333
#     4  12  22  36  64  90 110 176 194 228 296 372
#
# _framework density 20.806625
#
# number of rings (size 3 to 8) (size 9 to 14) (size 15 to 20)
#    0.000    2.207    2.069    0.621    2.897    2.207 
#    0.000    0.000    0.000    0.828    0.000    3.862 
#    0.000    0.000    0.000    0.000    0.000    0.000 
#
# Total GULP energy -161488.848610 kJ/mol
# GULP energy per Si atom -5568.580987 kJ/mol
# Density = 2.075927 g / cm^3
# Si number density = 20.806625 Si / 1000 Ang^3
#
#
#
# Elastic Constant Matrix: (Units=GPa)
#
#
# Indices 1 2 3 4 5 6 
#
# 1 83.7479 11.4102 -3.1488 0.0000 0.0000 0.0000
# 2 11.4102 128.6181 40.2653 0.0000 0.0000 0.0000
# 3 -3.1488 40.2653 80.3404 0.0000 0.0000 0.0000
# 4 0.0000 0.0000 0.0000 26.0527 0.0000 0.0000
# 5 0.0000 0.0000 0.0000 0.0000 16.8315 0.0000
# 6 0.0000 0.0000 0.0000 0.0000 0.0000 12.1056
#
#
#
# Elastic Compliance Matrix: (Units=1/GPa)
#
#
# Indices 1 2 3 4 5 6 
#
# 1 0.012185 -0.001459 0.001209 0.000000 0.000000 0.000000
# 2 -0.001459 0.009397 -0.004767 0.000000 0.000000 0.000000
# 3 0.001209 -0.004767 0.014883 0.000000 0.000000 0.000000
# 4 0.000000 0.000000 0.000000 0.038384 0.000000 0.000000
# 5 0.000000 0.000000 0.000000 0.000000 0.059412 0.000000
# 6 0.000000 0.000000 0.000000 0.000000 0.000000 0.082606
#
#
# Mechanical properties :
#
#
# Convention : Reuss Voigt Hill
#
# Bulk Modulus (GPa) = 37.83467 43.30665 40.57066
# Shear Modulus (GPa) = 21.21232 27.27661 24.24446
#
# Velocity S-wave (km/s) = 3.19642 3.62464 3.41725
# Velocity P-wave (km/s) = 5.64325 6.19487 5.92548
#
# Compressibility (1/GPa) = 0.02643078
#
# Stress axis : x y z
#
# Youngs Moduli (GPa) = 82.06877 106.42046 67.18888
#
# Poissons Ratio (x) = 0.15532 -0.08123
# Poissons Ratio (y) = 0.11978 0.32027
# Poissons Ratio (z) = -0.09922 0.50727
#
# Static dielectric constant tensor:
#      x y z
#    x 1.828780 0.000000 0.000000 
#    y 0.000000 1.784060 0.000000 
#    z 0.000000 0.000000 1.741770 
# 
# From -- ./inp_files/22076.got.cif
#   From: 2010.05.17/outbox.cif.g08.bks.cpg/sg38_12_cif.got.tgz:22076.got - 2010.06.03 18:07:57.
