data_PCOD9357468
_publ_section_title
;
Structure prediction by ZEFSAII (Michael W. Deem and Ramdas Pophale) SiO2 
 PCOD9357468
Probable space group: A M M 2
;
_chemical_formula_sum "Si O2"
_cell_formula_units_Z 44
_cell_length_a 29.187086
_cell_length_b 13.939863
_cell_length_c 5.346518
_cell_angle_alpha 90.000000
_cell_angle_beta 90.000000
_cell_angle_gamma 90.000000
_cell_volume 2175.305594
_symmetry_space_group_name_H-M "A M M 2"
_symmetry_group_IT_number 38
_symmetry_cell_setting 'orthorhombic'
loop_
_space_group_symop_operation_xyz
x,y,z
-x,-y,z
-x,y,z
x,-y,z
x,1/2+y,1/2+z
-x,1/2-y,1/2+z
-x,1/2+y,1/2+z
x,1/2-y,1/2+z
loop_
_atom_site_type_symbol
_atom_site_label
_atom_site_fract_x
_atom_site_fract_y
_atom_site_fract_z
Si Si1 0.198491 0.184620 0.265050
Si Si2 0.904061 0.688467 0.820259
Si Si3 0.591150 0.866314 0.788612
Si Si4 0.324387 0.000000 0.768235
Si Si5 0.552893 0.156555 0.289066
Si Si6 0.000000 0.686058 0.709345
Si Si7 0.263763 0.000000 0.268384
O O1 0.204014 0.253556 0.509055
O O2 0.146076 0.145118 0.277780
O O3 0.232956 0.095879 0.271861
O O4 0.905407 0.772390 0.605538
O O5 0.951588 0.634199 0.760890
O O6 0.563409 0.896075 0.544217
O O7 0.584852 0.751305 0.794636
O O8 0.641743 0.908223 0.774015
O O9 0.567104 0.897943 0.042359
O O10 0.295436 0.000000 0.514595
O O11 0.293372 0.000000 0.014647
O O12 0.500000 0.186267 0.276087
O O13 0.000000 0.730767 0.428640
#
# Coordination Sequence:
#
# PCOD9357468 Si02
#       7
#     8   8   8   4   8   4   4
#     4  10  21  41  63  90 115 158 209 254 311 366
#     4   8  14  25  47  75 112 144 191 238 289 366
#     4  10  20  37  57  82 117 148 186 228 277 334
#     4  12  26  44  57  86 122 155 192 248 310 348
#     4  10  19  38  62  89 116 152 191 220 266 349
#     4   8  12  20  38  73 108 147 178 230 294 347
#     4  12  26  46  62  87 125 154 210 270 304 356
#
# _framework density 20.227041
#
# number of rings (size 3 to 8) (size 9 to 14) (size 15 to 20)
#    0.000    2.182    0.000    4.909    0.000    0.000 
#   19.636    5.000    0.000    0.545    0.000    0.000 
#    0.000   23.273    0.000    0.000    0.000    3.091 
#
# Total GULP energy -122528.566856 kJ/mol
# GULP energy per Si atom -5569.480312 kJ/mol
# Density = 2.018100 g / cm^3
# Si number density = 20.227041 Si / 1000 Ang^3
#
#
#
# Elastic Constant Matrix: (Units=GPa)
#
#
# Indices 1 2 3 4 5 6 
#
# 1 62.2807 23.2319 -77.1500 0.0000 0.0000 0.0000
# 2 23.2319 87.0878 -14.5242 0.0000 0.0000 0.0000
# 3 -77.1500 -14.5242 42.6140 0.0000 0.0000 0.0000
# 4 0.0000 0.0000 0.0000 -4.8868 0.0000 0.0000
# 5 0.0000 0.0000 0.0000 0.0000 38.6573 0.0000
# 6 0.0000 0.0000 0.0000 0.0000 0.0000 -9.5422
#
#
#
# Elastic Compliance Matrix: (Units=1/GPa)
#
#
# Indices 1 2 3 4 5 6 
#
# 1 -0.012902 -0.000481 -0.023522 0.000000 0.000000 0.000000
# 2 -0.000481 0.012157 0.003272 0.000000 0.000000 0.000000
# 3 -0.023522 0.003272 -0.018003 0.000000 0.000000 0.000000
# 4 0.000000 0.000000 0.000000 -0.204633 0.000000 0.000000
# 5 0.000000 0.000000 0.000000 0.000000 0.025868 0.000000
# 6 0.000000 0.000000 0.000000 0.000000 0.000000 -0.104797
#
#
# Mechanical properties :
#
#
# Convention : Reuss Voigt Hill
#
# Bulk Modulus (GPa) = -16.60863 6.12199 -5.24332
# Shear Modulus (GPa) = -17.79876 22.20733 2.20428
#
# Velocity S-wave (km/s) = -2.96961 3.31706 1.04505
# Velocity P-wave (km/s) = 4.47069 4.20758 1.06849
#
# Compressibility (1/GPa) = -0.06020965
#
# Stress axis : x y z
#
# Youngs Moduli (GPa) = -77.50864 82.25876 -55.54601
#
# Poissons Ratio (x) = 0.03958 -1.30655
# Poissons Ratio (y) = -0.03730 0.18176
# Poissons Ratio (z) = -1.82315 -0.26917
#
# Static dielectric constant tensor:
#      x y z
#    x 1.736780 0.000000 0.000000 
#    y 0.000000 1.703800 0.000000 
#    z 0.000000 0.000000 1.987770 
# 
# From -- ./inp_files/2202.got.cif
#   From: 2010.05.17/outbox.cif.g08.bks.cpg/sg38_2_cif.got.tgz:2202.got - 2010.06.03 18:07:57.
