data_PCOD9357262
_publ_section_title
;
Structure prediction by ZEFSAII (Michael W. Deem and Ramdas Pophale) SiO2 
 PCOD9357262
Probable space group: A M M 2
;
_chemical_formula_sum "Si O2"
_cell_formula_units_Z 48
_cell_length_a 19.636906
_cell_length_b 8.099788
_cell_length_c 14.387222
_cell_angle_alpha 90.000000
_cell_angle_beta 90.000000
_cell_angle_gamma 90.000000
_cell_volume 2288.356366
_symmetry_space_group_name_H-M "A M M 2"
_symmetry_group_IT_number 38
_symmetry_cell_setting 'orthorhombic'
loop_
_space_group_symop_operation_xyz
x,y,z
-x,-y,z
-x,y,z
x,-y,z
x,1/2+y,1/2+z
-x,1/2-y,1/2+z
-x,1/2+y,1/2+z
x,1/2-y,1/2+z
loop_
_atom_site_type_symbol
_atom_site_label
_atom_site_fract_x
_atom_site_fract_y
_atom_site_fract_z
Si Si1 0.808886 0.197566 0.362210
Si Si2 0.810140 0.805855 0.580429
Si Si3 0.421975 0.500000 0.862765
Si Si4 0.421354 0.000000 0.590848
Si Si5 0.335478 0.318300 0.589120
Si Si6 0.922614 0.300609 0.719565
Si Si7 0.337595 0.318699 0.362117
O O1 0.817950 0.227728 0.471296
O O2 0.875740 0.248944 0.306652
O O3 0.740224 0.289182 0.332036
O O4 0.798142 0.000000 0.349743
O O5 0.743519 0.708837 0.615084
O O6 0.878818 0.758842 0.632360
O O7 0.795623 0.000000 0.591636
O O8 0.500000 0.500000 0.833077
O O9 0.383054 0.664907 0.832226
O O10 0.420888 0.500000 0.976767
O O11 0.381180 0.835187 0.620237
O O12 0.500000 0.000000 0.620208
O O13 0.358896 0.500000 0.618633
O O14 0.336828 0.314869 0.475602
O O15 0.924845 0.500000 0.718501
O O16 0.000000 0.239391 0.722080
O O17 0.361823 0.500000 0.333652
#
# Coordination Sequence:
#
# PCOD9357262 Si02
#       7
#     8   8   4   4   8   8   8
#     4   9  18  35  57  77 108 151 191 233 283 339
#     4  10  19  34  57  81 109 147 192 238 283 337
#     4   9  16  26  42  70 111 147 180 231 287 333
#     4   9  16  26  42  72 111 145 184 235 285 333
#     4   9  16  28  47  72 105 145 188 232 278 335
#     4  10  22  38  55  81 115 146 186 236 286 347
#     4   9  16  27  47  73 103 142 189 233 274 332
#
# _framework density 20.975756000000001
#
# number of rings (size 3 to 8) (size 9 to 14) (size 15 to 20)
#    0.000    2.667    1.667    0.500    0.000    3.000 
#    0.000    5.000    0.000    0.000    0.000    1.167 
#    0.000    0.000    0.000    0.000    0.000    0.000 
#
# Total GULP energy -134109.447934 kJ/mol
# GULP energy per Si atom -5587.893664 kJ/mol
# Density = 2.092801 g / cm^3
# Si number density = 20.975756 Si / 1000 Ang^3
#
#
#
# Elastic Constant Matrix: (Units=GPa)
#
#
# Indices 1 2 3 4 5 6 
#
# 1 171.8560 96.6367 23.0889 0.0000 0.0000 0.0000
# 2 96.6367 132.6285 39.0742 0.0000 0.0000 0.0000
# 3 23.0889 39.0742 44.0105 0.0000 0.0000 0.0000
# 4 0.0000 0.0000 0.0000 0.1441 0.0000 0.0000
# 5 0.0000 0.0000 0.0000 0.0000 42.3323 0.0000
# 6 0.0000 0.0000 0.0000 0.0000 0.0000 17.3524
#
#
#
# Elastic Compliance Matrix: (Units=1/GPa)
#
#
# Indices 1 2 3 4 5 6 
#
# 1 0.009945 -0.007731 0.001647 0.000000 0.000000 0.000000
# 2 -0.007731 0.016221 -0.010346 0.000000 0.000000 0.000000
# 3 0.001647 -0.010346 0.031043 0.000000 0.000000 0.000000
# 4 0.000000 0.000000 0.000000 6.940675 0.000000 0.000000
# 5 0.000000 0.000000 0.000000 0.000000 0.023623 0.000000
# 6 0.000000 0.000000 0.000000 0.000000 0.000000 0.057629
#
#
# Mechanical properties :
#
#
# Convention : Reuss Voigt Hill
#
# Bulk Modulus (GPa) = 41.06964 74.01050 57.54007
# Shear Modulus (GPa) = 0.70224 24.61209 12.65716
#
# Velocity S-wave (km/s) = 0.57923 3.42915 2.45912
# Velocity P-wave (km/s) = 4.47989 7.14417 5.96274
#
# Compressibility (1/GPa) = 0.02434888
#
# Stress axis : x y z
#
# Youngs Moduli (GPa) = 100.55280 61.64793 32.21316
#
# Poissons Ratio (x) = 0.47662 -0.05305
# Poissons Ratio (y) = 0.77741 0.33327
# Poissons Ratio (z) = -0.16559 0.63779
#
# Static dielectric constant tensor:
#      x y z
#    x 1.699620 0.000000 0.000000 
#    y 0.000000 1.750920 0.000000 
#    z 0.000000 0.000000 1.815260 
# 
# From -- ./inp_files/15032.got.cif
#   From: 2010.05.17/outbox.cif.g08.bks.cpg/sg38_8_cif.got.tgz:15032.got - 2010.06.03 18:07:57.
