data_PCOD9357730
_publ_section_title
;
Structure prediction by ZEFSAII (Michael W. Deem and Ramdas Pophale) SiO2 
 PCOD9357730
Probable space group: A M M 2
;
_chemical_formula_sum "Si O2"
_cell_formula_units_Z 48
_cell_length_a 16.147286
_cell_length_b 9.031931
_cell_length_c 19.138980
_cell_angle_alpha 90.000000
_cell_angle_beta 90.000000
_cell_angle_gamma 90.000000
_cell_volume 2791.251293
_symmetry_space_group_name_H-M "A M M 2"
_symmetry_group_IT_number 38
_symmetry_cell_setting 'orthorhombic'
loop_
_space_group_symop_operation_xyz
x,y,z
-x,-y,z
-x,y,z
x,-y,z
x,1/2+y,1/2+z
-x,1/2-y,1/2+z
-x,1/2+y,1/2+z
x,1/2-y,1/2+z
loop_
_atom_site_type_symbol
_atom_site_label
_atom_site_fract_x
_atom_site_fract_y
_atom_site_fract_z
Si Si1 0.910455 0.323695 0.988850
Si Si2 0.739484 0.324719 0.145527
Si Si3 0.404863 0.176975 0.233737
Si Si4 0.269757 0.674346 0.978000
Si Si5 0.405175 0.175246 0.884493
Si Si6 0.908693 0.323090 0.641025
O O1 0.905642 0.500000 0.006650
O O2 0.000000 0.299761 0.953451
O O3 0.823724 0.289493 0.951796
O O4 0.911413 0.231868 0.060559
O O5 0.740282 0.500000 0.158094
O O6 0.662424 0.249684 0.183546
O O7 0.731528 0.302023 0.061703
O O8 0.826703 0.254601 0.170394
O O9 0.500000 0.213032 0.213237
O O10 0.392541 0.239599 0.311681
O O11 0.396059 0.000000 0.233746
O O12 0.285316 0.500000 0.965420
O O13 0.339123 0.768945 0.940321
O O14 0.500000 0.204165 0.907655
O O15 0.396783 0.000000 0.872634
O O16 0.899505 0.500000 0.643764
O O17 0.000000 0.284584 0.671009
#
# Coordination Sequence:
#
# PCOD9357730 Si02
#       6
#     8   8   8   8   8   8
#     4   8  14  26  44  67  97 131 164 198 241 293
#     4  10  20  33  51  76 105 135 167 206 249 293
#     4  10  21  37  56  75  97 128 165 206 253 305
#     4   9  18  31  49  75 103 131 163 201 245 288
#     4  10  21  36  53  72  96 129 167 205 247 298
#     4   9  16  26  43  69 100 132 166 204 245 290
#
# _framework density 17.196588999999999
#
# number of rings (size 3 to 8) (size 9 to 14) (size 15 to 20)
#    0.000    2.667    0.000    3.000    0.000    7.000 
#    0.000    3.333    0.000    1.000    0.000    2.333 
#    0.000    0.000    0.000    0.000    0.000    0.000 
#
# Total GULP energy -133677.798202 kJ/mol
# GULP energy per Si atom -5569.908258 kJ/mol
# Density = 1.715745 g / cm^3
# Si number density = 17.196589 Si / 1000 Ang^3
#
#
#
# Elastic Constant Matrix: (Units=GPa)
#
#
# Indices 1 2 3 4 5 6 
#
# 1 178.0146 84.1091 55.1658 0.0000 0.0000 0.0000
# 2 84.1091 74.6054 32.5872 0.0000 0.0000 0.0000
# 3 55.1658 32.5872 24.6229 0.0000 0.0000 0.0000
# 4 0.0000 0.0000 0.0000 26.0743 0.0000 0.0000
# 5 0.0000 0.0000 0.0000 0.0000 -16.7303 0.0000
# 6 0.0000 0.0000 0.0000 0.0000 0.0000 32.6018
#
#
#
# Elastic Compliance Matrix: (Units=1/GPa)
#
#
# Indices 1 2 3 4 5 6 
#
# 1 0.019800 -0.006982 -0.035120 0.000000 0.000000 0.000000
# 2 -0.006982 0.034230 -0.029660 0.000000 0.000000 0.000000
# 3 -0.035120 -0.029660 0.158550 0.000000 0.000000 0.000000
# 4 0.000000 0.000000 0.000000 0.038352 0.000000 0.000000
# 5 0.000000 0.000000 0.000000 0.000000 -0.059772 0.000000
# 6 0.000000 0.000000 0.000000 0.000000 0.000000 0.030673
#
#
# Mechanical properties :
#
#
# Convention : Reuss Voigt Hill
#
# Bulk Modulus (GPa) = 14.48088 68.99635 41.73862
# Shear Modulus (GPa) = 12.87415 15.41454 14.14434
#
# Velocity S-wave (km/s) = 2.73911 2.99720 2.87105
# Velocity P-wave (km/s) = 4.29449 7.22404 5.94262
#
# Compressibility (1/GPa) = 0.06905658
#
# Stress axis : x y z
#
# Youngs Moduli (GPa) = 50.50538 29.21377 6.30717
#
# Poissons Ratio (x) = 0.20397 0.22151
# Poissons Ratio (y) = 0.35263 0.18707
# Poissons Ratio (z) = 1.77375 0.86647
#
# Static dielectric constant tensor:
#      x y z
#    x 1.629540 0.000000 0.000000 
#    y 0.000000 1.568560 0.000000 
#    z 0.000000 0.000000 1.548200 
# 
# From -- ./inp_files/14980.got.cif
#   From: 2010.05.17/outbox.cif.g08.bks.cpg/sg38_8_cif.got.tgz:14980.got - 2010.06.03 18:07:57.
