data_PCOD9357755
_publ_section_title
;
Structure prediction by ZEFSAII (Michael W. Deem and Ramdas Pophale) SiO2 
 PCOD9357755
Probable space group: A M M 2
;
_chemical_formula_sum "Si O2"
_cell_formula_units_Z 64
_cell_length_a 15.330585
_cell_length_b 7.998708
_cell_length_c 25.356297
_cell_angle_alpha 90.000000
_cell_angle_beta 90.000000
_cell_angle_gamma 90.000000
_cell_volume 3109.312696
_symmetry_space_group_name_H-M "A M M 2"
_symmetry_group_IT_number 38
_symmetry_cell_setting 'orthorhombic'
loop_
_space_group_symop_operation_xyz
x,y,z
-x,-y,z
-x,y,z
x,-y,z
x,1/2+y,1/2+z
-x,1/2-y,1/2+z
-x,1/2+y,1/2+z
x,1/2-y,1/2+z
loop_
_atom_site_type_symbol
_atom_site_label
_atom_site_fract_x
_atom_site_fract_y
_atom_site_fract_z
Si Si1 0.315066 0.803167 0.192000
Si Si2 0.904988 0.204901 0.543425
Si Si3 0.278728 0.299583 0.006333
Si Si4 0.399955 0.303026 0.409604
Si Si5 0.287298 0.301059 0.810031
Si Si6 0.095920 0.202463 0.779467
Si Si7 0.594103 0.798545 0.595419
Si Si8 0.131003 0.306633 0.161483
O O1 0.321680 0.747065 0.252299
O O2 0.395330 0.770668 0.154020
O O3 0.235112 0.705583 0.165358
O O4 0.293653 0.000000 0.192485
O O5 0.821042 0.261251 0.510095
O O6 0.896536 0.262325 0.604688
O O7 0.000000 0.255731 0.523093
O O8 0.903220 0.000000 0.544627
O O9 0.274582 0.500000 0.011206
O O10 0.337427 0.264490 0.955662
O O11 0.330739 0.233728 0.057198
O O12 0.500000 0.234531 0.409139
O O13 0.406878 0.500000 0.417928
O O14 0.347184 0.273252 0.355544
O O15 0.294957 0.500000 0.814193
O O16 0.183564 0.259074 0.809365
O O17 0.101311 0.264210 0.718217
O O18 0.000000 0.251434 0.800442
O O19 0.099403 0.000000 0.778079
O O20 0.500000 0.753576 0.572668
O O21 0.599205 0.000000 0.597931
O O22 0.103158 0.500000 0.161461
#
# Coordination Sequence:
#
# PCOD9357755 Si02
#       8
#     8   8   8   8   8   8   8   8
#     4  10  20  33  51  79 116 151 184 226 281 336
#     4   9  16  28  52  85 116 148 189 230 267 317
#     4  10  20  37  60  85 114 148 187 233 283 338
#     4  11  25  44  65  86 106 138 189 247 303 354
#     4  10  22  39  59  84 114 151 193 238 289 344
#     4   9  17  30  53  86 121 157 195 235 281 331
#     4  10  20  34  54  81 111 147 189 228 276 342
#     4   9  15  28  50  77 113 155 196 230 267 321
#
# _framework density 20.583327000000001
#
# number of rings (size 3 to 8) (size 9 to 14) (size 15 to 20)
#    0.000    2.250    1.250    1.875    0.000    6.000 
#    0.000    3.125    0.000    4.500    0.000    0.000 
#    0.000    0.000    0.000    0.000    0.000    0.000 
#
# Total GULP energy -178427.292279 kJ/mol
# GULP energy per Si atom -5575.852884 kJ/mol
# Density = 2.053648 g / cm^3
# Si number density = 20.583327 Si / 1000 Ang^3
#
#
#
# Elastic Constant Matrix: (Units=GPa)
#
#
# Indices 1 2 3 4 5 6 
#
# 1 180.0575 12.2414 72.7043 0.0000 0.0000 0.0000
# 2 12.2414 15.9812 -2.6311 0.0000 0.0000 0.0000
# 3 72.7043 -2.6311 88.5563 0.0000 0.0000 0.0000
# 4 0.0000 0.0000 0.0000 17.9464 0.0000 0.0000
# 5 0.0000 0.0000 0.0000 0.0000 12.8127 0.0000
# 6 0.0000 0.0000 0.0000 0.0000 0.0000 13.4021
#
#
#
# Elastic Compliance Matrix: (Units=1/GPa)
#
#
# Indices 1 2 3 4 5 6 
#
# 1 0.009317 -0.008438 -0.007900 0.000000 0.000000 0.000000
# 2 -0.008438 0.070522 0.009023 0.000000 0.000000 0.000000
# 3 -0.007900 0.009023 0.018046 0.000000 0.000000 0.000000
# 4 0.000000 0.000000 0.000000 0.055721 0.000000 0.000000
# 5 0.000000 0.000000 0.000000 0.000000 0.078047 0.000000
# 6 0.000000 0.000000 0.000000 0.000000 0.000000 0.074615
#
#
# Mechanical properties :
#
#
# Convention : Reuss Voigt Hill
#
# Bulk Modulus (GPa) = 12.01125 49.91377 30.96251
# Shear Modulus (GPa) = 14.34095 22.31763 18.32929
#
# Velocity S-wave (km/s) = 2.64242 3.29638 2.98735
# Velocity P-wave (km/s) = 3.89332 6.22819 5.19367
#
# Compressibility (1/GPa) = 0.08325526
#
# Stress axis : x y z
#
# Youngs Moduli (GPa) = 107.32587 14.17996 55.41271
#
# Poissons Ratio (x) = 0.11965 0.43777
# Poissons Ratio (y) = 0.90558 -0.49997
# Poissons Ratio (z) = 0.84790 -0.12794
#
# Static dielectric constant tensor:
#      x y z
#    x 1.786380 0.000000 0.000000 
#    y 0.000000 1.747710 0.000000 
#    z 0.000000 0.000000 1.731670 
# 
# From -- ./inp_files/22892.got.cif
#   From: 2010.05.17/outbox.cif.g08.bks.cpg/sg38_12_cif.got.tgz:22892.got - 2010.06.03 18:07:57.
