data_PCOD9357396
_publ_section_title
;
Structure prediction by ZEFSAII (Michael W. Deem and Ramdas Pophale) SiO2 
 PCOD9357396
Probable space group: A M M 2
;
_chemical_formula_sum "Si O2"
_cell_formula_units_Z 64
_cell_length_a 15.737578
_cell_length_b 8.761539
_cell_length_c 24.356361
_cell_angle_alpha 90.000000
_cell_angle_beta 90.000000
_cell_angle_gamma 90.000000
_cell_volume 3358.386662
_symmetry_space_group_name_H-M "A M M 2"
_symmetry_group_IT_number 38
_symmetry_cell_setting 'orthorhombic'
loop_
_space_group_symop_operation_xyz
x,y,z
-x,-y,z
-x,y,z
x,-y,z
x,1/2+y,1/2+z
-x,1/2-y,1/2+z
-x,1/2+y,1/2+z
x,1/2-y,1/2+z
loop_
_atom_site_type_symbol
_atom_site_label
_atom_site_fract_x
_atom_site_fract_y
_atom_site_fract_z
Si Si1 0.597270 0.682434 0.227680
Si Si2 0.094524 0.185828 0.227287
Si Si3 0.096751 0.818231 0.963345
Si Si4 0.149328 0.180392 0.348865
Si Si5 0.748650 0.681752 0.031951
Si Si6 0.353646 0.319958 0.844738
Si Si7 0.596159 0.682359 0.460502
Si Si8 0.746154 0.183685 0.153670
O O1 0.500000 0.717027 0.212069
O O2 0.608563 0.500000 0.227190
O O3 0.613892 0.744487 0.288902
O O4 0.664504 0.758970 0.187089
O O5 0.113596 0.231707 0.290029
O O6 0.169839 0.234910 0.187156
O O7 0.000000 0.235122 0.210809
O O8 0.095923 0.000000 0.227298
O O9 0.112682 0.770544 0.900340
O O10 0.000000 0.777915 0.978636
O O11 0.107118 0.000000 0.968975
O O12 0.167058 0.736085 0.000139
O O13 0.251346 0.195494 0.347380
O O14 0.129523 0.000000 0.355765
O O15 0.746621 0.500000 0.034153
O O16 0.747115 0.751041 0.092655
O O17 0.667469 0.741001 0.997960
O O18 0.373748 0.500000 0.844675
O O19 0.391653 0.241341 0.898488
O O20 0.500000 0.718091 0.478705
O O21 0.607433 0.500000 0.461591
O O22 0.745666 0.000000 0.151953
#
# Coordination Sequence:
#
# PCOD9357396 Si02
#       8
#     8   8   8   8   8   8   8   8
#     4  11  24  41  62  90 125 166 209 255 308 366
#     4   9  18  35  61  91 122 156 195 240 294 358
#     4  11  24  41  63  93 127 165 208 255 309 367
#     4  10  19  35  61  93 126 163 202 246 306 369
#     4  12  26  44  65  90 121 162 210 258 313 372
#     4  11  21  36  62  96 128 163 203 249 309 370
#     4  11  24  42  65  93 124 161 204 253 312 373
#     4  11  23  42  65  90 121 159 207 258 311 367
#
# _framework density 19.056768999999999
#
# number of rings (size 3 to 8) (size 9 to 14) (size 15 to 20)
#    0.000    1.250    2.500    3.750    0.000    6.500 
#    0.000    1.250    0.000    1.875    0.000    0.000 
#    0.000    0.000    0.000    0.000    0.000    0.000 
#
# Total GULP energy -178963.588005 kJ/mol
# GULP energy per Si atom -5592.612125 kJ/mol
# Density = 1.901340 g / cm^3
# Si number density = 19.056769 Si / 1000 Ang^3
#
#
#
# Elastic Constant Matrix: (Units=GPa)
#
#
# Indices 1 2 3 4 5 6 
#
# 1 168.2219 79.0075 92.4625 0.0000 0.0000 0.0000
# 2 79.0075 86.0342 54.0847 0.0000 0.0000 0.0000
# 3 92.4625 54.0847 160.2157 0.0000 0.0000 0.0000
# 4 0.0000 0.0000 0.0000 22.6300 0.0000 0.0000
# 5 0.0000 0.0000 0.0000 0.0000 -7.3076 0.0000
# 6 0.0000 0.0000 0.0000 0.0000 0.0000 15.1411
#
#
#
# Elastic Compliance Matrix: (Units=1/GPa)
#
#
# Indices 1 2 3 4 5 6 
#
# 1 0.012322 -0.008689 -0.004178 0.000000 0.000000 0.000000
# 2 -0.008689 0.020882 -0.002035 0.000000 0.000000 0.000000
# 3 -0.004178 -0.002035 0.009339 0.000000 0.000000 0.000000
# 4 0.000000 0.000000 0.000000 0.044189 0.000000 0.000000
# 5 0.000000 0.000000 0.000000 0.000000 -0.136845 0.000000
# 6 0.000000 0.000000 0.000000 0.000000 0.000000 0.066045
#
#
# Mechanical properties :
#
#
# Convention : Reuss Voigt Hill
#
# Bulk Modulus (GPa) = 78.49277 96.17568 87.33422
# Shear Modulus (GPa) = 100.03531 18.68719 59.36125
#
# Velocity S-wave (km/s) = 7.25309 3.13486 5.58725
# Velocity P-wave (km/s) = 10.55563 7.98002 9.35687
#
# Compressibility (1/GPa) = 0.01274003
#
# Stress axis : x y z
#
# Youngs Moduli (GPa) = 81.15699 47.88888 107.07213
#
# Poissons Ratio (x) = 0.41611 0.44733
# Poissons Ratio (y) = 0.70518 0.21784
# Poissons Ratio (z) = 0.33906 0.09743
#
# Static dielectric constant tensor:
#      x y z
#    x 1.666100 0.000000 0.000000 
#    y 0.000000 1.640310 0.000000 
#    z 0.000000 0.000000 1.619040 
# 
# From -- ./inp_files/23001.got.cif
#   From: 2010.05.17/outbox.cif.g08.bks.cpg/sg38_12_cif.got.tgz:23001.got - 2010.06.03 18:07:57.
