data_PCOD9357906
_publ_section_title
;
Structure prediction by ZEFSAII (Michael W. Deem and Ramdas Pophale) SiO2 
 PCOD9357906
Probable space group: A M M 2
;
_chemical_formula_sum "Si O2"
_cell_formula_units_Z 56
_cell_length_a 8.684330
_cell_length_b 20.467242
_cell_length_c 15.891577
_cell_angle_alpha 90.000000
_cell_angle_beta 90.000000
_cell_angle_gamma 90.000000
_cell_volume 2824.636971
_symmetry_space_group_name_H-M "A M M 2"
_symmetry_group_IT_number 38
_symmetry_cell_setting 'orthorhombic'
loop_
_space_group_symop_operation_xyz
x,y,z
-x,-y,z
-x,y,z
x,-y,z
x,1/2+y,1/2+z
-x,1/2-y,1/2+z
-x,1/2+y,1/2+z
x,1/2-y,1/2+z
loop_
_atom_site_type_symbol
_atom_site_label
_atom_site_fract_x
_atom_site_fract_y
_atom_site_fract_z
Si Si1 0.185339 0.745456 0.670280
Si Si2 0.821698 0.697046 0.997385
Si Si3 0.814540 0.575626 0.416473
Si Si4 0.831200 0.926140 0.265640
Si Si5 0.315663 0.789496 0.850641
Si Si6 0.672056 0.578141 0.926799
Si Si7 0.683747 0.889904 0.099670
O O1 0.220024 0.796366 0.595577
O O2 0.248223 0.761742 0.762781
O O3 0.265637 0.681856 0.630230
O O4 0.000000 0.737642 0.674925
O O5 0.734293 0.744572 0.931052
O O6 0.794284 0.621885 0.974347
O O7 0.000000 0.715433 0.988374
O O8 0.773876 0.500000 0.393165
O O9 0.746440 0.636240 0.363324
O O10 0.751409 0.589808 0.510203
O O11 0.000000 0.580213 0.416047
O O12 0.703376 0.901060 0.329744
O O13 0.767007 0.929571 0.172804
O O14 0.000000 0.893620 0.270518
O O15 0.851883 0.000000 0.294779
O O16 0.500000 0.790196 0.847295
O O17 0.500000 0.598083 0.950982
O O18 0.682406 0.500000 0.938656
O O19 0.500000 0.897066 0.099362
#
# Coordination Sequence:
#
# PCOD9357906 Si02
#       7
#     8   8   8   8   8   8   8
#     4  11  24  42  65  90 123 166 215 264 317 386
#     4  11  23  41  66  92 123 164 211 262 315 381
#     4  11  24  43  66  92 128 174 222 271 328 398
#     4  10  20  34  53  79 115 158 201 244 297 368
#     4  12  25  42  67  97 132 169 214 273 331 392
#     4  10  21  37  58  86 122 161 202 255 318 379
#     4  12  23  36  58  90 125 160 205 263 323 382
#
# _framework density 19.825558000000001
#
# number of rings (size 3 to 8) (size 9 to 14) (size 15 to 20)
#    0.000    1.000    1.429    6.000    0.000    6.286 
#    0.000    0.714    0.000    0.857    0.000    0.000 
#    0.000    0.000    0.000    0.000    0.000    0.000 
#
# Total GULP energy -156174.249909 kJ/mol
# GULP energy per Si atom -5577.651782 kJ/mol
# Density = 1.978043 g / cm^3
# Si number density = 19.825558 Si / 1000 Ang^3
#
#
#
# Elastic Constant Matrix: (Units=GPa)
#
#
# Indices 1 2 3 4 5 6 
#
# 1 99.2824 10.6295 12.0374 0.0000 0.0000 0.0000
# 2 10.6295 67.0367 9.7738 0.0000 0.0000 0.0000
# 3 12.0374 9.7738 67.8629 0.0000 0.0000 0.0000
# 4 0.0000 0.0000 0.0000 45.0109 0.0000 0.0000
# 5 0.0000 0.0000 0.0000 0.0000 145.8177 0.0000
# 6 0.0000 0.0000 0.0000 0.0000 0.0000 21.7409
#
#
#
# Elastic Compliance Matrix: (Units=1/GPa)
#
#
# Indices 1 2 3 4 5 6 
#
# 1 0.010423 -0.001413 -0.001645 0.000000 0.000000 0.000000
# 2 -0.001413 0.015429 -0.001971 0.000000 0.000000 0.000000
# 3 -0.001645 -0.001971 0.015311 0.000000 0.000000 0.000000
# 4 0.000000 0.000000 0.000000 0.022217 0.000000 0.000000
# 5 0.000000 0.000000 0.000000 0.000000 0.006858 0.000000
# 6 0.000000 0.000000 0.000000 0.000000 0.000000 0.045996
#
#
# Mechanical properties :
#
#
# Convention : Reuss Voigt Hill
#
# Bulk Modulus (GPa) = 32.15043 33.22928 32.68985
# Shear Modulus (GPa) = 36.58684 55.96332 46.27508
#
# Velocity S-wave (km/s) = 4.30052 5.31875 4.83651
# Velocity P-wave (km/s) = 6.39618 7.38350 6.90750
#
# Compressibility (1/GPa) = 0.03110379
#
# Stress axis : x y z
#
# Youngs Moduli (GPa) = 95.94143 64.81447 65.31094
#
# Poissons Ratio (x) = 0.09157 0.10746
# Poissons Ratio (y) = 0.13555 0.12876
# Poissons Ratio (z) = 0.15786 0.12778
#
# Static dielectric constant tensor:
#      x y z
#    x 1.571550 0.000000 0.000000 
#    y 0.000000 1.697410 0.000000 
#    z 0.000000 0.000000 1.701940 
# 
# From -- ./inp_files/12421.got.cif
#   From: 2010.05.17/outbox.cif.g08.bks.cpg/sg38_7_cif.got.tgz:12421.got - 2010.06.03 18:07:57.
