data_PCOD9357368
_publ_section_title
;
Structure prediction by ZEFSAII (Michael W. Deem and Ramdas Pophale) SiO2 
 PCOD9357368
Probable space group: A M M 2
;
_chemical_formula_sum "Si O2"
_cell_formula_units_Z 48
_cell_length_a 7.845665
_cell_length_b 18.727380
_cell_length_c 15.734388
_cell_angle_alpha 90.000000
_cell_angle_beta 90.000000
_cell_angle_gamma 90.000000
_cell_volume 2311.833958
_symmetry_space_group_name_H-M "A M M 2"
_symmetry_group_IT_number 38
_symmetry_cell_setting 'orthorhombic'
loop_
_space_group_symop_operation_xyz
x,y,z
-x,-y,z
-x,y,z
x,-y,z
x,1/2+y,1/2+z
-x,1/2-y,1/2+z
-x,1/2+y,1/2+z
x,1/2-y,1/2+z
loop_
_atom_site_type_symbol
_atom_site_label
_atom_site_fract_x
_atom_site_fract_y
_atom_site_fract_z
Si Si1 0.696134 0.725765 0.942070
Si Si2 0.800041 0.880785 0.977456
Si Si3 0.697083 0.500000 0.345029
Si Si4 0.191932 0.500000 0.157753
Si Si5 0.709028 0.773878 0.249456
Si Si6 0.294008 0.077446 0.164389
Si Si7 0.702368 0.157813 0.611093
O O1 0.500000 0.701659 0.931149
O O2 0.702029 0.806357 0.976216
O O3 0.770103 0.729307 0.846973
O O4 0.774509 0.679317 0.018455
O O5 0.735412 0.931606 0.902769
O O6 0.000000 0.867329 0.966209
O O7 0.768950 0.917219 0.067891
O O8 0.500000 0.500000 0.319343
O O9 0.804068 0.500000 0.259800
O O10 0.273897 0.425418 0.129622
O O11 0.000000 0.500000 0.125537
O O12 0.500000 0.770144 0.250787
O O13 0.760847 0.850694 0.211878
O O14 0.767446 0.709563 0.187187
O O15 0.500000 0.078810 0.163238
O O16 0.241094 0.000000 0.200329
O O17 0.500000 0.172478 0.606951
#
# Coordination Sequence:
#
# PCOD9357368 Si02
#       7
#     8   8   4   4   8   8   8
#     4  10  20  37  62  88 116 158 208 252 295 356
#     4  12  23  35  56  89 124 154 193 245 306 368
#     4  12  24  40  62  87 118 157 200 249 304 366
#     4  12  26  42  60  87 122 155 198 253 316 368
#     4   9  18  35  60  91 117 147 200 254 292 344
#     4  10  19  35  59  86 119 157 195 242 300 357
#     4  10  20  38  62  87 120 160 205 249 299 362
#
# _framework density 20.762736
#
# number of rings (size 3 to 8) (size 9 to 14) (size 15 to 20)
#    0.000    1.500    2.500    4.000    0.000    2.000 
#    1.500    0.833    0.000    0.000    0.000    0.000 
#    0.000    0.000    0.000    0.000    0.000    0.000 
#
# Total GULP energy -134015.067996 kJ/mol
# GULP energy per Si atom -5583.961167 kJ/mol
# Density = 2.071548 g / cm^3
# Si number density = 20.762736 Si / 1000 Ang^3
#
#
#
# Elastic Constant Matrix: (Units=GPa)
#
#
# Indices 1 2 3 4 5 6 
#
# 1 35.7775 -6.3784 3.8878 0.0000 0.0000 0.0000
# 2 -6.3784 145.5441 73.4148 0.0000 0.0000 0.0000
# 3 3.8878 73.4148 134.1346 0.0000 0.0000 0.0000
# 4 0.0000 0.0000 0.0000 -160.0675 0.0000 0.0000
# 5 0.0000 0.0000 0.0000 0.0000 -4.5294 0.0000
# 6 0.0000 0.0000 0.0000 0.0000 0.0000 -5.0797
#
#
#
# Elastic Compliance Matrix: (Units=1/GPa)
#
#
# Indices 1 2 3 4 5 6 
#
# 1 0.028589 0.002308 -0.002092 0.000000 0.000000 0.000000
# 2 0.002308 0.009677 -0.005364 0.000000 0.000000 0.000000
# 3 -0.002092 -0.005364 0.010451 0.000000 0.000000 0.000000
# 4 0.000000 0.000000 0.000000 -0.006247 0.000000 0.000000
# 5 0.000000 0.000000 0.000000 0.000000 -0.220781 0.000000
# 6 0.000000 0.000000 0.000000 0.000000 0.000000 -0.196864
#
#
# Mechanical properties :
#
#
# Convention : Reuss Voigt Hill
#
# Bulk Modulus (GPa) = 26.02578 50.81163 38.41871
# Shear Modulus (GPa) = -14.20166 -17.63316 -15.91741
#
# Velocity S-wave (km/s) = -2.61817 -2.91738 -2.77182
# Velocity P-wave (km/s) = 1.84994 3.63008 2.88095
#
# Compressibility (1/GPa) = 0.03842344
#
# Stress axis : x y z
#
# Youngs Moduli (GPa) = 34.97807 103.33373 95.68085
#
# Poissons Ratio (x) = -0.23851 0.20016
# Poissons Ratio (y) = -0.08073 0.51319
# Poissons Ratio (z) = 0.07317 0.55423
#
# Static dielectric constant tensor:
#      x y z
#    x 1.748570 0.000000 0.000000 
#    y 0.000000 1.748240 0.000000 
#    z 0.000000 0.000000 1.734220 
# 
# From -- ./inp_files/12095.got.cif
#   From: 2010.05.17/outbox.cif.g08.bks.cpg/sg38_7_cif.got.tgz:12095.got - 2010.06.03 18:07:57.
