data_PCOD9357535
_publ_section_title
;
Structure prediction by ZEFSAII (Michael W. Deem and Ramdas Pophale) SiO2 
 PCOD9357535
Probable space group: A M M 2
;
_chemical_formula_sum "Si O2"
_cell_formula_units_Z 64
_cell_length_a 7.901595
_cell_length_b 15.111569
_cell_length_c 29.007476
_cell_angle_alpha 90.000000
_cell_angle_beta 90.000000
_cell_angle_gamma 90.000000
_cell_volume 3463.652119
_symmetry_space_group_name_H-M "A M M 2"
_symmetry_group_IT_number 38
_symmetry_cell_setting 'orthorhombic'
loop_
_space_group_symop_operation_xyz
x,y,z
-x,-y,z
-x,y,z
x,-y,z
x,1/2+y,1/2+z
-x,1/2-y,1/2+z
-x,1/2+y,1/2+z
x,1/2-y,1/2+z
loop_
_atom_site_type_symbol
_atom_site_label
_atom_site_fract_x
_atom_site_fract_y
_atom_site_fract_z
Si Si1 0.791925 0.720881 0.064530
Si Si2 0.206549 0.398829 0.148990
Si Si3 0.299386 0.099825 0.374443
Si Si4 0.300377 0.600372 0.424774
Si Si5 0.799984 0.717370 0.338327
Si Si6 0.204283 0.601087 0.979113
Si Si7 0.206592 0.101334 0.753791
Si Si8 0.199544 0.901339 0.027453
O O1 0.736614 0.670134 0.110450
O O2 0.000000 0.721192 0.064566
O O3 0.738003 0.665606 0.019473
O O4 0.731943 0.821383 0.058098
O O5 0.256766 0.500000 0.137786
O O6 0.260724 0.378981 0.201370
O O7 0.000000 0.398013 0.148701
O O8 0.500000 0.096198 0.368892
O O9 0.233665 0.178485 0.342604
O O10 0.261669 0.124370 0.427661
O O11 0.230414 0.000000 0.366840
O O12 0.500000 0.598288 0.433379
O O13 0.244255 0.500000 0.412203
O O14 0.266931 0.667384 0.383559
O O15 0.216441 0.623885 0.473502
O O16 0.732301 0.669467 0.292423
O O17 0.000000 0.703964 0.338639
O O18 0.259140 0.500000 0.988305
O O19 0.000000 0.602324 0.979016
O O20 0.000000 0.103013 0.753403
O O21 0.255911 0.000000 0.765024
O O22 0.000000 0.907321 0.037357
O O23 0.273590 0.000000 0.033074
#
# Coordination Sequence:
#
# PCOD9357535 Si02
#       8
#     8   8   8   8   8   8   8   8
#     4   9  15  23  39  62  87 116 148 181 219 263
#     4   8  13  23  40  63  91 117 140 173 220 271
#     4  10  21  35  48  64  90 124 159 193 228 267
#     4  10  20  32  46  67  95 125 157 192 230 274
#     4  11  20  30  48  70  92 120 154 191 231 277
#     4   9  16  26  42  66  92 115 144 183 225 268
#     4   8  15  27  43  66  94 119 143 177 226 279
#     4   9  17  28  41  60  89 123 155 186 221 262
#
# _framework density 18.477606999999999
#
# number of rings (size 3 to 8) (size 9 to 14) (size 15 to 20)
#    0.000    2.750    0.000    3.375    0.000    4.500 
#    0.000    0.000    0.000    0.750    0.000    7.000 
#    0.000    8.000    0.000    0.000    0.000    0.000 
#
# Total GULP energy -178471.828974 kJ/mol
# GULP energy per Si atom -5577.244655 kJ/mol
# Density = 1.843555 g / cm^3
# Si number density = 18.477607 Si / 1000 Ang^3
#
#
#
# Elastic Constant Matrix: (Units=GPa)
#
#
# Indices 1 2 3 4 5 6 
#
# 1 16.9979 0.6590 -2.9434 0.0000 0.0000 0.0000
# 2 0.6590 125.3787 91.5865 0.0000 0.0000 0.0000
# 3 -2.9434 91.5865 95.7249 0.0000 0.0000 0.0000
# 4 0.0000 0.0000 0.0000 64.3270 0.0000 0.0000
# 5 0.0000 0.0000 0.0000 0.0000 -34.0687 0.0000
# 6 0.0000 0.0000 0.0000 0.0000 0.0000 12.0983
#
#
#
# Elastic Compliance Matrix: (Units=1/GPa)
#
#
# Indices 1 2 3 4 5 6 
#
# 1 0.060286 -0.005549 0.007163 0.000000 0.000000 0.000000
# 2 -0.005549 0.027000 -0.026003 0.000000 0.000000 0.000000
# 3 0.007163 -0.026003 0.035546 0.000000 0.000000 0.000000
# 4 0.000000 0.000000 0.000000 0.015546 0.000000 0.000000
# 5 0.000000 0.000000 0.000000 0.000000 -0.029352 0.000000
# 6 0.000000 0.000000 0.000000 0.000000 0.000000 0.082656
#
#
# Mechanical properties :
#
#
# Convention : Reuss Voigt Hill
#
# Bulk Modulus (GPa) = 13.50378 46.30061 29.90220
# Shear Modulus (GPa) = 18.85767 18.39129 18.62448
#
# Velocity S-wave (km/s) = 3.19810 3.15831 3.17826
# Velocity P-wave (km/s) = 4.57834 6.19774 5.44854
#
# Compressibility (1/GPa) = 0.07405331
#
# Stress axis : x y z
#
# Youngs Moduli (GPa) = 16.58749 37.03743 28.13273
#
# Poissons Ratio (x) = 0.20554 -0.20152
# Poissons Ratio (y) = 0.09205 0.73154
# Poissons Ratio (z) = -0.11882 0.96309
#
# Static dielectric constant tensor:
#      x y z
#    x 1.652320 0.000000 0.000000 
#    y 0.000000 1.532800 0.000000 
#    z 0.000000 0.000000 1.617610 
# 
# From -- ./inp_files/24754.got.cif
#   From: 2010.05.17/outbox.cif.g08.bks.cpg/sg38_13_cif.got.tgz:24754.got - 2010.06.03 18:07:57.
