data_PCOD9357331
_publ_section_title
;
Structure prediction by ZEFSAII (Michael W. Deem and Ramdas Pophale) SiO2 
 PCOD9357331
Probable space group: A M M 2
;
_chemical_formula_sum "Si O2"
_cell_formula_units_Z 64
_cell_length_a 15.353045
_cell_length_b 22.833684
_cell_length_c 9.496106
_cell_angle_alpha 90.000000
_cell_angle_beta 90.000000
_cell_angle_gamma 90.000000
_cell_volume 3329.017384
_symmetry_space_group_name_H-M "A M M 2"
_symmetry_group_IT_number 38
_symmetry_cell_setting 'orthorhombic'
loop_
_space_group_symop_operation_xyz
x,y,z
-x,-y,z
-x,y,z
x,-y,z
x,1/2+y,1/2+z
-x,1/2-y,1/2+z
-x,1/2+y,1/2+z
x,1/2-y,1/2+z
loop_
_atom_site_type_symbol
_atom_site_label
_atom_site_fract_x
_atom_site_fract_y
_atom_site_fract_z
Si Si1 0.402053 0.751485 0.603100
Si Si2 0.904504 0.433951 0.370074
Si Si3 0.721534 0.068868 0.709192
Si Si4 0.780554 0.236894 0.270258
Si Si5 0.400979 0.435848 0.726939
Si Si6 0.311999 0.646691 0.944039
Si Si7 0.643672 0.630590 0.467822
Si Si8 0.167478 0.172265 0.004244
O O1 0.500000 0.752895 0.665177
O O2 0.317648 0.748788 0.707733
O O3 0.382020 0.808876 0.511497
O O4 0.397102 0.693962 0.502029
O O5 0.896975 0.500000 0.431767
O O6 0.820012 0.427163 0.270507
O O7 0.899247 0.380062 0.478778
O O8 0.000000 0.431134 0.299957
O O9 0.716410 0.099838 0.559388
O O10 0.657499 0.106016 0.811798
O O11 0.698203 0.000000 0.705929
O O12 0.766205 0.186281 0.385512
O O13 0.818463 0.290792 0.359785
O O14 0.838236 0.215033 0.138651
O O15 0.500000 0.436920 0.777736
O O16 0.361736 0.500000 0.745767
O O17 0.352161 0.386708 0.812862
O O18 0.400706 0.417754 0.564323
O O19 0.741344 0.638784 0.526236
#
# Coordination Sequence:
#
# PCOD9357331 Si02
#       8
#     8   8   8   8   8   8   8   8
#     4  11  22  34  54  82 110 147 196 248 298 340
#     4   9  19  38  66  96 123 150 186 235 286 346
#     4  10  22  39  61  87 113 149 198 238 288 355
#     4  11  21  37  55  83 118 153 195 243 288 339
#     4  11  23  38  54  77 114 156 199 249 302 352
#     4  12  22  38  57  83 113 155 195 248 292 348
#     4  10  19  35  57  80 108 145 196 242 285 343
#     4  10  20  37  59  87 115 153 191 234 283 345
#
# _framework density 19.224892000000001
#
# number of rings (size 3 to 8) (size 9 to 14) (size 15 to 20)
#    0.000    1.500    5.000    3.000    0.000    1.000 
#    0.000    2.500    0.000    5.250    0.000    1.750 
#    0.000    0.000    0.000    0.000    0.000    0.000 
#
# Total GULP energy -178368.004744 kJ/mol
# GULP energy per Si atom -5574.000148 kJ/mol
# Density = 1.918114 g / cm^3
# Si number density = 19.224892 Si / 1000 Ang^3
#
#
#
# Elastic Constant Matrix: (Units=GPa)
#
#
# Indices 1 2 3 4 5 6 
#
# 1 46.6449 20.9069 11.7331 0.0000 0.0000 0.0000
# 2 20.9069 119.2610 36.8849 0.0000 0.0000 0.0000
# 3 11.7331 36.8849 89.0818 0.0000 0.0000 0.0000
# 4 0.0000 0.0000 0.0000 29.2237 0.0000 0.0000
# 5 0.0000 0.0000 0.0000 0.0000 1.1510 0.0000
# 6 0.0000 0.0000 0.0000 0.0000 0.0000 16.9212
#
#
#
# Elastic Compliance Matrix: (Units=1/GPa)
#
#
# Indices 1 2 3 4 5 6 
#
# 1 0.023462 -0.003621 -0.001591 0.000000 0.000000 0.000000
# 2 -0.003621 0.010175 -0.003736 0.000000 0.000000 0.000000
# 3 -0.001591 -0.003736 0.012982 0.000000 0.000000 0.000000
# 4 0.000000 0.000000 0.000000 0.034219 0.000000 0.000000
# 5 0.000000 0.000000 0.000000 0.000000 0.868783 0.000000
# 6 0.000000 0.000000 0.000000 0.000000 0.000000 0.059097
#
#
# Mechanical properties :
#
#
# Convention : Reuss Voigt Hill
#
# Bulk Modulus (GPa) = 34.81521 43.78196 39.29859
# Shear Modulus (GPa) = 4.82538 21.82338 13.32438
#
# Velocity S-wave (km/s) = 1.58601 3.37287 2.63550
# Velocity P-wave (km/s) = 4.63709 6.16371 5.45408
#
# Compressibility (1/GPa) = 0.02872307
#
# Stress axis : x y z
#
# Youngs Moduli (GPa) = 42.62266 98.27757 77.02860
#
# Poissons Ratio (x) = 0.35585 0.12255
# Poissons Ratio (y) = 0.15433 0.28780
# Poissons Ratio (z) = 0.06781 0.36719
#
# Static dielectric constant tensor:
#      x y z
#    x 1.694700 0.000000 0.000000 
#    y 0.000000 1.717280 0.000000 
#    z 0.000000 0.000000 1.704520 
# 
# From -- ./inp_files/5891.got.cif
#   From: 2010.05.17/outbox.cif.g08.bks.cpg/sg38_3_cif.got.tgz:5891.got - 2010.06.03 18:07:57.
