data_PCOD9357712
_publ_section_title
;
Structure prediction by ZEFSAII (Michael W. Deem and Ramdas Pophale) SiO2 
 PCOD9357712
Probable space group: A M M 2
;
_chemical_formula_sum "Si O2"
_cell_formula_units_Z 56
_cell_length_a 13.672026
_cell_length_b 8.675864
_cell_length_c 24.437621
_cell_angle_alpha 90.000000
_cell_angle_beta 90.000000
_cell_angle_gamma 90.000000
_cell_volume 2898.708448
_symmetry_space_group_name_H-M "A M M 2"
_symmetry_group_IT_number 38
_symmetry_cell_setting 'orthorhombic'
loop_
_space_group_symop_operation_xyz
x,y,z
-x,-y,z
-x,y,z
x,-y,z
x,1/2+y,1/2+z
-x,1/2-y,1/2+z
-x,1/2+y,1/2+z
x,1/2-y,1/2+z
loop_
_atom_site_type_symbol
_atom_site_label
_atom_site_fract_x
_atom_site_fract_y
_atom_site_fract_z
Si Si1 0.771299 0.824978 0.136930
Si Si2 0.116634 0.684887 0.033581
Si Si3 0.791604 0.314797 0.423309
Si Si4 0.885158 0.671239 0.823876
Si Si5 0.387828 0.187110 0.845078
Si Si6 0.884454 0.167030 0.719771
Si Si7 0.612940 0.814104 0.719065
O O1 0.820456 0.735493 0.086501
O O2 0.854427 0.809159 0.183016
O O3 0.680687 0.753041 0.170943
O O4 0.750406 0.000000 0.121237
O O5 0.115306 0.500000 0.030037
O O6 0.000000 0.733850 0.035521
O O7 0.177381 0.753522 0.982540
O O8 0.794892 0.500000 0.423704
O O9 0.870758 0.240142 0.383180
O O10 0.689960 0.267492 0.392180
O O11 0.841565 0.500000 0.818674
O O12 0.848188 0.795886 0.780393
O O13 0.000000 0.657380 0.813004
O O14 0.500000 0.233999 0.857514
O O15 0.365887 0.237714 0.782164
O O16 0.386339 0.000000 0.843742
O O17 0.000000 0.155107 0.719091
O O18 0.845803 0.000000 0.700792
O O19 0.500000 0.773158 0.708638
O O20 0.620241 0.000000 0.718663
#
# Coordination Sequence:
#
# PCOD9357712 Si02
#       7
#     8   8   8   8   8   8   8
#     4  12  24  37  57  84 114 148 188 239 296 353
#     4  11  25  44  62  79 107 152 202 249 294 345
#     4  11  21  34  57  85 112 147 190 237 290 346
#     4  10  20  33  50  76 111 147 182 226 283 345
#     4   8  16  33  58  88 119 150 185 226 276 335
#     4  10  20  34  53  78 109 145 185 231 285 347
#     4   9  18  36  63  91 120 156 195 234 280 341
#
# _framework density 19.318947999999999
#
# number of rings (size 3 to 8) (size 9 to 14) (size 15 to 20)
#    0.000    1.857    0.000    5.571    0.000    7.714 
#    0.000    1.429    0.000    6.000    0.000    0.000 
#    0.000    0.000    0.000    0.000    0.000    0.000 
#
# Total GULP energy -155967.677584 kJ/mol
# GULP energy per Si atom -5570.274199 kJ/mol
# Density = 1.927498 g / cm^3
# Si number density = 19.318948 Si / 1000 Ang^3
#
#
#
# Elastic Constant Matrix: (Units=GPa)
#
#
# Indices 1 2 3 4 5 6 
#
# 1 137.7368 34.2245 46.6430 0.0000 0.0000 0.0000
# 2 34.2245 67.7917 27.2705 0.0000 0.0000 0.0000
# 3 46.6430 27.2705 105.0175 0.0000 0.0000 0.0000
# 4 0.0000 0.0000 0.0000 26.5227 0.0000 0.0000
# 5 0.0000 0.0000 0.0000 0.0000 32.9791 0.0000
# 6 0.0000 0.0000 0.0000 0.0000 0.0000 20.9724
#
#
#
# Elastic Compliance Matrix: (Units=1/GPa)
#
#
# Indices 1 2 3 4 5 6 
#
# 1 0.009177 -0.003343 -0.003208 0.000000 0.000000 0.000000
# 2 -0.003343 0.017689 -0.003109 0.000000 0.000000 0.000000
# 3 -0.003208 -0.003109 0.011754 0.000000 0.000000 0.000000
# 4 0.000000 0.000000 0.000000 0.037704 0.000000 0.000000
# 5 0.000000 0.000000 0.000000 0.000000 0.030322 0.000000
# 6 0.000000 0.000000 0.000000 0.000000 0.000000 0.047682
#
#
# Mechanical properties :
#
#
# Convention : Reuss Voigt Hill
#
# Bulk Modulus (GPa) = 51.80873 58.53579 55.17226
# Shear Modulus (GPa) = 27.76528 29.58869 28.67699
#
# Velocity S-wave (km/s) = 3.79516 3.91780 3.85697
# Velocity P-wave (km/s) = 6.78823 7.12958 6.96100
#
# Compressibility (1/GPa) = 0.01930177
#
# Stress axis : x y z
#
# Youngs Moduli (GPa) = 108.96654 56.53172 85.07506
#
# Poissons Ratio (x) = 0.18896 0.27292
# Poissons Ratio (y) = 0.36423 0.26449
# Poissons Ratio (z) = 0.34956 0.17575
#
# Static dielectric constant tensor:
#      x y z
#    x 1.722720 0.000000 0.000000 
#    y 0.000000 1.726970 0.000000 
#    z 0.000000 0.000000 1.691540 
# 
# From -- ./inp_files/21045.got.cif
#   From: 2010.05.17/outbox.cif.g08.bks.cpg/sg38_11_cif.got.tgz:21045.got - 2010.06.03 18:07:57.
