data_PCOD9357983
_publ_section_title
;
Structure prediction by ZEFSAII (Michael W. Deem and Ramdas Pophale) SiO2 
 PCOD9357983
Probable space group: A M M 2
;
_chemical_formula_sum "Si O2"
_cell_formula_units_Z 64
_cell_length_a 20.665923
_cell_length_b 7.932488
_cell_length_c 19.322578
_cell_angle_alpha 90.000000
_cell_angle_beta 90.000000
_cell_angle_gamma 90.000000
_cell_volume 3167.592455
_symmetry_space_group_name_H-M "A M M 2"
_symmetry_group_IT_number 38
_symmetry_cell_setting 'orthorhombic'
loop_
_space_group_symop_operation_xyz
x,y,z
-x,-y,z
-x,y,z
x,-y,z
x,1/2+y,1/2+z
-x,1/2-y,1/2+z
-x,1/2+y,1/2+z
x,1/2-y,1/2+z
loop_
_atom_site_type_symbol
_atom_site_label
_atom_site_fract_x
_atom_site_fract_y
_atom_site_fract_z
Si Si1 0.310507 0.202750 0.080340
Si Si2 0.693231 0.302063 0.737392
Si Si3 0.573786 0.201784 0.482570
Si Si4 0.926246 0.706004 0.230171
Si Si5 0.804453 0.700518 0.483175
Si Si6 0.073969 0.796148 0.571919
Si Si7 0.425920 0.799852 0.827333
Si Si8 0.813012 0.800927 0.828459
O O1 0.307679 0.266091 0.159062
O O2 0.377129 0.242630 0.041584
O O3 0.305005 0.000000 0.084186
O O4 0.251833 0.269753 0.032981
O O5 0.708666 0.500000 0.735081
O O6 0.624245 0.279122 0.774220
O O7 0.748145 0.218123 0.784116
O O8 0.500000 0.261595 0.494461
O O9 0.594498 0.265927 0.406697
O O10 0.573178 0.000000 0.479910
O O11 0.925227 0.500000 0.230221
O O12 0.911112 0.756981 0.151082
O O13 0.873185 0.768829 0.284234
O O14 0.000000 0.756759 0.246264
O O15 0.792271 0.500000 0.477937
O O16 0.873205 0.727935 0.519473
O O17 0.804430 0.771373 0.405401
O O18 0.000000 0.744947 0.556373
O O19 0.076104 0.000000 0.570081
O O20 0.500000 0.737320 0.820087
O O21 0.425864 0.000000 0.816318
O O22 0.826293 0.000000 0.836954
#
# Coordination Sequence:
#
# PCOD9357983 Si02
#       8
#     8   8   8   8   8   8   8   8
#     4  10  22  38  54  77 112 150 186 226 272 320
#     4  11  23  37  55  79 109 146 186 229 274 321
#     4  10  21  37  59  87 115 143 179 221 265 321
#     4   8  15  30  52  77 104 135 175 221 265 314
#     4  10  21  35  52  77 107 138 175 220 269 322
#     4   9  18  33  53  76 103 137 175 215 263 320
#     4  10  21  38  60  83 109 142 178 221 275 330
#     4  10  20  34  55  80 105 138 180 225 273 326
#
# _framework density 20.204620999999999
#
# number of rings (size 3 to 8) (size 9 to 14) (size 15 to 20)
#    0.000    2.250    0.000    3.375    0.000    5.750 
#    0.000    3.750    0.000    1.125    0.000    0.000 
#    0.000    0.000    0.000    0.000    0.000    0.000 
#
# Total GULP energy -178708.375005 kJ/mol
# GULP energy per Si atom -5584.636719 kJ/mol
# Density = 2.015863 g / cm^3
# Si number density = 20.204621 Si / 1000 Ang^3
#
#
#
# Elastic Constant Matrix: (Units=GPa)
#
#
# Indices 1 2 3 4 5 6 
#
# 1 94.6128 -11.7963 93.3142 0.0000 0.0000 0.0000
# 2 -11.7963 12.1233 -1.6111 0.0000 0.0000 0.0000
# 3 93.3142 -1.6111 174.6109 0.0000 0.0000 0.0000
# 4 0.0000 0.0000 0.0000 10.0933 0.0000 0.0000
# 5 0.0000 0.0000 0.0000 0.0000 36.3684 0.0000
# 6 0.0000 0.0000 0.0000 0.0000 0.0000 13.6958
#
#
#
# Elastic Compliance Matrix: (Units=1/GPa)
#
#
# Indices 1 2 3 4 5 6 
#
# 1 0.028679 0.025901 -0.015087 0.000000 0.000000 0.000000
# 2 0.025901 0.105978 -0.012864 0.000000 0.000000 0.000000
# 3 -0.015087 -0.012864 0.013671 0.000000 0.000000 0.000000
# 4 0.000000 0.000000 0.000000 0.099076 0.000000 0.000000
# 5 0.000000 0.000000 0.000000 0.000000 0.027496 0.000000
# 6 0.000000 0.000000 0.000000 0.000000 0.000000 0.073015
#
#
# Mechanical properties :
#
#
# Convention : Reuss Voigt Hill
#
# Bulk Modulus (GPa) = 6.93352 49.01785 27.97568
# Shear Modulus (GPa) = 12.49709 25.46084 18.97896
#
# Velocity S-wave (km/s) = 2.48972 3.55371 3.06819
# Velocity P-wave (km/s) = 3.42111 6.41497 5.14081
#
# Compressibility (1/GPa) = 0.14422698
#
# Stress axis : x y z
#
# Youngs Moduli (GPa) = 34.86867 9.43592 73.14623
#
# Poissons Ratio (x) = -0.24440 1.10359
# Poissons Ratio (y) = -0.90312 0.94093
# Poissons Ratio (z) = 0.52608 0.12138
#
# Static dielectric constant tensor:
#      x y z
#    x 1.695810 0.000000 0.000000 
#    y 0.000000 1.751380 0.000000 
#    z 0.000000 0.000000 1.703020 
# 
# From -- ./inp_files/18857.got.cif
#   From: 2010.05.17/outbox.cif.g08.bks.cpg/sg38_10_cif.got.tgz:18857.got - 2010.06.03 18:07:57.
