data_PCOD9357455
_publ_section_title
;
Structure prediction by ZEFSAII (Michael W. Deem and Ramdas Pophale) SiO2 
 PCOD9357455
Probable space group: A M M 2
;
_chemical_formula_sum "Si O2"
_cell_formula_units_Z 48
_cell_length_a 8.642864
_cell_length_b 14.828118
_cell_length_c 20.919447
_cell_angle_alpha 90.000000
_cell_angle_beta 90.000000
_cell_angle_gamma 90.000000
_cell_volume 2680.982089
_symmetry_space_group_name_H-M "A M M 2"
_symmetry_group_IT_number 38
_symmetry_cell_setting 'orthorhombic'
loop_
_space_group_symop_operation_xyz
x,y,z
-x,-y,z
-x,y,z
x,-y,z
x,1/2+y,1/2+z
-x,1/2-y,1/2+z
-x,1/2+y,1/2+z
x,1/2-y,1/2+z
loop_
_atom_site_type_symbol
_atom_site_label
_atom_site_fract_x
_atom_site_fract_y
_atom_site_fract_z
Si Si1 0.185241 0.500000 0.775060
Si Si2 0.185582 0.194055 0.075056
Si Si3 0.686871 0.500000 0.377200
Si Si4 0.313250 0.808113 0.936018
Si Si5 0.314214 0.809957 0.691092
Si Si6 0.184302 0.500000 0.233287
Si Si7 0.187930 0.500000 0.626695
Si Si8 0.313372 0.309751 0.814011
O O1 0.237692 0.500000 0.700707
O O2 0.246194 0.409301 0.807480
O O3 0.000000 0.500000 0.775467
O O4 0.254360 0.261384 0.127547
O O5 0.000000 0.196641 0.078923
O O6 0.238744 0.092131 0.092866
O O7 0.240231 0.215368 0.003757
O O8 0.500000 0.500000 0.369818
O O9 0.731085 0.590500 0.414761
O O10 0.758040 0.500000 0.306687
O O11 0.500000 0.805650 0.941301
O O12 0.266828 0.741341 0.878733
O O13 0.500000 0.813886 0.690717
O O14 0.248297 0.909782 0.700357
O O15 0.265609 0.749662 0.752478
O O16 0.000000 0.500000 0.231662
O O17 0.000000 0.500000 0.626106
O O18 0.500000 0.314491 0.813243
#
# Coordination Sequence:
#
# PCOD9357455 Si02
#       8
#     4   8   4   8   8   4   4   8
#     4  11  21  36  59  87 120 151 191 241 295 346
#     4  11  22  38  58  87 125 159 196 243 298 357
#     4  10  19  37  61  88 123 157 198 245 293 354
#     4  10  21  38  59  86 120 158 199 244 293 350
#     4  11  22  40  63  86 116 157 201 245 292 349
#     4  12  24  37  60  93 123 152 194 246 301 356
#     4   9  19  34  54  84 124 156 181 234 297 348
#     4  10  21  38  61  86 116 153 200 245 286 342
#
# _framework density 17.903887999999998
#
# number of rings (size 3 to 8) (size 9 to 14) (size 15 to 20)
#    0.000    1.500    3.333    2.500    0.000    2.000 
#    0.000    2.083    0.000    3.000    0.000    0.000 
#    0.000    0.000    0.000    0.000    0.000    0.000 
#
# Total GULP energy -134121.132460 kJ/mol
# GULP energy per Si atom -5588.380519 kJ/mol
# Density = 1.786314 g / cm^3
# Si number density = 17.903888 Si / 1000 Ang^3
#
#
#
# Elastic Constant Matrix: (Units=GPa)
#
#
# Indices 1 2 3 4 5 6 
#
# 1 40.4342 43.3158 46.7798 0.0000 0.0000 0.0000
# 2 43.3158 165.9983 95.7635 0.0000 0.0000 0.0000
# 3 46.7798 95.7635 173.1035 0.0000 0.0000 0.0000
# 4 0.0000 0.0000 0.0000 23.3203 0.0000 0.0000
# 5 0.0000 0.0000 0.0000 0.0000 22.6948 0.0000
# 6 0.0000 0.0000 0.0000 0.0000 0.0000 18.0769
#
#
#
# Elastic Compliance Matrix: (Units=1/GPa)
#
#
# Indices 1 2 3 4 5 6 
#
# 1 0.039837 -0.006146 -0.007366 0.000000 0.000000 0.000000
# 2 -0.006146 0.009796 -0.003758 0.000000 0.000000 0.000000
# 3 -0.007366 -0.003758 0.009847 0.000000 0.000000 0.000000
# 4 0.000000 0.000000 0.000000 0.042881 0.000000 0.000000
# 5 0.000000 0.000000 0.000000 0.000000 0.044063 0.000000
# 6 0.000000 0.000000 0.000000 0.000000 0.000000 0.055319
#
#
# Mechanical properties :
#
#
# Convention : Reuss Voigt Hill
#
# Bulk Modulus (GPa) = 40.09662 83.47268 61.78465
# Shear Modulus (GPa) = 20.44184 25.73020 23.08602
#
# Velocity S-wave (km/s) = 3.38265 3.79506 3.59478
# Velocity P-wave (km/s) = 6.14008 8.11956 7.19818
#
# Compressibility (1/GPa) = 0.02493976
#
# Stress axis : x y z
#
# Youngs Moduli (GPa) = 25.10226 102.08103 101.55762
#
# Poissons Ratio (x) = 0.62739 0.74803
# Poissons Ratio (y) = 0.15428 0.38170
# Poissons Ratio (z) = 0.18489 0.38367
#
# Static dielectric constant tensor:
#      x y z
#    x 1.605860 0.000000 0.000000 
#    y 0.000000 1.590260 0.000000 
#    z 0.000000 0.000000 1.585410 
# 
# From -- ./inp_files/16726.got.cif
#   From: 2010.05.17/outbox.cif.g08.bks.cpg/sg38_9_cif.got.tgz:16726.got - 2010.06.03 18:07:57.
