data_PCOD9357071
_publ_section_title
;
Structure prediction by ZEFSAII (Michael W. Deem and Ramdas Pophale) SiO2 
 PCOD9357071
Probable space group: A M M 2
;
_chemical_formula_sum "Si O2"
_cell_formula_units_Z 64
_cell_length_a 9.156546
_cell_length_b 33.069755
_cell_length_c 12.036117
_cell_angle_alpha 90.000000
_cell_angle_beta 90.000000
_cell_angle_gamma 90.000000
_cell_volume 3644.593193
_symmetry_space_group_name_H-M "A M M 2"
_symmetry_group_IT_number 38
_symmetry_cell_setting 'orthorhombic'
loop_
_space_group_symop_operation_xyz
x,y,z
-x,-y,z
-x,y,z
x,-y,z
x,1/2+y,1/2+z
-x,1/2-y,1/2+z
-x,1/2+y,1/2+z
x,1/2-y,1/2+z
loop_
_atom_site_type_symbol
_atom_site_label
_atom_site_fract_x
_atom_site_fract_y
_atom_site_fract_z
Si Si1 0.833251 0.951515 0.627680
Si Si2 0.667352 0.183024 0.674840
Si Si3 0.822253 0.046276 0.379174
Si Si4 0.826081 0.275268 0.368059
Si Si5 0.175099 0.357066 0.498823
Si Si6 0.332669 0.401437 0.306056
Si Si7 0.176626 0.373541 0.753725
Si Si8 0.325565 0.809519 0.417258
O O1 0.775276 0.941130 0.504148
O O2 0.741979 0.934839 0.729619
O O3 0.000000 0.936172 0.636850
O O4 0.837261 0.000000 0.630037
O O5 0.500000 0.198465 0.684893
O O6 0.775868 0.210671 0.745689
O O7 0.671520 0.139182 0.731385
O O8 0.703935 0.179812 0.545803
O O9 0.781434 0.081070 0.292445
O O10 0.000000 0.044950 0.383045
O O11 0.773823 0.000000 0.356014
O O12 0.787164 0.312434 0.451165
O O13 0.741321 0.234687 0.397344
O O14 0.000000 0.269110 0.372515
O O15 0.248465 0.389786 0.418086
O O16 0.216863 0.363769 0.626594
O O17 0.000000 0.360806 0.490147
O O18 0.500000 0.411490 0.330253
O O19 0.250513 0.341548 0.835778
O O20 0.000000 0.370269 0.762804
O O21 0.500000 0.809300 0.400277
#
# Coordination Sequence:
#
# PCOD9357071 Si02
#       8
#     8   8   8   8   8   8   8   8
#     4   9  17  30  51  79 109 139 173 217 270 324
#     4   9  20  37  53  74 102 135 173 214 266 323
#     4   8  15  30  54  83 112 141 176 222 273 324
#     4  10  21  36  54  75 102 138 180 224 268 315
#     4   9  20  37  54  75 106 142 180 223 267 319
#     4  10  19  33  54  76 102 137 177 218 263 318
#     4  10  20  35  56  82 109 142 186 228 269 322
#     4  11  23  36  53  78 108 138 174 221 274 330
#
# _framework density 17.560258999999999
#
# number of rings (size 3 to 8) (size 9 to 14) (size 15 to 20)
#    0.000    2.500    0.000    2.625    1.750    2.750 
#    0.000    0.625    0.000    3.375    0.000    0.000 
#    0.000    0.000    0.000    0.000    0.000    0.000 
#
# Total GULP energy -178464.559208 kJ/mol
# GULP energy per Si atom -5577.017475 kJ/mol
# Density = 1.752029 g / cm^3
# Si number density = 17.560259 Si / 1000 Ang^3
#
#
#
# Elastic Constant Matrix: (Units=GPa)
#
#
# Indices 1 2 3 4 5 6 
#
# 1 35.3783 28.9807 50.8584 0.0000 0.0000 0.0000
# 2 28.9807 69.9610 65.4147 0.0000 0.0000 0.0000
# 3 50.8584 65.4147 156.5597 0.0000 0.0000 0.0000
# 4 0.0000 0.0000 0.0000 18.9842 0.0000 0.0000
# 5 0.0000 0.0000 0.0000 0.0000 23.3858 0.0000
# 6 0.0000 0.0000 0.0000 0.0000 0.0000 16.0767
#
#
#
# Elastic Compliance Matrix: (Units=1/GPa)
#
#
# Indices 1 2 3 4 5 6 
#
# 1 0.057290 -0.010390 -0.014270 0.000000 0.000000 0.000000
# 2 -0.010390 0.025342 -0.007214 0.000000 0.000000 0.000000
# 3 -0.014270 -0.007214 0.014037 0.000000 0.000000 0.000000
# 4 0.000000 0.000000 0.000000 0.052675 0.000000 0.000000
# 5 0.000000 0.000000 0.000000 0.000000 0.042761 0.000000
# 6 0.000000 0.000000 0.000000 0.000000 0.000000 0.062202
#
#
# Mechanical properties :
#
#
# Convention : Reuss Voigt Hill
#
# Bulk Modulus (GPa) = 30.37332 61.37853 45.87592
# Shear Modulus (GPa) = 15.19629 19.46569 17.33099
#
# Velocity S-wave (km/s) = 2.94492 3.33304 3.14497
# Velocity P-wave (km/s) = 5.37565 7.05983 6.27450
#
# Compressibility (1/GPa) = 0.03292363
#
# Stress axis : x y z
#
# Youngs Moduli (GPa) = 17.45499 39.45963 71.24079
#
# Poissons Ratio (x) = 0.40997 1.01658
# Poissons Ratio (y) = 0.18135 0.51391
# Poissons Ratio (z) = 0.24908 0.28465
#
# Static dielectric constant tensor:
#      x y z
#    x 1.591930 0.000000 0.000000 
#    y 0.000000 1.589900 0.000000 
#    z 0.000000 0.000000 1.586300 
# 
# From -- ./inp_files/8619.got.cif
#   From: 2010.05.17/outbox.cif.g08.bks.cpg/sg38_5_cif.got.tgz:8619.got - 2010.06.03 18:07:57.
