data_PCOD9357359
_publ_section_title
;
Structure prediction by ZEFSAII (Michael W. Deem and Ramdas Pophale) SiO2 
 PCOD9357359
Probable space group: A M M 2
;
_chemical_formula_sum "Si O2"
_cell_formula_units_Z 56
_cell_length_a 17.037188
_cell_length_b 8.992788
_cell_length_c 20.731594
_cell_angle_alpha 90.000000
_cell_angle_beta 90.000000
_cell_angle_gamma 90.000000
_cell_volume 3176.325244
_symmetry_space_group_name_H-M "A M M 2"
_symmetry_group_IT_number 38
_symmetry_cell_setting 'orthorhombic'
loop_
_space_group_symop_operation_xyz
x,y,z
-x,-y,z
-x,y,z
x,-y,z
x,1/2+y,1/2+z
-x,1/2-y,1/2+z
-x,1/2+y,1/2+z
x,1/2-y,1/2+z
loop_
_atom_site_type_symbol
_atom_site_label
_atom_site_fract_x
_atom_site_fract_y
_atom_site_fract_z
Si Si1 0.342469 0.822049 0.836390
Si Si2 0.234701 0.822304 0.713616
Si Si3 0.911713 0.678509 0.775142
Si Si4 0.909817 0.179358 0.425955
Si Si5 0.751616 0.677806 0.467013
Si Si6 0.500000 0.677024 0.792914
Si Si7 0.667004 0.820770 0.588090
Si Si8 0.500000 0.679331 0.150094
O O1 0.292212 0.785250 0.772873
O O2 0.292013 0.785861 0.899613
O O3 0.423523 0.735581 0.830153
O O4 0.357408 0.000000 0.836096
O O5 0.152502 0.747312 0.728920
O O6 0.275772 0.779029 0.647175
O O7 0.225051 0.000000 0.713385
O O8 0.907475 0.500000 0.772874
O O9 0.898679 0.720922 0.850279
O O10 0.000000 0.724207 0.757898
O O11 0.839031 0.253138 0.465002
O O12 0.000000 0.220078 0.443657
O O13 0.904235 0.000000 0.430529
O O14 0.757204 0.500000 0.472095
O O15 0.699115 0.743128 0.524397
O O16 0.500000 0.500000 0.788498
O O17 0.500000 0.746167 0.720588
O O18 0.578640 0.782084 0.610485
O O19 0.669583 0.000000 0.580099
O O20 0.500000 0.500000 0.160214
#
# Coordination Sequence:
#
# PCOD9357359 Si02
#       8
#     8   8   8   8   8   4   8   4
#     4  10  21  39  59  81 115 151 185 230 287 341
#     4  10  19  35  59  84 110 147 191 230 275 336
#     4   9  18  32  53  84 119 150 183 234 291 331
#     4   9  18  34  57  84 115 151 189 231 283 344
#     4  11  23  38  58  86 118 151 188 238 289 335
#     4  12  24  35  58  93 117 143 191 245 286 328
#     4  10  22  39  61  83 112 155 193 230 282 344
#     4  10  20  41  64  81 111 155 193 231 284 346
#
# _framework density 17.630436
#
# number of rings (size 3 to 8) (size 9 to 14) (size 15 to 20)
#    0.000    2.000    2.857    1.929    0.000    4.000 
#    0.000    3.571    0.000    0.857    0.000    0.000 
#    0.000    0.000    0.000    0.000    0.000    0.000 
#
# Total GULP energy -156285.279769 kJ/mol
# GULP energy per Si atom -5581.617135 kJ/mol
# Density = 1.759031 g / cm^3
# Si number density = 17.630436 Si / 1000 Ang^3
#
#
#
# Elastic Constant Matrix: (Units=GPa)
#
#
# Indices 1 2 3 4 5 6 
#
# 1 139.0027 46.7527 37.9359 0.0000 0.0000 0.0000
# 2 46.7527 25.7772 32.8665 0.0000 0.0000 0.0000
# 3 37.9359 32.8665 77.5001 0.0000 0.0000 0.0000
# 4 0.0000 0.0000 0.0000 28.0581 0.0000 0.0000
# 5 0.0000 0.0000 0.0000 0.0000 21.7162 0.0000
# 6 0.0000 0.0000 0.0000 0.0000 0.0000 24.6417
#
#
#
# Elastic Compliance Matrix: (Units=1/GPa)
#
#
# Indices 1 2 3 4 5 6 
#
# 1 0.024386 -0.063162 0.014849 0.000000 0.000000 0.000000
# 2 -0.063162 0.248062 -0.074282 0.000000 0.000000 0.000000
# 3 0.014849 -0.074282 0.037136 0.000000 0.000000 0.000000
# 4 0.000000 0.000000 0.000000 0.035640 0.000000 0.000000
# 5 0.000000 0.000000 0.000000 0.000000 0.046049 0.000000
# 6 0.000000 0.000000 0.000000 0.000000 0.000000 0.040582
#
#
# Mechanical properties :
#
#
# Convention : Reuss Voigt Hill
#
# Bulk Modulus (GPa) = 15.52897 53.04334 34.28615
# Shear Modulus (GPa) = 7.15811 23.19819 15.17815
#
# Velocity S-wave (km/s) = 2.01715 3.63134 2.93730
# Velocity P-wave (km/s) = 3.77523 6.90896 5.56714
#
# Compressibility (1/GPa) = 0.06439578
#
# Stress axis : x y z
#
# Youngs Moduli (GPa) = 41.00789 4.03125 26.92790
#
# Poissons Ratio (x) = 0.25462 -0.39986
# Poissons Ratio (y) = 2.59012 2.00025
# Poissons Ratio (z) = -0.60893 0.29945
#
# Static dielectric constant tensor:
#      x y z
#    x 1.601300 0.000000 0.000000 
#    y 0.000000 1.588610 0.000000 
#    z 0.000000 0.000000 1.576030 
# 
# From -- ./inp_files/21134.got.cif
#   From: 2010.05.17/outbox.cif.g08.bks.cpg/sg38_11_cif.got.tgz:21134.got - 2010.06.03 18:07:57.
