data_PCOD9357226
_publ_section_title
;
Structure prediction by ZEFSAII (Michael W. Deem and Ramdas Pophale) SiO2 
 PCOD9357226
Probable space group: A M M 2
;
_chemical_formula_sum "Si O2"
_cell_formula_units_Z 64
_cell_length_a 14.962312
_cell_length_b 22.454527
_cell_length_c 8.849885
_cell_angle_alpha 90.000000
_cell_angle_beta 90.000000
_cell_angle_gamma 90.000000
_cell_volume 2973.310367
_symmetry_space_group_name_H-M "A M M 2"
_symmetry_group_IT_number 38
_symmetry_cell_setting 'orthorhombic'
loop_
_space_group_symop_operation_xyz
x,y,z
-x,-y,z
-x,y,z
x,-y,z
x,1/2+y,1/2+z
-x,1/2-y,1/2+z
-x,1/2+y,1/2+z
x,1/2-y,1/2+z
loop_
_atom_site_type_symbol
_atom_site_label
_atom_site_fract_x
_atom_site_fract_y
_atom_site_fract_z
Si Si1 0.721692 0.066420 0.803650
Si Si2 0.858056 0.933736 0.299766
Si Si3 0.105397 0.673760 0.987904
Si Si4 0.324658 0.434103 0.948992
Si Si5 0.394682 0.318642 0.344482
Si Si6 0.106187 0.775872 0.796502
Si Si7 0.898332 0.893847 0.963616
Si Si8 0.602961 0.196756 0.484635
O O1 0.715070 0.068353 0.620674
O O2 0.662553 0.121128 0.867187
O O3 0.822106 0.074374 0.865842
O O4 0.689964 0.000000 0.848639
O O5 0.887552 0.893550 0.439255
O O6 0.751921 0.936030 0.322707
O O7 0.893838 0.000000 0.309881
O O8 0.885877 0.907310 0.139471
O O9 0.145036 0.714067 0.853868
O O10 0.000000 0.686330 0.994589
O O11 0.145603 0.694027 0.146887
O O12 0.371636 0.500000 0.942235
O O13 0.368511 0.369143 0.930256
O O14 0.500000 0.328901 0.384392
O O15 0.356935 0.259326 0.426048
O O16 0.391114 0.305299 0.165612
O O17 0.112200 0.823687 0.930383
O O18 0.000000 0.766782 0.768323
O O19 0.000000 0.909826 0.917945
O O20 0.500000 0.202121 0.437713
#
# Coordination Sequence:
#
# PCOD9357226 Si02
#       8
#     8   8   8   8   8   8   8   8
#     4  10  21  38  60  85 116 156 200 248 302 357
#     4  11  23  37  54  77 110 153 197 242 293 350
#     4  10  19  34  56  79 105 136 178 234 294 355
#     4   9  20  38  57  82 117 155 198 245 294 354
#     4   9  19  36  60  92 125 155 191 235 287 354
#     4   9  19  35  56  81 105 134 177 235 299 355
#     4  11  23  39  58  82 114 153 203 258 308 359
#     4   9  18  35  61  92 123 154 189 232 287 353
#
# _framework density 21.524829
#
# number of rings (size 3 to 8) (size 9 to 14) (size 15 to 20)
#    0.000    2.250    0.000    2.250    0.000    6.250 
#    0.000    6.250    0.000    9.000    0.000    5.250 
#    0.000    0.000    0.000    0.000    0.000    0.000 
#
# Total GULP energy -178423.634244 kJ/mol
# GULP energy per Si atom -5575.738570 kJ/mol
# Density = 2.147584 g / cm^3
# Si number density = 21.524829 Si / 1000 Ang^3
#
#
#
# Elastic Constant Matrix: (Units=GPa)
#
#
# Indices 1 2 3 4 5 6 
#
# 1 67.2450 47.1388 12.1812 0.0000 0.0000 0.0000
# 2 47.1388 162.8817 40.9719 0.0000 0.0000 0.0000
# 3 12.1812 40.9719 42.7122 0.0000 0.0000 0.0000
# 4 0.0000 0.0000 0.0000 27.1851 0.0000 0.0000
# 5 0.0000 0.0000 0.0000 0.0000 20.9230 0.0000
# 6 0.0000 0.0000 0.0000 0.0000 0.0000 24.3593
#
#
#
# Elastic Compliance Matrix: (Units=1/GPa)
#
#
# Indices 1 2 3 4 5 6 
#
# 1 0.018657 -0.005353 -0.000186 0.000000 0.000000 0.000000
# 2 -0.005353 0.009628 -0.007709 0.000000 0.000000 0.000000
# 3 -0.000186 -0.007709 0.030860 0.000000 0.000000 0.000000
# 4 0.000000 0.000000 0.000000 0.036785 0.000000 0.000000
# 5 0.000000 0.000000 0.000000 0.000000 0.047794 0.000000
# 6 0.000000 0.000000 0.000000 0.000000 0.000000 0.041052
#
#
# Mechanical properties :
#
#
# Convention : Reuss Voigt Hill
#
# Bulk Modulus (GPa) = 30.62836 52.60252 41.61544
# Shear Modulus (GPa) = 22.50684 25.99661 24.25172
#
# Velocity S-wave (km/s) = 3.23712 3.47904 3.36026
# Velocity P-wave (km/s) = 5.31339 6.37412 5.86777
#
# Compressibility (1/GPa) = 0.03264948
#
# Stress axis : x y z
#
# Youngs Moduli (GPa) = 53.59953 103.86822 32.40399
#
# Poissons Ratio (x) = 0.55596 0.00604
# Poissons Ratio (y) = 0.28689 0.24980
# Poissons Ratio (z) = 0.00999 0.80070
#
# Static dielectric constant tensor:
#      x y z
#    x 1.831700 0.000000 0.000000 
#    y 0.000000 1.858970 0.000000 
#    z 0.000000 0.000000 1.772660 
# 
# From -- ./inp_files/5906.got.cif
#   From: 2010.05.17/outbox.cif.g08.bks.cpg/sg38_3_cif.got.tgz:5906.got - 2010.06.03 18:07:57.
