data_PCOD9357274
_publ_section_title
;
Structure prediction by ZEFSAII (Michael W. Deem and Ramdas Pophale) SiO2 
 PCOD9357274
Probable space group: A M M 2
;
_chemical_formula_sum "Si O2"
_cell_formula_units_Z 64
_cell_length_a 24.579652
_cell_length_b 9.065618
_cell_length_c 15.329015
_cell_angle_alpha 90.000000
_cell_angle_beta 90.000000
_cell_angle_gamma 90.000000
_cell_volume 3415.760360
_symmetry_space_group_name_H-M "A M M 2"
_symmetry_group_IT_number 38
_symmetry_cell_setting 'orthorhombic'
loop_
_space_group_symop_operation_xyz
x,y,z
-x,-y,z
-x,y,z
x,-y,z
x,1/2+y,1/2+z
-x,1/2-y,1/2+z
-x,1/2+y,1/2+z
x,1/2-y,1/2+z
loop_
_atom_site_type_symbol
_atom_site_label
_atom_site_fract_x
_atom_site_fract_y
_atom_site_fract_z
Si Si1 0.866817 0.176756 0.913570
Si Si2 0.754335 0.329296 0.892593
Si Si3 0.742709 0.829218 0.602498
Si Si4 0.561663 0.177771 0.999901
Si Si5 0.377867 0.176054 0.654294
Si Si6 0.643765 0.323803 0.348182
Si Si7 0.063135 0.322386 0.768542
Si Si8 0.145438 0.822987 0.115875
O O1 0.809710 0.240146 0.877561
O O2 0.914053 0.246000 0.855248
O O3 0.867261 0.000000 0.908215
O O4 0.869841 0.219524 0.016196
O O5 0.761007 0.500000 0.867032
O O6 0.701548 0.257086 0.849744
O O7 0.744303 0.323518 0.997213
O O8 0.683842 0.774048 0.632387
O O9 0.795060 0.741784 0.635682
O O10 0.747520 0.000000 0.629833
O O11 0.500000 0.222541 0.978525
O O12 0.580483 0.242617 0.091817
O O13 0.563214 0.000000 0.002679
O O14 0.605483 0.225708 0.927467
O O15 0.386018 0.201311 0.756525
O O16 0.380259 0.000000 0.637444
O O17 0.653509 0.500000 0.356207
O O18 0.067838 0.500000 0.777616
O O19 0.100879 0.276736 0.686841
O O20 0.000000 0.286951 0.753501
O O21 0.148880 0.000000 0.117407
#
# Coordination Sequence:
#
# PCOD9357274 Si02
#       8
#     8   8   8   8   8   8   8   8
#     4  10  21  37  58  85 115 148 191 237 283 336
#     4  10  19  34  57  84 117 151 187 231 284 341
#     4   9  18  33  54  82 116 146 181 232 283 333
#     4  10  22  40  59  81 114 154 194 237 282 333
#     4  10  21  37  57  85 114 148 190 233 285 338
#     4  10  21  36  57  85 116 149 187 233 286 339
#     4  10  22  40  59  82 115 153 193 235 282 339
#     4   9  20  37  57  82 111 150 191 229 280 337
#
# _framework density 18.736678000000001
#
# number of rings (size 3 to 8) (size 9 to 14) (size 15 to 20)
#    0.000    2.250    1.250    0.750    1.750    4.000 
#    0.000    2.500    0.000    0.000    0.000    0.000 
#    0.000    0.000    0.000    0.000    0.000    0.000 
#
# Total GULP energy -178660.277417 kJ/mol
# GULP energy per Si atom -5583.133669 kJ/mol
# Density = 1.869403 g / cm^3
# Si number density = 18.736678 Si / 1000 Ang^3
#
#
#
# Elastic Constant Matrix: (Units=GPa)
#
#
# Indices 1 2 3 4 5 6 
#
# 1 65.7681 13.5695 7.3591 0.0000 0.0000 0.0000
# 2 13.5695 17.3487 12.8232 0.0000 0.0000 0.0000
# 3 7.3591 12.8232 34.8456 0.0000 0.0000 0.0000
# 4 0.0000 0.0000 0.0000 25.0082 0.0000 0.0000
# 5 0.0000 0.0000 0.0000 0.0000 18.7790 0.0000
# 6 0.0000 0.0000 0.0000 0.0000 0.0000 29.7728
#
#
#
# Elastic Compliance Matrix: (Units=1/GPa)
#
#
# Indices 1 2 3 4 5 6 
#
# 1 0.018224 -0.015672 0.001919 0.000000 0.000000 0.000000
# 2 -0.015672 0.092656 -0.030788 0.000000 0.000000 0.000000
# 3 0.001919 -0.030788 0.039623 0.000000 0.000000 0.000000
# 4 0.000000 0.000000 0.000000 0.039987 0.000000 0.000000
# 5 0.000000 0.000000 0.000000 0.000000 0.053251 0.000000
# 6 0.000000 0.000000 0.000000 0.000000 0.000000 0.033588
#
#
# Mechanical properties :
#
#
# Convention : Reuss Voigt Hill
#
# Bulk Modulus (GPa) = 16.28128 20.60733 18.44430
# Shear Modulus (GPa) = 12.92379 20.32602 16.62490
#
# Velocity S-wave (km/s) = 2.62918 3.29724 2.98198
# Velocity P-wave (km/s) = 4.23381 5.05153 4.66064
#
# Compressibility (1/GPa) = 0.06142024
#
# Stress axis : x y z
#
# Youngs Moduli (GPa) = 54.87337 10.79263 25.23812
#
# Poissons Ratio (x) = 0.16914 -0.04842
# Poissons Ratio (y) = 0.85998 0.77702
# Poissons Ratio (z) = -0.10528 0.33228
#
# Static dielectric constant tensor:
#      x y z
#    x 1.620070 0.000000 0.000000 
#    y 0.000000 1.632540 0.000000 
#    z 0.000000 0.000000 1.659620 
# 
# From -- ./inp_files/15746.got.cif
#   From: 2010.05.17/outbox.cif.g08.bks.cpg/sg38_8_cif.got.tgz:15746.got - 2010.06.03 18:07:57.
