data_PCOD9357505
_publ_section_title
;
Structure prediction by ZEFSAII (Michael W. Deem and Ramdas Pophale) SiO2 
 PCOD9357505
Probable space group: A M M 2
;
_chemical_formula_sum "Si O2"
_cell_formula_units_Z 56
_cell_length_a 16.211727
_cell_length_b 7.423825
_cell_length_c 20.924683
_cell_angle_alpha 90.000000
_cell_angle_beta 90.000000
_cell_angle_gamma 90.000000
_cell_volume 2518.348879
_symmetry_space_group_name_H-M "A M M 2"
_symmetry_group_IT_number 38
_symmetry_cell_setting 'orthorhombic'
loop_
_space_group_symop_operation_xyz
x,y,z
-x,-y,z
-x,y,z
x,-y,z
x,1/2+y,1/2+z
-x,1/2-y,1/2+z
-x,1/2+y,1/2+z
x,1/2-y,1/2+z
loop_
_atom_site_type_symbol
_atom_site_label
_atom_site_fract_x
_atom_site_fract_y
_atom_site_fract_z
Si Si1 0.588113 0.782131 0.538390
Si Si2 0.812361 0.788981 0.648759
Si Si3 0.774461 0.793980 0.006113
Si Si4 0.230786 0.721043 0.367235
Si Si5 0.091403 0.219886 0.766403
Si Si6 0.410932 0.280477 0.322121
Si Si7 0.369025 0.719582 0.180084
O O1 0.500000 0.722981 0.510414
O O2 0.674443 0.715656 0.510478
O O3 0.589545 0.729829 0.613354
O O4 0.591570 0.000000 0.535205
O O5 0.812109 0.775821 0.572291
O O6 0.885006 0.722142 0.694160
O O7 0.724960 0.714986 0.673356
O O8 0.807760 0.000000 0.662604
O O9 0.799921 0.000000 0.004584
O O10 0.796263 0.714755 0.937396
O O11 0.232422 0.500000 0.367242
O O12 0.165438 0.775392 0.313345
O O13 0.325034 0.778923 0.353502
O O14 0.000000 0.281935 0.784341
O O15 0.089291 0.000000 0.768980
O O16 0.500000 0.221100 0.348539
O O17 0.410301 0.500000 0.324374
O O18 0.406016 0.225954 0.247485
O O19 0.370046 0.500000 0.180796
#
# Coordination Sequence:
#
# PCOD9357505 Si02
#       7
#     8   8   8   8   8   8   8
#     4   9  17  29  46  69  96 130 175 218 252 291
#     4   9  16  30  52  74  96 122 160 209 253 295
#     4  10  20  31  46  69 103 140 166 196 248 307
#     4   9  17  29  42  66 102 131 160 203 249 295
#     4   9  16  29  53  79  98 121 160 213 264 301
#     4   9  14  20  35  60  90 122 154 194 242 281
#     4   8  12  21  39  64  91 115 148 199 246 278
#
# _framework density 22.236791
#
# number of rings (size 3 to 8) (size 9 to 14) (size 15 to 20)
#    0.000    3.000    1.429    1.714    0.000    2.571 
#    0.000    2.143    0.000    3.000    0.000    0.000 
#    0.000    0.000    0.000    0.000    0.000    0.000 
#
# Total GULP energy -156131.917314 kJ/mol
# GULP energy per Si atom -5576.139904 kJ/mol
# Density = 2.218618 g / cm^3
# Si number density = 22.236791 Si / 1000 Ang^3
#
#
#
# Elastic Constant Matrix: (Units=GPa)
#
#
# Indices 1 2 3 4 5 6 
#
# 1 124.9962 2.2356 61.6076 0.0000 0.0000 0.0000
# 2 2.2356 64.3400 -6.2764 0.0000 0.0000 0.0000
# 3 61.6076 -6.2764 127.6285 0.0000 0.0000 0.0000
# 4 0.0000 0.0000 0.0000 8.0791 0.0000 0.0000
# 5 0.0000 0.0000 0.0000 0.0000 -6.6080 0.0000
# 6 0.0000 0.0000 0.0000 0.0000 0.0000 -4.1143
#
#
#
# Elastic Compliance Matrix: (Units=1/GPa)
#
#
# Indices 1 2 3 4 5 6 
#
# 1 0.010546 -0.000867 -0.005133 0.000000 0.000000 0.000000
# 2 -0.000867 0.015689 0.001190 0.000000 0.000000 0.000000
# 3 -0.005133 0.001190 0.010372 0.000000 0.000000 0.000000
# 4 0.000000 0.000000 0.000000 0.123776 0.000000 0.000000
# 5 0.000000 0.000000 0.000000 0.000000 -0.151331 0.000000
# 6 0.000000 0.000000 0.000000 0.000000 0.000000 -0.243056
#
#
# Mechanical properties :
#
#
# Convention : Reuss Voigt Hill
#
# Bulk Modulus (GPa) = 37.05690 48.01093 42.53391
# Shear Modulus (GPa) = -23.21375 16.76455 -3.22460
#
# Velocity S-wave (km/s) = -3.23450 2.74872 -1.20551
# Velocity P-wave (km/s) = 1.65877 5.63131 4.15109
#
# Compressibility (1/GPa) = 0.02698553
#
# Stress axis : x y z
#
# Youngs Moduli (GPa) = 94.82455 63.74033 96.41694
#
# Poissons Ratio (x) = 0.05527 0.49493
# Poissons Ratio (y) = 0.08223 -0.11475
# Poissons Ratio (z) = 0.48675 -0.07586
#
# Static dielectric constant tensor:
#      x y z
#    x 1.806170 0.000000 0.000000 
#    y 0.000000 1.863110 0.000000 
#    z 0.000000 0.000000 1.820940 
# 
# From -- ./inp_files/21293.got.cif
#   From: 2010.05.17/outbox.cif.g08.bks.cpg/sg38_11_cif.got.tgz:21293.got - 2010.06.03 18:07:57.
