data_PCOD9357556
_publ_section_title
;
Structure prediction by ZEFSAII (Michael W. Deem and Ramdas Pophale) SiO2 
 PCOD9357556
Probable space group: A M M 2
;
_chemical_formula_sum "Si O2"
_cell_formula_units_Z 56
_cell_length_a 13.590092
_cell_length_b 9.081728
_cell_length_c 24.322013
_cell_angle_alpha 90.000000
_cell_angle_beta 90.000000
_cell_angle_gamma 90.000000
_cell_volume 3001.859791
_symmetry_space_group_name_H-M "A M M 2"
_symmetry_group_IT_number 38
_symmetry_cell_setting 'orthorhombic'
loop_
_space_group_symop_operation_xyz
x,y,z
-x,-y,z
-x,y,z
x,-y,z
x,1/2+y,1/2+z
-x,1/2-y,1/2+z
-x,1/2+y,1/2+z
x,1/2-y,1/2+z
loop_
_atom_site_type_symbol
_atom_site_label
_atom_site_fract_x
_atom_site_fract_y
_atom_site_fract_z
Si Si1 0.776700 0.828601 0.136930
Si Si2 0.117278 0.678340 0.034308
Si Si3 0.767261 0.829346 0.424455
Si Si4 0.883021 0.658721 0.816188
Si Si5 0.383268 0.174584 0.843403
Si Si6 0.883639 0.158163 0.720094
Si Si7 0.614285 0.676788 0.724898
O O1 0.818461 0.740932 0.084790
O O2 0.859256 0.795476 0.182260
O O3 0.681055 0.777849 0.172474
O O4 0.765424 0.000000 0.123437
O O5 0.116081 0.500000 0.036551
O O6 0.000000 0.723287 0.034939
O O7 0.179073 0.723115 0.979906
O O8 0.852031 0.828511 0.378531
O O9 0.680044 0.741325 0.393830
O O10 0.735756 0.000000 0.432705
O O11 0.843583 0.500000 0.795837
O O12 0.849677 0.796724 0.780555
O O13 0.000000 0.654475 0.811897
O O14 0.500000 0.197662 0.853547
O O15 0.361952 0.252114 0.784355
O O16 0.365491 0.000000 0.838872
O O17 0.000000 0.144159 0.720192
O O18 0.841977 0.000000 0.701897
O O19 0.500000 0.710809 0.713740
O O20 0.624917 0.500000 0.730104
#
# Coordination Sequence:
#
# PCOD9357556 Si02
#       7
#     8   8   8   8   8   8   8
#     4  11  22  35  54  79 105 138 182 227 271 320
#     4  10  22  40  59  79 107 145 187 229 272 319
#     4  10  20  35  56  79 104 140 184 224 266 320
#     4   9  17  30  49  74 103 133 168 214 267 323
#     4  10  21  36  56  85 117 145 176 220 274 327
#     4  10  20  32  47  71 104 139 172 211 265 326
#     4   9  19  37  59  82 110 144 180 220 271 330
#
# _framework density 18.655101999999999
#
# number of rings (size 3 to 8) (size 9 to 14) (size 15 to 20)
#    0.000    2.143    0.000    3.000    0.000   11.143 
#    0.000    0.714    0.000    5.143    0.000    0.000 
#    0.000    0.000    0.000    0.000    0.000    0.000 
#
# Total GULP energy -155892.172556 kJ/mol
# GULP energy per Si atom -5567.577591 kJ/mol
# Density = 1.861264 g / cm^3
# Si number density = 18.655102 Si / 1000 Ang^3
#
#
#
# Elastic Constant Matrix: (Units=GPa)
#
#
# Indices 1 2 3 4 5 6 
#
# 1 125.9062 38.8409 59.6928 0.0000 0.0000 0.0000
# 2 38.8409 34.0042 32.1384 0.0000 0.0000 0.0000
# 3 59.6928 32.1384 129.7315 0.0000 0.0000 0.0000
# 4 0.0000 0.0000 0.0000 9.5447 0.0000 0.0000
# 5 0.0000 0.0000 0.0000 0.0000 36.2200 0.0000
# 6 0.0000 0.0000 0.0000 0.0000 0.0000 24.9124
#
#
#
# Elastic Compliance Matrix: (Units=1/GPa)
#
#
# Indices 1 2 3 4 5 6 
#
# 1 0.013119 -0.012117 -0.003035 0.000000 0.000000 0.000000
# 2 -0.012117 0.049590 -0.006710 0.000000 0.000000 0.000000
# 3 -0.003035 -0.006710 0.010767 0.000000 0.000000 0.000000
# 4 0.000000 0.000000 0.000000 0.104770 0.000000 0.000000
# 5 0.000000 0.000000 0.000000 0.000000 0.027609 0.000000
# 6 0.000000 0.000000 0.000000 0.000000 0.000000 0.040141
#
#
# Mechanical properties :
#
#
# Convention : Reuss Voigt Hill
#
# Bulk Modulus (GPa) = 33.60965 61.22067 47.41516
# Shear Modulus (GPa) = 16.68689 24.73339 20.71014
#
# Velocity S-wave (km/s) = 2.99405 3.64514 3.33552
# Velocity P-wave (km/s) = 5.47795 7.11368 6.34871
#
# Compressibility (1/GPa) = 0.02975336
#
# Stress axis : x y z
#
# Youngs Moduli (GPa) = 76.22408 20.16529 92.87850
#
# Poissons Ratio (x) = 0.24434 0.28186
# Poissons Ratio (y) = 0.92361 0.62318
# Poissons Ratio (z) = 0.23132 0.13530
#
# Static dielectric constant tensor:
#      x y z
#    x 1.681530 0.000000 0.000000 
#    y 0.000000 1.682610 0.000000 
#    z 0.000000 0.000000 1.651020 
# 
# From -- ./inp_files/21047.got.cif
#   From: 2010.05.17/outbox.cif.g08.bks.cpg/sg38_11_cif.got.tgz:21047.got - 2010.06.03 18:07:57.
