data_PCOD9357040
_publ_section_title
;
Structure prediction by ZEFSAII (Michael W. Deem and Ramdas Pophale) SiO2 
 PCOD9357040
Probable space group: A M M 2
;
_chemical_formula_sum "Si O2"
_cell_formula_units_Z 56
_cell_length_a 18.414374
_cell_length_b 8.939599
_cell_length_c 19.089459
_cell_angle_alpha 90.000000
_cell_angle_beta 90.000000
_cell_angle_gamma 90.000000
_cell_volume 3142.451751
_symmetry_space_group_name_H-M "A M M 2"
_symmetry_group_IT_number 38
_symmetry_cell_setting 'orthorhombic'
loop_
_space_group_symop_operation_xyz
x,y,z
-x,-y,z
-x,y,z
x,-y,z
x,1/2+y,1/2+z
-x,1/2-y,1/2+z
-x,1/2+y,1/2+z
x,1/2-y,1/2+z
loop_
_atom_site_type_symbol
_atom_site_label
_atom_site_fract_x
_atom_site_fract_y
_atom_site_fract_z
Si Si1 0.197707 0.831841 0.450290
Si Si2 0.917779 0.318382 0.206427
Si Si3 0.584907 0.180468 0.432249
Si Si4 0.243602 0.820911 0.678652
Si Si5 0.915034 0.331787 0.369316
Si Si6 0.304369 0.328178 0.817151
Si Si7 0.308734 0.323848 0.544851
O O1 0.120327 0.777019 0.424987
O O2 0.245070 0.831010 0.379197
O O3 0.235803 0.718105 0.502387
O O4 0.198595 0.000000 0.479577
O O5 0.919941 0.500000 0.202767
O O6 0.841677 0.271099 0.170731
O O7 0.907270 0.280351 0.288739
O O8 0.000000 0.267271 0.185116
O O9 0.500000 0.216154 0.432809
O O10 0.623896 0.224980 0.359113
O O11 0.627380 0.253019 0.497435
O O12 0.593908 0.000000 0.437231
O O13 0.274524 0.769510 0.753788
O O14 0.295299 0.750827 0.619802
O O15 0.244455 0.000000 0.673916
O O16 0.882802 0.500000 0.374219
O O17 0.000000 0.342232 0.381910
O O18 0.315166 0.500000 0.793023
O O19 0.318934 0.500000 0.550939
#
# Coordination Sequence:
#
# PCOD9357040 Si02
#       7
#     8   8   8   8   8   8   8
#     4  10  19  33  52  75 104 138 181 226 269 322
#     4   8  15  28  48  75 105 139 181 228 277 323
#     4   9  19  39  64  87 112 141 175 219 271 327
#     4  11  20  33  55  80 109 146 189 230 272 323
#     4   9  16  28  48  75 105 137 178 228 280 327
#     4   9  18  32  53  81 109 136 170 217 270 320
#     4  11  23  37  55  78 110 147 184 223 272 328
#
# _framework density 17.82048
#
# number of rings (size 3 to 8) (size 9 to 14) (size 15 to 20)
#    0.000    2.429    1.429    3.857    0.000    2.857 
#    0.000    1.429    0.000    6.857    0.000    0.000 
#    0.000    0.000    0.000    0.000    0.000    0.000 
#
# Total GULP energy -155984.436962 kJ/mol
# GULP energy per Si atom -5570.872749 kJ/mol
# Density = 1.777992 g / cm^3
# Si number density = 17.820480 Si / 1000 Ang^3
#
#
#
# Elastic Constant Matrix: (Units=GPa)
#
#
# Indices 1 2 3 4 5 6 
#
# 1 101.0233 29.3860 33.5977 0.0000 0.0000 0.0000
# 2 29.3860 50.2861 26.0850 0.0000 0.0000 0.0000
# 3 33.5977 26.0850 61.9182 0.0000 0.0000 0.0000
# 4 0.0000 0.0000 0.0000 23.1510 0.0000 0.0000
# 5 0.0000 0.0000 0.0000 0.0000 19.9503 0.0000
# 6 0.0000 0.0000 0.0000 0.0000 0.0000 22.4146
#
#
#
# Elastic Compliance Matrix: (Units=1/GPa)
#
#
# Indices 1 2 3 4 5 6 
#
# 1 0.013006 -0.005041 -0.004933 0.000000 0.000000 0.000000
# 2 -0.005041 0.027401 -0.008808 0.000000 0.000000 0.000000
# 3 -0.004933 -0.008808 0.022538 0.000000 0.000000 0.000000
# 4 0.000000 0.000000 0.000000 0.043195 0.000000 0.000000
# 5 0.000000 0.000000 0.000000 0.000000 0.050125 0.000000
# 6 0.000000 0.000000 0.000000 0.000000 0.000000 0.044614
#
#
# Mechanical properties :
#
#
# Convention : Reuss Voigt Hill
#
# Bulk Modulus (GPa) = 39.40191 43.48501 41.44346
# Shear Modulus (GPa) = 20.25083 21.38045 20.81564
#
# Velocity S-wave (km/s) = 3.37468 3.46753 3.42142
# Velocity P-wave (km/s) = 6.11090 6.36289 6.23816
#
# Compressibility (1/GPa) = 0.02537948
#
# Stress axis : x y z
#
# Youngs Moduli (GPa) = 76.88867 36.49469 44.36942
#
# Poissons Ratio (x) = 0.18398 0.21889
# Poissons Ratio (y) = 0.38761 0.39082
# Poissons Ratio (z) = 0.37932 0.32145
#
# Static dielectric constant tensor:
#      x y z
#    x 1.633170 0.000000 0.000000 
#    y 0.000000 1.620720 0.000000 
#    z 0.000000 0.000000 1.603920 
# 
# From -- ./inp_files/21307.got.cif
#   From: 2010.05.17/outbox.cif.g08.bks.cpg/sg38_11_cif.got.tgz:21307.got - 2010.06.03 18:07:57.
