data_PCOD9357966
_publ_section_title
;
Structure prediction by ZEFSAII (Michael W. Deem and Ramdas Pophale) SiO2 
 PCOD9357966
Probable space group: A M M 2
;
_chemical_formula_sum "Si O2"
_cell_formula_units_Z 48
_cell_length_a 8.573918
_cell_length_b 9.335914
_cell_length_c 31.729528
_cell_angle_alpha 90.000000
_cell_angle_beta 90.000000
_cell_angle_gamma 90.000000
_cell_volume 2539.801526
_symmetry_space_group_name_H-M "A M M 2"
_symmetry_group_IT_number 38
_symmetry_cell_setting 'orthorhombic'
loop_
_space_group_symop_operation_xyz
x,y,z
-x,-y,z
-x,y,z
x,-y,z
x,1/2+y,1/2+z
-x,1/2-y,1/2+z
-x,1/2+y,1/2+z
x,1/2-y,1/2+z
loop_
_atom_site_type_symbol
_atom_site_label
_atom_site_fract_x
_atom_site_fract_y
_atom_site_fract_z
Si Si1 0.188657 0.165692 0.408520
Si Si2 0.313346 0.833469 0.828256
Si Si3 0.186762 0.666950 0.236640
Si Si4 0.809649 0.334965 0.492096
Si Si5 0.188791 0.665736 0.075802
Si Si6 0.313128 0.165344 0.156545
O O1 0.251353 0.237861 0.366222
O O2 0.240368 0.254607 0.449589
O O3 0.000000 0.169883 0.407503
O O4 0.236368 0.000000 0.411816
O O5 0.500000 0.826892 0.826651
O O6 0.245984 0.789460 0.782875
O O7 0.266729 0.000000 0.835285
O O8 0.233382 0.500000 0.230248
O O9 0.255363 0.763118 0.199678
O O10 0.000000 0.673925 0.235566
O O11 0.758429 0.500000 0.492923
O O12 0.760058 0.249380 0.533749
O O13 0.000000 0.334977 0.492081
O O14 0.238677 0.500000 0.074908
O O15 0.248830 0.745401 0.117162
O O16 0.000000 0.667445 0.076560
O O17 0.500000 0.168540 0.155625
O O18 0.261139 0.000000 0.153772
#
# Coordination Sequence:
#
# PCOD9357966 Si02
#       6
#     8   8   8   8   8   8
#     4  10  20  34  54  81 112 146 185 228 273 322
#     4  10  21  37  57  81 110 145 183 224 273 327
#     4  10  21  38  61  86 109 138 180 227 274 326
#     4   9  17  31  54  82 111 144 182 226 274 321
#     4  10  20  35  57  84 112 143 182 227 274 325
#     4  11  24  39  55  79 112 148 184 223 270 324
#
# _framework density 18.899114000000001
#
# number of rings (size 3 to 8) (size 9 to 14) (size 15 to 20)
#    0.000    2.000    0.000    3.500    0.000   10.000 
#    0.000    0.833    0.000    5.000    0.000    0.000 
#    0.000    0.000    0.000    0.000    0.000    0.000 
#
# Total GULP energy -134099.887508 kJ/mol
# GULP energy per Si atom -5587.495313 kJ/mol
# Density = 1.885610 g / cm^3
# Si number density = 18.899114 Si / 1000 Ang^3
#
#
#
# Elastic Constant Matrix: (Units=GPa)
#
#
# Indices 1 2 3 4 5 6 
#
# 1 16.3978 34.5466 30.3378 0.0000 0.0000 0.0000
# 2 34.5466 183.5349 137.9761 0.0000 0.0000 0.0000
# 3 30.3378 137.9761 202.9606 0.0000 0.0000 0.0000
# 4 0.0000 0.0000 0.0000 42.9984 0.0000 0.0000
# 5 0.0000 0.0000 0.0000 0.0000 -76.9673 0.0000
# 6 0.0000 0.0000 0.0000 0.0000 0.0000 22.5053
#
#
#
# Elastic Compliance Matrix: (Units=1/GPa)
#
#
# Indices 1 2 3 4 5 6 
#
# 1 0.103061 -0.015990 -0.004535 0.000000 0.000000 0.000000
# 2 -0.015990 0.013625 -0.006872 0.000000 0.000000 0.000000
# 3 -0.004535 -0.006872 0.010277 0.000000 0.000000 0.000000
# 4 0.000000 0.000000 0.000000 0.023257 0.000000 0.000000
# 5 0.000000 0.000000 0.000000 0.000000 -0.012993 0.000000
# 6 0.000000 0.000000 0.000000 0.000000 0.000000 0.044434
#
#
# Mechanical properties :
#
#
# Convention : Reuss Voigt Hill
#
# Bulk Modulus (GPa) = 13.85647 89.84602 51.85125
# Shear Modulus (GPa) = 19.19308 11.04279 15.11793
#
# Velocity S-wave (km/s) = 3.19023 2.41986 2.83137
# Velocity P-wave (km/s) = 4.57360 7.44652 6.17934
#
# Compressibility (1/GPa) = 0.07216845
#
# Stress axis : x y z
#
# Youngs Moduli (GPa) = 9.70299 73.39688 97.30724
#
# Poissons Ratio (x) = 1.17360 0.44129
# Poissons Ratio (y) = 0.15515 0.66871
# Poissons Ratio (z) = 0.04400 0.50439
#
# Static dielectric constant tensor:
#      x y z
#    x 1.640280 0.000000 0.000000 
#    y 0.000000 1.644570 0.000000 
#    z 0.000000 0.000000 1.610340 
# 
# From -- ./inp_files/24263.got.cif
#   From: 2010.05.17/outbox.cif.g08.bks.cpg/sg38_13_cif.got.tgz:24263.got - 2010.06.03 18:07:57.
