data_PCOD9357150
_publ_section_title
;
Structure prediction by ZEFSAII (Michael W. Deem and Ramdas Pophale) SiO2 
 PCOD9357150
Probable space group: A M M 2
;
_chemical_formula_sum "Si O2"
_cell_formula_units_Z 64
_cell_length_a 8.701997
_cell_length_b 20.124873
_cell_length_c 21.230459
_cell_angle_alpha 90.000000
_cell_angle_beta 90.000000
_cell_angle_gamma 90.000000
_cell_volume 3718.017771
_symmetry_space_group_name_H-M "A M M 2"
_symmetry_group_IT_number 38
_symmetry_cell_setting 'orthorhombic'
loop_
_space_group_symop_operation_xyz
x,y,z
-x,-y,z
-x,y,z
x,-y,z
x,1/2+y,1/2+z
-x,1/2-y,1/2+z
-x,1/2+y,1/2+z
x,1/2-y,1/2+z
loop_
_atom_site_type_symbol
_atom_site_label
_atom_site_fract_x
_atom_site_fract_y
_atom_site_fract_z
Si Si1 0.684139 0.575310 0.592300
Si Si2 0.183723 0.707262 0.538194
Si Si3 0.315576 0.206542 0.283283
Si Si4 0.316582 0.210273 0.906010
Si Si5 0.814938 0.425180 0.356857
Si Si6 0.186383 0.073062 0.708502
Si Si7 0.816588 0.076045 0.233201
Si Si8 0.186343 0.214244 0.663275
O O1 0.500000 0.580569 0.592176
O O2 0.726756 0.500000 0.573080
O O3 0.755254 0.632850 0.550120
O O4 0.745063 0.585027 0.663566
O O5 0.246836 0.732950 0.472083
O O6 0.233392 0.751402 0.598093
O O7 0.000000 0.706024 0.536738
O O8 0.500000 0.206241 0.280459
O O9 0.266893 0.244822 0.346638
O O10 0.252911 0.131841 0.278123
O O11 0.250862 0.245413 0.222639
O O12 0.500000 0.211944 0.909426
O O13 0.262263 0.134992 0.893096
O O14 0.770885 0.500000 0.376946
O O15 0.775476 0.418662 0.282507
O O16 0.000000 0.419822 0.362169
O O17 0.237414 0.137714 0.670537
O O18 0.000000 0.071901 0.705573
O O19 0.241507 0.000000 0.687939
O O20 0.000000 0.084659 0.228319
O O21 0.784675 0.000000 0.252713
O O22 0.000000 0.216446 0.666594
#
# Coordination Sequence:
#
# PCOD9357150 Si02
#       8
#     8   8   8   8   8   8   8   8
#     4  10  20  34  53  78 110 146 180 218 265 319
#     4  11  23  36  53  78 106 144 187 226 269 318
#     4  11  22  35  55  81 107 141 182 223 273 323
#     4  11  24  38  52  75 108 148 186 223 272 323
#     4   9  17  31  53  79 106 140 178 216 263 318
#     4   8  14  27  51  81 108 133 165 210 266 321
#     4  10  20  34  55  83 111 139 175 221 270 321
#     4  10  19  33  56  82 106 136 177 223 271 319
#
# _framework density 17.213473
#
# number of rings (size 3 to 8) (size 9 to 14) (size 15 to 20)
#    0.000    2.000    2.500    2.625    0.000    4.250 
#    0.000    0.000    0.000    1.125    0.000    1.750 
#    0.000    0.000    0.000    0.000    0.000    0.000 
#
# Total GULP energy -178607.824648 kJ/mol
# GULP energy per Si atom -5581.494520 kJ/mol
# Density = 1.717429 g / cm^3
# Si number density = 17.213473 Si / 1000 Ang^3
#
#
#
# Elastic Constant Matrix: (Units=GPa)
#
#
# Indices 1 2 3 4 5 6 
#
# 1 29.1833 27.5335 33.0371 0.0000 0.0000 0.0000
# 2 27.5335 112.5213 66.4558 0.0000 0.0000 0.0000
# 3 33.0371 66.4558 118.9994 0.0000 0.0000 0.0000
# 4 0.0000 0.0000 0.0000 21.3832 0.0000 0.0000
# 5 0.0000 0.0000 0.0000 0.0000 23.7112 0.0000
# 6 0.0000 0.0000 0.0000 0.0000 0.0000 19.3138
#
#
#
# Elastic Compliance Matrix: (Units=1/GPa)
#
#
# Indices 1 2 3 4 5 6 
#
# 1 0.052862 -0.006368 -0.011120 0.000000 0.000000 0.000000
# 2 -0.006368 0.014028 -0.006066 0.000000 0.000000 0.000000
# 3 -0.011120 -0.006066 0.014878 0.000000 0.000000 0.000000
# 4 0.000000 0.000000 0.000000 0.046766 0.000000 0.000000
# 5 0.000000 0.000000 0.000000 0.000000 0.042174 0.000000
# 6 0.000000 0.000000 0.000000 0.000000 0.000000 0.051776
#
#
# Mechanical properties :
#
#
# Convention : Reuss Voigt Hill
#
# Bulk Modulus (GPa) = 28.85080 57.19518 43.02299
# Shear Modulus (GPa) = 17.78437 21.79348 19.78892
#
# Velocity S-wave (km/s) = 3.21778 3.56205 3.39428
# Velocity P-wave (km/s) = 5.53195 7.08637 6.35685
#
# Compressibility (1/GPa) = 0.03466108
#
# Stress axis : x y z
#
# Youngs Moduli (GPa) = 18.91714 71.28539 67.21238
#
# Poissons Ratio (x) = 0.45393 0.74738
# Poissons Ratio (y) = 0.12046 0.40773
# Poissons Ratio (z) = 0.21035 0.43243
#
# Static dielectric constant tensor:
#      x y z
#    x 1.577590 0.000000 0.000000 
#    y 0.000000 1.603250 0.000000 
#    z 0.000000 0.000000 1.570210 
# 
# From -- ./inp_files/20251.got.cif
#   From: 2010.05.17/outbox.cif.g08.bks.cpg/sg38_11_cif.got.tgz:20251.got - 2010.06.03 18:07:57.
