data_PCOD9357128
_publ_section_title
;
Structure prediction by ZEFSAII (Michael W. Deem and Ramdas Pophale) SiO2 
 PCOD9357128
Probable space group: A M M 2
;
_chemical_formula_sum "Si O2"
_cell_formula_units_Z 64
_cell_length_a 8.187951
_cell_length_b 28.970328
_cell_length_c 12.894342
_cell_angle_alpha 90.000000
_cell_angle_beta 90.000000
_cell_angle_gamma 90.000000
_cell_volume 3058.636256
_symmetry_space_group_name_H-M "A M M 2"
_symmetry_group_IT_number 38
_symmetry_cell_setting 'orthorhombic'
loop_
_space_group_symop_operation_xyz
x,y,z
-x,-y,z
-x,y,z
x,-y,z
x,1/2+y,1/2+z
-x,1/2-y,1/2+z
-x,1/2+y,1/2+z
x,1/2-y,1/2+z
loop_
_atom_site_type_symbol
_atom_site_label
_atom_site_fract_x
_atom_site_fract_y
_atom_site_fract_z
Si Si1 0.808799 0.949805 0.600800
Si Si2 0.814377 0.667177 0.919664
Si Si3 0.313629 0.070206 0.380361
Si Si4 0.299876 0.552597 0.434031
Si Si5 0.189453 0.196402 0.193655
Si Si6 0.309483 0.377497 0.258552
Si Si7 0.691793 0.706271 0.131388
Si Si8 0.302551 0.908088 0.156741
O O1 0.782907 0.949675 0.477439
O O2 0.711159 0.909264 0.656419
O O3 0.000000 0.943368 0.623102
O O4 0.755235 0.000000 0.640994
O O5 0.782257 0.692157 0.026624
O O6 0.000000 0.648257 0.918705
O O7 0.692799 0.624904 0.903111
O O8 0.797536 0.698473 0.818472
O O9 0.500000 0.053666 0.383763
O O10 0.247263 0.066612 0.263051
O O11 0.500000 0.552457 0.430197
O O12 0.247081 0.500000 0.411204
O O13 0.239914 0.591133 0.351847
O O14 0.252199 0.567471 0.550408
O O15 0.285712 0.239755 0.150222
O O16 0.247049 0.145319 0.160514
O O17 0.000000 0.201210 0.164739
O O18 0.500000 0.371215 0.283922
O O19 0.245356 0.327109 0.224685
O O20 0.500000 0.695964 0.118484
O O21 0.500000 0.908392 0.160898
#
# Coordination Sequence:
#
# PCOD9357128 Si02
#       8
#     8   8   8   8   8   8   8   8
#     4  11  23  36  53  80 113 148 186 233 290 348
#     4  10  20  36  57  79 111 151 187 233 291 348
#     4  10  19  33  55  82 110 144 187 235 289 345
#     4   9  18  35  60  88 119 156 197 244 299 356
#     4  10  22  38  57  84 116 155 198 242 299 358
#     4  10  21  37  58  84 113 149 194 243 293 349
#     4  11  22  35  56  86 117 152 197 246 298 355
#     4   9  19  36  59  86 117 152 194 243 293 349
#
# _framework density 20.924357000000001
#
# number of rings (size 3 to 8) (size 9 to 14) (size 15 to 20)
#    0.000    2.000    1.250    2.250    0.000    5.500 
#    0.000    3.125    0.000    1.125    0.000    0.000 
#    0.000    0.000    0.000    0.000    0.000    0.000 
#
# Total GULP energy -178567.148800 kJ/mol
# GULP energy per Si atom -5580.223400 kJ/mol
# Density = 2.087673 g / cm^3
# Si number density = 20.924357 Si / 1000 Ang^3
#
#
#
# Elastic Constant Matrix: (Units=GPa)
#
#
# Indices 1 2 3 4 5 6 
#
# 1 23.9034 -3.2789 2.3112 0.0000 0.0000 0.0000
# 2 -3.2789 53.2223 11.7247 0.0000 0.0000 0.0000
# 3 2.3112 11.7247 96.6280 0.0000 0.0000 0.0000
# 4 0.0000 0.0000 0.0000 14.7159 0.0000 0.0000
# 5 0.0000 0.0000 0.0000 0.0000 16.5702 0.0000
# 6 0.0000 0.0000 0.0000 0.0000 0.0000 -0.6533
#
#
#
# Elastic Compliance Matrix: (Units=1/GPa)
#
#
# Indices 1 2 3 4 5 6 
#
# 1 0.042367 0.002911 -0.001367 0.000000 0.000000 0.000000
# 2 0.002911 0.019505 -0.002436 0.000000 0.000000 0.000000
# 3 -0.001367 -0.002436 0.010677 0.000000 0.000000 0.000000
# 4 0.000000 0.000000 0.000000 0.067954 0.000000 0.000000
# 5 0.000000 0.000000 0.000000 0.000000 0.060349 0.000000
# 6 0.000000 0.000000 0.000000 0.000000 0.000000 -1.530764
#
#
# Mechanical properties :
#
#
# Convention : Reuss Voigt Hill
#
# Bulk Modulus (GPa) = 14.13120 21.69642 17.91381
# Shear Modulus (GPa) = -3.83277 16.99300 6.58012
#
# Velocity S-wave (km/s) = -1.35488 2.85286 1.77526
# Velocity P-wave (km/s) = 2.07859 4.60904 3.57517
#
# Compressibility (1/GPa) = 0.07076541
#
# Stress axis : x y z
#
# Youngs Moduli (GPa) = 23.60354 51.26842 93.65680
#
# Poissons Ratio (x) = -0.14925 0.12799
# Poissons Ratio (y) = -0.06871 0.22818
# Poissons Ratio (z) = 0.03226 0.12491
#
# Static dielectric constant tensor:
#      x y z
#    x 1.735570 0.000000 0.000000 
#    y 0.000000 1.760520 0.000000 
#    z 0.000000 0.000000 1.762510 
# 
# From -- ./inp_files/8655.got.cif
#   From: 2010.05.17/outbox.cif.g08.bks.cpg/sg38_5_cif.got.tgz:8655.got - 2010.06.03 18:07:57.
