data_PCOD9357818
_publ_section_title
;
Structure prediction by ZEFSAII (Michael W. Deem and Ramdas Pophale) SiO2 
 PCOD9357818
Probable space group: A M M 2
;
_chemical_formula_sum "Si O2"
_cell_formula_units_Z 64
_cell_length_a 8.887222
_cell_length_b 19.858231
_cell_length_c 21.058575
_cell_angle_alpha 90.000000
_cell_angle_beta 90.000000
_cell_angle_gamma 90.000000
_cell_volume 3716.512236
_symmetry_space_group_name_H-M "A M M 2"
_symmetry_group_IT_number 38
_symmetry_cell_setting 'orthorhombic'
loop_
_space_group_symop_operation_xyz
x,y,z
-x,-y,z
-x,y,z
x,-y,z
x,1/2+y,1/2+z
-x,1/2-y,1/2+z
-x,1/2+y,1/2+z
x,1/2-y,1/2+z
loop_
_atom_site_type_symbol
_atom_site_label
_atom_site_fract_x
_atom_site_fract_y
_atom_site_fract_z
Si Si1 0.819426 0.796114 0.948340
Si Si2 0.677548 0.923012 0.004092
Si Si3 0.820312 0.289455 0.074429
Si Si4 0.820447 0.076950 0.143304
Si Si5 0.679911 0.576492 0.874796
Si Si6 0.820435 0.289369 0.823932
Si Si7 0.321107 0.710594 0.692414
Si Si8 0.320134 0.576544 0.026116
O O1 0.778701 0.755871 0.884829
O O2 0.000000 0.805506 0.948802
O O3 0.738229 0.867301 0.956186
O O4 0.779918 0.751792 0.010392
O O5 0.500000 0.913195 0.016337
O O6 0.766613 0.915177 0.070394
O O7 0.699756 0.000000 0.982342
O O8 0.743862 0.254163 0.134417
O O9 0.765218 0.365437 0.063516
O O10 0.000000 0.286792 0.081589
O O11 0.737678 0.134307 0.182613
O O12 0.000000 0.086543 0.146772
O O13 0.784951 0.000000 0.162556
O O14 0.500000 0.584206 0.865488
O O15 0.721047 0.500000 0.856311
O O16 0.766987 0.634796 0.838829
O O17 0.709299 0.583448 0.950463
O O18 0.742108 0.265141 0.759760
O O19 0.000000 0.287951 0.816606
O O20 0.500000 0.711819 0.691373
O O21 0.500000 0.584054 0.034617
O O22 0.278865 0.500000 0.044154
#
# Coordination Sequence:
#
# PCOD9357818 Si02
#       8
#     8   8   8   8   8   8   8   8
#     4  10  21  36  57  83 111 146 185 227 278 328
#     4  10  20  33  54  85 115 144 181 226 275 327
#     4  11  21  36  58  85 113 145 186 231 278 331
#     4  10  20  35  55  79 110 148 187 227 272 324
#     4   9  18  33  53  79 112 149 187 224 266 322
#     4  11  23  39  56  79 111 147 187 231 276 329
#     4  12  25  39  56  80 110 149 189 230 280 332
#     4   9  18  33  55  84 116 148 184 228 277 326
#
# _framework density 17.220447
#
# number of rings (size 3 to 8) (size 9 to 14) (size 15 to 20)
#    0.000    1.750    2.500    3.375    0.000    4.000 
#    0.000    1.250    0.000    0.750    0.000    3.500 
#    0.000    0.000    0.000    0.000    0.000    0.000 
#
# Total GULP energy -178742.326027 kJ/mol
# GULP energy per Si atom -5585.697688 kJ/mol
# Density = 1.718125 g / cm^3
# Si number density = 17.220447 Si / 1000 Ang^3
#
#
#
# Elastic Constant Matrix: (Units=GPa)
#
#
# Indices 1 2 3 4 5 6 
#
# 1 66.3701 50.6224 57.6205 0.0000 0.0000 0.0000
# 2 50.6224 97.4858 59.0901 0.0000 0.0000 0.0000
# 3 57.6205 59.0901 113.0560 0.0000 0.0000 0.0000
# 4 0.0000 0.0000 0.0000 19.1338 0.0000 0.0000
# 5 0.0000 0.0000 0.0000 0.0000 24.9797 0.0000
# 6 0.0000 0.0000 0.0000 0.0000 0.0000 33.6044
#
#
#
# Elastic Compliance Matrix: (Units=1/GPa)
#
#
# Indices 1 2 3 4 5 6 
#
# 1 0.032585 -0.010033 -0.011364 0.000000 0.000000 0.000000
# 2 -0.010033 0.018104 -0.004349 0.000000 0.000000 0.000000
# 3 -0.011364 -0.004349 0.016910 0.000000 0.000000 0.000000
# 4 0.000000 0.000000 0.000000 0.052263 0.000000 0.000000
# 5 0.000000 0.000000 0.000000 0.000000 0.040033 0.000000
# 6 0.000000 0.000000 0.000000 0.000000 0.000000 0.029758
#
#
# Mechanical properties :
#
#
# Convention : Reuss Voigt Hill
#
# Bulk Modulus (GPa) = 62.08084 67.95314 65.01699
# Shear Modulus (GPa) = 20.28302 22.84883 21.56592
#
# Velocity S-wave (km/s) = 3.43570 3.64654 3.54269
# Velocity P-wave (km/s) = 7.20192 7.56809 7.38727
#
# Compressibility (1/GPa) = 0.01610803
#
# Stress axis : x y z
#
# Youngs Moduli (GPa) = 30.68924 55.23745 59.13764
#
# Poissons Ratio (x) = 0.55418 0.67201
# Poissons Ratio (y) = 0.30790 0.25718
# Poissons Ratio (z) = 0.34874 0.24022
#
# Static dielectric constant tensor:
#      x y z
#    x 1.571740 0.000000 0.000000 
#    y 0.000000 1.582650 0.000000 
#    z 0.000000 0.000000 1.573740 
# 
# From -- ./inp_files/20016.got.cif
#   From: 2010.05.17/outbox.cif.g08.bks.cpg/sg38_11_cif.got.tgz:20016.got - 2010.06.03 18:07:57.
