data_PCOD9357923
_publ_section_title
;
Structure prediction by ZEFSAII (Michael W. Deem and Ramdas Pophale) SiO2 
 PCOD9357923
Probable space group: A M M 2
;
_chemical_formula_sum "Si O2"
_cell_formula_units_Z 64
_cell_length_a 24.548672
_cell_length_b 7.494761
_cell_length_c 16.053820
_cell_angle_alpha 90.000000
_cell_angle_beta 90.000000
_cell_angle_gamma 90.000000
_cell_volume 2953.685022
_symmetry_space_group_name_H-M "A M M 2"
_symmetry_group_IT_number 38
_symmetry_cell_setting 'orthorhombic'
loop_
_space_group_symop_operation_xyz
x,y,z
-x,-y,z
-x,y,z
x,-y,z
x,1/2+y,1/2+z
-x,1/2-y,1/2+z
-x,1/2+y,1/2+z
x,1/2-y,1/2+z
loop_
_atom_site_type_symbol
_atom_site_label
_atom_site_fract_x
_atom_site_fract_y
_atom_site_fract_z
Si Si1 0.059942 0.715383 0.699690
Si Si2 0.437106 0.217901 0.634815
Si Si3 0.758403 0.783996 0.806878
Si Si4 0.635647 0.710525 0.287576
Si Si5 0.178328 0.706007 0.146337
Si Si6 0.059629 0.782796 0.395120
Si Si7 0.562340 0.284872 0.946856
Si Si8 0.171982 0.287895 0.968811
O O1 0.061748 0.500000 0.695532
O O2 0.112953 0.786802 0.654201
O O3 0.064220 0.765489 0.797434
O O4 0.000000 0.773088 0.669426
O O5 0.500000 0.271059 0.649463
O O6 0.398108 0.282558 0.708570
O O7 0.421663 0.272791 0.540595
O O8 0.436667 0.000000 0.635813
O O9 0.696607 0.718104 0.798465
O O10 0.794474 0.716444 0.729124
O O11 0.786941 0.734688 0.893012
O O12 0.758212 0.000000 0.806117
O O13 0.641724 0.500000 0.271460
O O14 0.601505 0.730018 0.372345
O O15 0.196220 0.500000 0.145856
O O16 0.192490 0.786215 0.056789
O O17 0.112524 0.716125 0.443153
O O18 0.000000 0.724331 0.425764
O O19 0.060040 0.000000 0.397350
O O20 0.500000 0.224761 0.931645
O O21 0.561695 0.500000 0.947784
O O22 0.164686 0.500000 0.980940
#
# Coordination Sequence:
#
# PCOD9357923 Si02
#       8
#     8   8   8   8   8   8   8   8
#     4   9  17  31  53  78 104 135 168 205 257 321
#     4   8  15  30  53  79 106 137 169 201 248 310
#     4  10  22  38  51  72 108 140 171 220 267 298
#     4  10  20  34  54  76 102 141 182 213 250 306
#     4  10  21  35  53  78 105 133 172 222 268 306
#     4   8  14  27  49  75 100 126 160 203 249 304
#     4   9  18  33  54  82 112 137 167 213 262 303
#     4  10  20  35  57  79  98 132 177 214 257 315
#
# _framework density 21.667849
#
# number of rings (size 3 to 8) (size 9 to 14) (size 15 to 20)
#    0.000    2.750    1.250    1.875    0.000    3.500 
#    0.000    4.375    0.000    1.125    0.000    0.000 
#    0.000    0.000    0.000    0.000    0.000    0.000 
#
# Total GULP energy -178628.112024 kJ/mol
# GULP energy per Si atom -5582.128501 kJ/mol
# Density = 2.161853 g / cm^3
# Si number density = 21.667849 Si / 1000 Ang^3
#
#
#
# Elastic Constant Matrix: (Units=GPa)
#
#
# Indices 1 2 3 4 5 6 
#
# 1 115.8686 -10.8873 81.2349 0.0000 0.0000 0.0000
# 2 -10.8873 55.5542 -6.3414 0.0000 0.0000 0.0000
# 3 81.2349 -6.3414 156.9138 0.0000 0.0000 0.0000
# 4 0.0000 0.0000 0.0000 11.8057 0.0000 0.0000
# 5 0.0000 0.0000 0.0000 0.0000 -7.9684 0.0000
# 6 0.0000 0.0000 0.0000 0.0000 0.0000 15.9028
#
#
#
# Elastic Compliance Matrix: (Units=1/GPa)
#
#
# Indices 1 2 3 4 5 6 
#
# 1 0.013742 0.001890 -0.007038 0.000000 0.000000 0.000000
# 2 0.001890 0.018344 -0.000237 0.000000 0.000000 0.000000
# 3 -0.007038 -0.000237 0.010007 0.000000 0.000000 0.000000
# 4 0.000000 0.000000 0.000000 0.084705 0.000000 0.000000
# 5 0.000000 0.000000 0.000000 0.000000 -0.125495 0.000000
# 6 0.000000 0.000000 0.000000 0.000000 0.000000 0.062882
#
#
# Mechanical properties :
#
#
# Convention : Reuss Voigt Hill
#
# Bulk Modulus (GPa) = 31.92597 50.70543 41.31570
# Shear Modulus (GPa) = 58.55040 21.57005 40.06023
#
# Velocity S-wave (km/s) = 5.20389 3.15856 4.30447
# Velocity P-wave (km/s) = 7.13257 6.06251 6.61920
#
# Compressibility (1/GPa) = 0.03132246
#
# Stress axis : x y z
#
# Youngs Moduli (GPa) = 72.76731 54.51454 99.92986
#
# Poissons Ratio (x) = -0.10302 0.70332
# Poissons Ratio (y) = -0.13752 0.02369
# Poissons Ratio (z) = 0.51215 0.01292
#
# Static dielectric constant tensor:
#      x y z
#    x 1.761990 0.000000 0.000000 
#    y 0.000000 1.829930 0.000000 
#    z 0.000000 0.000000 1.786530 
# 
# From -- ./inp_files/15861.got.cif
#   From: 2010.05.17/outbox.cif.g08.bks.cpg/sg38_8_cif.got.tgz:15861.got - 2010.06.03 18:07:57.
