data_PCOD9357212
_publ_section_title
;
Structure prediction by ZEFSAII (Michael W. Deem and Ramdas Pophale) SiO2 
 PCOD9357212
Probable space group: A M M 2
;
_chemical_formula_sum "Si O2"
_cell_formula_units_Z 64
_cell_length_a 19.678847
_cell_length_b 9.157710
_cell_length_c 20.893876
_cell_angle_alpha 90.000000
_cell_angle_beta 90.000000
_cell_angle_gamma 90.000000
_cell_volume 3765.351710
_symmetry_space_group_name_H-M "A M M 2"
_symmetry_group_IT_number 38
_symmetry_cell_setting 'orthorhombic'
loop_
_space_group_symop_operation_xyz
x,y,z
-x,-y,z
-x,y,z
x,-y,z
x,1/2+y,1/2+z
-x,1/2-y,1/2+z
-x,1/2+y,1/2+z
x,1/2-y,1/2+z
loop_
_atom_site_type_symbol
_atom_site_label
_atom_site_fract_x
_atom_site_fract_y
_atom_site_fract_z
Si Si1 0.706051 0.674593 0.490060
Si Si2 0.796080 0.825271 0.113075
Si Si3 0.710626 0.325456 0.740655
Si Si4 0.422988 0.324829 0.042103
Si Si5 0.784586 0.175066 0.858764
Si Si6 0.078214 0.173623 0.560600
Si Si7 0.922457 0.174472 0.923090
Si Si8 0.578175 0.324551 0.192672
O O1 0.697446 0.500000 0.493267
O O2 0.753053 0.717756 0.550209
O O3 0.633936 0.750555 0.499469
O O4 0.743371 0.708858 0.423849
O O5 0.752980 0.790876 0.176121
O O6 0.867631 0.744275 0.108117
O O7 0.806658 0.000000 0.110610
O O8 0.705321 0.500000 0.746007
O O9 0.750902 0.258708 0.800246
O O10 0.636061 0.255647 0.732598
O O11 0.500000 0.281933 0.025087
O O12 0.418171 0.500000 0.037453
O O13 0.412506 0.287325 0.117260
O O14 0.863183 0.213542 0.873495
O O15 0.780774 0.000000 0.848036
O O16 0.088497 0.244022 0.490331
O O17 0.000000 0.203472 0.578924
O O18 0.087561 0.000000 0.556823
O O19 0.000000 0.203722 0.901806
O O20 0.916229 0.000000 0.935148
O O21 0.500000 0.287532 0.209660
O O22 0.585377 0.500000 0.198599
#
# Coordination Sequence:
#
# PCOD9357212 Si02
#       8
#     8   8   8   8   8   8   8   8
#     4  10  19  34  55  80 107 138 179 221 262 314
#     4  10  20  36  55  78 108 141 179 220 266 323
#     4  11  23  37  55  81 111 143 181 226 273 319
#     4   9  18  32  52  81 112 140 174 220 273 321
#     4  10  21  37  55  78 110 146 183 221 266 324
#     4  10  20  32  51  83 114 139 176 227 275 317
#     4   9  17  33  57  80 105 142 183 221 267 323
#     4   9  18  34  56  81 109 142 179 218 266 325
#
# _framework density 16.997083
#
# number of rings (size 3 to 8) (size 9 to 14) (size 15 to 20)
#    0.000    2.250    2.500    1.500    0.000    3.750 
#    0.000    2.500    0.000    3.000    0.000    0.000 
#    0.000    0.000    0.000    0.000    0.000    0.000 
#
# Total GULP energy -178520.102932 kJ/mol
# GULP energy per Si atom -5578.753217 kJ/mol
# Density = 1.695840 g / cm^3
# Si number density = 16.997083 Si / 1000 Ang^3
#
#
#
# Elastic Constant Matrix: (Units=GPa)
#
#
# Indices 1 2 3 4 5 6 
#
# 1 158.8551 58.9691 66.9309 0.0000 0.0000 0.0000
# 2 58.9691 31.5748 42.6596 0.0000 0.0000 0.0000
# 3 66.9309 42.6596 89.8397 0.0000 0.0000 0.0000
# 4 0.0000 0.0000 0.0000 25.1352 0.0000 0.0000
# 5 0.0000 0.0000 0.0000 0.0000 27.0360 0.0000
# 6 0.0000 0.0000 0.0000 0.0000 0.0000 30.1430
#
#
#
# Elastic Compliance Matrix: (Units=1/GPa)
#
#
# Indices 1 2 3 4 5 6 
#
# 1 0.022892 -0.054988 0.009056 0.000000 0.000000 0.000000
# 2 -0.054988 0.220441 -0.063708 0.000000 0.000000 0.000000
# 3 0.009056 -0.063708 0.034635 0.000000 0.000000 0.000000
# 4 0.000000 0.000000 0.000000 0.039785 0.000000 0.000000
# 5 0.000000 0.000000 0.000000 0.000000 0.036988 0.000000
# 6 0.000000 0.000000 0.000000 0.000000 0.000000 0.033175
#
#
# Mechanical properties :
#
#
# Convention : Reuss Voigt Hill
#
# Bulk Modulus (GPa) = 17.03929 68.59876 42.81902
# Shear Modulus (GPa) = 7.97754 23.91015 15.94384
#
# Velocity S-wave (km/s) = 2.16879 3.75470 3.06606
# Velocity P-wave (km/s) = 4.03957 7.69700 6.14662
#
# Compressibility (1/GPa) = 0.05868789
#
# Stress axis : x y z
#
# Youngs Moduli (GPa) = 43.68387 4.53635 28.87236
#
# Poissons Ratio (x) = 0.24945 -0.26148
# Poissons Ratio (y) = 2.40211 1.83941
# Poissons Ratio (z) = -0.39562 0.28900
#
# Static dielectric constant tensor:
#      x y z
#    x 1.585020 0.000000 0.000000 
#    y 0.000000 1.563160 0.000000 
#    z 0.000000 0.000000 1.547290 
# 
# From -- ./inp_files/21342.got.cif
#   From: 2010.05.17/outbox.cif.g08.bks.cpg/sg38_11_cif.got.tgz:21342.got - 2010.06.03 18:07:57.
