data_PCOD9357658
_publ_section_title
;
Structure prediction by ZEFSAII (Michael W. Deem and Ramdas Pophale) SiO2 
 PCOD9357658
Probable space group: A M M 2
;
_chemical_formula_sum "Si O2"
_cell_formula_units_Z 64
_cell_length_a 7.709874
_cell_length_b 20.667439
_cell_length_c 20.782523
_cell_angle_alpha 90.000000
_cell_angle_beta 90.000000
_cell_angle_gamma 90.000000
_cell_volume 3311.556849
_symmetry_space_group_name_H-M "A M M 2"
_symmetry_group_IT_number 38
_symmetry_cell_setting 'orthorhombic'
loop_
_space_group_symop_operation_xyz
x,y,z
-x,-y,z
-x,y,z
x,-y,z
x,1/2+y,1/2+z
-x,1/2-y,1/2+z
-x,1/2+y,1/2+z
x,1/2-y,1/2+z
loop_
_atom_site_type_symbol
_atom_site_label
_atom_site_fract_x
_atom_site_fract_y
_atom_site_fract_z
Si Si1 0.205396 0.177010 0.857710
Si Si2 0.704295 0.678196 0.213856
Si Si3 0.711792 0.425917 0.612370
Si Si4 0.290890 0.426528 0.466258
Si Si5 0.291332 0.926875 0.614460
Si Si6 0.290207 0.824587 0.219137
Si Si7 0.207482 0.177147 0.365448
Si Si8 0.209082 0.926616 0.467588
O O1 0.278029 0.157391 0.788095
O O2 0.238841 0.125616 0.913452
O O3 0.274361 0.249236 0.873556
O O4 0.000000 0.182729 0.848963
O O5 0.500000 0.683380 0.199427
O O6 0.777937 0.625506 0.164856
O O7 0.775621 0.751211 0.208155
O O8 0.500000 0.424962 0.612842
O O9 0.763842 0.500000 0.626417
O O10 0.766435 0.410273 0.539157
O O11 0.771946 0.374940 0.665513
O O12 0.500000 0.427978 0.467288
O O13 0.231499 0.500000 0.451456
O O14 0.500000 0.929566 0.621472
O O15 0.252593 0.908692 0.540876
O O16 0.224654 0.000000 0.625104
O O17 0.500000 0.823245 0.216122
O O18 0.242570 0.842986 0.291976
O O19 0.276393 0.125554 0.416627
O O20 0.000000 0.179658 0.374351
O O21 0.000000 0.928570 0.462345
O O22 0.273411 0.000000 0.456228
#
# Coordination Sequence:
#
# PCOD9357658 Si02
#       8
#     8   8   8   8   8   8   8   8
#     4  10  20  33  49  70  97 127 159 197 236 276
#     4   9  18  32  48  68  95 125 156 191 234 282
#     4   8  15  29  48  70  95 121 151 190 236 282
#     4   9  18  33  52  72  96 127 159 192 234 283
#     4   9  18  32  49  70  95 120 150 193 239 279
#     4   9  17  30  49  71  93 120 157 196 230 273
#     4   9  19  34  48  67  98 130 158 192 237 283
#     4   9  18  33  51  69  93 127 162 194 232 282
#
# _framework density 19.326257999999999
#
# number of rings (size 3 to 8) (size 9 to 14) (size 15 to 20)
#    0.000    3.000    0.000    1.125    0.000    3.750 
#    0.000    3.125    0.000    0.750    0.000    0.000 
#    0.000    0.000    0.000    0.000    0.000    0.000 
#
# Total GULP energy -178424.217441 kJ/mol
# GULP energy per Si atom -5575.756795 kJ/mol
# Density = 1.928227 g / cm^3
# Si number density = 19.326258 Si / 1000 Ang^3
#
#
#
# Elastic Constant Matrix: (Units=GPa)
#
#
# Indices 1 2 3 4 5 6 
#
# 1 26.0280 -0.0778 -9.6640 0.0000 0.0000 0.0000
# 2 -0.0778 134.3970 136.5144 0.0000 0.0000 0.0000
# 3 -9.6640 136.5144 164.3876 0.0000 0.0000 0.0000
# 4 0.0000 0.0000 0.0000 42.7950 0.0000 0.0000
# 5 0.0000 0.0000 0.0000 0.0000 29.7323 0.0000
# 6 0.0000 0.0000 0.0000 0.0000 0.0000 -2.6877
#
#
#
# Elastic Compliance Matrix: (Units=1/GPa)
#
#
# Indices 1 2 3 4 5 6 
#
# 1 0.044531 -0.016829 0.016593 0.000000 0.000000 0.000000
# 2 -0.016829 0.053912 -0.045760 0.000000 0.000000 0.000000
# 3 0.016593 -0.045760 0.045060 0.000000 0.000000 0.000000
# 4 0.000000 0.000000 0.000000 0.023367 0.000000 0.000000
# 5 0.000000 0.000000 0.000000 0.000000 0.033633 0.000000
# 6 0.000000 0.000000 0.000000 0.000000 0.000000 -0.372067
#
#
# Mechanical properties :
#
#
# Convention : Reuss Voigt Hill
#
# Bulk Modulus (GPa) = 19.41330 64.26198 41.83764
# Shear Modulus (GPa) = -80.12510 27.17059 -26.47725
#
# Velocity S-wave (km/s) = -6.44587 3.75359 -3.70539
# Velocity P-wave (km/s) = 6.73291 7.21867 1.84080
#
# Compressibility (1/GPa) = 0.05151108
#
# Stress axis : x y z
#
# Youngs Moduli (GPa) = 22.45636 18.54881 22.19278
#
# Poissons Ratio (x) = 0.31216 -0.36826
# Poissons Ratio (y) = 0.37792 1.01554
# Poissons Ratio (z) = -0.37263 0.84879
#
# Static dielectric constant tensor:
#      x y z
#    x 1.706730 0.000000 0.000000 
#    y 0.000000 1.688300 0.000000 
#    z 0.000000 0.000000 1.636840 
# 
# From -- ./inp_files/17169.got.cif
#   From: 2010.05.17/outbox.cif.g08.bks.cpg/sg38_9_cif.got.tgz:17169.got - 2010.06.03 18:07:57.
