data_PCOD9357291
_publ_section_title
;
Structure prediction by ZEFSAII (Michael W. Deem and Ramdas Pophale) SiO2 
 PCOD9357291
Probable space group: A M M 2
;
_chemical_formula_sum "Si O2"
_cell_formula_units_Z 64
_cell_length_a 8.613034
_cell_length_b 28.927193
_cell_length_c 12.980313
_cell_angle_alpha 90.000000
_cell_angle_beta 90.000000
_cell_angle_gamma 90.000000
_cell_volume 3234.056625
_symmetry_space_group_name_H-M "A M M 2"
_symmetry_group_IT_number 38
_symmetry_cell_setting 'orthorhombic'
loop_
_space_group_symop_operation_xyz
x,y,z
-x,-y,z
-x,y,z
x,-y,z
x,1/2+y,1/2+z
-x,1/2-y,1/2+z
-x,1/2+y,1/2+z
x,1/2-y,1/2+z
loop_
_atom_site_type_symbol
_atom_site_label
_atom_site_fract_x
_atom_site_fract_y
_atom_site_fract_z
Si Si1 0.823883 0.071796 0.456360
Si Si2 0.684550 0.405996 0.171214
Si Si3 0.685860 0.049806 0.239356
Si Si4 0.186283 0.446591 0.382938
Si Si5 0.812891 0.797291 0.172330
Si Si6 0.313595 0.881574 0.063628
Si Si7 0.177290 0.179396 0.395202
Si Si8 0.188231 0.805698 0.615076
O O1 0.735065 0.069299 0.564377
O O2 0.747649 0.050617 0.355254
O O3 0.828723 0.125862 0.425718
O O4 0.000000 0.055587 0.470059
O O5 0.500000 0.406821 0.180621
O O6 0.759927 0.430538 0.269630
O O7 0.741548 0.352507 0.161864
O O8 0.500000 0.053654 0.244337
O O9 0.743926 0.090083 0.164871
O O10 0.726356 0.000000 0.192156
O O11 0.236965 0.500000 0.402220
O O12 0.252232 0.409978 0.465654
O O13 0.000000 0.445447 0.387997
O O14 0.743142 0.829312 0.082542
O O15 0.751223 0.814340 0.283458
O O16 0.779484 0.742809 0.168675
O O17 0.000000 0.803160 0.166361
O O18 0.500000 0.882341 0.060827
O O19 0.247781 0.201219 0.497627
O O20 0.000000 0.197245 0.386197
O O21 0.000000 0.812271 0.611647
#
# Coordination Sequence:
#
# PCOD9357291 Si02
#       8
#     8   8   8   8   8   8   8   8
#     4  10  19  35  59  84 114 150 195 246 295 354
#     4  11  23  40  63  89 123 161 200 252 316 376
#     4  10  21  36  55  83 119 156 193 237 296 361
#     4  11  25  45  68  91 119 162 215 265 315 379
#     4  10  19  34  58  86 120 164 213 258 305 364
#     4  11  23  39  60  88 125 162 201 253 314 373
#     4   8  15  30  51  77 110 148 190 240 295 346
#     4   9  19  35  57  87 122 163 210 259 307 363
#
# _framework density 19.789387999999999
#
# number of rings (size 3 to 8) (size 9 to 14) (size 15 to 20)
#    0.000    2.000    1.250    3.375    0.000    4.250 
#    0.000    2.500    0.000    0.000    0.000    0.000 
#    0.000    0.000    0.000    0.000    0.000    0.000 
#
# Total GULP energy -178471.739141 kJ/mol
# GULP energy per Si atom -5577.241848 kJ/mol
# Density = 1.974435 g / cm^3
# Si number density = 19.789388 Si / 1000 Ang^3
#
#
#
# Elastic Constant Matrix: (Units=GPa)
#
#
# Indices 1 2 3 4 5 6 
#
# 1 36.8232 11.1395 4.2437 0.0000 0.0000 0.0000
# 2 11.1395 51.0665 12.9451 0.0000 0.0000 0.0000
# 3 4.2437 12.9451 86.6591 0.0000 0.0000 0.0000
# 4 0.0000 0.0000 0.0000 23.5321 0.0000 0.0000
# 5 0.0000 0.0000 0.0000 0.0000 26.0735 0.0000
# 6 0.0000 0.0000 0.0000 0.0000 0.0000 17.1539
#
#
#
# Elastic Compliance Matrix: (Units=1/GPa)
#
#
# Indices 1 2 3 4 5 6 
#
# 1 0.029096 -0.006221 -0.000495 0.000000 0.000000 0.000000
# 2 -0.006221 0.021683 -0.002934 0.000000 0.000000 0.000000
# 3 -0.000495 -0.002934 0.012002 0.000000 0.000000 0.000000
# 4 0.000000 0.000000 0.000000 0.042495 0.000000 0.000000
# 5 0.000000 0.000000 0.000000 0.000000 0.038353 0.000000
# 6 0.000000 0.000000 0.000000 0.000000 0.000000 0.058296
#
#
# Mechanical properties :
#
#
# Convention : Reuss Voigt Hill
#
# Bulk Modulus (GPa) = 22.99966 25.68950 24.34458
# Shear Modulus (GPa) = 21.21154 23.09993 22.15574
#
# Velocity S-wave (km/s) = 3.27749 3.42027 3.34964
# Velocity P-wave (km/s) = 5.09608 5.34858 5.22385
#
# Compressibility (1/GPa) = 0.04347891
#
# Stress axis : x y z
#
# Youngs Moduli (GPa) = 34.36903 46.11851 83.31896
#
# Poissons Ratio (x) = 0.28692 0.04128
# Poissons Ratio (y) = 0.21382 0.24449
# Poissons Ratio (z) = 0.01703 0.13533
#
# Static dielectric constant tensor:
#      x y z
#    x 1.680480 0.000000 0.000000 
#    y 0.000000 1.725920 0.000000 
#    z 0.000000 0.000000 1.708460 
# 
# From -- ./inp_files/8525.got.cif
#   From: 2010.05.17/outbox.cif.g08.bks.cpg/sg38_5_cif.got.tgz:8525.got - 2010.06.03 18:07:57.
