data_PCOD9357938
_publ_section_title
;
Structure prediction by ZEFSAII (Michael W. Deem and Ramdas Pophale) SiO2 
 PCOD9357938
Probable space group: A M M 2
;
_chemical_formula_sum "Si O2"
_cell_formula_units_Z 48
_cell_length_a 19.679516
_cell_length_b 12.352627
_cell_length_c 7.140166
_cell_angle_alpha 90.000000
_cell_angle_beta 90.000000
_cell_angle_gamma 90.000000
_cell_volume 1735.729519
_symmetry_space_group_name_H-M "A M M 2"
_symmetry_group_IT_number 38
_symmetry_cell_setting 'orthorhombic'
loop_
_space_group_symop_operation_xyz
x,y,z
-x,-y,z
-x,y,z
x,-y,z
x,1/2+y,1/2+z
-x,1/2-y,1/2+z
-x,1/2+y,1/2+z
x,1/2-y,1/2+z
loop_
_atom_site_type_symbol
_atom_site_label
_atom_site_fract_x
_atom_site_fract_y
_atom_site_fract_z
Si Si1 0.255571 0.846936 0.503280
Si Si2 0.106354 0.888343 0.644672
Si Si3 0.383810 0.623690 0.266990
Si Si4 0.073453 0.152879 0.222252
Si Si5 0.420173 0.877567 0.177746
Si Si6 0.776772 0.887771 0.081695
O O1 0.187279 0.881950 0.610018
O O2 0.321237 0.873530 0.623264
O O3 0.255172 0.887369 0.290447
O O4 0.245566 0.719004 0.479210
O O5 0.077985 0.887760 0.433945
O O6 0.080228 0.782007 0.741648
O O7 0.087978 0.000000 0.739468
O O8 0.416182 0.500000 0.228869
O O9 0.411125 0.751938 0.252610
O O10 0.375963 0.618282 0.490076
O O11 0.141906 0.119210 0.116573
O O12 0.000000 0.125760 0.141435
O O13 0.500000 0.879673 0.126656
O O14 0.409324 0.000000 0.271014
O O15 0.761219 0.000000 0.984800
#
# Coordination Sequence:
#
# PCOD9357938 Si02
#       6
#     8   8   8   8   8   8
#     4  10  20  37  59  86 115 145 188 235 283 341
#     4  10  21  38  57  77 110 147 177 228 289 335
#     4  11  22  38  64  92 119 156 199 242 288 344
#     4  10  20  34  54  79 104 140 191 233 278 344
#     4  10  23  41  59  86 123 158 195 239 286 339
#     4  10  21  37  55  78 113 149 184 236 291 341
#
# _framework density 27.654078999999999
#
# number of rings (size 3 to 8) (size 9 to 14) (size 15 to 20)
#    0.000    1.833    0.000    5.000    0.000    4.667 
#    0.000   15.833    0.000    8.000    0.000    0.000 
#    0.000    0.000    0.000    0.000    0.000    0.000 
#
# Total GULP energy -134177.395402 kJ/mol
# GULP energy per Si atom -5590.724808 kJ/mol
# Density = 2.759114 g / cm^3
# Si number density = 27.654079 Si / 1000 Ang^3
#
#
#
# Elastic Constant Matrix: (Units=GPa)
#
#
# Indices 1 2 3 4 5 6 
#
# 1 113.4591 33.6348 5.2251 0.0000 0.0000 0.0000
# 2 33.6348 339.5058 40.7936 0.0000 0.0000 0.0000
# 3 5.2251 40.7936 79.3008 0.0000 0.0000 0.0000
# 4 0.0000 0.0000 0.0000 55.5268 0.0000 0.0000
# 5 0.0000 0.0000 0.0000 0.0000 16.5724 0.0000
# 6 0.0000 0.0000 0.0000 0.0000 0.0000 -4.0587
#
#
#
# Elastic Compliance Matrix: (Units=1/GPa)
#
#
# Indices 1 2 3 4 5 6 
#
# 1 0.009082 -0.000882 -0.000144 0.000000 0.000000 0.000000
# 2 -0.000882 0.003225 -0.001601 0.000000 0.000000 0.000000
# 3 -0.000144 -0.001601 0.013443 0.000000 0.000000 0.000000
# 4 0.000000 0.000000 0.000000 0.018009 0.000000 0.000000
# 5 0.000000 0.000000 0.000000 0.000000 0.060341 0.000000
# 6 0.000000 0.000000 0.000000 0.000000 0.000000 -0.246387
#
#
# Mechanical properties :
#
#
# Convention : Reuss Voigt Hill
#
# Bulk Modulus (GPa) = 48.79283 76.84142 62.81713
# Shear Modulus (GPa) = -38.40293 43.78226 2.68966
#
# Velocity S-wave (km/s) = -3.73056 3.98328 0.98728
# Velocity P-wave (km/s) = 0.93475 7.00016 4.90553
#
# Compressibility (1/GPa) = 0.02049481
#
# Stress axis : x y z
#
# Youngs Moduli (GPa) = 110.10807 310.05420 74.38651
#
# Poissons Ratio (x) = 0.27359 0.01075
# Poissons Ratio (y) = 0.09716 0.11909
# Poissons Ratio (z) = 0.01591 0.49639
#
# Static dielectric constant tensor:
#      x y z
#    x 2.204460 0.000000 0.000000 
#    y 0.000000 2.164420 0.000000 
#    z 0.000000 0.000000 2.054840 
# 
# From -- ./inp_files/6920.got.cif
#   From: 2010.05.17/outbox.cif.g08.bks.cpg/sg38_4_cif.got.tgz:6920.got - 2010.06.03 18:07:57.
