data_PCOD9357465
_publ_section_title
;
Structure prediction by ZEFSAII (Michael W. Deem and Ramdas Pophale) SiO2 
 PCOD9357465
Probable space group: A M M 2
;
_chemical_formula_sum "Si O2"
_cell_formula_units_Z 64
_cell_length_a 8.916533
_cell_length_b 31.347547
_cell_length_c 12.169960
_cell_angle_alpha 90.000000
_cell_angle_beta 90.000000
_cell_angle_gamma 90.000000
_cell_volume 3401.643011
_symmetry_space_group_name_H-M "A M M 2"
_symmetry_group_IT_number 38
_symmetry_cell_setting 'orthorhombic'
loop_
_space_group_symop_operation_xyz
x,y,z
-x,-y,z
-x,y,z
x,-y,z
x,1/2+y,1/2+z
-x,1/2-y,1/2+z
-x,1/2+y,1/2+z
x,1/2-y,1/2+z
loop_
_atom_site_type_symbol
_atom_site_label
_atom_site_fract_x
_atom_site_fract_y
_atom_site_fract_z
Si Si1 0.678378 0.452132 0.442760
Si Si2 0.824834 0.567593 0.214675
Si Si3 0.180650 0.793999 0.934575
Si Si4 0.175411 0.330401 0.198711
Si Si5 0.180350 0.951752 0.464420
Si Si6 0.180362 0.624680 0.580778
Si Si7 0.678510 0.797643 0.478237
Si Si8 0.319779 0.624211 0.822548
O O1 0.500000 0.445802 0.451200
O O2 0.714385 0.500000 0.483015
O O3 0.728714 0.449116 0.315834
O O4 0.762099 0.415486 0.510380
O O5 0.815153 0.618861 0.214290
O O6 0.779216 0.552378 0.093400
O O7 0.000000 0.555746 0.231363
O O8 0.223304 0.808183 0.811590
O O9 0.248664 0.748357 0.961304
O O10 0.000000 0.791373 0.938110
O O11 0.225407 0.831641 0.018304
O O12 0.000000 0.319999 0.178059
O O13 0.270808 0.315835 0.095448
O O14 0.261086 0.915782 0.393474
O O15 0.000000 0.945174 0.457970
O O16 0.213696 0.000000 0.427311
O O17 0.249107 0.623366 0.701942
O O18 0.000000 0.623455 0.585895
O O19 0.500000 0.793664 0.474057
O O20 0.724573 0.832379 0.386430
O O21 0.500000 0.622689 0.815746
#
# Coordination Sequence:
#
# PCOD9357465 Si02
#       8
#     8   8   8   8   8   8   8   8
#     4  11  24  40  61  92 128 164 200 244 305 368
#     4  10  19  37  64  93 125 159 202 252 299 353
#     4  10  23  42  64  92 121 157 204 252 304 357
#     4  10  20  39  66  93 122 157 201 251 301 355
#     4  10  21  38  63  93 122 159 207 255 303 356
#     4  11  24  44  67  90 117 158 210 258 303 357
#     4  11  25  41  61  92 126 162 202 245 301 365
#     4  11  25  43  61  88 125 164 203 249 307 367
#
# _framework density 18.814437999999999
#
# number of rings (size 3 to 8) (size 9 to 14) (size 15 to 20)
#    0.000    1.500    2.500    1.875    1.750    6.250 
#    0.000    0.000    0.000    0.000    0.000    0.000 
#    0.000    0.000    0.000    0.000    0.000    0.000 
#
# Total GULP energy -178866.089439 kJ/mol
# GULP energy per Si atom -5589.565295 kJ/mol
# Density = 1.877162 g / cm^3
# Si number density = 18.814438 Si / 1000 Ang^3
#
#
#
# Elastic Constant Matrix: (Units=GPa)
#
#
# Indices 1 2 3 4 5 6 
#
# 1 42.9313 53.4097 47.3778 0.0000 0.0000 0.0000
# 2 53.4097 151.9180 74.0535 0.0000 0.0000 0.0000
# 3 47.3778 74.0535 134.7854 0.0000 0.0000 0.0000
# 4 0.0000 0.0000 0.0000 45.9497 0.0000 0.0000
# 5 0.0000 0.0000 0.0000 0.0000 26.2259 0.0000
# 6 0.0000 0.0000 0.0000 0.0000 0.0000 20.7780
#
#
#
# Elastic Compliance Matrix: (Units=1/GPa)
#
#
# Indices 1 2 3 4 5 6 
#
# 1 0.051181 -0.012598 -0.011069 0.000000 0.000000 0.000000
# 2 -0.012598 0.012091 -0.002215 0.000000 0.000000 0.000000
# 3 -0.011069 -0.002215 0.012527 0.000000 0.000000 0.000000
# 4 0.000000 0.000000 0.000000 0.021763 0.000000 0.000000
# 5 0.000000 0.000000 0.000000 0.000000 0.038130 0.000000
# 6 0.000000 0.000000 0.000000 0.000000 0.000000 0.048128
#
#
# Mechanical properties :
#
#
# Convention : Reuss Voigt Hill
#
# Bulk Modulus (GPa) = 41.60479 75.47963 58.54221
# Shear Modulus (GPa) = 20.52578 28.91030 24.71804
#
# Velocity S-wave (km/s) = 3.30655 3.92420 3.62854
# Velocity P-wave (km/s) = 6.06126 7.79343 6.98128
#
# Compressibility (1/GPa) = 0.02403569
#
# Stress axis : x y z
#
# Youngs Moduli (GPa) = 19.53837 82.70442 79.82862
#
# Poissons Ratio (x) = 1.04192 0.88361
# Poissons Ratio (y) = 0.24615 0.17681
# Poissons Ratio (z) = 0.21627 0.18318
#
# Static dielectric constant tensor:
#      x y z
#    x 1.632320 0.000000 0.000000 
#    y 0.000000 1.639880 0.000000 
#    z 0.000000 0.000000 1.622130 
# 
# From -- ./inp_files/8636.got.cif
#   From: 2010.05.17/outbox.cif.g08.bks.cpg/sg38_5_cif.got.tgz:8636.got - 2010.06.03 18:07:57.
