data_PCOD9357585
_publ_section_title
;
Structure prediction by ZEFSAII (Michael W. Deem and Ramdas Pophale) SiO2 
 PCOD9357585
Probable space group: A M M 2
;
_chemical_formula_sum "Si O2"
_cell_formula_units_Z 56
_cell_length_a 8.741534
_cell_length_b 15.801126
_cell_length_c 20.586739
_cell_angle_alpha 90.000000
_cell_angle_beta 90.000000
_cell_angle_gamma 90.000000
_cell_volume 2843.565561
_symmetry_space_group_name_H-M "A M M 2"
_symmetry_group_IT_number 38
_symmetry_cell_setting 'orthorhombic'
loop_
_space_group_symop_operation_xyz
x,y,z
-x,-y,z
-x,y,z
x,-y,z
x,1/2+y,1/2+z
-x,1/2-y,1/2+z
-x,1/2+y,1/2+z
x,1/2-y,1/2+z
loop_
_atom_site_type_symbol
_atom_site_label
_atom_site_fract_x
_atom_site_fract_y
_atom_site_fract_z
Si Si1 0.822072 0.248845 0.410170
Si Si2 0.322020 0.174595 0.632867
Si Si3 0.330433 0.374856 0.617527
Si Si4 0.176504 0.907251 0.241995
Si Si5 0.314581 0.598172 0.996819
Si Si6 0.675993 0.906990 0.968827
Si Si7 0.681083 0.730797 0.271631
O O1 0.744741 0.166688 0.444175
O O2 0.787448 0.330617 0.453427
O O3 0.757865 0.280974 0.340952
O O4 0.000000 0.230145 0.404126
O O5 0.500000 0.148183 0.639235
O O6 0.319386 0.273248 0.612656
O O7 0.259835 0.123510 0.570440
O O8 0.259942 0.179429 0.707497
O O9 0.500000 0.394060 0.645491
O O10 0.200241 0.408011 0.664562
O O11 0.325669 0.411136 0.546343
O O12 0.284202 0.830260 0.261092
O O13 0.000000 0.889211 0.258413
O O14 0.216712 0.000000 0.268303
O O15 0.500000 0.604411 0.997190
O O16 0.273667 0.500000 0.983031
O O17 0.500000 0.886590 0.948409
O O18 0.715940 0.000000 0.942316
O O19 0.500000 0.716658 0.275328
#
# Coordination Sequence:
#
# PCOD9357585 Si02
#       7
#     8   8   8   8   8   8   8
#     4  12  25  40  58  85 125 165 199 248 311 375
#     4   8  15  32  58  87 113 141 188 247 298 347
#     4   9  16  30  54  80 111 146 182 228 279 337
#     4  10  20  32  48  77 116 149 182 230 289 354
#     4  10  20  38  66  94 121 158 206 259 312 370
#     4  10  20  36  60  86 113 149 195 244 290 344
#     4  10  21  38  60  80 108 155 205 251 300 360
#
# _framework density 19.693584999999999
#
# number of rings (size 3 to 8) (size 9 to 14) (size 15 to 20)
#    0.000    2.143    1.429    3.429    0.000    3.429 
#    0.000    1.429    0.000    2.571    0.000    0.000 
#    0.000    0.000    0.000    0.000    0.000    0.000 
#
# Total GULP energy -155900.212170 kJ/mol
# GULP energy per Si atom -5567.864720 kJ/mol
# Density = 1.964876 g / cm^3
# Si number density = 19.693585 Si / 1000 Ang^3
#
#
#
# Elastic Constant Matrix: (Units=GPa)
#
#
# Indices 1 2 3 4 5 6 
#
# 1 38.7666 12.0315 12.7651 0.0000 0.0000 0.0000
# 2 12.0315 50.3693 -1.1030 0.0000 0.0000 0.0000
# 3 12.7651 -1.1030 67.8223 0.0000 0.0000 0.0000
# 4 0.0000 0.0000 0.0000 0.0886 0.0000 0.0000
# 5 0.0000 0.0000 0.0000 0.0000 1.3075 0.0000
# 6 0.0000 0.0000 0.0000 0.0000 0.0000 12.1857
#
#
#
# Elastic Compliance Matrix: (Units=1/GPa)
#
#
# Indices 1 2 3 4 5 6 
#
# 1 0.029950 -0.007280 -0.005755 0.000000 0.000000 0.000000
# 2 -0.007280 0.021630 0.001722 0.000000 0.000000 0.000000
# 3 -0.005755 0.001722 0.015856 0.000000 0.000000 0.000000
# 4 0.000000 0.000000 0.000000 11.289743 0.000000 0.000000
# 5 0.000000 0.000000 0.000000 0.000000 0.764821 0.000000
# 6 0.000000 0.000000 0.000000 0.000000 0.000000 0.082064
#
#
# Mechanical properties :
#
#
# Convention : Reuss Voigt Hill
#
# Bulk Modulus (GPa) = 22.31708 22.70503 22.51105
# Shear Modulus (GPa) = 0.40844 11.60066 6.00455
#
# Velocity S-wave (km/s) = 0.45590 2.42968 1.74803
# Velocity P-wave (km/s) = 3.41085 4.40742 3.94076
#
# Compressibility (1/GPa) = 0.04480874
#
# Stress axis : x y z
#
# Youngs Moduli (GPa) = 33.38903 46.23205 63.06894
#
# Poissons Ratio (x) = 0.33657 0.36299
# Poissons Ratio (y) = 0.24307 -0.10860
# Poissons Ratio (z) = 0.19217 -0.07961
#
# Static dielectric constant tensor:
#      x y z
#    x 1.688330 0.000000 0.000000 
#    y 0.000000 1.739270 0.000000 
#    z 0.000000 0.000000 1.782500 
# 
# From -- ./inp_files/19757.got.cif
#   From: 2010.05.17/outbox.cif.g08.bks.cpg/sg38_10_cif.got.tgz:19757.got - 2010.06.03 18:07:57.
