data_PCOD9357032
_publ_section_title
;
Structure prediction by ZEFSAII (Michael W. Deem and Ramdas Pophale) SiO2 
 PCOD9357032
Probable space group: A M M 2
;
_chemical_formula_sum "Si O2"
_cell_formula_units_Z 48
_cell_length_a 17.511879
_cell_length_b 15.932888
_cell_length_c 8.628302
_cell_angle_alpha 90.000000
_cell_angle_beta 90.000000
_cell_angle_gamma 90.000000
_cell_volume 2407.424015
_symmetry_space_group_name_H-M "A M M 2"
_symmetry_group_IT_number 38
_symmetry_cell_setting 'orthorhombic'
loop_
_space_group_symop_operation_xyz
x,y,z
-x,-y,z
-x,y,z
x,-y,z
x,1/2+y,1/2+z
-x,1/2-y,1/2+z
-x,1/2+y,1/2+z
x,1/2-y,1/2+z
loop_
_atom_site_type_symbol
_atom_site_label
_atom_site_fract_x
_atom_site_fract_y
_atom_site_fract_z
Si Si1 0.670039 0.602965 0.435250
Si Si2 0.410528 0.898093 0.608497
Si Si3 0.907578 0.500000 0.911820
Si Si4 0.092496 0.672522 0.076487
Si Si5 0.158667 0.336028 0.415502
Si Si6 0.589504 0.898065 0.261705
Si Si7 0.090852 0.500000 0.568223
O O1 0.677367 0.500000 0.435132
O O2 0.628701 0.626779 0.271812
O O3 0.752032 0.646846 0.432484
O O4 0.629316 0.626926 0.598989
O O5 0.500000 0.875086 0.616766
O O6 0.381942 0.870337 0.435121
O O7 0.406308 0.000000 0.606468
O O8 0.875858 0.500000 0.740110
O O9 0.000000 0.500000 0.906017
O O10 0.886307 0.414372 0.994124
O O11 0.130861 0.668993 0.241488
O O12 0.000000 0.679167 0.084452
O O13 0.127643 0.752212 0.992900
O O14 0.117628 0.416629 0.486500
O O15 0.500000 0.874906 0.252762
O O16 0.593391 0.000000 0.263553
O O17 0.000000 0.500000 0.575026
#
# Coordination Sequence:
#
# PCOD9357032 Si02
#       7
#     8   8   4   8   8   8   4
#     4  10  19  33  50  88 133 165 205 257 320 381
#     4   8  14  27  50  81 120 169 217 256 300 363
#     4   9  21  41  69  95 113 147 204 267 327 378
#     4  11  23  43  66  89 118 160 215 273 324 390
#     4  12  24  40  60  93 127 169 209 261 331 384
#     4   8  14  27  50  81 121 170 216 256 301 362
#     4  11  21  39  63  91 124 163 210 255 308 392
#
# _framework density 19.938323
#
# number of rings (size 3 to 8) (size 9 to 14) (size 15 to 20)
#    0.000    2.167    0.833    4.500    0.000    4.000 
#    6.000    0.000    0.000    0.000    0.000    4.667 
#    0.000    0.000    0.000    0.667    0.000    1.333 
#
# Total GULP energy -133867.309483 kJ/mol
# GULP energy per Si atom -5577.804562 kJ/mol
# Density = 1.989294 g / cm^3
# Si number density = 19.938323 Si / 1000 Ang^3
#
#
#
# Elastic Constant Matrix: (Units=GPa)
#
#
# Indices 1 2 3 4 5 6 
#
# 1 109.6580 46.6958 103.3128 0.0000 0.0000 0.0000
# 2 46.6958 117.7071 103.7672 0.0000 0.0000 0.0000
# 3 103.3128 103.7672 279.5934 0.0000 0.0000 0.0000
# 4 0.0000 0.0000 0.0000 -56.9570 0.0000 0.0000
# 5 0.0000 0.0000 0.0000 0.0000 36.6057 0.0000
# 6 0.0000 0.0000 0.0000 0.0000 0.0000 23.5302
#
#
#
# Elastic Compliance Matrix: (Units=1/GPa)
#
#
# Indices 1 2 3 4 5 6 
#
# 1 0.014164 -0.001494 -0.004679 0.000000 0.000000 0.000000
# 2 -0.001494 0.012785 -0.004193 0.000000 0.000000 0.000000
# 3 -0.004679 -0.004193 0.006862 0.000000 0.000000 0.000000
# 4 0.000000 0.000000 0.000000 -0.017557 0.000000 0.000000
# 5 0.000000 0.000000 0.000000 0.000000 0.027318 0.000000
# 6 0.000000 0.000000 0.000000 0.000000 0.000000 0.042499
#
#
# Mechanical properties :
#
#
# Convention : Reuss Voigt Hill
#
# Bulk Modulus (GPa) = 76.46242 112.72336 94.59289
# Shear Modulus (GPa) = 44.97964 17.51461 31.24713
#
# Velocity S-wave (km/s) = 4.75483 2.96706 3.96307
# Velocity P-wave (km/s) = 8.28114 8.27023 8.27569
#
# Compressibility (1/GPa) = 0.01307832
#
# Stress axis : x y z
#
# Youngs Moduli (GPa) = 70.60180 78.21932 145.73472
#
# Poissons Ratio (x) = 0.11685 0.68194
# Poissons Ratio (y) = 0.10547 0.61104
# Poissons Ratio (z) = 0.33037 0.32796
#
# Static dielectric constant tensor:
#      x y z
#    x 1.677290 0.000000 0.000000 
#    y 0.000000 1.862750 0.000000 
#    z 0.000000 0.000000 1.701470 
# 
# From -- ./inp_files/6201.got.cif
#   From: 2010.05.17/outbox.cif.g08.bks.cpg/sg38_4_cif.got.tgz:6201.got - 2010.06.03 18:07:57.
