data_PCOD9357181
_publ_section_title
;
Structure prediction by ZEFSAII (Michael W. Deem and Ramdas Pophale) SiO2 
 PCOD9357181
Probable space group: A M M 2
;
_chemical_formula_sum "Si O2"
_cell_formula_units_Z 48
_cell_length_a 16.143548
_cell_length_b 17.966020
_cell_length_c 8.871453
_cell_angle_alpha 90.000000
_cell_angle_beta 90.000000
_cell_angle_gamma 90.000000
_cell_volume 2573.034588
_symmetry_space_group_name_H-M "A M M 2"
_symmetry_group_IT_number 38
_symmetry_cell_setting 'orthorhombic'
loop_
_space_group_symop_operation_xyz
x,y,z
-x,-y,z
-x,y,z
x,-y,z
x,1/2+y,1/2+z
-x,1/2-y,1/2+z
-x,1/2+y,1/2+z
x,1/2-y,1/2+z
loop_
_atom_site_type_symbol
_atom_site_label
_atom_site_fract_x
_atom_site_fract_y
_atom_site_fract_z
Si Si1 0.091217 0.842575 0.986530
Si Si2 0.593643 0.651845 0.120870
Si Si3 0.846923 0.290095 0.165704
Si Si4 0.751863 0.417122 0.991950
Si Si5 0.594547 0.187304 0.974125
Si Si6 0.750044 0.356259 0.662325
O O1 0.114266 0.824505 0.814879
O O2 0.000000 0.876694 0.000611
O O3 0.091960 0.762821 0.072326
O O4 0.169921 0.882252 0.064996
O O5 0.500000 0.623744 0.101314
O O6 0.603448 0.675009 0.295697
O O7 0.663653 0.594955 0.071765
O O8 0.602887 0.725842 0.018328
O O9 0.774099 0.230011 0.204167
O O10 0.811142 0.354606 0.061695
O O11 0.783397 0.500000 0.018199
O O12 0.741858 0.401359 0.814996
O O13 0.500000 0.165451 0.016931
O O14 0.666932 0.354556 0.564083
#
# Coordination Sequence:
#
# PCOD9357181 Si02
#       6
#     8   8   8   8   8   8
#     4  10  19  34  65  92 113 146 198 251 291 333
#     4  10  20  34  54  85 117 153 199 244 291 346
#     4  10  19  36  59  89 115 146 195 243 279 347
#     4  12  24  38  57  84 121 162 191 238 304 350
#     4  10  19  33  61  90 117 150 197 251 292 335
#     4  10  20  37  58  87 119 148 201 241 283 351
#
# _framework density 18.655016
#
# number of rings (size 3 to 8) (size 9 to 14) (size 15 to 20)
#    1.000    0.667    3.333    2.500    0.000    2.333 
#    0.000    3.333    0.000    6.500    0.000    0.000 
#    0.000    0.000    0.000    0.000    0.000    0.000 
#
# Total GULP energy -133794.094821 kJ/mol
# GULP energy per Si atom -5574.753951 kJ/mol
# Density = 1.861256 g / cm^3
# Si number density = 18.655016 Si / 1000 Ang^3
#
#
#
# Elastic Constant Matrix: (Units=GPa)
#
#
# Indices 1 2 3 4 5 6 
#
# 1 106.5296 3.7224 21.1921 0.0000 0.0000 0.0000
# 2 3.7224 19.3900 11.3190 0.0000 0.0000 0.0000
# 3 21.1921 11.3190 76.0763 0.0000 0.0000 0.0000
# 4 0.0000 0.0000 0.0000 7.5427 0.0000 0.0000
# 5 0.0000 0.0000 0.0000 0.0000 -1.6378 0.0000
# 6 0.0000 0.0000 0.0000 0.0000 0.0000 7.8504
#
#
#
# Elastic Compliance Matrix: (Units=1/GPa)
#
#
# Indices 1 2 3 4 5 6 
#
# 1 0.009940 -0.000320 -0.002721 0.000000 0.000000 0.000000
# 2 -0.000320 0.056488 -0.008316 0.000000 0.000000 0.000000
# 3 -0.002721 -0.008316 0.015140 0.000000 0.000000 0.000000
# 4 0.000000 0.000000 0.000000 0.132578 0.000000 0.000000
# 5 0.000000 0.000000 0.000000 0.000000 -0.610561 0.000000
# 6 0.000000 0.000000 0.000000 0.000000 0.000000 0.127382
#
#
# Mechanical properties :
#
#
# Convention : Reuss Voigt Hill
#
# Bulk Modulus (GPa) = 16.99087 30.49588 23.74337
# Shear Modulus (GPa) = -22.05537 13.80189 -4.12674
#
# Velocity S-wave (km/s) = -3.44215 2.72297 -1.48894
# Velocity P-wave (km/s) = 2.58267 5.12531 3.13039
#
# Compressibility (1/GPa) = 0.05885513
#
# Stress axis : x y z
#
# Youngs Moduli (GPa) = 100.60789 17.70275 66.05037
#
# Poissons Ratio (x) = 0.00566 0.17974
# Poissons Ratio (y) = 0.03215 0.54925
# Poissons Ratio (z) = 0.27378 0.14721
#
# Static dielectric constant tensor:
#      x y z
#    x 1.673800 0.000000 0.000000 
#    y 0.000000 1.622600 0.000000 
#    z 0.000000 0.000000 1.621970 
# 
# From -- ./inp_files/6282.got.cif
#   From: 2010.05.17/outbox.cif.g08.bks.cpg/sg38_4_cif.got.tgz:6282.got - 2010.06.03 18:07:57.
