data_PCOD9357183
_publ_section_title
;
Structure prediction by ZEFSAII (Michael W. Deem and Ramdas Pophale) SiO2 
 PCOD9357183
Probable space group: A M M 2
;
_chemical_formula_sum "Si O2"
_cell_formula_units_Z 48
_cell_length_a 16.851755
_cell_length_b 27.469591
_cell_length_c 5.058873
_cell_angle_alpha 90.000000
_cell_angle_beta 90.000000
_cell_angle_gamma 90.000000
_cell_volume 2341.807036
_symmetry_space_group_name_H-M "A M M 2"
_symmetry_group_IT_number 38
_symmetry_cell_setting 'orthorhombic'
loop_
_space_group_symop_operation_xyz
x,y,z
-x,-y,z
-x,y,z
x,-y,z
x,1/2+y,1/2+z
-x,1/2-y,1/2+z
-x,1/2+y,1/2+z
x,1/2-y,1/2+z
loop_
_atom_site_type_symbol
_atom_site_label
_atom_site_fract_x
_atom_site_fract_y
_atom_site_fract_z
Si Si1 0.500000 0.217542 0.744951
Si Si2 0.354896 0.855141 0.724264
Si Si3 0.913236 0.500000 0.619454
Si Si4 0.591195 0.596879 0.722347
Si Si5 0.089106 0.892373 0.202940
Si Si6 0.810004 0.610425 0.178413
Si Si7 0.409652 0.000000 0.565416
Si Si8 0.239231 0.000000 0.743393
O O1 0.500000 0.238639 0.451200
O O2 0.580766 0.186430 0.784383
O O3 0.361622 0.867122 0.414126
O O4 0.261271 0.854648 0.772196
O O5 0.383591 0.898542 0.919980
O O6 0.915208 0.550073 0.777987
O O7 0.828213 0.500000 0.471878
O O8 0.000000 0.500000 0.467725
O O9 0.500000 0.611820 0.739427
O O10 0.597966 0.545528 0.866681
O O11 0.148960 0.870501 0.413853
O O12 0.000000 0.872773 0.211283
O O13 0.125098 0.891933 0.910229
O O14 0.776857 0.554886 0.127675
O O15 0.500000 0.000000 0.681053
O O16 0.334995 0.000000 0.764227
#
# Coordination Sequence:
#
# PCOD9357183 Si02
#       8
#     4   8   4   8   8   8   4   4
#     4  12  26  46  72  93 116 155 196 246 316 388
#     4  12  23  41  63  87 122 150 203 252 309 357
#     4   8  17  32  53  75 109 162 220 274 309 333
#     4  11  21  38  56  82 117 165 203 250 289 340
#     4  10  20  36  53  78 115 158 207 252 300 349
#     4  11  22  34  56  85 116 161 202 254 297 340
#     4  10  22  34  53  80 119 170 222 244 292 351
#     4  10  19  34  50  79 116 162 214 256 289 346
#
# _framework density 20.49699
#
# number of rings (size 3 to 8) (size 9 to 14) (size 15 to 20)
#    0.000    1.333    3.333    3.000    0.000    2.000 
#    0.000    5.000    0.000    0.000    0.000    0.000 
#    0.000   13.333    0.000    0.000    0.000    0.000 
#
# Total GULP energy -133734.765104 kJ/mol
# GULP energy per Si atom -5572.281879 kJ/mol
# Density = 2.045034 g / cm^3
# Si number density = 20.496990 Si / 1000 Ang^3
#
#
#
# Elastic Constant Matrix: (Units=GPa)
#
#
# Indices 1 2 3 4 5 6 
#
# 1 157.9118 23.5658 17.9105 0.0000 0.0000 0.0000
# 2 23.5658 33.2818 1.2227 0.0000 0.0000 0.0000
# 3 17.9105 1.2227 48.1877 0.0000 0.0000 0.0000
# 4 0.0000 0.0000 0.0000 12.6103 0.0000 0.0000
# 5 0.0000 0.0000 0.0000 0.0000 33.0694 0.0000
# 6 0.0000 0.0000 0.0000 0.0000 0.0000 15.3696
#
#
#
# Elastic Compliance Matrix: (Units=1/GPa)
#
#
# Indices 1 2 3 4 5 6 
#
# 1 0.007397 -0.005141 -0.002619 0.000000 0.000000 0.000000
# 2 -0.005141 0.033648 0.001057 0.000000 0.000000 0.000000
# 3 -0.002619 0.001057 0.021699 0.000000 0.000000 0.000000
# 4 0.000000 0.000000 0.000000 0.079300 0.000000 0.000000
# 5 0.000000 0.000000 0.000000 0.000000 0.030239 0.000000
# 6 0.000000 0.000000 0.000000 0.000000 0.000000 0.065064
#
#
# Mechanical properties :
#
#
# Convention : Reuss Voigt Hill
#
# Bulk Modulus (GPa) = 20.26849 36.08657 28.17753
# Shear Modulus (GPa) = 18.71266 25.32201 22.01733
#
# Velocity S-wave (km/s) = 3.02478 3.51864 3.28101
# Velocity P-wave (km/s) = 4.70202 5.84395 5.30381
#
# Compressibility (1/GPa) = 0.04933767
#
# Stress axis : x y z
#
# Youngs Moduli (GPa) = 135.19101 29.71941 46.08565
#
# Poissons Ratio (x) = 0.15280 0.12069
# Poissons Ratio (y) = 0.69506 -0.04872
# Poissons Ratio (z) = 0.35404 -0.03142
#
# Static dielectric constant tensor:
#      x y z
#    x 1.775040 0.000000 0.000000 
#    y 0.000000 1.748450 0.000000 
#    z 0.000000 0.000000 1.730160 
# 
# From -- ./inp_files/1392.got.cif
#   From: 2010.05.17/outbox.cif.g08.bks.cpg/sg38_1_cif.got.tgz:1392.got - 2010.06.03 18:07:57.
