data_PCOD9357800
_publ_section_title
;
Structure prediction by ZEFSAII (Michael W. Deem and Ramdas Pophale) SiO2 
 PCOD9357800
Probable space group: A M M 2
;
_chemical_formula_sum "Si O2"
_cell_formula_units_Z 56
_cell_length_a 8.715156
_cell_length_b 17.115848
_cell_length_c 20.067558
_cell_angle_alpha 90.000000
_cell_angle_beta 90.000000
_cell_angle_gamma 90.000000
_cell_volume 2993.423151
_symmetry_space_group_name_H-M "A M M 2"
_symmetry_group_IT_number 38
_symmetry_cell_setting 'orthorhombic'
loop_
_space_group_symop_operation_xyz
x,y,z
-x,-y,z
-x,y,z
x,-y,z
x,1/2+y,1/2+z
-x,1/2-y,1/2+z
-x,1/2+y,1/2+z
x,1/2-y,1/2+z
loop_
_atom_site_type_symbol
_atom_site_label
_atom_site_fract_x
_atom_site_fract_y
_atom_site_fract_z
Si Si1 0.318831 0.669661 0.120290
Si Si2 0.316442 0.000000 0.431661
Si Si3 0.182529 0.913571 0.829913
Si Si4 0.816595 0.655950 0.866073
Si Si5 0.820256 0.748611 0.497541
Si Si6 0.184388 0.760943 0.747173
Si Si7 0.681849 0.087047 0.976682
Si Si8 0.312404 0.000000 0.587787
O O1 0.500000 0.668955 0.130909
O O2 0.245853 0.728933 0.173055
O O3 0.260952 0.579983 0.123053
O O4 0.279119 0.698788 0.046562
O O5 0.258492 0.077193 0.393532
O O6 0.500000 0.000000 0.432546
O O7 0.264338 0.000000 0.509527
O O8 0.227718 0.842316 0.783296
O O9 0.275380 0.911415 0.898499
O O10 0.000000 0.904997 0.845587
O O11 0.204051 0.000000 0.799767
O O12 0.792008 0.723242 0.921813
O O13 0.762573 0.690300 0.795000
O O14 0.000000 0.643236 0.862107
O O15 0.773323 0.659002 0.507233
O O16 0.000000 0.760191 0.511413
O O17 0.000000 0.757074 0.745222
O O18 0.500000 0.098271 0.985181
O O19 0.722982 0.000000 0.001368
O O20 0.500000 0.000000 0.587675
#
# Coordination Sequence:
#
# PCOD9357800 Si02
#       8
#     8   4   8   8   8   8   8   4
#     4  11  23  39  57  83 121 159 195 240 297 359
#     4  11  21  37  63  91 119 150 195 250 307 361
#     4   9  17  31  51  77 112 148 184 224 264 316
#     4  10  21  38  60  87 118 151 196 248 296 350
#     4  11  21  37  60  85 112 150 194 240 293 351
#     4  10  21  38  56  82 116 155 198 238 285 348
#     4  10  20  33  53  83 114 144 183 231 282 336
#     4   9  20  37  55  85 127 162 191 238 299 359
#
# _framework density 18.70768
#
# number of rings (size 3 to 8) (size 9 to 14) (size 15 to 20)
#    0.000    1.857    2.857    1.500    1.000    2.571 
#    0.000    1.071    1.571    0.000    0.000    0.000 
#    0.000    0.000    0.000    0.000    0.000    0.000 
#
# Total GULP energy -156227.307795 kJ/mol
# GULP energy per Si atom -5579.546707 kJ/mol
# Density = 1.866510 g / cm^3
# Si number density = 18.707680 Si / 1000 Ang^3
#
#
#
# Elastic Constant Matrix: (Units=GPa)
#
#
# Indices 1 2 3 4 5 6 
#
# 1 15.1836 16.8134 7.4274 0.0000 0.0000 0.0000
# 2 16.8134 85.0634 8.4145 0.0000 0.0000 0.0000
# 3 7.4274 8.4145 56.1696 0.0000 0.0000 0.0000
# 4 0.0000 0.0000 0.0000 25.4942 0.0000 0.0000
# 5 0.0000 0.0000 0.0000 0.0000 -5.8404 0.0000
# 6 0.0000 0.0000 0.0000 0.0000 0.0000 25.6360
#
#
#
# Elastic Compliance Matrix: (Units=1/GPa)
#
#
# Indices 1 2 3 4 5 6 
#
# 1 0.088811 -0.016639 -0.009251 0.000000 0.000000 0.000000
# 2 -0.016639 0.015050 -0.000054 0.000000 0.000000 0.000000
# 3 -0.009251 -0.000054 0.019035 0.000000 0.000000 0.000000
# 4 0.000000 0.000000 0.000000 0.039225 0.000000 0.000000
# 5 0.000000 0.000000 0.000000 0.000000 -0.171221 0.000000
# 6 0.000000 0.000000 0.000000 0.000000 0.000000 0.039008
#
#
# Mechanical properties :
#
#
# Convention : Reuss Voigt Hill
#
# Bulk Modulus (GPa) = 14.08316 24.63636 19.35976
# Shear Modulus (GPa) = 47.40955 17.30872 32.35914
#
# Velocity S-wave (km/s) = 5.03957 3.04504 4.16351
# Velocity P-wave (km/s) = 6.43486 5.05576 5.78654
#
# Compressibility (1/GPa) = 0.07100678
#
# Stress axis : x y z
#
# Youngs Moduli (GPa) = 11.25992 66.44468 52.53579
#
# Poissons Ratio (x) = 1.10557 0.48601
# Poissons Ratio (y) = 0.18735 0.00286
# Poissons Ratio (z) = 0.10417 0.00361
#
# Static dielectric constant tensor:
#      x y z
#    x 1.647050 0.000000 0.000000 
#    y 0.000000 1.666840 0.000000 
#    z 0.000000 0.000000 1.637750 
# 
# From -- ./inp_files/19885.got.cif
#   From: 2010.05.17/outbox.cif.g08.bks.cpg/sg38_10_cif.got.tgz:19885.got - 2010.06.03 18:07:57.
