data_PCOD9357463
_publ_section_title
;
Structure prediction by ZEFSAII (Michael W. Deem and Ramdas Pophale) SiO2 
 PCOD9357463
Probable space group: A M M 2
;
_chemical_formula_sum "Si O2"
_cell_formula_units_Z 48
_cell_length_a 19.385281
_cell_length_b 8.647580
_cell_length_c 15.199193
_cell_angle_alpha 90.000000
_cell_angle_beta 90.000000
_cell_angle_gamma 90.000000
_cell_volume 2547.928396
_symmetry_space_group_name_H-M "A M M 2"
_symmetry_group_IT_number 38
_symmetry_cell_setting 'orthorhombic'
loop_
_space_group_symop_operation_xyz
x,y,z
-x,-y,z
-x,y,z
x,-y,z
x,1/2+y,1/2+z
-x,1/2-y,1/2+z
-x,1/2+y,1/2+z
x,1/2-y,1/2+z
loop_
_atom_site_type_symbol
_atom_site_label
_atom_site_fract_x
_atom_site_fract_y
_atom_site_fract_z
Si Si1 0.743631 0.183514 0.343100
Si Si2 0.000000 0.812376 0.692610
Si Si3 0.352321 0.819048 0.696014
Si Si4 0.500000 0.182234 0.241670
Si Si5 0.360747 0.682393 0.996341
Si Si6 0.000000 0.185921 0.487765
Si Si7 0.103946 0.815198 0.845129
Si Si8 0.500000 0.680221 0.433147
O O1 0.698566 0.225331 0.258115
O O2 0.695758 0.230875 0.425304
O O3 0.816864 0.266550 0.342728
O O4 0.754831 0.000000 0.348463
O O5 0.935024 0.766360 0.754434
O O6 0.000000 0.759869 0.590438
O O7 0.000000 0.000000 0.688376
O O8 0.430431 0.759263 0.705959
O O9 0.332643 0.802826 0.594417
O O10 0.350109 0.000000 0.720638
O O11 0.500000 0.215773 0.345783
O O12 0.500000 0.000000 0.223786
O O13 0.377004 0.500000 0.981440
O O14 0.430834 0.777709 0.985123
O O15 0.935087 0.243723 0.429618
O O16 0.000000 0.000000 0.488627
O O17 0.097218 0.000000 0.851002
O O18 0.500000 0.500000 0.408710
#
# Coordination Sequence:
#
# PCOD9357463 Si02
#       8
#     8   4   8   4   8   4   8   4
#     4  11  23  40  60  85 119 160 196 240 293 349
#     4   8  18  37  62  87 116 155 191 228 286 344
#     4  11  23  40  61  86 113 153 200 246 298 358
#     4  12  23  38  59  84 116 152 191 247 306 355
#     4  10  23  41  60  82 117 156 194 243 306 359
#     4  10  19  37  64  91 116 149 195 236 278 346
#     4  10  21  39  60  87 122 157 192 237 286 342
#     4  12  23  36  61  88 112 148 201 251 296 351
#
# _framework density 18.838835
#
# number of rings (size 3 to 8) (size 9 to 14) (size 15 to 20)
#    0.000    1.500    1.667    4.250    0.000    5.333 
#    0.000   11.667    0.000    0.000    0.000    0.000 
#    0.000    0.000    0.000    0.000    0.000    0.000 
#
# Total GULP energy -134077.986433 kJ/mol
# GULP energy per Si atom -5586.582768 kJ/mol
# Density = 1.879596 g / cm^3
# Si number density = 18.838835 Si / 1000 Ang^3
#
#
#
# Elastic Constant Matrix: (Units=GPa)
#
#
# Indices 1 2 3 4 5 6 
#
# 1 133.7408 23.5542 54.7064 0.0000 0.0000 0.0000
# 2 23.5542 39.5278 21.7406 0.0000 0.0000 0.0000
# 3 54.7064 21.7406 123.5179 0.0000 0.0000 0.0000
# 4 0.0000 0.0000 0.0000 27.1481 0.0000 0.0000
# 5 0.0000 0.0000 0.0000 0.0000 345.2138 0.0000
# 6 0.0000 0.0000 0.0000 0.0000 0.0000 29.0834
#
#
#
# Elastic Compliance Matrix: (Units=1/GPa)
#
#
# Indices 1 2 3 4 5 6 
#
# 1 0.009608 -0.003748 -0.003596 0.000000 0.000000 0.000000
# 2 -0.003748 0.029472 -0.003528 0.000000 0.000000 0.000000
# 3 -0.003596 -0.003528 0.010309 0.000000 0.000000 0.000000
# 4 0.000000 0.000000 0.000000 0.036835 0.000000 0.000000
# 5 0.000000 0.000000 0.000000 0.000000 0.002897 0.000000
# 6 0.000000 0.000000 0.000000 0.000000 0.000000 0.034384
#
#
# Mechanical properties :
#
#
# Convention : Reuss Voigt Hill
#
# Bulk Modulus (GPa) = 36.16960 55.19876 45.68418
# Shear Modulus (GPa) = 32.37022 93.40808 62.88915
#
# Velocity S-wave (km/s) = 4.14970 7.04914 5.78405
# Velocity P-wave (km/s) = 6.49624 9.77844 8.30118
#
# Compressibility (1/GPa) = 0.02764753
#
# Stress axis : x y z
#
# Youngs Moduli (GPa) = 104.07965 33.93048 96.99810
#
# Poissons Ratio (x) = 0.12716 0.34879
# Poissons Ratio (y) = 0.39005 0.34217
# Poissons Ratio (z) = 0.37425 0.11969
#
# Static dielectric constant tensor:
#      x y z
#    x 1.622640 0.000000 0.000000 
#    y 0.000000 1.641720 0.000000 
#    z 0.000000 0.000000 1.658100 
# 
# From -- ./inp_files/15106.got.cif
#   From: 2010.05.17/outbox.cif.g08.bks.cpg/sg38_8_cif.got.tgz:15106.got - 2010.06.03 18:07:57.
