data_PCOD9357905
_publ_section_title
;
Structure prediction by ZEFSAII (Michael W. Deem and Ramdas Pophale) SiO2 
 PCOD9357905
Probable space group: A M M 2
;
_chemical_formula_sum "Si O2"
_cell_formula_units_Z 64
_cell_length_a 19.747648
_cell_length_b 14.991907
_cell_length_c 9.686411
_cell_angle_alpha 90.000000
_cell_angle_beta 90.000000
_cell_angle_gamma 90.000000
_cell_volume 2867.709462
_symmetry_space_group_name_H-M "A M M 2"
_symmetry_group_IT_number 38
_symmetry_cell_setting 'orthorhombic'
loop_
_space_group_symop_operation_xyz
x,y,z
-x,-y,z
-x,y,z
x,-y,z
x,1/2+y,1/2+z
-x,1/2-y,1/2+z
-x,1/2+y,1/2+z
x,1/2-y,1/2+z
loop_
_atom_site_type_symbol
_atom_site_label
_atom_site_fract_x
_atom_site_fract_y
_atom_site_fract_z
Si Si1 0.303910 0.606741 0.458560
Si Si2 0.924143 0.609207 0.745150
Si Si3 0.829435 0.892933 0.475582
Si Si4 0.425038 0.647830 0.979927
Si Si5 0.703486 0.398486 0.145140
Si Si6 0.924820 0.392513 0.223507
Si Si7 0.424596 0.330387 0.651812
Si Si8 0.153727 0.391361 0.484516
O O1 0.302756 0.500000 0.451447
O O2 0.311554 0.639706 0.298509
O O3 0.363635 0.627513 0.565063
O O4 0.230359 0.638124 0.511012
O O5 0.925091 0.500000 0.754082
O O6 0.859136 0.640742 0.832272
O O7 0.904343 0.635534 0.590747
O O8 0.000000 0.638017 0.784250
O O9 0.763216 0.856192 0.552639
O O10 0.893267 0.878691 0.575065
O O11 0.817887 0.000000 0.458065
O O12 0.500000 0.605503 0.986514
O O13 0.412880 0.670068 0.817545
O O14 0.362457 0.597898 0.048885
O O15 0.428521 0.734316 0.078609
O O16 0.727182 0.500000 0.173299
O O17 0.928974 0.500000 0.241041
O O18 0.870884 0.361306 0.335210
O O19 0.000000 0.356186 0.240591
O O20 0.500000 0.372006 0.631728
O O21 0.155545 0.500000 0.488077
#
# Coordination Sequence:
#
# PCOD9357905 Si02
#       8
#     8   8   8   8   8   8   8   8
#     4  10  20  34  53  79 113 149 181 218 266 318
#     4   9  16  24  36  58  92 135 178 218 263 311
#     4   9  16  26  39  62  97 136 175 215 259 308
#     4  10  22  40  61  83 107 137 175 220 267 317
#     4  10  20  34  53  79 113 149 181 218 266 318
#     4   9  14  22  38  58  88 133 178 214 251 301
#     4  10  22  40  61  83 107 137 175 220 267 317
#     4   9  16  26  39  62  97 136 175 215 259 308
#
# _framework density 22.317464000000001
#
# number of rings (size 3 to 8) (size 9 to 14) (size 15 to 20)
#    0.000    2.500    1.250    1.500    1.750    5.500 
#    0.000    2.500    0.000    0.000    0.000    0.000 
#    0.000    6.000    0.000    0.000    0.000    0.000 
#
# Total GULP energy -178319.148348 kJ/mol
# GULP energy per Si atom -5572.473386 kJ/mol
# Density = 2.226667 g / cm^3
# Si number density = 22.317464 Si / 1000 Ang^3
#
#
#
# Elastic Constant Matrix: (Units=GPa)
#
#
# Indices 1 2 3 4 5 6 
#
# 1 123.6623 4.6402 14.7619 0.0000 0.0000 0.0000
# 2 4.6402 39.8968 -4.0841 0.0000 0.0000 0.0000
# 3 14.7619 -4.0841 73.5097 0.0000 0.0000 0.0000
# 4 0.0000 0.0000 0.0000 9.0780 0.0000 0.0000
# 5 0.0000 0.0000 0.0000 0.0000 -55.7862 0.0000
# 6 0.0000 0.0000 0.0000 0.0000 0.0000 36.3776
#
#
#
# Elastic Compliance Matrix: (Units=1/GPa)
#
#
# Indices 1 2 3 4 5 6 
#
# 1 0.008337 -0.001148 -0.001738 0.000000 0.000000 0.000000
# 2 -0.001148 0.025366 0.001640 0.000000 0.000000 0.000000
# 3 -0.001738 0.001640 0.014044 0.000000 0.000000 0.000000
# 4 0.000000 0.000000 0.000000 0.110157 0.000000 0.000000
# 5 0.000000 0.000000 0.000000 0.000000 -0.017926 0.000000
# 6 0.000000 0.000000 0.000000 0.000000 0.000000 0.027489
#
#
# Mechanical properties :
#
#
# Convention : Reuss Voigt Hill
#
# Bulk Modulus (GPa) = 22.09688 29.74497 25.92092
# Shear Modulus (GPa) = 27.02058 12.71726 19.86892
#
# Velocity S-wave (km/s) = 3.48334 2.38971 2.98700
# Velocity P-wave (km/s) = 5.10890 4.57945 4.85140
#
# Compressibility (1/GPa) = 0.04525525
#
# Stress axis : x y z
#
# Youngs Moduli (GPa) = 119.94629 39.42291 71.20598
#
# Poissons Ratio (x) = 0.04524 0.12375
# Poissons Ratio (y) = 0.13764 -0.11676
# Poissons Ratio (z) = 0.20846 -0.06464
#
# Static dielectric constant tensor:
#      x y z
#    x 1.830540 0.000000 0.000000 
#    y 0.000000 1.906110 0.000000 
#    z 0.000000 0.000000 1.798050 
# 
# From -- ./inp_files/6869.got.cif
#   From: 2010.05.17/outbox.cif.g08.bks.cpg/sg38_4_cif.got.tgz:6869.got - 2010.06.03 18:07:57.
