data_PCOD9357035
_publ_section_title
;
Structure prediction by ZEFSAII (Michael W. Deem and Ramdas Pophale) SiO2 
 PCOD9357035
Probable space group: A M M 2
;
_chemical_formula_sum "Si O2"
_cell_formula_units_Z 40
_cell_length_a 7.757791
_cell_length_b 21.355835
_cell_length_c 13.157234
_cell_angle_alpha 90.000000
_cell_angle_beta 90.000000
_cell_angle_gamma 90.000000
_cell_volume 2179.812961
_symmetry_space_group_name_H-M "A M M 2"
_symmetry_group_IT_number 38
_symmetry_cell_setting 'orthorhombic'
loop_
_space_group_symop_operation_xyz
x,y,z
-x,-y,z
-x,y,z
x,-y,z
x,1/2+y,1/2+z
-x,1/2-y,1/2+z
-x,1/2+y,1/2+z
x,1/2-y,1/2+z
loop_
_atom_site_type_symbol
_atom_site_label
_atom_site_fract_x
_atom_site_fract_y
_atom_site_fract_z
Si Si1 0.791810 0.929178 0.533600
Si Si2 0.801321 0.686255 0.634069
Si Si3 0.300428 0.676752 0.192673
Si Si4 0.211078 0.342646 0.852423
Si Si5 0.791341 0.202685 0.913908
O O1 0.743024 0.882927 0.624852
O O2 0.732921 0.896878 0.428512
O O3 0.000000 0.930877 0.530271
O O4 0.728559 0.000000 0.545618
O O5 0.799880 0.761095 0.656419
O O6 0.726106 0.655343 0.735965
O O7 0.724899 0.677739 0.521942
O O8 0.000000 0.665446 0.628469
O O9 0.500000 0.692343 0.179823
O O10 0.263022 0.667335 0.311877
O O11 0.262848 0.275141 0.898156
O O12 0.000000 0.342578 0.849689
O O13 0.000000 0.202782 0.917678
#
# Coordination Sequence:
#
# PCOD9357035 Si02
#       5
#     8   8   8   8   8
#     4  10  19  33  52  71  96 131 171 205 237 288
#     4   9  16  30  51  71  96 128 161 201 246 295
#     4  11  21  30  44  70 104 130 161 202 246 300
#     4   8  14  26  46  72  94 118 158 202 244 281
#     4   9  16  29  50  69  94 127 162 201 242 294
#
# _framework density 18.350200000000001
#
# number of rings (size 3 to 8) (size 9 to 14) (size 15 to 20)
#    0.000    2.600    2.000    3.000    0.000    1.200 
#    0.000    0.000    0.000    1.200    0.000    5.600 
#    0.000    0.000    0.000    0.000    0.000    0.000 
#
# Total GULP energy -111478.159597 kJ/mol
# GULP energy per Si atom -5573.907980 kJ/mol
# Density = 1.830843 g / cm^3
# Si number density = 18.350200 Si / 1000 Ang^3
#
#
#
# Elastic Constant Matrix: (Units=GPa)
#
#
# Indices 1 2 3 4 5 6 
#
# 1 33.8526 -4.9896 -3.7774 0.0000 0.0000 0.0000
# 2 -4.9896 68.5293 51.4853 0.0000 0.0000 0.0000
# 3 -3.7774 51.4853 177.1640 0.0000 0.0000 0.0000
# 4 0.0000 0.0000 0.0000 18.9105 0.0000 0.0000
# 5 0.0000 0.0000 0.0000 0.0000 -26.1374 0.0000
# 6 0.0000 0.0000 0.0000 0.0000 0.0000 -5.2856
#
#
#
# Elastic Compliance Matrix: (Units=1/GPa)
#
#
# Indices 1 2 3 4 5 6 
#
# 1 0.029860 0.002169 0.000006 0.000000 0.000000 0.000000
# 2 0.002169 0.018826 -0.005425 0.000000 0.000000 0.000000
# 3 0.000006 -0.005425 0.007221 0.000000 0.000000 0.000000
# 4 0.000000 0.000000 0.000000 0.052881 0.000000 0.000000
# 5 0.000000 0.000000 0.000000 0.000000 -0.038259 0.000000
# 6 0.000000 0.000000 0.000000 0.000000 0.000000 -0.189193
#
#
# Mechanical properties :
#
#
# Convention : Reuss Voigt Hill
#
# Bulk Modulus (GPa) = 20.23921 40.55363 30.39642
# Shear Modulus (GPa) = -52.24838 13.28601 -19.48118
#
# Velocity S-wave (km/s) = -5.34179 2.69369 -3.26181
# Velocity P-wave (km/s) = 5.19547 5.64114 1.55394
#
# Compressibility (1/GPa) = 0.04940905
#
# Stress axis : x y z
#
# Youngs Moduli (GPa) = 33.48935 53.11876 138.48370
#
# Poissons Ratio (x) = -0.11524 -0.00086
# Poissons Ratio (y) = -0.07265 0.75123
# Poissons Ratio (z) = -0.00021 0.28815
#
# Static dielectric constant tensor:
#      x y z
#    x 1.668730 0.000000 0.000000 
#    y 0.000000 1.588060 0.000000 
#    z 0.000000 0.000000 1.678570 
# 
# From -- ./inp_files/7776.got.cif
#   From: 2010.05.17/outbox.cif.g08.bks.cpg/sg38_4_cif.got.tgz:7776.got - 2010.06.03 18:07:57.
