data_PCOD9357316
_publ_section_title
;
Structure prediction by ZEFSAII (Michael W. Deem and Ramdas Pophale) SiO2 
 PCOD9357316
Probable space group: A M M 2
;
_chemical_formula_sum "Si O2"
_cell_formula_units_Z 64
_cell_length_a 13.053441
_cell_length_b 24.313227
_cell_length_c 10.528222
_cell_angle_alpha 90.000000
_cell_angle_beta 90.000000
_cell_angle_gamma 90.000000
_cell_volume 3341.355231
_symmetry_space_group_name_H-M "A M M 2"
_symmetry_group_IT_number 38
_symmetry_cell_setting 'orthorhombic'
loop_
_space_group_symop_operation_xyz
x,y,z
-x,-y,z
-x,y,z
x,-y,z
x,1/2+y,1/2+z
-x,1/2-y,1/2+z
-x,1/2+y,1/2+z
x,1/2-y,1/2+z
loop_
_atom_site_type_symbol
_atom_site_label
_atom_site_fract_x
_atom_site_fract_y
_atom_site_fract_z
Si Si1 0.117776 0.346604 0.879670
Si Si2 0.621286 0.709181 0.617803
Si Si3 0.117143 0.644799 0.314732
Si Si4 0.112603 0.058664 0.037514
Si Si5 0.270386 0.392605 0.697512
Si Si6 0.181510 0.933867 0.584700
Si Si7 0.615328 0.934523 0.447390
Si Si8 0.262589 0.252092 0.371001
O O1 0.170158 0.359272 0.745107
O O2 0.130569 0.401223 0.966072
O O3 0.186705 0.295502 0.924189
O O4 0.000000 0.331632 0.872062
O O5 0.500000 0.714436 0.628657
O O6 0.657651 0.645668 0.614096
O O7 0.662453 0.735336 0.487970
O O8 0.675178 0.732598 0.745875
O O9 0.118923 0.609794 0.443968
O O10 0.193966 0.695703 0.329481
O O11 0.000000 0.663620 0.290677
O O12 0.147164 0.600847 0.206215
O O13 0.000000 0.061286 0.103376
O O14 0.112759 0.000000 0.966448
O O15 0.212977 0.059629 0.124075
O O16 0.334958 0.408956 0.821163
O O17 0.303324 0.926059 0.559951
O O18 0.159988 0.000000 0.587556
O O19 0.500000 0.913987 0.469945
O O20 0.610823 0.000000 0.427238
#
# Coordination Sequence:
#
# PCOD9357316 Si02
#       8
#     8   8   8   8   8   8   8   8
#     4  10  21  36  57  86 118 155 194 244 300 359
#     4  11  23  40  62  86 117 155 205 261 319 371
#     4  11  22  38  59  87 121 164 202 243 301 367
#     4  10  20  34  55  84 119 158 197 239 294 361
#     4  10  19  35  55  83 115 149 197 245 303 362
#     4  10  21  37  59  89 125 160 203 253 305 372
#     4   9  18  34  57  83 113 154 201 251 307 360
#     4  11  23  42  62  90 121 161 209 260 310 374
#
# _framework density 19.153904000000001
#
# number of rings (size 3 to 8) (size 9 to 14) (size 15 to 20)
#    0.000    1.750    1.250    3.375    0.000    2.000 
#    0.000    6.875    0.000    0.000    0.000    0.000 
#    0.000    0.000    0.000    0.000    0.000    0.000 
#
# Total GULP energy -178342.186805 kJ/mol
# GULP energy per Si atom -5573.193338 kJ/mol
# Density = 1.911031 g / cm^3
# Si number density = 19.153904 Si / 1000 Ang^3
#
#
#
# Elastic Constant Matrix: (Units=GPa)
#
#
# Indices 1 2 3 4 5 6 
#
# 1 164.2807 54.5687 43.2797 0.0000 0.0000 0.0000
# 2 54.5687 94.8733 22.3213 0.0000 0.0000 0.0000
# 3 43.2797 22.3213 61.7970 0.0000 0.0000 0.0000
# 4 0.0000 0.0000 0.0000 27.9871 0.0000 0.0000
# 5 0.0000 0.0000 0.0000 0.0000 23.3924 0.0000
# 6 0.0000 0.0000 0.0000 0.0000 0.0000 20.4172
#
#
#
# Elastic Compliance Matrix: (Units=1/GPa)
#
#
# Indices 1 2 3 4 5 6 
#
# 1 0.008583 -0.003850 -0.004621 0.000000 0.000000 0.000000
# 2 -0.003850 0.013246 -0.002088 0.000000 0.000000 0.000000
# 3 -0.004621 -0.002088 0.020173 0.000000 0.000000 0.000000
# 4 0.000000 0.000000 0.000000 0.035731 0.000000 0.000000
# 5 0.000000 0.000000 0.000000 0.000000 0.042749 0.000000
# 6 0.000000 0.000000 0.000000 0.000000 0.000000 0.048978
#
#
# Mechanical properties :
#
#
# Convention : Reuss Voigt Hill
#
# Bulk Modulus (GPa) = 47.88337 62.36559 55.12448
# Shear Modulus (GPa) = 25.31151 27.74476 26.52814
#
# Velocity S-wave (km/s) = 3.63916 3.81007 3.72559
# Velocity P-wave (km/s) = 6.53541 7.21016 6.88106
#
# Compressibility (1/GPa) = 0.02088408
#
# Stress axis : x y z
#
# Youngs Moduli (GPa) = 116.50635 75.49477 49.57240
#
# Poissons Ratio (x) = 0.29063 0.22906
# Poissons Ratio (y) = 0.44851 0.10352
# Poissons Ratio (z) = 0.53835 0.15766
#
# Static dielectric constant tensor:
#      x y z
#    x 1.675030 0.000000 0.000000 
#    y 0.000000 1.702840 0.000000 
#    z 0.000000 0.000000 1.681390 
# 
# From -- ./inp_files/9558.got.cif
#   From: 2010.05.17/outbox.cif.g08.bks.cpg/sg38_5_cif.got.tgz:9558.got - 2010.06.03 18:07:57.
