data_PCOD9357703
_publ_section_title
;
Structure prediction by ZEFSAII (Michael W. Deem and Ramdas Pophale) SiO2 
 PCOD9357703
Probable space group: A M M 2
;
_chemical_formula_sum "Si O2"
_cell_formula_units_Z 64
_cell_length_a 7.841710
_cell_length_b 20.480391
_cell_length_c 21.453410
_cell_angle_alpha 90.000000
_cell_angle_beta 90.000000
_cell_angle_gamma 90.000000
_cell_volume 3445.445255
_symmetry_space_group_name_H-M "A M M 2"
_symmetry_group_IT_number 38
_symmetry_cell_setting 'orthorhombic'
loop_
_space_group_symop_operation_xyz
x,y,z
-x,-y,z
-x,y,z
x,-y,z
x,1/2+y,1/2+z
-x,1/2-y,1/2+z
-x,1/2+y,1/2+z
x,1/2-y,1/2+z
loop_
_atom_site_type_symbol
_atom_site_label
_atom_site_fract_x
_atom_site_fract_y
_atom_site_fract_z
Si Si1 0.798642 0.210967 0.649210
Si Si2 0.794830 0.789712 0.270105
Si Si3 0.292009 0.927695 0.839519
Si Si4 0.794452 0.428217 0.727821
Si Si5 0.294180 0.428024 0.581981
Si Si6 0.705471 0.927753 0.694687
Si Si7 0.705805 0.709075 0.392083
Si Si8 0.704020 0.207726 0.028746
O O1 0.728058 0.247650 0.711020
O O2 0.762264 0.134326 0.655586
O O3 0.736565 0.243862 0.585813
O O4 0.000000 0.220399 0.650194
O O5 0.731426 0.864128 0.263600
O O6 0.754625 0.755252 0.334994
O O7 0.000000 0.791489 0.264898
O O8 0.500000 0.927943 0.840875
O O9 0.240887 0.919251 0.767036
O O10 0.234251 0.864858 0.877580
O O11 0.236752 0.000000 0.860487
O O12 0.730400 0.500000 0.747580
O O13 0.750473 0.420237 0.654853
O O14 0.000000 0.429381 0.732806
O O15 0.500000 0.428590 0.576759
O O16 0.232558 0.500000 0.561750
O O17 0.228800 0.364576 0.545983
O O18 0.500000 0.928136 0.694700
O O19 0.763529 0.000000 0.674132
O O20 0.500000 0.707589 0.392354
O O21 0.766996 0.729328 0.460729
O O22 0.500000 0.201559 0.023915
#
# Coordination Sequence:
#
# PCOD9357703 Si02
#       8
#     8   8   8   8   8   8   8   8
#     4  11  21  33  52  77 103 135 173 213 255 300
#     4  10  20  33  50  75 101 129 168 211 256 300
#     4   8  14  26  46  72 100 130 165 201 240 292
#     4   9  17  31  51  73  98 128 164 205 248 299
#     4   9  17  29  46  71 102 133 165 204 249 293
#     4   9  17  31  53  79 104 132 167 209 257 303
#     4  10  20  33  51  74 100 135 173 208 251 299
#     4  10  21  34  49  73 104 137 173 211 253 305
#
# _framework density 18.575248999999999
#
# number of rings (size 3 to 8) (size 9 to 14) (size 15 to 20)
#    0.000    2.500    2.500    1.125    0.000    2.250 
#    0.000    2.500    0.000    1.125    0.000    5.250 
#    0.000    0.000    0.000    0.000    0.000    0.000 
#
# Total GULP energy -178433.777642 kJ/mol
# GULP energy per Si atom -5576.055551 kJ/mol
# Density = 1.853297 g / cm^3
# Si number density = 18.575249 Si / 1000 Ang^3
#
#
#
# Elastic Constant Matrix: (Units=GPa)
#
#
# Indices 1 2 3 4 5 6 
#
# 1 18.1728 9.6265 5.8504 0.0000 0.0000 0.0000
# 2 9.6265 146.7368 91.4342 0.0000 0.0000 0.0000
# 3 5.8504 91.4342 129.2368 0.0000 0.0000 0.0000
# 4 0.0000 0.0000 0.0000 16.4629 0.0000 0.0000
# 5 0.0000 0.0000 0.0000 0.0000 36.5129 0.0000
# 6 0.0000 0.0000 0.0000 0.0000 0.0000 7.1938
#
#
#
# Elastic Compliance Matrix: (Units=1/GPa)
#
#
# Indices 1 2 3 4 5 6 
#
# 1 0.057010 -0.003813 0.000117 0.000000 0.000000 0.000000
# 2 -0.003813 0.012443 -0.008631 0.000000 0.000000 0.000000
# 3 0.000117 -0.008631 0.013839 0.000000 0.000000 0.000000
# 4 0.000000 0.000000 0.000000 0.060742 0.000000 0.000000
# 5 0.000000 0.000000 0.000000 0.000000 0.027388 0.000000
# 6 0.000000 0.000000 0.000000 0.000000 0.000000 0.139008
#
#
# Mechanical properties :
#
#
# Convention : Reuss Voigt Hill
#
# Bulk Modulus (GPa) = 17.05389 56.44096 36.74742
# Shear Modulus (GPa) = 14.09924 24.51628 19.30776
#
# Velocity S-wave (km/s) = 2.75805 3.63690 3.22752
# Velocity P-wave (km/s) = 4.39810 6.93448 5.80648
#
# Compressibility (1/GPa) = 0.05863766
#
# Stress axis : x y z
#
# Youngs Moduli (GPa) = 17.54091 80.36616 72.26133
#
# Poissons Ratio (x) = 0.30642 -0.00844
# Poissons Ratio (y) = 0.06688 0.62367
# Poissons Ratio (z) = -0.00205 0.69362
#
# Static dielectric constant tensor:
#      x y z
#    x 1.630570 0.000000 0.000000 
#    y 0.000000 1.673050 0.000000 
#    z 0.000000 0.000000 1.625730 
# 
# From -- ./inp_files/17160.got.cif
#   From: 2010.05.17/outbox.cif.g08.bks.cpg/sg38_9_cif.got.tgz:17160.got - 2010.06.03 18:07:57.
