data_PCOD9357897
_publ_section_title
;
Structure prediction by ZEFSAII (Michael W. Deem and Ramdas Pophale) SiO2 
 PCOD9357897
Probable space group: A M M 2
;
_chemical_formula_sum "Si O2"
_cell_formula_units_Z 64
_cell_length_a 20.951675
_cell_length_b 8.503130
_cell_length_c 19.089377
_cell_angle_alpha 90.000000
_cell_angle_beta 90.000000
_cell_angle_gamma 90.000000
_cell_volume 3400.864452
_symmetry_space_group_name_H-M "A M M 2"
_symmetry_group_IT_number 38
_symmetry_cell_setting 'orthorhombic'
loop_
_space_group_symop_operation_xyz
x,y,z
-x,-y,z
-x,y,z
x,-y,z
x,1/2+y,1/2+z
-x,1/2-y,1/2+z
-x,1/2+y,1/2+z
x,1/2-y,1/2+z
loop_
_atom_site_type_symbol
_atom_site_label
_atom_site_fract_x
_atom_site_fract_y
_atom_site_fract_z
Si Si1 0.689829 0.686187 0.634510
Si Si2 0.191506 0.190064 0.382036
Si Si3 0.072267 0.808367 0.634128
Si Si4 0.927878 0.308371 0.972918
Si Si5 0.688161 0.190298 0.477108
Si Si6 0.573171 0.189826 0.378091
Si Si7 0.807869 0.811764 0.724600
Si Si8 0.426372 0.688168 0.223082
O O1 0.695678 0.500000 0.638340
O O2 0.692731 0.741831 0.554498
O O3 0.747298 0.760997 0.678901
O O4 0.623340 0.738399 0.669457
O O5 0.126622 0.245280 0.419983
O O6 0.251820 0.237936 0.429271
O O7 0.196835 0.249127 0.303201
O O8 0.190887 0.000000 0.380687
O O9 0.085571 0.761709 0.553482
O O10 0.127441 0.754090 0.686205
O O11 0.000000 0.758303 0.652206
O O12 0.072493 0.000000 0.634947
O O13 0.927455 0.500000 0.972243
O O14 0.000000 0.258225 0.954936
O O15 0.623544 0.238175 0.436925
O O16 0.688593 0.000000 0.482320
O O17 0.500000 0.234573 0.394468
O O18 0.589922 0.259717 0.302260
O O19 0.575793 0.000000 0.372347
O O20 0.809935 0.000000 0.726628
O O21 0.500000 0.736750 0.210243
O O22 0.422988 0.500000 0.218353
#
# Coordination Sequence:
#
# PCOD9357897 Si02
#       8
#     8   8   8   8   8   8   8   8
#     4  12  25  39  57  81 111 146 185 231 278 326
#     4  10  20  34  53  78 108 142 181 225 274 327
#     4   8  15  30  53  80 108 141 183 227 272 324
#     4   8  14  27  49  75 103 138 180 223 267 320
#     4  10  21  37  56  78 106 142 183 226 273 324
#     4   9  18  34  57  84 114 147 181 219 266 320
#     4  11  22  36  56  81 111 147 186 229 276 327
#     4  10  21  38  61  87 115 147 183 224 270 323
#
# _framework density 18.818743999999999
#
# number of rings (size 3 to 8) (size 9 to 14) (size 15 to 20)
#    0.000    2.250    0.000    4.125    0.000    5.750 
#    0.000    1.250    0.000    1.125    0.000    3.500 
#    0.000    0.000    0.000    0.000    0.000    0.000 
#
# Total GULP energy -178683.630675 kJ/mol
# GULP energy per Si atom -5583.863459 kJ/mol
# Density = 1.877591 g / cm^3
# Si number density = 18.818744 Si / 1000 Ang^3
#
#
#
# Elastic Constant Matrix: (Units=GPa)
#
#
# Indices 1 2 3 4 5 6 
#
# 1 125.7777 22.8963 108.6143 0.0000 0.0000 0.0000
# 2 22.8963 13.8849 24.5222 0.0000 0.0000 0.0000
# 3 108.6143 24.5222 166.4756 0.0000 0.0000 0.0000
# 4 0.0000 0.0000 0.0000 31.6690 0.0000 0.0000
# 5 0.0000 0.0000 0.0000 0.0000 44.2191 0.0000
# 6 0.0000 0.0000 0.0000 0.0000 0.0000 -3.2138
#
#
#
# Elastic Compliance Matrix: (Units=1/GPa)
#
#
# Indices 1 2 3 4 5 6 
#
# 1 0.019887 -0.013352 -0.011008 0.000000 0.000000 0.000000
# 2 -0.013352 0.106310 -0.006948 0.000000 0.000000 0.000000
# 3 -0.011008 -0.006948 0.014213 0.000000 0.000000 0.000000
# 4 0.000000 0.000000 0.000000 0.031577 0.000000 0.000000
# 5 0.000000 0.000000 0.000000 0.000000 0.022615 0.000000
# 6 0.000000 0.000000 0.000000 0.000000 0.000000 -0.311160
#
#
# Mechanical properties :
#
#
# Convention : Reuss Voigt Hill
#
# Bulk Modulus (GPa) = 12.85476 68.68930 40.77203
# Shear Modulus (GPa) = -178.50678 24.54189 -76.98244
#
# Velocity S-wave (km/s) = -9.74996 3.61518 -6.40282
# Velocity P-wave (km/s) = 10.95004 7.34886 5.74011
#
# Compressibility (1/GPa) = 0.07779218
#
# Stress axis : x y z
#
# Youngs Moduli (GPa) = 50.28333 9.40645 70.36032
#
# Poissons Ratio (x) = 0.12560 0.77455
# Poissons Ratio (y) = 0.67140 0.48887
# Poissons Ratio (z) = 0.55353 0.06536
#
# Static dielectric constant tensor:
#      x y z
#    x 1.657330 0.000000 0.000000 
#    y 0.000000 1.646530 0.000000 
#    z 0.000000 0.000000 1.608810 
# 
# From -- ./inp_files/18850.got.cif
#   From: 2010.05.17/outbox.cif.g08.bks.cpg/sg38_10_cif.got.tgz:18850.got - 2010.06.03 18:07:57.
