data_PCOD9357089
_publ_section_title
;
Structure prediction by ZEFSAII (Michael W. Deem and Ramdas Pophale) SiO2 
 PCOD9357089
Probable space group: A M M 2
;
_chemical_formula_sum "Si O2"
_cell_formula_units_Z 64
_cell_length_a 16.088555
_cell_length_b 7.642805
_cell_length_c 24.410989
_cell_angle_alpha 90.000000
_cell_angle_beta 90.000000
_cell_angle_gamma 90.000000
_cell_volume 3001.616428
_symmetry_space_group_name_H-M "A M M 2"
_symmetry_group_IT_number 38
_symmetry_cell_setting 'orthorhombic'
loop_
_space_group_symop_operation_xyz
x,y,z
-x,-y,z
-x,y,z
x,-y,z
x,1/2+y,1/2+z
-x,1/2-y,1/2+z
-x,1/2+y,1/2+z
x,1/2-y,1/2+z
loop_
_atom_site_type_symbol
_atom_site_label
_atom_site_fract_x
_atom_site_fract_y
_atom_site_fract_z
Si Si1 0.247273 0.715428 0.034880
Si Si2 0.344836 0.788316 0.850249
Si Si3 0.408672 0.293079 0.969864
Si Si4 0.091237 0.289630 0.963512
Si Si5 0.908314 0.203224 0.224925
Si Si6 0.153381 0.291758 0.343250
Si Si7 0.407452 0.214184 0.731884
Si Si8 0.254818 0.205015 0.658935
O O1 0.246087 0.500000 0.033703
O O2 0.245176 0.775324 0.097654
O O3 0.331303 0.775795 0.004836
O O4 0.167143 0.775137 0.000554
O O5 0.387779 0.728007 0.905811
O O6 0.248803 0.729228 0.848009
O O7 0.389694 0.732337 0.794504
O O8 0.344884 0.000000 0.851362
O O9 0.500000 0.218375 0.981668
O O10 0.412132 0.500000 0.981472
O O11 0.090454 0.500000 0.968413
O O12 0.108446 0.247655 0.900118
O O13 0.000000 0.223822 0.979591
O O14 0.890548 0.216381 0.289743
O O15 0.830260 0.282109 0.193014
O O16 0.000000 0.278849 0.213188
O O17 0.909692 0.000000 0.209718
O O18 0.155653 0.500000 0.335104
O O19 0.500000 0.267470 0.714645
O O20 0.332279 0.277879 0.693654
O O21 0.405499 0.000000 0.731817
O O22 0.273492 0.000000 0.652114
#
# Coordination Sequence:
#
# PCOD9357089 Si02
#       8
#     8   8   8   8   8   8   8   8
#     4   9  19  35  55  79 110 145 184 231 272 314
#     4  10  19  33  54  80 110 144 181 222 275 331
#     4  10  20  34  54  82 113 146 184 224 271 327
#     4  10  20  35  55  79 109 146 182 218 274 337
#     4  11  24  40  58  82 113 148 181 222 283 342
#     4  11  21  35  58  86 111 140 182 227 273 328
#     4   9  17  31  53  81 111 140 175 223 275 323
#     4  10  20  37  59  83 109 145 193 235 271 318
#
# _framework density 21.321843999999999
#
# number of rings (size 3 to 8) (size 9 to 14) (size 15 to 20)
#    0.000    2.000    2.500    1.500    0.000    5.000 
#    0.000    5.000    0.000    0.375    0.000    0.000 
#    0.000    0.000    0.000    0.000    0.000    0.000 
#
# Total GULP energy -178782.582907 kJ/mol
# GULP energy per Si atom -5586.955716 kJ/mol
# Density = 2.127331 g / cm^3
# Si number density = 21.321844 Si / 1000 Ang^3
#
#
#
# Elastic Constant Matrix: (Units=GPa)
#
#
# Indices 1 2 3 4 5 6 
#
# 1 201.7548 0.2096 81.4449 0.0000 0.0000 0.0000
# 2 0.2096 38.4387 -8.5797 0.0000 0.0000 0.0000
# 3 81.4449 -8.5797 149.3241 0.0000 0.0000 0.0000
# 4 0.0000 0.0000 0.0000 320.1324 0.0000 0.0000
# 5 0.0000 0.0000 0.0000 0.0000 7.8823 0.0000
# 6 0.0000 0.0000 0.0000 0.0000 0.0000 6.1055
#
#
#
# Elastic Compliance Matrix: (Units=1/GPa)
#
#
# Indices 1 2 3 4 5 6 
#
# 1 0.006382 -0.000822 -0.003528 0.000000 0.000000 0.000000
# 2 -0.000822 0.026459 0.001969 0.000000 0.000000 0.000000
# 3 -0.003528 0.001969 0.008734 0.000000 0.000000 0.000000
# 4 0.000000 0.000000 0.000000 0.003124 0.000000 0.000000
# 5 0.000000 0.000000 0.000000 0.000000 0.126867 0.000000
# 6 0.000000 0.000000 0.000000 0.000000 0.000000 0.163786
#
#
# Mechanical properties :
#
#
# Convention : Reuss Voigt Hill
#
# Bulk Modulus (GPa) = 27.16484 59.51859 43.34171
# Shear Modulus (GPa) = 14.18902 87.92023 51.05462
#
# Velocity S-wave (km/s) = 2.58247 6.42840 4.89865
# Velocity P-wave (km/s) = 4.65405 9.11450 7.23651
#
# Compressibility (1/GPa) = 0.03681229
#
# Stress axis : x y z
#
# Youngs Moduli (GPa) = 156.70285 37.79379 114.49318
#
# Poissons Ratio (x) = 0.03108 0.40392
# Poissons Ratio (y) = 0.12885 -0.22541
# Poissons Ratio (z) = 0.55283 -0.07441
#
# Static dielectric constant tensor:
#      x y z
#    x 1.776210 0.000000 0.000000 
#    y 0.000000 1.744260 0.000000 
#    z 0.000000 0.000000 1.718130 
# 
# From -- ./inp_files/22945.got.cif
#   From: 2010.05.17/outbox.cif.g08.bks.cpg/sg38_12_cif.got.tgz:22945.got - 2010.06.03 18:07:57.
