data_PCOD9357559
_publ_section_title
;
Structure prediction by ZEFSAII (Michael W. Deem and Ramdas Pophale) SiO2 
 PCOD9357559
Probable space group: A M M 2
;
_chemical_formula_sum "Si O2"
_cell_formula_units_Z 64
_cell_length_a 8.828482
_cell_length_b 30.863640
_cell_length_c 14.857392
_cell_angle_alpha 90.000000
_cell_angle_beta 90.000000
_cell_angle_gamma 90.000000
_cell_volume 4048.328655
_symmetry_space_group_name_H-M "A M M 2"
_symmetry_group_IT_number 38
_symmetry_cell_setting 'orthorhombic'
loop_
_space_group_symop_operation_xyz
x,y,z
-x,-y,z
-x,y,z
x,-y,z
x,1/2+y,1/2+z
-x,1/2-y,1/2+z
-x,1/2+y,1/2+z
x,1/2-y,1/2+z
loop_
_atom_site_type_symbol
_atom_site_label
_atom_site_fract_x
_atom_site_fract_y
_atom_site_fract_z
Si Si1 0.317675 0.788488 0.660880
Si Si2 0.181238 0.048988 0.039495
Si Si3 0.178536 0.866137 0.771525
Si Si4 0.675246 0.222851 0.454400
Si Si5 0.181344 0.137250 0.122413
Si Si6 0.180141 0.293527 0.768703
Si Si7 0.673748 0.673807 0.443855
Si Si8 0.318911 0.549907 0.341941
O O1 0.500000 0.786684 0.665192
O O2 0.258982 0.833264 0.703027
O O3 0.270301 0.785275 0.556190
O O4 0.254808 0.747776 0.718191
O O5 0.215945 0.086279 0.111710
O O6 0.000000 0.050291 0.022867
O O7 0.221120 0.000000 0.067283
O O8 0.262480 0.058186 0.944394
O O9 0.217252 0.846155 0.869345
O O10 0.244879 0.914564 0.777125
O O11 0.000000 0.866770 0.756090
O O12 0.500000 0.208682 0.449167
O O13 0.766369 0.203279 0.371398
O O14 0.678491 0.274502 0.439283
O O15 0.218548 0.162994 0.213030
O O16 0.000000 0.142353 0.107752
O O17 0.271330 0.159735 0.041629
O O18 0.000000 0.287103 0.765824
O O19 0.500000 0.659739 0.426902
O O20 0.500000 0.553693 0.339258
O O21 0.277197 0.500000 0.320947
#
# Coordination Sequence:
#
# PCOD9357559 Si02
#       8
#     8   8   8   8   8   8   8   8
#     4  11  22  37  53  71  97 131 173 213 251 300
#     4   9  17  30  48  70 100 136 170 207 251 298
#     4  12  23  34  50  75 103 136 171 207 254 304
#     4  10  22  37  52  70  98 135 174 214 252 295
#     4  10  20  32  47  73 103 135 172 209 250 300
#     4  11  22  33  50  74 102 133 168 210 255 304
#     4  11  20  31  49  72 100 137 173 208 247 292
#     4  10  20  33  50  74 103 134 169 207 248 298
#
# _framework density 15.808992
#
# number of rings (size 3 to 8) (size 9 to 14) (size 15 to 20)
#    0.000    1.500    3.750    2.625    0.000    2.750 
#    0.000    0.000    0.000    0.000    0.000    0.875 
#    0.000    3.000    0.000    0.000    0.000    0.000 
#
# Total GULP energy -178576.676079 kJ/mol
# GULP energy per Si atom -5580.521127 kJ/mol
# Density = 1.577301 g / cm^3
# Si number density = 15.808992 Si / 1000 Ang^3
#
#
#
# Elastic Constant Matrix: (Units=GPa)
#
#
# Indices 1 2 3 4 5 6 
#
# 1 44.9787 30.8785 30.7205 0.0000 0.0000 0.0000
# 2 30.8785 95.5940 36.0312 0.0000 0.0000 0.0000
# 3 30.7205 36.0312 82.6410 0.0000 0.0000 0.0000
# 4 0.0000 0.0000 0.0000 22.5034 0.0000 0.0000
# 5 0.0000 0.0000 0.0000 0.0000 20.9972 0.0000
# 6 0.0000 0.0000 0.0000 0.0000 0.0000 14.4035
#
#
#
# Elastic Compliance Matrix: (Units=1/GPa)
#
#
# Indices 1 2 3 4 5 6 
#
# 1 0.033634 -0.007361 -0.009293 0.000000 0.000000 0.000000
# 2 -0.007361 0.014129 -0.003424 0.000000 0.000000 0.000000
# 3 -0.009293 -0.003424 0.017048 0.000000 0.000000 0.000000
# 4 0.000000 0.000000 0.000000 0.044438 0.000000 0.000000
# 5 0.000000 0.000000 0.000000 0.000000 0.047626 0.000000
# 6 0.000000 0.000000 0.000000 0.000000 0.000000 0.069428
#
#
# Mechanical properties :
#
#
# Convention : Reuss Voigt Hill
#
# Bulk Modulus (GPa) = 40.56148 46.49711 43.52929
# Shear Modulus (GPa) = 18.20320 19.95304 19.07812
#
# Velocity S-wave (km/s) = 3.39698 3.55650 3.47766
# Velocity P-wave (km/s) = 6.41084 6.80739 6.61209
#
# Compressibility (1/GPa) = 0.02465393
#
# Stress axis : x y z
#
# Youngs Moduli (GPa) = 29.73201 70.77491 58.65816
#
# Poissons Ratio (x) = 0.52101 0.54512
# Poissons Ratio (y) = 0.21887 0.20084
# Poissons Ratio (z) = 0.27631 0.24232
#
# Static dielectric constant tensor:
#      x y z
#    x 1.534380 0.000000 0.000000 
#    y 0.000000 1.547590 0.000000 
#    z 0.000000 0.000000 1.509250 
# 
# From -- ./inp_files/13065.got.cif
#   From: 2010.05.17/outbox.cif.g08.bks.cpg/sg38_7_cif.got.tgz:13065.got - 2010.06.03 18:07:57.
