data_PCOD9357902
_publ_section_title
;
Structure prediction by ZEFSAII (Michael W. Deem and Ramdas Pophale) SiO2 
 PCOD9357902
Probable space group: A M M 2
;
_chemical_formula_sum "Si O2"
_cell_formula_units_Z 52
_cell_length_a 17.340463
_cell_length_b 10.842951
_cell_length_c 12.746903
_cell_angle_alpha 90.000000
_cell_angle_beta 90.000000
_cell_angle_gamma 90.000000
_cell_volume 2396.695527
_symmetry_space_group_name_H-M "A M M 2"
_symmetry_group_IT_number 38
_symmetry_cell_setting 'orthorhombic'
loop_
_space_group_symop_operation_xyz
x,y,z
-x,-y,z
-x,y,z
x,-y,z
x,1/2+y,1/2+z
-x,1/2-y,1/2+z
-x,1/2+y,1/2+z
x,1/2-y,1/2+z
loop_
_atom_site_type_symbol
_atom_site_label
_atom_site_fract_x
_atom_site_fract_y
_atom_site_fract_z
Si Si1 0.713613 0.786337 0.411720
Si Si2 0.089598 0.000000 0.706168
Si Si3 0.335679 0.865580 0.192832
Si Si4 0.908978 0.500000 0.859578
Si Si5 0.591278 0.356640 0.297086
Si Si6 0.807424 0.138450 0.038090
Si Si7 0.778969 0.000000 0.535826
Si Si8 0.912518 0.231353 0.212924
O O1 0.712494 0.858956 0.302042
O O2 0.637439 0.701759 0.396182
O O3 0.784953 0.694587 0.426935
O O4 0.725539 0.882959 0.506104
O O5 0.091015 0.132316 0.760989
O O6 0.171262 0.000000 0.641816
O O7 0.000000 0.000000 0.656137
O O8 0.386487 0.741615 0.205138
O O9 0.274466 0.863453 0.099744
O O10 0.376220 0.000000 0.190486
O O11 0.849798 0.500000 0.953894
O O12 0.893550 0.620667 0.790211
O O13 0.000000 0.500000 0.889173
O O14 0.500000 0.353948 0.313432
O O15 0.614372 0.500000 0.278474
O O16 0.861793 0.222675 0.108404
O O17 0.837916 0.000000 0.033592
O O18 0.000000 0.208925 0.179202
#
# Coordination Sequence:
#
# PCOD9357902 Si02
#       8
#     8   4   8   4   8   8   4   8
#     4  10  20  34  55  87 112 147 189 233 280 338
#     4  10  21  36  52  76 115 153 183 232 291 335
#     4   9  20  37  56  84 112 146 183 233 279 335
#     4  10  21  36  60  82 107 155 200 238 280 334
#     4   9  19  38  59  82 116 150 181 229 291 348
#     4  11  20  35  59  82 115 149 191 235 280 337
#     4  12  19  36  55  84 116 144 193 240 276 337
#     4  10  20  34  53  79 109 147 190 230 280 334
#
# _framework density 21.696539999999999
#
# number of rings (size 3 to 8) (size 9 to 14) (size 15 to 20)
#    0.923    1.077    3.077    1.615    0.000    0.308 
#    2.769    0.769    1.692    0.923    0.000    5.385 
#    0.000    0.000    0.000    0.000    0.000    0.000 
#
# Total GULP energy -144747.024899 kJ/mol
# GULP energy per Si atom -5567.193265 kJ/mol
# Density = 2.164716 g / cm^3
# Si number density = 21.696540 Si / 1000 Ang^3
#
#
#
# Elastic Constant Matrix: (Units=GPa)
#
#
# Indices 1 2 3 4 5 6 
#
# 1 82.8893 42.8634 13.0988 0.0000 0.0000 0.0000
# 2 42.8634 181.5632 13.1211 0.0000 0.0000 0.0000
# 3 13.0988 13.1211 20.2837 0.0000 0.0000 0.0000
# 4 0.0000 0.0000 0.0000 13.1913 0.0000 0.0000
# 5 0.0000 0.0000 0.0000 0.0000 15.8543 0.0000
# 6 0.0000 0.0000 0.0000 0.0000 0.0000 36.2149
#
#
#
# Elastic Compliance Matrix: (Units=1/GPa)
#
#
# Indices 1 2 3 4 5 6 
#
# 1 0.014794 -0.002939 -0.007652 0.000000 0.000000 0.000000
# 2 -0.002939 0.006362 -0.002217 0.000000 0.000000 0.000000
# 3 -0.007652 -0.002217 0.055676 0.000000 0.000000 0.000000
# 4 0.000000 0.000000 0.000000 0.075808 0.000000 0.000000
# 5 0.000000 0.000000 0.000000 0.000000 0.063074 0.000000
# 6 0.000000 0.000000 0.000000 0.000000 0.000000 0.027613
#
#
# Mechanical properties :
#
#
# Convention : Reuss Voigt Hill
#
# Bulk Modulus (GPa) = 19.52557 46.98918 33.25738
# Shear Modulus (GPa) = 17.48159 27.42898 22.45529
#
# Velocity S-wave (km/s) = 2.84162 3.55943 3.22059
# Velocity P-wave (km/s) = 4.44807 6.21266 5.40289
#
# Compressibility (1/GPa) = 0.05121490
#
# Stress axis : x y z
#
# Youngs Moduli (GPa) = 67.59714 157.18571 17.96093
#
# Poissons Ratio (x) = 0.46204 0.13743
# Poissons Ratio (y) = 0.19870 0.03982
# Poissons Ratio (z) = 0.51724 0.34850
#
# Static dielectric constant tensor:
#      x y z
#    x 1.779620 0.000000 0.000000 
#    y 0.000000 1.904330 0.000000 
#    z 0.000000 0.000000 1.802600 
# 
# From -- ./inp_files/15202.got.cif
#   From: 2010.05.17/outbox.cif.g08.bks.cpg/sg38_8_cif.got.tgz:15202.got - 2010.06.03 18:07:57.
