data_PCOD9357834
_publ_section_title
;
Structure prediction by ZEFSAII (Michael W. Deem and Ramdas Pophale) SiO2 
 PCOD9357834
Probable space group: A M M 2
;
_chemical_formula_sum "Si O2"
_cell_formula_units_Z 56
_cell_length_a 16.383795
_cell_length_b 7.500690
_cell_length_c 20.464744
_cell_angle_alpha 90.000000
_cell_angle_beta 90.000000
_cell_angle_gamma 90.000000
_cell_volume 2514.907628
_symmetry_space_group_name_H-M "A M M 2"
_symmetry_group_IT_number 38
_symmetry_cell_setting 'orthorhombic'
loop_
_space_group_symop_operation_xyz
x,y,z
-x,-y,z
-x,y,z
x,-y,z
x,1/2+y,1/2+z
-x,1/2-y,1/2+z
-x,1/2+y,1/2+z
x,1/2-y,1/2+z
loop_
_atom_site_type_symbol
_atom_site_label
_atom_site_fract_x
_atom_site_fract_y
_atom_site_fract_z
Si Si1 0.586485 0.792711 0.572890
Si Si2 0.810672 0.784659 0.680583
Si Si3 0.764351 0.716214 0.039546
Si Si4 0.233294 0.291587 0.395534
Si Si5 0.090867 0.218173 0.801067
Si Si6 0.411189 0.294213 0.365218
Si Si7 0.372721 0.792827 0.219203
O O1 0.500000 0.711611 0.552789
O O2 0.670829 0.716266 0.546352
O O3 0.593401 0.785204 0.651671
O O4 0.585688 0.000000 0.553841
O O5 0.810167 0.724861 0.605362
O O6 0.883688 0.729898 0.727604
O O7 0.725040 0.727178 0.712973
O O8 0.808697 0.000000 0.679737
O O9 0.763223 0.500000 0.040111
O O10 0.795900 0.776349 0.969883
O O11 0.242313 0.500000 0.377588
O O12 0.163603 0.218329 0.348121
O O13 0.325091 0.213146 0.389465
O O14 0.000000 0.277892 0.818352
O O15 0.090485 0.000000 0.803850
O O16 0.500000 0.214823 0.382978
O O17 0.412908 0.500000 0.387175
O O18 0.403306 0.290685 0.286339
O O19 0.394461 0.000000 0.220910
#
# Coordination Sequence:
#
# PCOD9357834 Si02
#       7
#     8   8   8   8   8   8   8
#     4   9  18  33  51  70  98 141 188 227 266 317
#     4   9  17  35  58  78 104 139 179 219 263 320
#     4   9  19  33  52  76 105 142 177 214 265 319
#     4  10  20  35  54  78 109 142 178 220 265 316
#     4   9  17  33  61  88 104 130 180 230 266 313
#     4  10  20  34  51  71 101 145 188 220 259 315
#     4  11  20  29  47  77 109 137 172 224 278 317
#
# _framework density 22.267219999999998
#
# number of rings (size 3 to 8) (size 9 to 14) (size 15 to 20)
#    0.000    2.429    1.429    2.571    0.000    5.714 
#    0.000    0.714    0.000    2.571    0.000    0.000 
#    0.000    0.000    0.000    0.000    0.000    0.000 
#
# Total GULP energy -156320.450383 kJ/mol
# GULP energy per Si atom -5582.873228 kJ/mol
# Density = 2.221654 g / cm^3
# Si number density = 22.267220 Si / 1000 Ang^3
#
#
#
# Elastic Constant Matrix: (Units=GPa)
#
#
# Indices 1 2 3 4 5 6 
#
# 1 138.0160 7.8734 59.4232 0.0000 0.0000 0.0000
# 2 7.8734 67.1940 -5.1818 0.0000 0.0000 0.0000
# 3 59.4232 -5.1818 115.1059 0.0000 0.0000 0.0000
# 4 0.0000 0.0000 0.0000 8.5684 0.0000 0.0000
# 5 0.0000 0.0000 0.0000 0.0000 -187.9724 0.0000
# 6 0.0000 0.0000 0.0000 0.0000 0.0000 -16.9007
#
#
#
# Elastic Compliance Matrix: (Units=1/GPa)
#
#
# Indices 1 2 3 4 5 6 
#
# 1 0.009463 -0.001491 -0.004952 0.000000 0.000000 0.000000
# 2 -0.001491 0.015169 0.001452 0.000000 0.000000 0.000000
# 3 -0.004952 0.001452 0.011310 0.000000 0.000000 0.000000
# 4 0.000000 0.000000 0.000000 0.116708 0.000000 0.000000
# 5 0.000000 0.000000 0.000000 0.000000 -0.005320 0.000000
# 6 0.000000 0.000000 0.000000 0.000000 0.000000 -0.059169
#
#
# Mechanical properties :
#
#
# Convention : Reuss Voigt Hill
#
# Bulk Modulus (GPa) = 38.52026 49.39393 43.95710
# Shear Modulus (GPa) = 46.81892 -22.04754 12.38569
#
# Velocity S-wave (km/s) = 4.59038 -3.15005 2.36101
# Velocity P-wave (km/s) = 6.74033 3.00001 5.21690
#
# Compressibility (1/GPa) = 0.02596037
#
# Stress axis : x y z
#
# Youngs Moduli (GPa) = 105.67718 65.92408 88.42027
#
# Poissons Ratio (x) = 0.09827 0.43788
# Poissons Ratio (y) = 0.15753 -0.12843
# Poissons Ratio (z) = 0.52334 -0.09575
#
# Static dielectric constant tensor:
#      x y z
#    x 1.829040 0.000000 0.000000 
#    y 0.000000 1.828110 0.000000 
#    z 0.000000 0.000000 1.803220 
# 
# From -- ./inp_files/21294.got.cif
#   From: 2010.05.17/outbox.cif.g08.bks.cpg/sg38_11_cif.got.tgz:21294.got - 2010.06.03 18:07:57.
