data_PCOD9357498
_publ_section_title
;
Structure prediction by ZEFSAII (Michael W. Deem and Ramdas Pophale) SiO2 
 PCOD9357498
Probable space group: A M M 2
;
_chemical_formula_sum "Si O2"
_cell_formula_units_Z 56
_cell_length_a 14.461828
_cell_length_b 7.559871
_cell_length_c 30.432377
_cell_angle_alpha 90.000000
_cell_angle_beta 90.000000
_cell_angle_gamma 90.000000
_cell_volume 3327.158208
_symmetry_space_group_name_H-M "A M M 2"
_symmetry_group_IT_number 38
_symmetry_cell_setting 'orthorhombic'
loop_
_space_group_symop_operation_xyz
x,y,z
-x,-y,z
-x,y,z
x,-y,z
x,1/2+y,1/2+z
-x,1/2-y,1/2+z
-x,1/2+y,1/2+z
x,1/2-y,1/2+z
loop_
_atom_site_type_symbol
_atom_site_label
_atom_site_fract_x
_atom_site_fract_y
_atom_site_fract_z
Si Si1 0.110681 0.209551 0.597920
Si Si2 0.794583 0.794663 0.509167
Si Si3 0.204462 0.215191 0.830820
Si Si4 0.112166 0.500000 0.769434
Si Si5 0.396103 0.284952 0.369066
Si Si6 0.888413 0.000000 0.167842
Si Si7 0.395859 0.713591 0.470152
Si Si8 0.897135 0.708263 0.419823
O O1 0.164189 0.276496 0.554556
O O2 0.138238 0.327311 0.639686
O O3 0.000000 0.229955 0.590629
O O4 0.128287 0.000000 0.604824
O O5 0.685314 0.772935 0.502111
O O6 0.842557 0.724918 0.465172
O O7 0.818136 0.000000 0.510205
O O8 0.153880 0.327191 0.793466
O O9 0.312489 0.263446 0.837188
O O10 0.157545 0.271413 0.877117
O O11 0.196914 0.000000 0.825297
O O12 0.140839 0.500000 0.718314
O O13 0.000000 0.500000 0.772922
O O14 0.500000 0.227268 0.357213
O O15 0.396564 0.500000 0.370278
O O16 0.377515 0.228524 0.419638
O O17 0.000000 0.000000 0.169057
O O18 0.500000 0.770246 0.481737
O O19 0.394451 0.500000 0.469784
O O20 0.905949 0.500000 0.412116
O O21 0.000000 0.785583 0.423262
#
# Coordination Sequence:
#
# PCOD9357498 Si02
#       8
#     8   8   8   4   8   4   8   8
#     4   9  19  35  53  77 106 132 169 217 264 315
#     4  11  21  30  46  73 103 136 171 212 260 306
#     4  10  20  35  52  74 107 142 177 216 261 316
#     4  11  24  38  55  79 105 137 184 226 270 322
#     4   8  14  28  50  72  99 139 181 219 258 304
#     4   9  20  38  58  77  97 133 175 226 277 308
#     4   9  17  30  47  67  96 136 178 213 246 295
#     4  10  20  31  44  66 101 145 180 202 240 303
#
# _framework density 16.83118
#
# number of rings (size 3 to 8) (size 9 to 14) (size 15 to 20)
#    0.000    2.429    1.429    2.143    3.000    2.571 
#    0.000    1.786    0.000    0.000    0.000    2.000 
#    0.000    2.286    0.000    0.000    0.000    0.000 
#
# Total GULP energy -156080.493027 kJ/mol
# GULP energy per Si atom -5574.303322 kJ/mol
# Density = 1.679287 g / cm^3
# Si number density = 16.831180 Si / 1000 Ang^3
#
#
#
# Elastic Constant Matrix: (Units=GPa)
#
#
# Indices 1 2 3 4 5 6 
#
# 1 101.8945 23.0517 60.7199 0.0000 0.0000 0.0000
# 2 23.0517 61.3726 40.1276 0.0000 0.0000 0.0000
# 3 60.7199 40.1276 136.6640 0.0000 0.0000 0.0000
# 4 0.0000 0.0000 0.0000 20.9885 0.0000 0.0000
# 5 0.0000 0.0000 0.0000 0.0000 3.6471 0.0000
# 6 0.0000 0.0000 0.0000 0.0000 0.0000 -8.4199
#
#
#
# Elastic Compliance Matrix: (Units=1/GPa)
#
#
# Indices 1 2 3 4 5 6 
#
# 1 0.013447 -0.001416 -0.005559 0.000000 0.000000 0.000000
# 2 -0.001416 0.020314 -0.005336 0.000000 0.000000 0.000000
# 3 -0.005559 -0.005336 0.011354 0.000000 0.000000 0.000000
# 4 0.000000 0.000000 0.000000 0.047645 0.000000 0.000000
# 5 0.000000 0.000000 0.000000 0.000000 0.274193 0.000000
# 6 0.000000 0.000000 0.000000 0.000000 0.000000 -0.118766
#
#
# Mechanical properties :
#
#
# Convention : Reuss Voigt Hill
#
# Bulk Modulus (GPa) = 48.79462 60.85882 54.82672
# Shear Modulus (GPa) = 17.88014 14.97859 16.42936
#
# Velocity S-wave (km/s) = 3.26286 2.98641 3.12769
# Velocity P-wave (km/s) = 6.57637 6.93746 6.75933
#
# Compressibility (1/GPa) = 0.02049406
#
# Stress axis : x y z
#
# Youngs Moduli (GPa) = 74.36653 49.22610 88.07820
#
# Poissons Ratio (x) = 0.06972 0.48959
# Poissons Ratio (y) = 0.10532 0.46994
# Poissons Ratio (z) = 0.41338 0.26265
#
# Static dielectric constant tensor:
#      x y z
#    x 1.595140 0.000000 0.000000 
#    y 0.000000 1.612840 0.000000 
#    z 0.000000 0.000000 1.548110 
# 
# From -- ./inp_files/25010.got.cif
#   From: 2010.05.17/outbox.cif.g08.bks.cpg/sg38_13_cif.got.tgz:25010.got - 2010.06.03 18:07:57.
