data_PCOD9357934
_publ_section_title
;
Structure prediction by ZEFSAII (Michael W. Deem and Ramdas Pophale) SiO2 
 PCOD9357934
Probable space group: A M M 2
;
_chemical_formula_sum "Si O2"
_cell_formula_units_Z 64
_cell_length_a 8.580075
_cell_length_b 14.598619
_cell_length_c 29.077499
_cell_angle_alpha 90.000000
_cell_angle_beta 90.000000
_cell_angle_gamma 90.000000
_cell_volume 3642.167443
_symmetry_space_group_name_H-M "A M M 2"
_symmetry_group_IT_number 38
_symmetry_cell_setting 'orthorhombic'
loop_
_space_group_symop_operation_xyz
x,y,z
-x,-y,z
-x,y,z
x,-y,z
x,1/2+y,1/2+z
-x,1/2-y,1/2+z
-x,1/2+y,1/2+z
x,1/2-y,1/2+z
loop_
_atom_site_type_symbol
_atom_site_label
_atom_site_fract_x
_atom_site_fract_y
_atom_site_fract_z
Si Si1 0.812889 0.755052 0.421820
Si Si2 0.812857 0.606134 0.098928
Si Si3 0.312891 0.247357 0.671834
Si Si4 0.689564 0.104146 0.097546
Si Si5 0.810436 0.395854 0.348988
Si Si6 0.312889 0.755051 0.524713
Si Si7 0.812891 0.247357 0.274699
Si Si8 0.687143 0.606134 0.847605
O O1 0.763876 0.664192 0.393297
O O2 0.750001 0.754968 0.473267
O O3 0.750948 0.840415 0.392105
O O4 0.000000 0.758148 0.422207
O O5 0.765493 0.500000 0.099210
O O6 0.749373 0.660787 0.143095
O O7 0.749051 0.659585 0.054429
O O8 0.000000 0.610791 0.098891
O O9 0.500000 0.244466 0.672236
O O10 0.264190 0.337023 0.642301
O O11 0.250000 0.250000 0.723267
O O12 0.500000 0.101390 0.097515
O O13 0.736124 0.164192 0.053237
O O14 0.746660 0.000000 0.097301
O O15 0.753340 0.500000 0.349232
O O16 0.764190 0.337023 0.304233
O O17 0.000000 0.398610 0.349019
O O18 0.500000 0.758147 0.524326
O O19 0.750628 0.160787 0.303439
O O20 0.000000 0.244466 0.274297
O O21 0.500000 0.610791 0.847642
O O22 0.734507 0.500000 0.847323
#
# Coordination Sequence:
#
# PCOD9357934 Si02
#       8
#     8   8   8   8   8   8   8   8
#     4  10  20  34  54  78 105 137 171 213 262 314
#     4  10  21  37  56  77 103 137 177 221 266 311
#     4  10  20  34  54  79 108 141 175 215 261 311
#     4   8  16  32  52  74 101 134 172 212 255 303
#     4   8  16  32  52  74 101 134 172 212 255 303
#     4  10  20  34  54  78 105 137 171 213 262 314
#     4  10  20  34  54  79 108 141 175 215 261 311
#     4  10  21  37  56  77 103 137 177 221 266 311
#
# _framework density 17.571954000000002
#
# number of rings (size 3 to 8) (size 9 to 14) (size 15 to 20)
#    0.000    2.500    0.000    3.750    0.000    4.000 
#    0.000    2.500    0.000   25.500    0.000    0.000 
#    0.000    0.000    0.000    0.000    0.000    0.000 
#
# Total GULP energy -178529.197681 kJ/mol
# GULP energy per Si atom -5579.037428 kJ/mol
# Density = 1.753196 g / cm^3
# Si number density = 17.571954 Si / 1000 Ang^3
#
#
#
# Elastic Constant Matrix: (Units=GPa)
#
#
# Indices 1 2 3 4 5 6 
#
# 1 50.5042 46.4752 44.6395 0.0000 0.0000 0.0000
# 2 46.4752 203.2386 112.7618 0.0000 0.0000 0.0000
# 3 44.6395 112.7618 203.1269 0.0000 0.0000 0.0000
# 4 0.0000 0.0000 0.0000 5.0974 0.0000 0.0000
# 5 0.0000 0.0000 0.0000 0.0000 34.1861 0.0000
# 6 0.0000 0.0000 0.0000 0.0000 0.0000 21.7515
#
#
#
# Elastic Compliance Matrix: (Units=1/GPa)
#
#
# Indices 1 2 3 4 5 6 
#
# 1 0.026775 -0.004130 -0.003591 0.000000 0.000000 0.000000
# 2 -0.004130 0.007747 -0.003393 0.000000 0.000000 0.000000
# 3 -0.003591 -0.003393 0.007596 0.000000 0.000000 0.000000
# 4 0.000000 0.000000 0.000000 0.196177 0.000000 0.000000
# 5 0.000000 0.000000 0.000000 0.000000 0.029252 0.000000
# 6 0.000000 0.000000 0.000000 0.000000 0.000000 0.045974
#
#
# Mechanical properties :
#
#
# Convention : Reuss Voigt Hill
#
# Bulk Modulus (GPa) = 50.27855 96.06919 73.17387
# Shear Modulus (GPa) = 14.60362 29.07322 21.83842
#
# Velocity S-wave (km/s) = 2.88597 4.07200 3.52916
# Velocity P-wave (km/s) = 6.30715 8.76920 7.63803
#
# Compressibility (1/GPa) = 0.01988920
#
# Stress axis : x y z
#
# Youngs Moduli (GPa) = 37.34769 129.07561 131.64961
#
# Poissons Ratio (x) = 0.53311 0.47281
# Poissons Ratio (y) = 0.15425 0.44671
# Poissons Ratio (z) = 0.13413 0.43797
#
# Static dielectric constant tensor:
#      x y z
#    x 1.599280 0.000000 0.000000 
#    y 0.000000 1.594190 0.000000 
#    z 0.000000 0.000000 1.565890 
# 
# From -- ./inp_files/24783.got.cif
#   From: 2010.05.17/outbox.cif.g08.bks.cpg/sg38_13_cif.got.tgz:24783.got - 2010.06.03 18:07:57.
