data_PCOD9357819
_publ_section_title
;
Structure prediction by ZEFSAII (Michael W. Deem and Ramdas Pophale) SiO2 
 PCOD9357819
Probable space group: A M M 2
;
_chemical_formula_sum "Si O2"
_cell_formula_units_Z 56
_cell_length_a 8.822748
_cell_length_b 17.046635
_cell_length_c 19.776721
_cell_angle_alpha 90.000000
_cell_angle_beta 90.000000
_cell_angle_gamma 90.000000
_cell_volume 2974.382545
_symmetry_space_group_name_H-M "A M M 2"
_symmetry_group_IT_number 38
_symmetry_cell_setting 'orthorhombic'
loop_
_space_group_symop_operation_xyz
x,y,z
-x,-y,z
-x,y,z
x,-y,z
x,1/2+y,1/2+z
-x,1/2-y,1/2+z
-x,1/2+y,1/2+z
x,1/2-y,1/2+z
loop_
_atom_site_type_symbol
_atom_site_label
_atom_site_fract_x
_atom_site_fract_y
_atom_site_fract_z
Si Si1 0.320936 0.088587 0.692030
Si Si2 0.323015 0.337532 0.994245
Si Si3 0.317422 0.840943 0.233464
Si Si4 0.817230 0.000000 0.296028
Si Si5 0.820286 0.262644 0.119649
Si Si6 0.177705 0.914623 0.839611
Si Si7 0.323611 0.262109 0.361654
Si Si8 0.181430 0.000000 0.456709
O O1 0.500000 0.105362 0.685877
O O2 0.226439 0.155627 0.655710
O O3 0.273057 0.088499 0.770424
O O4 0.292720 0.000000 0.666212
O O5 0.500000 0.345718 0.012277
O O6 0.245663 0.276392 0.045064
O O7 0.310967 0.303139 0.918982
O O8 0.245562 0.422318 0.992269
O O9 0.500000 0.846714 0.231706
O O10 0.248006 0.922834 0.258998
O O11 0.254908 0.807286 0.162948
O O12 0.275890 0.776231 0.290657
O O13 0.774822 0.000000 0.376306
O O14 0.000000 0.000000 0.292507
O O15 0.000000 0.253018 0.118970
O O16 0.227762 0.838416 0.879901
O O17 0.000000 0.909827 0.822946
O O18 0.205185 0.000000 0.871800
O O19 0.500000 0.284681 0.356127
O O20 0.000000 0.000000 0.459816
#
# Coordination Sequence:
#
# PCOD9357819 Si02
#       8
#     8   8   8   4   8   8   8   4
#     4  10  20  34  53  79 113 153 193 232 278 338
#     4  11  24  42  62  86 122 164 207 253 310 379
#     4  11  22  40  65  93 123 161 209 257 310 372
#     4  11  23  39  65  99 131 162 205 264 325 373
#     4  12  25  40  59  87 122 161 203 252 308 370
#     4  10  20  33  54  85 117 149 188 240 297 349
#     4  10  21  37  61  88 116 155 201 251 303 364
#     4  11  23  39  61  95 133 168 207 254 317 383
#
# _framework density 18.827437
#
# number of rings (size 3 to 8) (size 9 to 14) (size 15 to 20)
#    0.000    1.286    2.857    3.429    1.000    4.000 
#    0.000    0.000    1.571    0.000    0.000    0.000 
#    0.000    0.000    0.000    0.000    0.000    0.000 
#
# Total GULP energy -156418.616173 kJ/mol
# GULP energy per Si atom -5586.379149 kJ/mol
# Density = 1.878458 g / cm^3
# Si number density = 18.827437 Si / 1000 Ang^3
#
#
#
# Elastic Constant Matrix: (Units=GPa)
#
#
# Indices 1 2 3 4 5 6 
#
# 1 79.7514 43.7511 25.3641 0.0000 0.0000 0.0000
# 2 43.7511 101.2360 20.4849 0.0000 0.0000 0.0000
# 3 25.3641 20.4849 59.5944 0.0000 0.0000 0.0000
# 4 0.0000 0.0000 0.0000 26.5130 0.0000 0.0000
# 5 0.0000 0.0000 0.0000 0.0000 26.2091 0.0000
# 6 0.0000 0.0000 0.0000 0.0000 0.0000 33.3212
#
#
#
# Elastic Compliance Matrix: (Units=1/GPa)
#
#
# Indices 1 2 3 4 5 6 
#
# 1 0.017880 -0.006650 -0.005324 0.000000 0.000000 0.000000
# 2 -0.006650 0.013090 -0.001669 0.000000 0.000000 0.000000
# 3 -0.005324 -0.001669 0.019620 0.000000 0.000000 0.000000
# 4 0.000000 0.000000 0.000000 0.037717 0.000000 0.000000
# 5 0.000000 0.000000 0.000000 0.000000 0.038155 0.000000
# 6 0.000000 0.000000 0.000000 0.000000 0.000000 0.030011
#
#
# Mechanical properties :
#
#
# Convention : Reuss Voigt Hill
#
# Bulk Modulus (GPa) = 42.91254 46.64246 44.77750
# Shear Modulus (GPa) = 26.10594 27.27412 26.69003
#
# Velocity S-wave (km/s) = 3.72773 3.81023 3.76921
# Velocity P-wave (km/s) = 6.43195 6.64714 6.54043
#
# Compressibility (1/GPa) = 0.02330321
#
# Stress axis : x y z
#
# Youngs Moduli (GPa) = 55.92696 76.39658 50.96861
#
# Poissons Ratio (x) = 0.50804 0.27137
# Poissons Ratio (y) = 0.37192 0.08507
# Poissons Ratio (z) = 0.29777 0.12751
#
# Static dielectric constant tensor:
#      x y z
#    x 1.632100 0.000000 0.000000 
#    y 0.000000 1.656760 0.000000 
#    z 0.000000 0.000000 1.656820 
# 
# From -- ./inp_files/19891.got.cif
#   From: 2010.05.17/outbox.cif.g08.bks.cpg/sg38_10_cif.got.tgz:19891.got - 2010.06.03 18:07:57.
