data_PCOD9357574
_publ_section_title
;
Structure prediction by ZEFSAII (Michael W. Deem and Ramdas Pophale) SiO2 
 PCOD9357574
Probable space group: A M M 2
;
_chemical_formula_sum "Si O2"
_cell_formula_units_Z 64
_cell_length_a 9.082963
_cell_length_b 27.535842
_cell_length_c 15.094537
_cell_angle_alpha 90.000000
_cell_angle_beta 90.000000
_cell_angle_gamma 90.000000
_cell_volume 3775.249880
_symmetry_space_group_name_H-M "A M M 2"
_symmetry_group_IT_number 38
_symmetry_cell_setting 'orthorhombic'
loop_
_space_group_symop_operation_xyz
x,y,z
-x,-y,z
-x,y,z
x,-y,z
x,1/2+y,1/2+z
-x,1/2-y,1/2+z
-x,1/2+y,1/2+z
x,1/2-y,1/2+z
loop_
_atom_site_type_symbol
_atom_site_label
_atom_site_fract_x
_atom_site_fract_y
_atom_site_fract_z
Si Si1 0.175661 0.134972 0.532610
Si Si2 0.676050 0.942755 0.203804
Si Si3 0.824640 0.168771 0.892862
Si Si4 0.674981 0.283301 0.707029
Si Si5 0.176440 0.362303 0.585194
Si Si6 0.175030 0.282941 0.891836
Si Si7 0.325057 0.831766 0.708194
Si Si8 0.324689 0.442449 0.907774
O O1 0.212425 0.182810 0.474098
O O2 0.249934 0.139952 0.627984
O O3 0.236299 0.089804 0.476701
O O4 0.000000 0.132465 0.541569
O O5 0.500000 0.935376 0.195164
O O6 0.760863 0.908950 0.135692
O O7 0.715749 0.930517 0.305789
O O8 0.705164 0.000000 0.190678
O O9 0.795958 0.226161 0.910086
O O10 0.739724 0.154662 0.803997
O O11 0.000000 0.163758 0.878125
O O12 0.783289 0.140068 0.981507
O O13 0.500000 0.291003 0.702650
O O14 0.755942 0.315644 0.634535
O O15 0.735295 0.297097 0.804220
O O16 0.705970 0.225956 0.695684
O O17 0.000000 0.360485 0.591481
O O18 0.000000 0.288147 0.873918
O O19 0.500000 0.838330 0.706850
O O20 0.500000 0.433685 0.917258
O O21 0.300028 0.500000 0.920029
#
# Coordination Sequence:
#
# PCOD9357574 Si02
#       8
#     8   8   8   8   8   8   8   8
#     4  11  21  32  51  77 103 133 168 206 251 302
#     4   9  19  36  56  78 105 135 165 201 248 299
#     4   9  19  35  51  69  99 136 171 209 251 294
#     4  10  20  32  48  73 104 136 170 209 250 294
#     4  11  21  32  51  77 103 134 170 207 251 301
#     4   9  18  32  49  71 101 136 170 204 247 299
#     4  10  21  35  51  72  99 134 174 213 252 294
#     4   9  19  36  55  75 102 134 166 203 248 297
#
# _framework density 16.95252
#
# number of rings (size 3 to 8) (size 9 to 14) (size 15 to 20)
#    0.000    2.250    0.000    3.750    0.000    7.500 
#    0.000    3.750    0.000    0.750    0.000    3.500 
#    0.000    0.000    0.000    0.000    0.000    0.000 
#
# Total GULP energy -178661.438606 kJ/mol
# GULP energy per Si atom -5583.169956 kJ/mol
# Density = 1.691394 g / cm^3
# Si number density = 16.952520 Si / 1000 Ang^3
#
#
#
# Elastic Constant Matrix: (Units=GPa)
#
#
# Indices 1 2 3 4 5 6 
#
# 1 52.4903 43.4238 73.9048 0.0000 0.0000 0.0000
# 2 43.4238 56.1694 70.3179 0.0000 0.0000 0.0000
# 3 73.9048 70.3179 166.0413 0.0000 0.0000 0.0000
# 4 0.0000 0.0000 0.0000 25.2553 0.0000 0.0000
# 5 0.0000 0.0000 0.0000 0.0000 19.8204 0.0000
# 6 0.0000 0.0000 0.0000 0.0000 0.0000 26.6587
#
#
#
# Elastic Compliance Matrix: (Units=1/GPa)
#
#
# Indices 1 2 3 4 5 6 
#
# 1 0.071306 -0.032763 -0.017863 0.000000 0.000000 0.000000
# 2 -0.032763 0.052947 -0.007840 0.000000 0.000000 0.000000
# 3 -0.017863 -0.007840 0.017294 0.000000 0.000000 0.000000
# 4 0.000000 0.000000 0.000000 0.039596 0.000000 0.000000
# 5 0.000000 0.000000 0.000000 0.000000 0.050453 0.000000
# 6 0.000000 0.000000 0.000000 0.000000 0.000000 0.037511
#
#
# Mechanical properties :
#
#
# Convention : Reuss Voigt Hill
#
# Bulk Modulus (GPa) = 40.62712 72.22157 56.42434
# Shear Modulus (GPa) = 12.68254 20.15051 16.41653
#
# Velocity S-wave (km/s) = 2.73815 3.45141 3.11526
# Velocity P-wave (km/s) = 5.83214 7.65361 6.80410
#
# Compressibility (1/GPa) = 0.02461410
#
# Stress axis : x y z
#
# Youngs Moduli (GPa) = 14.02409 18.88698 57.82438
#
# Poissons Ratio (x) = 0.61879 1.03293
# Poissons Ratio (y) = 0.45947 0.45334
# Poissons Ratio (z) = 0.25052 0.14807
#
# Static dielectric constant tensor:
#      x y z
#    x 1.560980 0.000000 0.000000 
#    y 0.000000 1.563320 0.000000 
#    z 0.000000 0.000000 1.555020 
# 
# From -- ./inp_files/12745.got.cif
#   From: 2010.05.17/outbox.cif.g08.bks.cpg/sg38_7_cif.got.tgz:12745.got - 2010.06.03 18:07:57.
