data_PCOD9357006
_publ_section_title
;
Structure prediction by ZEFSAII (Michael W. Deem and Ramdas Pophale) SiO2 
 PCOD9357006
Probable space group: A M M 2
;
_chemical_formula_sum "Si O2"
_cell_formula_units_Z 64
_cell_length_a 8.208410
_cell_length_b 17.054799
_cell_length_c 22.698281
_cell_angle_alpha 90.000000
_cell_angle_beta 90.000000
_cell_angle_gamma 90.000000
_cell_volume 3177.595519
_symmetry_space_group_name_H-M "A M M 2"
_symmetry_group_IT_number 38
_symmetry_cell_setting 'orthorhombic'
loop_
_space_group_symop_operation_xyz
x,y,z
-x,-y,z
-x,y,z
x,-y,z
x,1/2+y,1/2+z
-x,1/2-y,1/2+z
-x,1/2+y,1/2+z
x,1/2-y,1/2+z
loop_
_atom_site_type_symbol
_atom_site_label
_atom_site_fract_x
_atom_site_fract_y
_atom_site_fract_z
Si Si1 0.808226 0.913856 0.752500
Si Si2 0.310409 0.762871 0.825561
Si Si3 0.696761 0.084995 0.489954
Si Si4 0.310932 0.588556 0.802228
Si Si5 0.808232 0.248599 0.950412
Si Si6 0.689759 0.617130 0.122688
Si Si7 0.196436 0.780999 0.082064
Si Si8 0.812491 0.911058 0.174055
O O1 0.748383 0.834306 0.784394
O O2 0.776771 0.907790 0.682330
O O3 0.000000 0.915664 0.762896
O O4 0.740214 0.000000 0.771664
O O5 0.500000 0.753709 0.811889
O O6 0.237756 0.673641 0.820598
O O7 0.282818 0.784038 0.893756
O O8 0.500000 0.094458 0.488773
O O9 0.774467 0.158413 0.457647
O O10 0.747116 0.085826 0.558950
O O11 0.737050 0.000000 0.464450
O O12 0.500000 0.586989 0.822230
O O13 0.243287 0.500000 0.816518
O O14 0.298326 0.594511 0.731447
O O15 0.000000 0.235010 0.942769
O O16 0.755426 0.214631 0.013750
O O17 0.500000 0.596796 0.128747
O O18 0.714642 0.709440 0.113718
O O19 0.232802 0.856192 0.120520
O O20 0.000000 0.766345 0.083029
O O21 0.000000 0.891705 0.192260
O O22 0.811204 0.000000 0.153673
#
# Coordination Sequence:
#
# PCOD9357006 Si02
#       8
#     8   8   8   8   8   8   8   8
#     4  11  24  40  58  81 110 145 184 229 282 335
#     4  11  23  39  59  80 106 145 188 230 275 323
#     4   9  18  33  53  78 109 143 177 216 266 324
#     4   9  19  35  54  79 110 141 173 211 261 321
#     4  10  21  36  53  75 104 139 181 225 269 321
#     4  10  19  32  54  83 112 141 175 218 270 328
#     4   9  18  33  52  75 106 142 177 216 266 324
#     4   9  17  30  50  76 103 131 166 209 257 311
#
# _framework density 20.141016
#
# number of rings (size 3 to 8) (size 9 to 14) (size 15 to 20)
#    0.000    2.250    0.000    2.625    0.000    6.750 
#    0.000    1.875    0.000    2.250    0.000    0.000 
#    0.000    0.000    0.000    0.000    0.000    0.000 
#
# Total GULP energy -178394.559706 kJ/mol
# GULP energy per Si atom -5574.829991 kJ/mol
# Density = 2.009517 g / cm^3
# Si number density = 20.141016 Si / 1000 Ang^3
#
#
#
# Elastic Constant Matrix: (Units=GPa)
#
#
# Indices 1 2 3 4 5 6 
#
# 1 12.2922 15.9147 4.6626 0.0000 0.0000 0.0000
# 2 15.9147 91.7217 56.4386 0.0000 0.0000 0.0000
# 3 4.6626 56.4386 81.5682 0.0000 0.0000 0.0000
# 4 0.0000 0.0000 0.0000 -6.9319 0.0000 0.0000
# 5 0.0000 0.0000 0.0000 0.0000 25.0497 0.0000
# 6 0.0000 0.0000 0.0000 0.0000 0.0000 19.6449
#
#
#
# Elastic Compliance Matrix: (Units=1/GPa)
#
#
# Indices 1 2 3 4 5 6 
#
# 1 0.111496 -0.026860 0.012212 0.000000 0.000000 0.000000
# 2 -0.026860 0.025456 -0.016078 0.000000 0.000000 0.000000
# 3 0.012212 -0.016078 0.022687 0.000000 0.000000 0.000000
# 4 0.000000 0.000000 0.000000 -0.144260 0.000000 0.000000
# 5 0.000000 0.000000 0.000000 0.000000 0.039921 0.000000
# 6 0.000000 0.000000 0.000000 0.000000 0.000000 0.050904
#
#
# Mechanical properties :
#
#
# Convention : Reuss Voigt Hill
#
# Bulk Modulus (GPa) = 10.18478 37.73488 23.95983
# Shear Modulus (GPa) = 24.95191 14.79028 19.87110
#
# Velocity S-wave (km/s) = 3.52356 2.71280 3.14442
# Velocity P-wave (km/s) = 4.64992 5.34681 5.01050
#
# Compressibility (1/GPa) = 0.09818569
#
# Stress axis : x y z
#
# Youngs Moduli (GPa) = 8.96893 39.28270 44.07875
#
# Poissons Ratio (x) = 1.05513 -0.53827
# Poissons Ratio (y) = 0.24090 0.70872
# Poissons Ratio (z) = -0.10952 0.63161
#
# Static dielectric constant tensor:
#      x y z
#    x 1.747280 0.000000 0.000000 
#    y 0.000000 1.759020 0.000000 
#    z 0.000000 0.000000 1.695820 
# 
# From -- ./inp_files/20041.got.cif
#   From: 2010.05.17/outbox.cif.g08.bks.cpg/sg38_11_cif.got.tgz:20041.got - 2010.06.03 18:07:57.
