data_PCOD9357617
_publ_section_title
;
Structure prediction by ZEFSAII (Michael W. Deem and Ramdas Pophale) SiO2 
 PCOD9357617
Probable space group: A M M 2
;
_chemical_formula_sum "Si O2"
_cell_formula_units_Z 64
_cell_length_a 15.985292
_cell_length_b 9.656223
_cell_length_c 23.606315
_cell_angle_alpha 90.000000
_cell_angle_beta 90.000000
_cell_angle_gamma 90.000000
_cell_volume 3643.812813
_symmetry_space_group_name_H-M "A M M 2"
_symmetry_group_IT_number 38
_symmetry_cell_setting 'orthorhombic'
loop_
_space_group_symop_operation_xyz
x,y,z
-x,-y,z
-x,y,z
x,-y,z
x,1/2+y,1/2+z
-x,1/2-y,1/2+z
-x,1/2+y,1/2+z
x,1/2-y,1/2+z
loop_
_atom_site_type_symbol
_atom_site_label
_atom_site_fract_x
_atom_site_fract_y
_atom_site_fract_z
Si Si1 0.095943 0.667461 0.941180
Si Si2 0.904676 0.341502 0.674879
Si Si3 0.321133 0.153090 0.628641
Si Si4 0.752871 0.165561 0.356812
Si Si5 0.225585 0.836819 0.743738
Si Si6 0.400429 0.346885 0.546042
Si Si7 0.402309 0.337678 0.939341
Si Si8 0.139777 0.339953 0.070572
O O1 0.093681 0.500000 0.938756
O O2 0.167665 0.707979 0.896228
O O3 0.000000 0.716305 0.930982
O O4 0.124445 0.700377 0.005512
O O5 0.872370 0.500000 0.672193
O O6 0.852041 0.245249 0.716578
O O7 0.901455 0.267703 0.613687
O O8 0.000000 0.346556 0.694187
O O9 0.294682 0.170735 0.693732
O O10 0.377521 0.272936 0.604185
O O11 0.236321 0.158241 0.590754
O O12 0.358512 0.000000 0.621002
O O13 0.751073 0.257800 0.300762
O O14 0.665870 0.184166 0.390588
O O15 0.761310 0.000000 0.344391
O O16 0.208057 0.000000 0.752579
O O17 0.500000 0.356216 0.542317
O O18 0.363370 0.500000 0.542391
O O19 0.375264 0.252119 0.493206
O O20 0.500000 0.306320 0.924560
O O21 0.399171 0.500000 0.954838
O O22 0.109572 0.500000 0.078030
#
# Coordination Sequence:
#
# PCOD9357617 Si02
#       8
#     8   8   8   8   8   8   8   8
#     4   9  17  29  48  75 105 137 170 204 249 306
#     4  10  20  33  51  76 104 134 170 214 262 308
#     4   9  18  33  52  73  98 131 170 210 256 312
#     4  10  20  35  54  75 102 136 176 220 260 304
#     4  10  22  38  54  73  98 132 176 218 258 308
#     4  10  20  32  50  80 111 134 161 203 255 309
#     4   9  18  34  56  79 104 138 176 212 257 313
#     4   9  17  31  52  76 102 133 170 211 255 307
#
# _framework density 17.564018999999998
#
# number of rings (size 3 to 8) (size 9 to 14) (size 15 to 20)
#    0.000    2.500    0.000    3.000    0.000    7.750 
#    0.000    2.500    0.000    3.000    0.000    0.000 
#    0.000    0.000    0.000    0.000    0.000    0.000 
#
# Total GULP energy -178316.055080 kJ/mol
# GULP energy per Si atom -5572.376721 kJ/mol
# Density = 1.752404 g / cm^3
# Si number density = 17.564019 Si / 1000 Ang^3
#
#
#
# Elastic Constant Matrix: (Units=GPa)
#
#
# Indices 1 2 3 4 5 6 
#
# 1 40.5109 39.1173 46.9214 0.0000 0.0000 0.0000
# 2 39.1173 108.9544 79.1717 0.0000 0.0000 0.0000
# 3 46.9214 79.1717 120.2035 0.0000 0.0000 0.0000
# 4 0.0000 0.0000 0.0000 30.2812 0.0000 0.0000
# 5 0.0000 0.0000 0.0000 0.0000 7.7107 0.0000
# 6 0.0000 0.0000 0.0000 0.0000 0.0000 17.9700
#
#
#
# Elastic Compliance Matrix: (Units=1/GPa)
#
#
# Indices 1 2 3 4 5 6 
#
# 1 0.047601 -0.006882 -0.014049 0.000000 0.000000 0.000000
# 2 -0.006882 0.018598 -0.009563 0.000000 0.000000 0.000000
# 3 -0.014049 -0.009563 0.020102 0.000000 0.000000 0.000000
# 4 0.000000 0.000000 0.000000 0.033024 0.000000 0.000000
# 5 0.000000 0.000000 0.000000 0.000000 0.129690 0.000000
# 6 0.000000 0.000000 0.000000 0.000000 0.000000 0.055648
#
#
# Mechanical properties :
#
#
# Convention : Reuss Voigt Hill
#
# Bulk Modulus (GPa) = 39.50347 66.67661 53.09004
# Shear Modulus (GPa) = 13.36583 18.15627 15.76105
#
# Velocity S-wave (km/s) = 2.76158 3.21864 2.99883
# Velocity P-wave (km/s) = 5.71912 7.20120 6.50253
#
# Compressibility (1/GPa) = 0.02531423
#
# Stress axis : x y z
#
# Youngs Moduli (GPa) = 21.00782 53.76939 49.74644
#
# Poissons Ratio (x) = 0.37002 0.69887
# Poissons Ratio (y) = 0.14457 0.47574
# Poissons Ratio (z) = 0.29513 0.51421
#
# Static dielectric constant tensor:
#      x y z
#    x 1.624880 0.000000 0.000000 
#    y 0.000000 1.613450 0.000000 
#    z 0.000000 0.000000 1.580510 
# 
# From -- ./inp_files/21450.got.cif
#   From: 2010.05.17/outbox.cif.g08.bks.cpg/sg38_11_cif.got.tgz:21450.got - 2010.06.03 18:07:57.
