data_PCOD9357346
_publ_section_title
;
Structure prediction by ZEFSAII (Michael W. Deem and Ramdas Pophale) SiO2 
 PCOD9357346
Probable space group: A M M 2
;
_chemical_formula_sum "Si O2"
_cell_formula_units_Z 64
_cell_length_a 24.551277
_cell_length_b 7.727103
_cell_length_c 15.804890
_cell_angle_alpha 90.000000
_cell_angle_beta 90.000000
_cell_angle_gamma 90.000000
_cell_volume 2998.349572
_symmetry_space_group_name_H-M "A M M 2"
_symmetry_group_IT_number 38
_symmetry_cell_setting 'orthorhombic'
loop_
_space_group_symop_operation_xyz
x,y,z
-x,-y,z
-x,y,z
x,-y,z
x,1/2+y,1/2+z
-x,1/2-y,1/2+z
-x,1/2+y,1/2+z
x,1/2-y,1/2+z
loop_
_atom_site_type_symbol
_atom_site_label
_atom_site_fract_x
_atom_site_fract_y
_atom_site_fract_z
Si Si1 0.748830 0.710312 0.834340
Si Si2 0.937918 0.288019 0.695521
Si Si3 0.145131 0.794717 0.050206
Si Si4 0.130490 0.790773 0.354410
Si Si5 0.381862 0.197035 0.088133
Si Si6 0.267575 0.201965 0.529465
Si Si7 0.363688 0.213292 0.268208
Si Si8 0.560873 0.202837 0.418996
O O1 0.749906 0.500000 0.830450
O O2 0.810440 0.768977 0.819466
O O3 0.699107 0.770472 0.776996
O O4 0.734967 0.757155 0.931198
O O5 0.937641 0.500000 0.694580
O O6 0.897870 0.230669 0.619905
O O7 0.914772 0.233881 0.787300
O O8 0.000000 0.231873 0.682882
O O9 0.206189 0.723244 0.062748
O O10 0.149671 0.000000 0.060605
O O11 0.126775 0.760652 0.953026
O O12 0.130669 0.000000 0.354614
O O13 0.316603 0.200789 0.074236
O O14 0.390411 0.272045 0.181073
O O15 0.401143 0.000000 0.087543
O O16 0.411461 0.284835 0.010262
O O17 0.282178 0.000000 0.531357
O O18 0.398063 0.274155 0.348603
O O19 0.362497 0.000000 0.267110
O O20 0.500000 0.277566 0.418142
O O21 0.556204 0.000000 0.398811
#
# Coordination Sequence:
#
# PCOD9357346 Si02
#       8
#     8   8   8   8   8   8   8   8
#     4   8  14  28  53  77 100 135 179 219 258 316
#     4   9  19  35  55  79 109 150 195 230 271 341
#     4  10  20  34  55  83 113 143 184 237 287 330
#     4   9  18  33  55  79 106 145 186 225 272 333
#     4  11  22  34  57  90 117 141 180 236 289 326
#     4  10  19  35  58  81 113 151 187 224 273 342
#     4   9  18  33  55  82 109 143 185 221 264 331
#     4  10  21  40  62  79 106 154 199 228 267 335
#
# _framework density 21.345075999999999
#
# number of rings (size 3 to 8) (size 9 to 14) (size 15 to 20)
#    0.000    2.500    1.250    1.875    1.750    1.250 
#    0.000    3.750    0.000    2.625    0.000    0.000 
#    0.000    0.000    0.000    0.000    0.000    0.000 
#
# Total GULP energy -178596.039892 kJ/mol
# GULP energy per Si atom -5581.126247 kJ/mol
# Density = 2.129649 g / cm^3
# Si number density = 21.345076 Si / 1000 Ang^3
#
#
#
# Elastic Constant Matrix: (Units=GPa)
#
#
# Indices 1 2 3 4 5 6 
#
# 1 76.5725 -9.6953 15.2169 0.0000 0.0000 0.0000
# 2 -9.6953 31.6124 -9.5412 0.0000 0.0000 0.0000
# 3 15.2169 -9.5412 46.2071 0.0000 0.0000 0.0000
# 4 0.0000 0.0000 0.0000 17.7155 0.0000 0.0000
# 5 0.0000 0.0000 0.0000 0.0000 -4.2569 0.0000
# 6 0.0000 0.0000 0.0000 0.0000 0.0000 9.6511
#
#
#
# Elastic Compliance Matrix: (Units=1/GPa)
#
#
# Indices 1 2 3 4 5 6 
#
# 1 0.014263 0.003153 -0.004046 0.000000 0.000000 0.000000
# 2 0.003153 0.034433 0.006072 0.000000 0.000000 0.000000
# 3 -0.004046 0.006072 0.024228 0.000000 0.000000 0.000000
# 4 0.000000 0.000000 0.000000 0.056448 0.000000 0.000000
# 5 0.000000 0.000000 0.000000 0.000000 -0.234915 0.000000
# 6 0.000000 0.000000 0.000000 0.000000 0.000000 0.103616
#
#
# Mechanical properties :
#
#
# Convention : Reuss Voigt Hill
#
# Bulk Modulus (GPa) = 12.00755 16.26142 14.13448
# Shear Modulus (GPa) = 323.12565 15.18272 169.15419
#
# Velocity S-wave (km/s) = 12.31708 2.66991 8.91176
# Velocity P-wave (km/s) = 14.41937 4.13998 10.60796
#
# Compressibility (1/GPa) = 0.08328093
#
# Stress axis : x y z
#
# Youngs Moduli (GPa) = 70.11258 29.04211 41.27489
#
# Poissons Ratio (x) = -0.09157 0.16699
# Poissons Ratio (y) = -0.22108 -0.25060
# Poissons Ratio (z) = 0.28367 -0.17633
#
# Static dielectric constant tensor:
#      x y z
#    x 1.764530 0.000000 0.000000 
#    y 0.000000 1.805690 0.000000 
#    z 0.000000 0.000000 1.761270 
# 
# From -- ./inp_files/15852.got.cif
#   From: 2010.05.17/outbox.cif.g08.bks.cpg/sg38_8_cif.got.tgz:15852.got - 2010.06.03 18:07:57.
