data_PCOD9357354
_publ_section_title
;
Structure prediction by ZEFSAII (Michael W. Deem and Ramdas Pophale) SiO2 
 PCOD9357354
Probable space group: A M M 2
;
_chemical_formula_sum "Si O2"
_cell_formula_units_Z 40
_cell_length_a 8.027465
_cell_length_b 26.580943
_cell_length_c 9.098431
_cell_angle_alpha 90.000000
_cell_angle_beta 90.000000
_cell_angle_gamma 90.000000
_cell_volume 1941.401276
_symmetry_space_group_name_H-M "A M M 2"
_symmetry_group_IT_number 38
_symmetry_cell_setting 'orthorhombic'
loop_
_space_group_symop_operation_xyz
x,y,z
-x,-y,z
-x,y,z
x,-y,z
x,1/2+y,1/2+z
-x,1/2-y,1/2+z
-x,1/2+y,1/2+z
x,1/2-y,1/2+z
loop_
_atom_site_type_symbol
_atom_site_label
_atom_site_fract_x
_atom_site_fract_y
_atom_site_fract_z
Si Si1 0.693801 0.704850 0.900950
Si Si2 0.296286 0.500000 0.552682
Si Si3 0.701575 0.601907 0.391781
Si Si4 0.296323 0.398044 0.053283
Si Si5 0.703864 0.500000 0.892050
Si Si6 0.191197 0.199208 0.074614
O O1 0.500000 0.709906 0.942538
O O2 0.708069 0.704570 0.725481
O O3 0.755956 0.651811 0.965934
O O4 0.784914 0.752030 0.973011
O O5 0.500000 0.500000 0.551701
O O6 0.242235 0.449591 0.469263
O O7 0.243652 0.500000 0.722323
O O8 0.500000 0.601531 0.390742
O O9 0.757457 0.604240 0.222671
O O10 0.756925 0.650192 0.483388
O O11 0.500000 0.398750 0.051727
O O12 0.241691 0.449414 0.974871
O O13 0.500000 0.500000 0.893235
O O14 0.000000 0.194590 0.118600
#
# Coordination Sequence:
#
# PCOD9357354 Si02
#       6
#     8   4   8   8   4   8
#     4  11  22  39  61  85 113 153 199 242 288 351
#     4   9  17  29  54  87 118 151 194 244 292 343
#     4  10  19  35  58  86 116 152 196 243 292 350
#     4   9  18  31  54  84 114 145 185 235 287 340
#     4   9  15  27  47  81 120 147 176 230 294 343
#     4  12  25  40  58  85 118 153 191 242 302 358
#
# _framework density 20.603674999999999
#
# number of rings (size 3 to 8) (size 9 to 14) (size 15 to 20)
#    0.000    1.800    0.000    5.400    0.000    7.200 
#    0.000    1.500    0.000    0.000    0.000    4.900 
#    0.000    0.000    0.000    0.000    0.000    0.000 
#
# Total GULP energy -111817.814535 kJ/mol
# GULP energy per Si atom -5590.890727 kJ/mol
# Density = 2.055678 g / cm^3
# Si number density = 20.603675 Si / 1000 Ang^3
#
#
#
# Elastic Constant Matrix: (Units=GPa)
#
#
# Indices 1 2 3 4 5 6 
#
# 1 24.0227 1.3018 -7.8354 0.0000 0.0000 0.0000
# 2 1.3018 197.3600 86.2247 0.0000 0.0000 0.0000
# 3 -7.8354 86.2247 146.0716 0.0000 0.0000 0.0000
# 4 0.0000 0.0000 0.0000 45.2866 0.0000 0.0000
# 5 0.0000 0.0000 0.0000 0.0000 4.5318 0.0000
# 6 0.0000 0.0000 0.0000 0.0000 0.0000 -24.0497
#
#
#
# Elastic Compliance Matrix: (Units=1/GPa)
#
#
# Indices 1 2 3 4 5 6 
#
# 1 0.042804 -0.001732 0.003318 0.000000 0.000000 0.000000
# 2 -0.001732 0.006898 -0.004165 0.000000 0.000000 0.000000
# 3 0.003318 -0.004165 0.009482 0.000000 0.000000 0.000000
# 4 0.000000 0.000000 0.000000 0.022082 0.000000 0.000000
# 5 0.000000 0.000000 0.000000 0.000000 0.220663 0.000000
# 6 0.000000 0.000000 0.000000 0.000000 0.000000 -0.041581
#
#
# Mechanical properties :
#
#
# Convention : Reuss Voigt Hill
#
# Bulk Modulus (GPa) = 18.50921 58.53738 38.52329
# Shear Modulus (GPa) = 17.63585 24.33796 20.98690
#
# Velocity S-wave (km/s) = 2.92885 3.44065 3.19501
# Velocity P-wave (km/s) = 4.52111 6.65259 5.68759
#
# Compressibility (1/GPa) = 0.05402716
#
# Stress axis : x y z
#
# Youngs Moduli (GPa) = 23.36251 144.97401 105.45974
#
# Poissons Ratio (x) = 0.25112 -0.34997
# Poissons Ratio (y) = 0.04047 0.43920
# Poissons Ratio (z) = -0.07753 0.60376
#
# Static dielectric constant tensor:
#      x y z
#    x 1.723930 0.000000 0.000000 
#    y 0.000000 1.690990 0.000000 
#    z 0.000000 0.000000 1.689300 
# 
# From -- ./inp_files/3469.got.cif
#   From: 2010.05.17/outbox.cif.g08.bks.cpg/sg38_2_cif.got.tgz:3469.got - 2010.06.03 18:07:57.
