data_PCOD9357973
_publ_section_title
;
Structure prediction by ZEFSAII (Michael W. Deem and Ramdas Pophale) SiO2 
 PCOD9357973
Probable space group: A M M 2
;
_chemical_formula_sum "Si O2"
_cell_formula_units_Z 46
_cell_length_a 12.881820
_cell_length_b 7.506831
_cell_length_c 26.986406
_cell_angle_alpha 90.000000
_cell_angle_beta 90.000000
_cell_angle_gamma 90.000000
_cell_volume 2609.629872
_symmetry_space_group_name_H-M "A M M 2"
_symmetry_group_IT_number 38
_symmetry_cell_setting 'orthorhombic'
loop_
_space_group_symop_operation_xyz
x,y,z
-x,-y,z
-x,y,z
x,-y,z
x,1/2+y,1/2+z
-x,1/2-y,1/2+z
-x,1/2+y,1/2+z
x,1/2-y,1/2+z
loop_
_atom_site_type_symbol
_atom_site_label
_atom_site_fract_x
_atom_site_fract_y
_atom_site_fract_z
Si Si1 0.672723 0.707725 0.626740
Si Si2 0.500000 0.000000 0.653022
Si Si3 0.121912 0.500000 0.478355
Si Si4 0.229407 0.500000 0.373413
Si Si5 0.877942 0.000000 0.767956
Si Si6 0.381635 0.709725 0.911626
Si Si7 0.277401 0.790782 0.515572
Si Si8 0.119165 0.289226 0.685304
O O1 0.650179 0.500000 0.637801
O O2 0.591153 0.843553 0.650069
O O3 0.672967 0.735916 0.567534
O O4 0.790250 0.745723 0.645681
O O5 0.149180 0.500000 0.419641
O O6 0.178231 0.670040 0.502922
O O7 0.000000 0.500000 0.486314
O O8 0.180875 0.500000 0.319508
O O9 0.301888 0.328403 0.381398
O O10 0.856857 0.828617 0.733528
O O11 0.000000 0.000000 0.779066
O O12 0.500000 0.759776 0.901429
O O13 0.368421 0.500000 0.901752
O O14 0.355718 0.738514 0.969680
O O15 0.252040 0.000000 0.517141
O O16 0.121394 0.500000 0.696343
O O17 0.000000 0.245538 0.669476
#
# Coordination Sequence:
#
# PCOD9357973 Si02
#       8
#     8   2   4   4   4   8   8   8
#     4  11  22  37  57  87 118 155 194 237 292 344
#     4  12  24  36  54  80 120 156 200 238 272 340
#     4  10  21  37  52  77 119 155 184 230 290 355
#     4  10  20  35  55  84 110 145 188 238 287 343
#     4  10  20  36  61  88 109 144 191 238 293 345
#     4   9  19  34  55  80 111 145 188 235 280 332
#     4  10  20  34  54  82 112 149 192 231 280 337
#     4   9  20  39  62  87 115 145 190 246 295 348
#
# _framework density 17.627020999999999
#
# number of rings (size 3 to 8) (size 9 to 14) (size 15 to 20)
#    0.000    2.087    1.739    1.304    1.217    1.739 
#    0.000    0.000    7.652    3.130    0.000    0.000 
#    0.000    0.000    0.000    0.000    0.000    0.000 
#
# Total GULP energy -128051.611442 kJ/mol
# GULP energy per Si atom -5567.461367 kJ/mol
# Density = 1.758690 g / cm^3
# Si number density = 17.627021 Si / 1000 Ang^3
#
#
#
# Elastic Constant Matrix: (Units=GPa)
#
#
# Indices 1 2 3 4 5 6 
#
# 1 61.0216 34.9183 5.1352 0.0000 0.0000 0.0000
# 2 34.9183 84.4795 17.8218 0.0000 0.0000 0.0000
# 3 5.1352 17.8218 48.8142 0.0000 0.0000 0.0000
# 4 0.0000 0.0000 0.0000 8.2935 0.0000 0.0000
# 5 0.0000 0.0000 0.0000 0.0000 6.1761 0.0000
# 6 0.0000 0.0000 0.0000 0.0000 0.0000 27.5731
#
#
#
# Elastic Compliance Matrix: (Units=1/GPa)
#
#
# Indices 1 2 3 4 5 6 
#
# 1 0.021515 -0.009118 0.001065 0.000000 0.000000 0.000000
# 2 -0.009118 0.016689 -0.005134 0.000000 0.000000 0.000000
# 3 0.001065 -0.005134 0.022248 0.000000 0.000000 0.000000
# 4 0.000000 0.000000 0.000000 0.120577 0.000000 0.000000
# 5 0.000000 0.000000 0.000000 0.000000 0.161915 0.000000
# 6 0.000000 0.000000 0.000000 0.000000 0.000000 0.036267
#
#
# Mechanical properties :
#
#
# Convention : Reuss Voigt Hill
#
# Bulk Modulus (GPa) = 29.34267 34.45175 31.89721
# Shear Modulus (GPa) = 11.99201 17.50453 14.74827
#
# Velocity S-wave (km/s) = 2.61112 3.15469 2.89569
# Velocity P-wave (km/s) = 5.07673 5.73208 5.41433
#
# Compressibility (1/GPa) = 0.03408006
#
# Stress axis : x y z
#
# Youngs Moduli (GPa) = 46.47818 59.91994 44.94770
#
# Poissons Ratio (x) = 0.54634 -0.04789
# Poissons Ratio (y) = 0.42378 0.23075
# Poissons Ratio (z) = -0.04952 0.30762
#
# Static dielectric constant tensor:
#      x y z
#    x 1.595940 0.000000 0.000000 
#    y 0.000000 1.614590 0.000000 
#    z 0.000000 0.000000 1.574090 
# 
# From -- ./inp_files/22448.got.cif
#   From: 2010.05.17/outbox.cif.g08.bks.cpg/sg38_12_cif.got.tgz:22448.got - 2010.06.03 18:07:57.
