data_PCOD9357572
_publ_section_title
;
Structure prediction by ZEFSAII (Michael W. Deem and Ramdas Pophale) SiO2 
 PCOD9357572
Probable space group: A M M 2
;
_chemical_formula_sum "Si O2"
_cell_formula_units_Z 48
_cell_length_a 8.990343
_cell_length_b 24.224765
_cell_length_c 13.942398
_cell_angle_alpha 90.000000
_cell_angle_beta 90.000000
_cell_angle_gamma 90.000000
_cell_volume 3036.500171
_symmetry_space_group_name_H-M "A M M 2"
_symmetry_group_IT_number 38
_symmetry_cell_setting 'orthorhombic'
loop_
_space_group_symop_operation_xyz
x,y,z
-x,-y,z
-x,y,z
x,-y,z
x,1/2+y,1/2+z
-x,1/2-y,1/2+z
-x,1/2+y,1/2+z
x,1/2-y,1/2+z
loop_
_atom_site_type_symbol
_atom_site_label
_atom_site_fract_x
_atom_site_fract_y
_atom_site_fract_z
Si Si1 0.322643 0.935699 0.480430
Si Si2 0.676719 0.269151 0.481709
Si Si3 0.824080 0.773263 0.184864
Si Si4 0.177393 0.333734 0.313732
Si Si5 0.822168 0.436262 0.186572
Si Si6 0.177676 0.835238 0.378488
O O1 0.500000 0.928427 0.478328
O O2 0.261623 0.924125 0.587388
O O3 0.244779 0.893576 0.408422
O O4 0.288641 0.000000 0.459661
O O5 0.500000 0.264511 0.476634
O O6 0.730653 0.280491 0.589229
O O7 0.735294 0.315617 0.408181
O O8 0.750954 0.212139 0.445189
O O9 0.795762 0.713635 0.233767
O O10 0.791551 0.817201 0.268964
O O11 0.000000 0.776036 0.161995
O O12 0.218189 0.392396 0.268134
O O13 0.000000 0.332752 0.334149
O O14 0.792215 0.500000 0.212910
O O15 0.000000 0.430736 0.169637
O O16 0.000000 0.834529 0.391898
#
# Coordination Sequence:
#
# PCOD9357572 Si02
#       6
#     8   8   8   8   8   8
#     4  10  20  32  48  73 103 130 155 191 239 285
#     4  11  21  31  48  73  99 126 156 195 243 291
#     4   9  18  32  49  69  94 126 161 196 236 281
#     4   9  18  32  49  69  96 128 160 195 235 281
#     4   9  17  30  50  74  98 128 165 200 234 276
#     4  10  20  34  52  71  94 127 163 198 235 278
#
# _framework density 15.807670999999999
#
# number of rings (size 3 to 8) (size 9 to 14) (size 15 to 20)
#    0.000    2.333    0.000    4.500    0.000    6.333 
#    0.000    0.000    0.000    1.000    0.000    2.333 
#    0.000    0.000    0.000    0.000    0.000    0.000 
#
# Total GULP energy -133912.957464 kJ/mol
# GULP energy per Si atom -5579.706561 kJ/mol
# Density = 1.577169 g / cm^3
# Si number density = 15.807671 Si / 1000 Ang^3
#
#
#
# Elastic Constant Matrix: (Units=GPa)
#
#
# Indices 1 2 3 4 5 6 
#
# 1 77.6430 56.5315 73.5579 0.0000 0.0000 0.0000
# 2 56.5315 91.4731 68.2953 0.0000 0.0000 0.0000
# 3 73.5579 68.2953 113.1403 0.0000 0.0000 0.0000
# 4 0.0000 0.0000 0.0000 20.5665 0.0000 0.0000
# 5 0.0000 0.0000 0.0000 0.0000 -19.5514 0.0000
# 6 0.0000 0.0000 0.0000 0.0000 0.0000 23.2452
#
#
#
# Elastic Compliance Matrix: (Units=1/GPa)
#
#
# Indices 1 2 3 4 5 6 
#
# 1 0.037187 -0.008977 -0.018758 0.000000 0.000000 0.000000
# 2 -0.008977 0.022068 -0.007485 0.000000 0.000000 0.000000
# 3 -0.018758 -0.007485 0.025552 0.000000 0.000000 0.000000
# 4 0.000000 0.000000 0.000000 0.048623 0.000000 0.000000
# 5 0.000000 0.000000 0.000000 0.000000 -0.051147 0.000000
# 6 0.000000 0.000000 0.000000 0.000000 0.000000 0.043020
#
#
# Mechanical properties :
#
#
# Convention : Reuss Voigt Hill
#
# Bulk Modulus (GPa) = 69.60111 75.44733 72.52422
# Shear Modulus (GPa) = 24.93378 10.44350 17.68864
#
# Velocity S-wave (km/s) = 3.97586 2.57312 3.34876
# Velocity P-wave (km/s) = 8.07478 7.52727 7.80583
#
# Compressibility (1/GPa) = 0.01436759
#
# Stress axis : x y z
#
# Youngs Moduli (GPa) = 26.89145 45.31393 39.13532
#
# Poissons Ratio (x) = 0.40677 0.73411
# Poissons Ratio (y) = 0.24139 0.29293
# Poissons Ratio (z) = 0.50443 0.33918
#
# Static dielectric constant tensor:
#      x y z
#    x 1.525390 0.000000 0.000000 
#    y 0.000000 1.526890 0.000000 
#    z 0.000000 0.000000 1.502360 
# 
# From -- ./inp_files/8115.got.cif
#   From: 2010.05.17/outbox.cif.g08.bks.cpg/sg38_5_cif.got.tgz:8115.got - 2010.06.03 18:07:57.
