data_PCOD9357231
_publ_section_title
;
Structure prediction by ZEFSAII (Michael W. Deem and Ramdas Pophale) SiO2 
 PCOD9357231
Probable space group: A M M 2
;
_chemical_formula_sum "Si O2"
_cell_formula_units_Z 40
_cell_length_a 11.789093
_cell_length_b 7.465384
_cell_length_c 21.029713
_cell_angle_alpha 90.000000
_cell_angle_beta 90.000000
_cell_angle_gamma 90.000000
_cell_volume 1850.827276
_symmetry_space_group_name_H-M "A M M 2"
_symmetry_group_IT_number 38
_symmetry_cell_setting 'orthorhombic'
loop_
_space_group_symop_operation_xyz
x,y,z
-x,-y,z
-x,y,z
x,-y,z
x,1/2+y,1/2+z
-x,1/2-y,1/2+z
-x,1/2+y,1/2+z
x,1/2-y,1/2+z
loop_
_atom_site_type_symbol
_atom_site_label
_atom_site_fract_x
_atom_site_fract_y
_atom_site_fract_z
Si Si1 0.749587 0.210846 0.722050
Si Si2 0.500000 0.720271 0.536657
Si Si3 0.131028 0.283084 0.094864
Si Si4 0.270628 0.293743 0.471599
Si Si5 0.131582 0.280022 0.350849
Si Si6 0.500000 0.786625 0.184111
O O1 0.799202 0.283309 0.655894
O O2 0.811132 0.280450 0.784952
O O3 0.614543 0.231054 0.719631
O O4 0.775971 0.000000 0.721288
O O5 0.500000 0.500000 0.538525
O O6 0.612224 0.782070 0.499508
O O7 0.500000 0.779550 0.610580
O O8 0.138841 0.500000 0.091880
O O9 0.183569 0.212068 0.030066
O O10 0.000000 0.234842 0.101745
O O11 0.296835 0.500000 0.455446
O O12 0.208058 0.217010 0.409991
O O13 0.131311 0.500000 0.352085
O O14 0.000000 0.225458 0.355735
O O15 0.500000 0.000000 0.180964
#
# Coordination Sequence:
#
# PCOD9357231 Si02
#       6
#     8   4   8   8   8   4
#     4  10  20  35  56  80 107 142 181 218 265 322
#     4   9  18  32  51  77 109 138 168 219 269 307
#     4  10  20  33  51  77 108 141 178 222 269 317
#     4  10  19  34  56  80 106 141 181 221 267 316
#     4   9  18  33  55  83 111 138 175 225 270 313
#     4  11  21  36  55  79 113 142 176 225 271 311
#
# _framework density 21.611957
#
# number of rings (size 3 to 8) (size 9 to 14) (size 15 to 20)
#    0.000    2.200    2.000    1.500    0.000    4.400 
#    0.000    4.500    0.000    3.000    0.000    0.000 
#    0.000    0.000    0.000    0.000    0.000    0.000 
#
# Total GULP energy -111732.170509 kJ/mol
# GULP energy per Si atom -5586.608525 kJ/mol
# Density = 2.156277 g / cm^3
# Si number density = 21.611957 Si / 1000 Ang^3
#
#
#
# Elastic Constant Matrix: (Units=GPa)
#
#
# Indices 1 2 3 4 5 6 
#
# 1 107.5248 -11.0536 32.5572 0.0000 0.0000 0.0000
# 2 -11.0536 60.9361 -0.4847 0.0000 0.0000 0.0000
# 3 32.5572 -0.4847 132.0489 0.0000 0.0000 0.0000
# 4 0.0000 0.0000 0.0000 8.6648 0.0000 0.0000
# 5 0.0000 0.0000 0.0000 0.0000 44.0148 0.0000
# 6 0.0000 0.0000 0.0000 0.0000 0.0000 4.5755
#
#
#
# Elastic Compliance Matrix: (Units=1/GPa)
#
#
# Indices 1 2 3 4 5 6 
#
# 1 0.010253 0.001840 -0.002521 0.000000 0.000000 0.000000
# 2 0.001840 0.016741 -0.000392 0.000000 0.000000 0.000000
# 3 -0.002521 -0.000392 0.008193 0.000000 0.000000 0.000000
# 4 0.000000 0.000000 0.000000 0.115409 0.000000 0.000000
# 5 0.000000 0.000000 0.000000 0.000000 0.022720 0.000000
# 6 0.000000 0.000000 0.000000 0.000000 0.000000 0.218554
#
#
# Mechanical properties :
#
#
# Convention : Reuss Voigt Hill
#
# Bulk Modulus (GPa) = 30.26631 38.06084 34.16358
# Shear Modulus (GPa) = 12.34478 30.08377 21.21428
#
# Velocity S-wave (km/s) = 2.39258 3.73499 3.13645
# Velocity P-wave (km/s) = 4.65482 6.02075 5.38130
#
# Compressibility (1/GPa) = 0.03304003
#
# Stress axis : x y z
#
# Youngs Moduli (GPa) = 97.53567 59.73275 122.05393
#
# Poissons Ratio (x) = -0.10989 0.30771
# Poissons Ratio (y) = -0.17944 0.04786
# Poissons Ratio (z) = 0.24590 0.02342
#
# Static dielectric constant tensor:
#      x y z
#    x 1.636710 0.000000 0.000000 
#    y 0.000000 1.857160 0.000000 
#    z 0.000000 0.000000 1.746340 
# 
# From -- ./inp_files/20457.got.cif
#   From: 2010.05.17/outbox.cif.g08.bks.cpg/sg38_11_cif.got.tgz:20457.got - 2010.06.03 18:07:57.
