data_PCOD9357343
_publ_section_title
;
Structure prediction by ZEFSAII (Michael W. Deem and Ramdas Pophale) SiO2 
 PCOD9357343
Probable space group: A M M 2
;
_chemical_formula_sum "Si O2"
_cell_formula_units_Z 48
_cell_length_a 17.083053
_cell_length_b 7.561893
_cell_length_c 16.635039
_cell_angle_alpha 90.000000
_cell_angle_beta 90.000000
_cell_angle_gamma 90.000000
_cell_volume 2148.917979
_symmetry_space_group_name_H-M "A M M 2"
_symmetry_group_IT_number 38
_symmetry_cell_setting 'orthorhombic'
loop_
_space_group_symop_operation_xyz
x,y,z
-x,-y,z
-x,y,z
x,-y,z
x,1/2+y,1/2+z
-x,1/2-y,1/2+z
-x,1/2+y,1/2+z
x,1/2-y,1/2+z
loop_
_atom_site_type_symbol
_atom_site_label
_atom_site_fract_x
_atom_site_fract_y
_atom_site_fract_z
Si Si1 0.667641 0.204948 0.333690
Si Si2 0.000000 0.710679 0.144171
Si Si3 0.681962 0.709986 0.661582
Si Si4 0.168718 0.209558 0.076044
Si Si5 0.000000 0.215812 0.827382
Si Si6 0.167473 0.784884 0.895505
Si Si7 0.409657 0.786248 0.498046
O O1 0.648360 0.282525 0.245723
O O2 0.761660 0.216990 0.341516
O O3 0.632434 0.281392 0.416515
O O4 0.642198 0.000000 0.334264
O O5 0.079346 0.765815 0.100758
O O6 0.000000 0.500000 0.147258
O O7 0.000000 0.776871 0.235472
O O8 0.689636 0.500000 0.676137
O O9 0.768112 0.782603 0.638820
O O10 0.631318 0.731915 0.581136
O O11 0.182839 0.000000 0.071474
O O12 0.182241 0.278656 0.986365
O O13 0.919167 0.271371 0.868791
O O14 0.000000 0.000000 0.828769
O O15 0.169405 0.000000 0.893335
O O16 0.500000 0.731381 0.497430
O O17 0.406379 0.000000 0.497306
#
# Coordination Sequence:
#
# PCOD9357343 Si02
#       7
#     8   4   8   8   4   8   8
#     4  10  21  37  59  87 119 149 186 237 291 339
#     4  11  22  33  49  77 110 147 194 239 284 335
#     4  10  21  38  61  89 116 151 195 238 286 342
#     4  10  20  35  55  79 110 148 191 237 287 335
#     4   9  19  33  49  75 108 145 190 235 278 331
#     4  10  19  35  58  79 108 151 195 233 280 338
#     4  10  22  40  60  84 117 153 186 230 291 351
#
# _framework density 22.336821
#
# number of rings (size 3 to 8) (size 9 to 14) (size 15 to 20)
#    0.000    2.000    1.667    1.750    0.000    4.333 
#    0.000    2.917    0.000    0.000    0.000    0.000 
#    0.000    0.000    0.000    0.000    0.000    0.000 
#
# Total GULP energy -134054.147077 kJ/mol
# GULP energy per Si atom -5585.589462 kJ/mol
# Density = 2.228598 g / cm^3
# Si number density = 22.336821 Si / 1000 Ang^3
#
#
#
# Elastic Constant Matrix: (Units=GPa)
#
#
# Indices 1 2 3 4 5 6 
#
# 1 98.3671 -17.2626 50.9156 0.0000 0.0000 0.0000
# 2 -17.2626 48.6576 -0.6123 0.0000 0.0000 0.0000
# 3 50.9156 -0.6123 193.3829 0.0000 0.0000 0.0000
# 4 0.0000 0.0000 0.0000 7.2707 0.0000 0.0000
# 5 0.0000 0.0000 0.0000 0.0000 10.4435 0.0000
# 6 0.0000 0.0000 0.0000 0.0000 0.0000 10.3704
#
#
#
# Elastic Compliance Matrix: (Units=1/GPa)
#
#
# Indices 1 2 3 4 5 6 
#
# 1 0.012666 0.004452 -0.003321 0.000000 0.000000 0.000000
# 2 0.004452 0.022117 -0.001102 0.000000 0.000000 0.000000
# 3 -0.003321 -0.001102 0.006042 0.000000 0.000000 0.000000
# 4 0.000000 0.000000 0.000000 0.137538 0.000000 0.000000
# 5 0.000000 0.000000 0.000000 0.000000 0.095754 0.000000
# 6 0.000000 0.000000 0.000000 0.000000 0.000000 0.096428
#
#
# Mechanical properties :
#
#
# Convention : Reuss Voigt Hill
#
# Bulk Modulus (GPa) = 24.45983 45.16545 34.81264
# Shear Modulus (GPa) = 13.01694 26.10804 19.56249
#
# Velocity S-wave (km/s) = 2.41666 3.42253 2.96259
# Velocity P-wave (km/s) = 4.33142 5.99019 5.22702
#
# Compressibility (1/GPa) = 0.04088336
#
# Stress axis : x y z
#
# Youngs Moduli (GPa) = 78.95085 45.21341 165.51034
#
# Poissons Ratio (x) = -0.20128 0.54962
# Poissons Ratio (y) = -0.35148 0.18241
# Poissons Ratio (z) = 0.26218 0.04983
#
# Static dielectric constant tensor:
#      x y z
#    x 1.763570 0.000000 0.000000 
#    y 0.000000 1.829130 0.000000 
#    z 0.000000 0.000000 1.848780 
# 
# From -- ./inp_files/14987.got.cif
#   From: 2010.05.17/outbox.cif.g08.bks.cpg/sg38_8_cif.got.tgz:14987.got - 2010.06.03 18:07:57.
