data_PCOD9357859
_publ_section_title
;
Structure prediction by ZEFSAII (Michael W. Deem and Ramdas Pophale) SiO2 
 PCOD9357859
Probable space group: A M M 2
;
_chemical_formula_sum "Si O2"
_cell_formula_units_Z 64
_cell_length_a 8.594718
_cell_length_b 20.445432
_cell_length_c 20.805202
_cell_angle_alpha 90.000000
_cell_angle_beta 90.000000
_cell_angle_gamma 90.000000
_cell_volume 3655.946736
_symmetry_space_group_name_H-M "A M M 2"
_symmetry_group_IT_number 38
_symmetry_cell_setting 'orthorhombic'
loop_
_space_group_symop_operation_xyz
x,y,z
-x,-y,z
-x,y,z
x,-y,z
x,1/2+y,1/2+z
-x,1/2-y,1/2+z
-x,1/2+y,1/2+z
x,1/2-y,1/2+z
loop_
_atom_site_type_symbol
_atom_site_label
_atom_site_fract_x
_atom_site_fract_y
_atom_site_fract_z
Si Si1 0.686796 0.823131 0.266350
Si Si2 0.687834 0.075225 0.375237
Si Si3 0.189112 0.324791 0.124179
Si Si4 0.312207 0.575314 0.372447
Si Si5 0.687744 0.075385 0.020017
Si Si6 0.186373 0.824909 0.124914
Si Si7 0.811908 0.075302 0.515511
Si Si8 0.186565 0.678169 0.270358
O O1 0.500000 0.822022 0.265200
O O2 0.738850 0.875578 0.319476
O O3 0.747483 0.840799 0.195415
O O4 0.747965 0.750705 0.282705
O O5 0.500000 0.076385 0.377463
O O6 0.751301 0.094325 0.445168
O O7 0.736379 0.000000 0.362750
O O8 0.236003 0.249981 0.110011
O O9 0.236301 0.340271 0.197444
O O10 0.000000 0.326391 0.123072
O O11 0.244258 0.376086 0.071156
O O12 0.500000 0.578123 0.369771
O O13 0.266208 0.500000 0.358778
O O14 0.266180 0.590306 0.446253
O O15 0.243783 0.626036 0.322038
O O16 0.500000 0.078484 0.022925
O O17 0.756792 0.125219 0.071082
O O18 0.732836 0.000000 0.033524
O O19 0.000000 0.825752 0.128362
O O20 0.000000 0.076892 0.514514
O O21 0.764126 0.000000 0.527554
O O22 0.000000 0.681482 0.271226
#
# Coordination Sequence:
#
# PCOD9357859 Si02
#       8
#     8   8   8   8   8   8   8   8
#     4  10  20  35  54  74 101 139 175 208 253 310
#     4   9  19  35  52  72  99 129 164 207 251 296
#     4   8  17  33  49  70 102 134 164 201 248 301
#     4   9  19  36  55  76 105 139 175 215 258 310
#     4   9  19  36  55  74 100 135 172 210 255 311
#     4  10  20  34  52  76 105 133 166 213 260 302
#     4   9  17  31  52  74  97 129 166 202 243 294
#     4  10  20  34  53  77 105 136 172 217 262 304
#
# _framework density 17.505725000000002
#
# number of rings (size 3 to 8) (size 9 to 14) (size 15 to 20)
#    0.000    2.750    0.000    2.625    0.000    4.000 
#    0.000   10.000    0.000    1.500    0.000    0.000 
#    0.000    0.000    0.000    0.000    0.000    0.000 
#
# Total GULP energy -178452.561461 kJ/mol
# GULP energy per Si atom -5576.642546 kJ/mol
# Density = 1.746588 g / cm^3
# Si number density = 17.505725 Si / 1000 Ang^3
#
#
#
# Elastic Constant Matrix: (Units=GPa)
#
#
# Indices 1 2 3 4 5 6 
#
# 1 26.1947 34.4455 38.2387 0.0000 0.0000 0.0000
# 2 34.4455 132.1296 140.4543 0.0000 0.0000 0.0000
# 3 38.2387 140.4543 177.0819 0.0000 0.0000 0.0000
# 4 0.0000 0.0000 0.0000 44.5850 0.0000 0.0000
# 5 0.0000 0.0000 0.0000 0.0000 29.6131 0.0000
# 6 0.0000 0.0000 0.0000 0.0000 0.0000 18.6879
#
#
#
# Elastic Compliance Matrix: (Units=1/GPa)
#
#
# Indices 1 2 3 4 5 6 
#
# 1 0.058411 -0.011600 -0.003413 0.000000 0.000000 0.000000
# 2 -0.011600 0.050550 -0.037589 0.000000 0.000000 0.000000
# 3 -0.003413 -0.037589 0.036198 0.000000 0.000000 0.000000
# 4 0.000000 0.000000 0.000000 0.022429 0.000000 0.000000
# 5 0.000000 0.000000 0.000000 0.000000 0.033769 0.000000
# 6 0.000000 0.000000 0.000000 0.000000 0.000000 0.053511
#
#
# Mechanical properties :
#
#
# Convention : Reuss Voigt Hill
#
# Bulk Modulus (GPa) = 25.02770 84.63145 54.82957
# Shear Modulus (GPa) = 13.39081 26.72838 20.05959
#
# Velocity S-wave (km/s) = 2.76875 3.91171 3.38877
# Velocity P-wave (km/s) = 4.95472 8.29771 6.83378
#
# Compressibility (1/GPa) = 0.03995573
#
# Stress axis : x y z
#
# Youngs Moduli (GPa) = 17.12007 19.78235 27.62549
#
# Poissons Ratio (x) = 0.22947 0.09427
# Poissons Ratio (y) = 0.19859 1.03843
# Poissons Ratio (z) = 0.05842 0.74361
#
# Static dielectric constant tensor:
#      x y z
#    x 1.596100 0.000000 0.000000 
#    y 0.000000 1.583370 0.000000 
#    z 0.000000 0.000000 1.574670 
# 
# From -- ./inp_files/17192.got.cif
#   From: 2010.05.17/outbox.cif.g08.bks.cpg/sg38_9_cif.got.tgz:17192.got - 2010.06.03 18:07:57.
