data_PCOD9357506
_publ_section_title
;
Structure prediction by ZEFSAII (Michael W. Deem and Ramdas Pophale) SiO2 
 PCOD9357506
Probable space group: A M M 2
;
_chemical_formula_sum "Si O2"
_cell_formula_units_Z 52
_cell_length_a 7.497075
_cell_length_b 14.816966
_cell_length_c 27.242062
_cell_angle_alpha 90.000000
_cell_angle_beta 90.000000
_cell_angle_gamma 90.000000
_cell_volume 3026.154637
_symmetry_space_group_name_H-M "A M M 2"
_symmetry_group_IT_number 38
_symmetry_cell_setting 'orthorhombic'
loop_
_space_group_symop_operation_xyz
x,y,z
-x,-y,z
-x,y,z
x,-y,z
x,1/2+y,1/2+z
-x,1/2-y,1/2+z
-x,1/2+y,1/2+z
x,1/2-y,1/2+z
loop_
_atom_site_type_symbol
_atom_site_label
_atom_site_fract_x
_atom_site_fract_y
_atom_site_fract_z
Si Si1 0.298859 0.141068 0.696740
Si Si2 0.000000 0.096515 0.772663
Si Si3 0.717637 0.902893 0.128663
Si Si4 0.000000 0.198476 0.309132
Si Si5 0.299143 0.152429 0.234175
Si Si6 0.710675 0.893726 0.495464
Si Si7 0.000000 0.892895 0.413368
Si Si8 0.282376 0.292687 0.093884
O O1 0.500000 0.104598 0.697156
O O2 0.309689 0.245433 0.713613
O O3 0.228776 0.147038 0.640942
O O4 0.168703 0.098296 0.736064
O O5 0.000000 0.192045 0.801781
O O6 0.000000 0.000000 0.800133
O O7 0.500000 0.900022 0.128669
O O8 0.769816 0.899042 0.186049
O O9 0.777127 0.810751 0.102470
O O10 0.772326 0.000000 0.107643
O O11 0.830539 0.157244 0.280179
O O12 0.000000 0.167010 0.364893
O O13 0.500000 0.122060 0.246390
O O14 0.500000 0.877926 0.486835
O O15 0.769683 0.835215 0.542263
O O16 0.828761 0.874914 0.447779
O O17 0.733157 0.000000 0.507314
O O18 0.000000 0.000000 0.400762
O O19 0.500000 0.292591 0.095469
#
# Coordination Sequence:
#
# PCOD9357506 Si02
#       8
#     8   4   8   4   8   8   4   8
#     4   8  15  28  44  66  97 126 153 183 209 249
#     4  10  20  31  46  69  94 124 155 179 218 271
#     4   8  13  23  42  69 100 130 155 180 214 261
#     4  10  20  34  50  67  89 117 152 195 233 269
#     4   8  15  28  45  66  93 124 154 182 217 260
#     4   9  18  33  51  70  92 117 148 189 234 276
#     4  10  22  37  52  70  87 109 149 198 245 282
#     4   8  14  26  45  68  95 127 156 181 219 269
#
# _framework density 17.183523000000001
#
# number of rings (size 3 to 8) (size 9 to 14) (size 15 to 20)
#    0.000    3.385    0.000    1.846    0.000    2.769 
#    0.000    3.077    0.000    0.923    0.000    0.000 
#    0.000    0.000    0.000    0.000    0.000    0.000 
#
# Total GULP energy -144793.988767 kJ/mol
# GULP energy per Si atom -5568.999568 kJ/mol
# Density = 1.714441 g / cm^3
# Si number density = 17.183523 Si / 1000 Ang^3
#
#
#
# Elastic Constant Matrix: (Units=GPa)
#
#
# Indices 1 2 3 4 5 6 
#
# 1 70.3426 27.3586 44.2462 0.0000 0.0000 0.0000
# 2 27.3586 91.7284 62.5643 0.0000 0.0000 0.0000
# 3 44.2462 62.5643 130.3989 0.0000 0.0000 0.0000
# 4 0.0000 0.0000 0.0000 20.3204 0.0000 0.0000
# 5 0.0000 0.0000 0.0000 0.0000 18.9396 0.0000
# 6 0.0000 0.0000 0.0000 0.0000 0.0000 4.3512
#
#
#
# Elastic Compliance Matrix: (Units=1/GPa)
#
#
# Indices 1 2 3 4 5 6 
#
# 1 0.018275 -0.001815 -0.005330 0.000000 0.000000 0.000000
# 2 -0.001815 0.016385 -0.007245 0.000000 0.000000 0.000000
# 3 -0.005330 -0.007245 0.012954 0.000000 0.000000 0.000000
# 4 0.000000 0.000000 0.000000 0.049212 0.000000 0.000000
# 5 0.000000 0.000000 0.000000 0.000000 0.052799 0.000000
# 6 0.000000 0.000000 0.000000 0.000000 0.000000 0.229822
#
#
# Mechanical properties :
#
#
# Convention : Reuss Voigt Hill
#
# Bulk Modulus (GPa) = 53.10083 62.31200 57.70642
# Shear Modulus (GPa) = 12.06257 19.27563 15.66910
#
# Velocity S-wave (km/s) = 2.65237 3.35289 3.02299
# Velocity P-wave (km/s) = 6.35212 7.16453 6.77052
#
# Compressibility (1/GPa) = 0.01883210
#
# Stress axis : x y z
#
# Youngs Moduli (GPa) = 54.72035 61.03148 77.19864
#
# Poissons Ratio (x) = 0.11079 0.41146
# Poissons Ratio (y) = 0.09933 0.55934
# Poissons Ratio (z) = 0.29166 0.44220
#
# Static dielectric constant tensor:
#      x y z
#    x 1.639090 0.000000 0.000000 
#    y 0.000000 1.621850 0.000000 
#    z 0.000000 0.000000 1.538930 
# 
# From -- ./inp_files/19729.got.cif
#   From: 2010.05.17/outbox.cif.g08.bks.cpg/sg38_10_cif.got.tgz:19729.got - 2010.06.03 18:07:57.
