data_PCOD9357799
_publ_section_title
;
Structure prediction by ZEFSAII (Michael W. Deem and Ramdas Pophale) SiO2 
 PCOD9357799
Probable space group: A M M 2
;
_chemical_formula_sum "Si O2"
_cell_formula_units_Z 56
_cell_length_a 17.081648
_cell_length_b 7.656001
_cell_length_c 21.165265
_cell_angle_alpha 90.000000
_cell_angle_beta 90.000000
_cell_angle_gamma 90.000000
_cell_volume 2767.932277
_symmetry_space_group_name_H-M "A M M 2"
_symmetry_group_IT_number 38
_symmetry_cell_setting 'orthorhombic'
loop_
_space_group_symop_operation_xyz
x,y,z
-x,-y,z
-x,y,z
x,-y,z
x,1/2+y,1/2+z
-x,1/2-y,1/2+z
-x,1/2+y,1/2+z
x,1/2-y,1/2+z
loop_
_atom_site_type_symbol
_atom_site_label
_atom_site_fract_x
_atom_site_fract_y
_atom_site_fract_z
Si Si1 0.838343 0.702182 0.200530
Si Si2 0.746731 0.203654 0.321923
Si Si3 0.000000 0.214746 0.760132
Si Si4 0.588307 0.708993 0.382065
Si Si5 0.829256 0.794078 0.447554
Si Si6 0.587462 0.208948 0.528981
Si Si7 0.000000 0.290680 0.406730
Si Si8 0.750664 0.215131 0.576923
O O1 0.855082 0.500000 0.185356
O O2 0.778181 0.709212 0.258809
O O3 0.796877 0.777734 0.138572
O O4 0.921071 0.775290 0.225221
O O5 0.655077 0.219938 0.336468
O O6 0.789896 0.279877 0.383995
O O7 0.767631 0.000000 0.315933
O O8 0.000000 0.270290 0.833559
O O9 0.000000 0.000000 0.761376
O O10 0.500000 0.771101 0.368383
O O11 0.589227 0.500000 0.377729
O O12 0.605635 0.757687 0.454982
O O13 0.921629 0.770740 0.441001
O O14 0.794291 0.726851 0.512962
O O15 0.810287 0.000000 0.447056
O O16 0.500000 0.279566 0.541726
O O17 0.660258 0.272354 0.570509
O O18 0.583947 0.000000 0.536737
O O19 0.000000 0.500000 0.405980
O O20 0.750007 0.000000 0.578368
#
# Coordination Sequence:
#
# PCOD9357799 Si02
#       8
#     8   8   4   8   8   8   4   8
#     4  10  20  36  57  78 108 147 188 230 274 328
#     4  11  21  35  56  81 110 143 180 222 275 330
#     4   9  18  32  51  77 103 138 184 227 275 324
#     4  10  20  33  53  83 113 143 183 229 274 320
#     4  10  20  35  55  80 107 138 180 226 272 324
#     4   9  16  30  53  80 110 143 181 225 273 326
#     4  11  21  34  53  81 109 136 180 229 281 326
#     4   9  18  34  55  81 109 144 186 224 270 327
#
# _framework density 20.231708999999999
#
# number of rings (size 3 to 8) (size 9 to 14) (size 15 to 20)
#    0.000    2.143    2.857    1.071    0.000    2.000 
#    0.000    4.643    0.000    2.571    0.000    0.000 
#    0.000    0.000    0.000    0.000    0.000    0.000 
#
# Total GULP energy -156297.522052 kJ/mol
# GULP energy per Si atom -5582.054359 kJ/mol
# Density = 2.018566 g / cm^3
# Si number density = 20.231709 Si / 1000 Ang^3
#
#
#
# Elastic Constant Matrix: (Units=GPa)
#
#
# Indices 1 2 3 4 5 6 
#
# 1 146.3547 -10.8148 69.1621 0.0000 0.0000 0.0000
# 2 -10.8148 38.0508 -0.4060 0.0000 0.0000 0.0000
# 3 69.1621 -0.4060 121.7295 0.0000 0.0000 0.0000
# 4 0.0000 0.0000 0.0000 11.2638 0.0000 0.0000
# 5 0.0000 0.0000 0.0000 0.0000 23.4064 0.0000
# 6 0.0000 0.0000 0.0000 0.0000 0.0000 8.8068
#
#
#
# Elastic Compliance Matrix: (Units=1/GPa)
#
#
# Indices 1 2 3 4 5 6 
#
# 1 0.009605 0.002672 -0.005448 0.000000 0.000000 0.000000
# 2 0.002672 0.027025 -0.001428 0.000000 0.000000 0.000000
# 3 -0.005448 -0.001428 0.011306 0.000000 0.000000 0.000000
# 4 0.000000 0.000000 0.000000 0.088780 0.000000 0.000000
# 5 0.000000 0.000000 0.000000 0.000000 0.042723 0.000000
# 6 0.000000 0.000000 0.000000 0.000000 0.000000 0.113548
#
#
# Mechanical properties :
#
#
# Convention : Reuss Voigt Hill
#
# Bulk Modulus (GPa) = 25.29937 46.89083 36.09510
# Shear Modulus (GPa) = 15.89468 25.24166 20.56817
#
# Velocity S-wave (km/s) = 2.80595 3.53601 3.19192
# Velocity P-wave (km/s) = 4.79894 6.31652 5.60929
#
# Compressibility (1/GPa) = 0.03952667
#
# Stress axis : x y z
#
# Youngs Moduli (GPa) = 104.11524 37.00303 88.45169
#
# Poissons Ratio (x) = -0.09886 0.48190
# Poissons Ratio (y) = -0.27817 0.12629
# Poissons Ratio (z) = 0.56723 0.05283
#
# Static dielectric constant tensor:
#      x y z
#    x 1.730310 0.000000 0.000000 
#    y 0.000000 1.771480 0.000000 
#    z 0.000000 0.000000 1.682940 
# 
# From -- ./inp_files/21164.got.cif
#   From: 2010.05.17/outbox.cif.g08.bks.cpg/sg38_11_cif.got.tgz:21164.got - 2010.06.03 18:07:57.
