data_PCOD9357795
_publ_section_title
;
Structure prediction by ZEFSAII (Michael W. Deem and Ramdas Pophale) SiO2 
 PCOD9357795
Probable space group: A M M 2
;
_chemical_formula_sum "Si O2"
_cell_formula_units_Z 64
_cell_length_a 24.459585
_cell_length_b 7.666807
_cell_length_c 15.357883
_cell_angle_alpha 90.000000
_cell_angle_beta 90.000000
_cell_angle_gamma 90.000000
_cell_volume 2880.016458
_symmetry_space_group_name_H-M "A M M 2"
_symmetry_group_IT_number 38
_symmetry_cell_setting 'orthorhombic'
loop_
_space_group_symop_operation_xyz
x,y,z
-x,-y,z
-x,y,z
x,-y,z
x,1/2+y,1/2+z
-x,1/2-y,1/2+z
-x,1/2+y,1/2+z
x,1/2-y,1/2+z
loop_
_atom_site_type_symbol
_atom_site_label
_atom_site_fract_x
_atom_site_fract_y
_atom_site_fract_z
Si Si1 0.856619 0.285307 0.799480
Si Si2 0.650281 0.704385 0.502781
Si Si3 0.939928 0.202950 0.157446
Si Si4 0.768752 0.707894 0.537739
Si Si5 0.624427 0.199862 0.698754
Si Si6 0.438016 0.214356 0.864012
Si Si7 0.888320 0.301138 0.982407
Si Si8 0.742307 0.793638 0.242168
O O1 0.853461 0.500000 0.799415
O O2 0.890677 0.224814 0.715831
O O3 0.793470 0.227098 0.797906
O O4 0.888761 0.228816 0.885178
O O5 0.655914 0.500000 0.482878
O O6 0.712010 0.777182 0.497018
O O7 0.631703 0.716282 0.603875
O O8 0.605178 0.775568 0.436751
O O9 0.922419 0.210215 0.057255
O O10 0.000000 0.281287 0.170653
O O11 0.943337 0.000000 0.182460
O O12 0.774122 0.500000 0.521199
O O13 0.824278 0.795481 0.507849
O O14 0.761427 0.726679 0.641744
O O15 0.581466 0.272547 0.768156
O O16 0.683243 0.207334 0.747330
O O17 0.610143 0.000000 0.681168
O O18 0.500000 0.267069 0.882833
O O19 0.436818 0.000000 0.863650
O O20 0.907496 0.500000 0.980073
O O21 0.734313 0.000000 0.257819
#
# Coordination Sequence:
#
# PCOD9357795 Si02
#       8
#     8   8   8   8   8   8   8   8
#     4   9  19  36  56  81 109 145 184 216 263 326
#     4   9  19  36  56  77 105 147 188 223 266 325
#     4  10  21  41  64  79 103 149 194 223 257 321
#     4   9  17  32  55  78 108 145 183 221 264 325
#     4  10  20  33  53  83 112 138 177 230 282 323
#     4   9  19  36  56  78 108 148 189 224 269 334
#     4  11  22  34  55  87 116 140 174 227 282 321
#     4   9  17  34  57  77 108 148 184 219 262 326
#
# _framework density 22.222097000000002
#
# number of rings (size 3 to 8) (size 9 to 14) (size 15 to 20)
#    0.000    2.500    1.250    1.500    1.750    3.250 
#    0.000    4.375    0.000    2.625    0.000    0.000 
#    0.000    0.000    0.000    0.000    0.000    0.000 
#
# Total GULP energy -178639.346254 kJ/mol
# GULP energy per Si atom -5582.479570 kJ/mol
# Density = 2.217152 g / cm^3
# Si number density = 22.222097 Si / 1000 Ang^3
#
#
#
# Elastic Constant Matrix: (Units=GPa)
#
#
# Indices 1 2 3 4 5 6 
#
# 1 75.3756 -5.7124 7.9462 0.0000 0.0000 0.0000
# 2 -5.7124 32.4449 -5.8403 0.0000 0.0000 0.0000
# 3 7.9462 -5.8403 43.3940 0.0000 0.0000 0.0000
# 4 0.0000 0.0000 0.0000 13.8814 0.0000 0.0000
# 5 0.0000 0.0000 0.0000 0.0000 14.4854 0.0000
# 6 0.0000 0.0000 0.0000 0.0000 0.0000 9.2418
#
#
#
# Elastic Compliance Matrix: (Units=1/GPa)
#
#
# Indices 1 2 3 4 5 6 
#
# 1 0.013654 0.002002 -0.002231 0.000000 0.000000 0.000000
# 2 0.002002 0.031880 0.003924 0.000000 0.000000 0.000000
# 3 -0.002231 0.003924 0.023981 0.000000 0.000000 0.000000
# 4 0.000000 0.000000 0.000000 0.072039 0.000000 0.000000
# 5 0.000000 0.000000 0.000000 0.000000 0.069035 0.000000
# 6 0.000000 0.000000 0.000000 0.000000 0.000000 0.108204
#
#
# Mechanical properties :
#
#
# Convention : Reuss Voigt Hill
#
# Bulk Modulus (GPa) = 13.00272 16.00015 14.50144
# Shear Modulus (GPa) = 14.83513 17.84312 16.33912
#
# Velocity S-wave (km/s) = 2.58657 2.83670 2.71452
# Velocity P-wave (km/s) = 3.84505 4.23614 4.04533
#
# Compressibility (1/GPa) = 0.07690698
#
# Stress axis : x y z
#
# Youngs Moduli (GPa) = 73.23961 31.36723 41.69917
#
# Poissons Ratio (x) = -0.06281 0.09302
# Poissons Ratio (y) = -0.14666 -0.16363
# Poissons Ratio (z) = 0.16338 -0.12309
#
# Static dielectric constant tensor:
#      x y z
#    x 1.806230 0.000000 0.000000 
#    y 0.000000 1.832440 0.000000 
#    z 0.000000 0.000000 1.816230 
# 
# From -- ./inp_files/15730.got.cif
#   From: 2010.05.17/outbox.cif.g08.bks.cpg/sg38_8_cif.got.tgz:15730.got - 2010.06.03 18:07:57.
