data_PCOD9357280
_publ_section_title
;
Structure prediction by ZEFSAII (Michael W. Deem and Ramdas Pophale) SiO2 
 PCOD9357280
Probable space group: A M M 2
;
_chemical_formula_sum "Si O2"
_cell_formula_units_Z 56
_cell_length_a 21.609870
_cell_length_b 15.037635
_cell_length_c 7.342347
_cell_angle_alpha 90.000000
_cell_angle_beta 90.000000
_cell_angle_gamma 90.000000
_cell_volume 2385.978901
_symmetry_space_group_name_H-M "A M M 2"
_symmetry_group_IT_number 38
_symmetry_cell_setting 'orthorhombic'
loop_
_space_group_symop_operation_xyz
x,y,z
-x,-y,z
-x,y,z
x,-y,z
x,1/2+y,1/2+z
-x,1/2-y,1/2+z
-x,1/2+y,1/2+z
x,1/2-y,1/2+z
loop_
_atom_site_type_symbol
_atom_site_label
_atom_site_fract_x
_atom_site_fract_y
_atom_site_fract_z
Si Si1 0.569920 0.000000 0.143541
Si Si2 0.911541 0.394504 0.770775
Si Si3 0.653946 0.339314 0.639179
Si Si4 0.331788 0.354335 0.209498
Si Si5 0.067770 0.206530 0.639545
Si Si6 0.191818 0.394740 0.258005
Si Si7 0.776058 0.900691 0.183751
Si Si8 0.428430 0.000000 0.697848
O O1 0.606038 0.911990 0.203738
O O2 0.500000 0.000000 0.206781
O O3 0.568848 0.000000 0.920934
O O4 0.928148 0.500000 0.736670
O O5 0.926084 0.314845 0.626588
O O6 0.837736 0.394744 0.797673
O O7 0.936372 0.349712 0.953529
O O8 0.667643 0.362324 0.429248
O O9 0.638014 0.238070 0.652475
O O10 0.720013 0.340082 0.741215
O O11 0.258607 0.370673 0.166179
O O12 0.383477 0.420980 0.139540
O O13 0.132682 0.168147 0.718273
O O14 0.000000 0.191019 0.731172
O O15 0.178319 0.500000 0.220457
O O16 0.202510 0.386835 0.475784
O O17 0.749941 0.000000 0.192446
O O18 0.500000 0.000000 0.638180
#
# Coordination Sequence:
#
# PCOD9357280 Si02
#       8
#     4   8   8   8   8   8   8   4
#     4   9  18  34  57  83 117 161 200 236 292 367
#     4  11  25  45  68  95 130 169 213 267 327 388
#     4  10  19  34  57  86 119 153 200 249 299 360
#     4  10  20  35  58  88 118 156 199 252 300 355
#     4  12  26  43  65  94 128 169 214 263 322 390
#     4  10  20  38  65  94 126 161 210 265 316 375
#     4   9  18  36  62  90 119 157 204 257 311 366
#     4   9  18  36  59  83 116 159 200 236 291 363
#
# _framework density 23.470451000000001
#
# number of rings (size 3 to 8) (size 9 to 14) (size 15 to 20)
#    0.000    1.857    1.429    2.571    0.000    6.000 
#    0.000    2.143    0.000    9.429    0.000    0.000 
#    0.000    0.000    0.000    0.000    0.000    0.000 
#
# Total GULP energy -156110.270852 kJ/mol
# GULP energy per Si atom -5575.366816 kJ/mol
# Density = 2.341703 g / cm^3
# Si number density = 23.470451 Si / 1000 Ang^3
#
#
#
# Elastic Constant Matrix: (Units=GPa)
#
#
# Indices 1 2 3 4 5 6 
#
# 1 201.2906 109.0903 16.7494 0.0000 0.0000 0.0000
# 2 109.0903 220.7463 20.0641 0.0000 0.0000 0.0000
# 3 16.7494 20.0641 50.8924 0.0000 0.0000 0.0000
# 4 0.0000 0.0000 0.0000 18.8542 0.0000 0.0000
# 5 0.0000 0.0000 0.0000 0.0000 -14.4243 0.0000
# 6 0.0000 0.0000 0.0000 0.0000 0.0000 9.4657
#
#
#
# Elastic Compliance Matrix: (Units=1/GPa)
#
#
# Indices 1 2 3 4 5 6 
#
# 1 0.006829 -0.003289 -0.000951 0.000000 0.000000 0.000000
# 2 -0.003289 0.006282 -0.001394 0.000000 0.000000 0.000000
# 3 -0.000951 -0.001394 0.020512 0.000000 0.000000 0.000000
# 4 0.000000 0.000000 0.000000 0.053039 0.000000 0.000000
# 5 0.000000 0.000000 0.000000 0.000000 -0.069327 0.000000
# 6 0.000000 0.000000 0.000000 0.000000 0.000000 0.105644
#
#
# Mechanical properties :
#
#
# Convention : Reuss Voigt Hill
#
# Bulk Modulus (GPa) = 44.73205 84.97076 64.85141
# Shear Modulus (GPa) = 35.28619 24.58082 29.93351
#
# Velocity S-wave (km/s) = 3.88162 3.23973 3.57511
# Velocity P-wave (km/s) = 6.26015 7.09058 6.68827
#
# Compressibility (1/GPa) = 0.02235533
#
# Stress axis : x y z
#
# Youngs Moduli (GPa) = 146.42767 159.18580 48.75183
#
# Poissons Ratio (x) = 0.52348 0.04637
# Poissons Ratio (y) = 0.48153 0.06798
# Poissons Ratio (z) = 0.13927 0.22196
#
# Static dielectric constant tensor:
#      x y z
#    x 1.867010 0.000000 0.000000 
#    y 0.000000 1.919960 0.000000 
#    z 0.000000 0.000000 1.992400 
# 
# From -- ./inp_files/6786.got.cif
#   From: 2010.05.17/outbox.cif.g08.bks.cpg/sg38_4_cif.got.tgz:6786.got - 2010.06.03 18:07:57.
