data_PCOD9357033
_publ_section_title
;
Structure prediction by ZEFSAII (Michael W. Deem and Ramdas Pophale) SiO2 
 PCOD9357033
Probable space group: A M M 2
;
_chemical_formula_sum "Si O2"
_cell_formula_units_Z 64
_cell_length_a 13.935280
_cell_length_b 13.851089
_cell_length_c 18.718154
_cell_angle_alpha 90.000000
_cell_angle_beta 90.000000
_cell_angle_gamma 90.000000
_cell_volume 3612.955689
_symmetry_space_group_name_H-M "A M M 2"
_symmetry_group_IT_number 38
_symmetry_cell_setting 'orthorhombic'
loop_
_space_group_symop_operation_xyz
x,y,z
-x,-y,z
-x,y,z
x,-y,z
x,1/2+y,1/2+z
-x,1/2-y,1/2+z
-x,1/2+y,1/2+z
x,1/2-y,1/2+z
loop_
_atom_site_type_symbol
_atom_site_label
_atom_site_fract_x
_atom_site_fract_y
_atom_site_fract_z
Si Si1 0.392183 0.882978 0.689130
Si Si2 0.215873 0.794054 0.454323
Si Si3 0.886473 0.302182 0.094937
Si Si4 0.613520 0.386982 0.021486
Si Si5 0.110095 0.883947 0.322171
Si Si6 0.883402 0.108558 0.161116
Si Si7 0.112820 0.115021 0.897185
Si Si8 0.808656 0.384233 0.241716
O O1 0.500000 0.848099 0.706983
O O2 0.371460 0.862062 0.605481
O O3 0.301910 0.848802 0.735915
O O4 0.395263 0.000000 0.693906
O O5 0.163298 0.839143 0.523724
O O6 0.325862 0.816852 0.471125
O O7 0.178203 0.845508 0.383326
O O8 0.180206 0.684079 0.444055
O O9 0.853861 0.191367 0.107214
O O10 0.860580 0.354219 0.168744
O O11 0.000000 0.304801 0.084917
O O12 0.500000 0.380695 0.008629
O O13 0.641817 0.500000 0.011618
O O14 0.142440 0.859914 0.241647
O O15 0.000000 0.849641 0.332895
O O16 0.107403 0.000000 0.324288
O O17 0.000000 0.105560 0.160800
O O18 0.849404 0.000000 0.146425
O O19 0.136462 0.141780 0.814495
O O20 0.000000 0.132594 0.912510
O O21 0.129863 0.000000 0.906655
O O22 0.805131 0.500000 0.242206
#
# Coordination Sequence:
#
# PCOD9357033 Si02
#       8
#     8   8   8   8   8   8   8   8
#     4   8  14  28  51  76 100 126 160 206 261 316
#     4  12  21  32  50  75 104 134 173 214 261 312
#     4  11  21  29  44  72 100 127 166 217 262 301
#     4   9  18  34  55  79 108 137 164 206 271 338
#     4   9  17  29  46  69  99 132 162 200 258 320
#     4   8  16  32  49  63  85 124 171 211 244 283
#     4  10  22  38  52  68 102 154 194 215 248 304
#     4  10  19  33  51  73 102 137 174 210 257 315
#
# _framework density 17.714029
#
# number of rings (size 3 to 8) (size 9 to 14) (size 15 to 20)
#    0.000    2.375    1.250    4.125    0.000    2.750 
#    0.000    1.875    0.000    1.125    0.000    0.000 
#    0.000    0.500    0.000    0.000    0.000    0.000 
#
# Total GULP energy -178395.976013 kJ/mol
# GULP energy per Si atom -5574.874250 kJ/mol
# Density = 1.767371 g / cm^3
# Si number density = 17.714029 Si / 1000 Ang^3
#
#
#
# Elastic Constant Matrix: (Units=GPa)
#
#
# Indices 1 2 3 4 5 6 
#
# 1 63.1330 22.6345 14.1761 0.0000 0.0000 0.0000
# 2 22.6345 37.1165 15.1740 0.0000 0.0000 0.0000
# 3 14.1761 15.1740 50.7651 0.0000 0.0000 0.0000
# 4 0.0000 0.0000 0.0000 14.7588 0.0000 0.0000
# 5 0.0000 0.0000 0.0000 0.0000 20.1725 0.0000
# 6 0.0000 0.0000 0.0000 0.0000 0.0000 21.5291
#
#
#
# Elastic Compliance Matrix: (Units=1/GPa)
#
#
# Indices 1 2 3 4 5 6 
#
# 1 0.020498 -0.011574 -0.002264 0.000000 0.000000 0.000000
# 2 -0.011574 0.037228 -0.007896 0.000000 0.000000 0.000000
# 3 -0.002264 -0.007896 0.022691 0.000000 0.000000 0.000000
# 4 0.000000 0.000000 0.000000 0.067756 0.000000 0.000000
# 5 0.000000 0.000000 0.000000 0.000000 0.049572 0.000000
# 6 0.000000 0.000000 0.000000 0.000000 0.000000 0.046449
#
#
# Mechanical properties :
#
#
# Convention : Reuss Voigt Hill
#
# Bulk Modulus (GPa) = 27.06473 28.33151 27.69812
# Shear Modulus (GPa) = 16.66784 17.89409 17.28097
#
# Velocity S-wave (km/s) = 3.07080 3.18176 3.12677
# Velocity P-wave (km/s) = 5.28062 5.43384 5.35778
#
# Compressibility (1/GPa) = 0.03694845
#
# Stress axis : x y z
#
# Youngs Moduli (GPa) = 48.78624 26.86130 44.07039
#
# Poissons Ratio (x) = 0.31090 0.09979
# Poissons Ratio (y) = 0.56466 0.34797
# Poissons Ratio (z) = 0.11047 0.21209
#
# Static dielectric constant tensor:
#      x y z
#    x 1.609200 0.000000 0.000000 
#    y 0.000000 1.648670 0.000000 
#    z 0.000000 0.000000 1.609540 
# 
# From -- ./inp_files/18539.got.cif
#   From: 2010.05.17/outbox.cif.g08.bks.cpg/sg38_10_cif.got.tgz:18539.got - 2010.06.03 18:07:57.
