data_PCOD9357962
_publ_section_title
;
Structure prediction by ZEFSAII (Michael W. Deem and Ramdas Pophale) SiO2 
 PCOD9357962
Probable space group: A M M 2
;
_chemical_formula_sum "Si O2"
_cell_formula_units_Z 48
_cell_length_a 14.523783
_cell_length_b 8.775089
_cell_length_c 21.003856
_cell_angle_alpha 90.000000
_cell_angle_beta 90.000000
_cell_angle_gamma 90.000000
_cell_volume 2676.888695
_symmetry_space_group_name_H-M "A M M 2"
_symmetry_group_IT_number 38
_symmetry_cell_setting 'orthorhombic'
loop_
_space_group_symop_operation_xyz
x,y,z
-x,-y,z
-x,y,z
x,-y,z
x,1/2+y,1/2+z
-x,1/2-y,1/2+z
-x,1/2+y,1/2+z
x,1/2-y,1/2+z
loop_
_atom_site_type_symbol
_atom_site_label
_atom_site_fract_x
_atom_site_fract_y
_atom_site_fract_z
Si Si1 0.396409 0.183773 0.834310
Si Si2 0.792510 0.818248 0.777033
Si Si3 0.396422 0.683828 0.975384
Si Si4 0.890871 0.318667 0.899160
Si Si5 0.792897 0.316520 0.032382
Si Si6 0.106634 0.317605 0.654844
O O1 0.500000 0.228493 0.814419
O O2 0.313752 0.230136 0.787960
O O3 0.380138 0.251181 0.904664
O O4 0.393876 0.000000 0.839294
O O5 0.845249 0.771543 0.841429
O O6 0.841273 0.741795 0.717218
O O7 0.795141 0.000000 0.768936
O O8 0.500000 0.729031 0.995114
O O9 0.393720 0.500000 0.970974
O O10 0.313379 0.730212 0.021445
O O11 0.875203 0.500000 0.888898
O O12 0.000000 0.292481 0.901073
O O13 0.845795 0.278535 0.966819
O O14 0.796303 0.500000 0.039983
O O15 0.841725 0.241694 0.092263
O O16 0.106777 0.500000 0.655236
O O17 0.000000 0.265300 0.655062
#
# Coordination Sequence:
#
# PCOD9357962 Si02
#       6
#     8   8   8   8   8   8
#     4   9  18  33  54  82 114 145 178 221 273 324
#     4  11  22  36  57  83 110 144 186 228 274 329
#     4   9  17  31  55  86 115 144 179 220 269 324
#     4  10  20  34  54  81 112 143 179 227 278 327
#     4  10  20  36  58  83 112 146 184 225 273 329
#     4  11  25  42  58  77 107 148 190 233 281 331
#
# _framework density 17.931263999999999
#
# number of rings (size 3 to 8) (size 9 to 14) (size 15 to 20)
#    0.000    2.000    1.667    2.000    0.000    6.333 
#    0.000    0.833    0.000    5.000    0.000    0.000 
#    0.000    0.000    0.000    0.000    0.000    0.000 
#
# Total GULP energy -133974.083277 kJ/mol
# GULP energy per Si atom -5582.253470 kJ/mol
# Density = 1.789045 g / cm^3
# Si number density = 17.931264 Si / 1000 Ang^3
#
#
#
# Elastic Constant Matrix: (Units=GPa)
#
#
# Indices 1 2 3 4 5 6 
#
# 1 176.5373 44.4160 93.4744 0.0000 0.0000 0.0000
# 2 44.4160 22.5424 39.0513 0.0000 0.0000 0.0000
# 3 93.4744 39.0513 130.8796 0.0000 0.0000 0.0000
# 4 0.0000 0.0000 0.0000 34.0493 0.0000 0.0000
# 5 0.0000 0.0000 0.0000 0.0000 30.8023 0.0000
# 6 0.0000 0.0000 0.0000 0.0000 0.0000 22.9995
#
#
#
# Elastic Compliance Matrix: (Units=1/GPa)
#
#
# Indices 1 2 3 4 5 6 
#
# 1 0.011806 -0.017915 -0.003087 0.000000 0.000000 0.000000
# 2 -0.017915 0.119008 -0.022714 0.000000 0.000000 0.000000
# 3 -0.003087 -0.022714 0.016622 0.000000 0.000000 0.000000
# 4 0.000000 0.000000 0.000000 0.029369 0.000000 0.000000
# 5 0.000000 0.000000 0.000000 0.000000 0.032465 0.000000
# 6 0.000000 0.000000 0.000000 0.000000 0.000000 0.043479
#
#
# Mechanical properties :
#
#
# Convention : Reuss Voigt Hill
#
# Bulk Modulus (GPa) = 16.66529 75.98253 46.32391
# Shear Modulus (GPa) = 13.88185 27.77141 20.82663
#
# Velocity S-wave (km/s) = 2.78541 3.93971 3.41173
# Velocity P-wave (km/s) = 4.43383 7.94742 6.43507
#
# Compressibility (1/GPa) = 0.06000496
#
# Stress axis : x y z
#
# Youngs Moduli (GPa) = 84.70151 8.40282 60.15980
#
# Poissons Ratio (x) = 0.15054 0.18569
# Poissons Ratio (y) = 1.51742 1.36647
# Poissons Ratio (z) = 0.26144 0.19086
#
# Static dielectric constant tensor:
#      x y z
#    x 1.645190 0.000000 0.000000 
#    y 0.000000 1.606800 0.000000 
#    z 0.000000 0.000000 1.562100 
# 
# From -- ./inp_files/18141.got.cif
#   From: 2010.05.17/outbox.cif.g08.bks.cpg/sg38_10_cif.got.tgz:18141.got - 2010.06.03 18:07:57.
