data_PCOD9357751
_publ_section_title
;
Structure prediction by ZEFSAII (Michael W. Deem and Ramdas Pophale) SiO2 
 PCOD9357751
Probable space group: A M M 2
;
_chemical_formula_sum "Si O2"
_cell_formula_units_Z 64
_cell_length_a 8.923748
_cell_length_b 14.661901
_cell_length_c 24.490944
_cell_angle_alpha 90.000000
_cell_angle_beta 90.000000
_cell_angle_gamma 90.000000
_cell_volume 3204.373309
_symmetry_space_group_name_H-M "A M M 2"
_symmetry_group_IT_number 38
_symmetry_cell_setting 'orthorhombic'
loop_
_space_group_symop_operation_xyz
x,y,z
-x,-y,z
-x,y,z
x,-y,z
x,1/2+y,1/2+z
-x,1/2-y,1/2+z
-x,1/2+y,1/2+z
x,1/2-y,1/2+z
loop_
_atom_site_type_symbol
_atom_site_label
_atom_site_fract_x
_atom_site_fract_y
_atom_site_fract_z
Si Si1 0.823654 0.840706 0.576850
Si Si2 0.163452 0.595654 0.671284
Si Si3 0.328593 0.150673 0.074748
Si Si4 0.820901 0.100295 0.966004
Si Si5 0.679534 0.895128 0.345924
Si Si6 0.170848 0.253564 0.762930
Si Si7 0.327725 0.893954 0.690052
Si Si8 0.819715 0.313688 0.952367
O O1 0.783748 0.734782 0.582739
O O2 0.743878 0.884926 0.629282
O O3 0.778818 0.852672 0.512935
O O4 0.000000 0.859157 0.581043
O O5 0.168281 0.500000 0.702736
O O6 0.299492 0.596988 0.629800
O O7 0.167402 0.679604 0.711047
O O8 0.000000 0.597353 0.642366
O O9 0.500000 0.179953 0.068748
O O10 0.272440 0.098767 0.021782
O O11 0.784896 0.204039 0.944965
O O12 0.000000 0.103107 0.976228
O O13 0.792833 0.000000 0.938112
O O14 0.500000 0.891295 0.343043
O O15 0.746194 0.814534 0.308090
O O16 0.737135 0.870794 0.406330
O O17 0.725113 0.000000 0.332221
O O18 0.247763 0.164309 0.737424
O O19 0.000000 0.234191 0.780729
O O20 0.500000 0.862494 0.685870
O O21 0.323599 0.000000 0.704752
O O22 0.000000 0.321761 0.947488
#
# Coordination Sequence:
#
# PCOD9357751 Si02
#       8
#     8   8   8   8   8   8   8   8
#     4  10  20  37  60  87 122 166 212 255 305 362
#     4  10  20  33  51  78 112 151 194 241 295 355
#     4  11  20  29  47  78 117 158 198 243 297 356
#     4   9  18  34  55  80 116 160 202 246 298 360
#     4  11  25  44  66  92 124 162 205 258 320 380
#     4  11  23  41  66  90 118 159 206 254 305 364
#     4  11  24  41  63  94 131 167 203 251 312 374
#     4   9  20  38  62  91 122 161 211 263 312 365
#
# _framework density 19.972705000000001
#
# number of rings (size 3 to 8) (size 9 to 14) (size 15 to 20)
#    0.000    1.750    1.250    4.125    0.000    8.000 
#    0.000    3.125    0.000    2.250    0.000    0.000 
#    0.000    0.000    0.000    0.000    0.000    0.000 
#
# Total GULP energy -178209.981214 kJ/mol
# GULP energy per Si atom -5569.061913 kJ/mol
# Density = 1.992725 g / cm^3
# Si number density = 19.972705 Si / 1000 Ang^3
#
#
#
# Elastic Constant Matrix: (Units=GPa)
#
#
# Indices 1 2 3 4 5 6 
#
# 1 65.7225 30.1370 47.5633 0.0000 0.0000 0.0000
# 2 30.1370 82.4702 34.9096 0.0000 0.0000 0.0000
# 3 47.5633 34.9096 90.2195 0.0000 0.0000 0.0000
# 4 0.0000 0.0000 0.0000 -54.0630 0.0000 0.0000
# 5 0.0000 0.0000 0.0000 0.0000 2.6835 0.0000
# 6 0.0000 0.0000 0.0000 0.0000 0.0000 22.2047
#
#
#
# Elastic Compliance Matrix: (Units=1/GPa)
#
#
# Indices 1 2 3 4 5 6 
#
# 1 0.025872 -0.004402 -0.011937 0.000000 0.000000 0.000000
# 2 -0.004402 0.015250 -0.003580 0.000000 0.000000 0.000000
# 3 -0.011937 -0.003580 0.018762 0.000000 0.000000 0.000000
# 4 0.000000 0.000000 0.000000 -0.018497 0.000000 0.000000
# 5 0.000000 0.000000 0.000000 0.000000 0.372646 0.000000
# 6 0.000000 0.000000 0.000000 0.000000 0.000000 0.045036
#
#
# Mechanical properties :
#
#
# Convention : Reuss Voigt Hill
#
# Bulk Modulus (GPa) = 49.88188 51.51467 50.69827
# Shear Modulus (GPa) = 9.88948 2.55186 6.22067
#
# Velocity S-wave (km/s) = 2.22761 1.13157 1.76673
# Velocity P-wave (km/s) = 5.62544 5.24936 5.44065
#
# Compressibility (1/GPa) = 0.02004736
#
# Stress axis : x y z
#
# Youngs Moduli (GPa) = 38.65112 65.57563 53.29839
#
# Poissons Ratio (x) = 0.28865 0.63620
# Poissons Ratio (y) = 0.17013 0.19081
# Poissons Ratio (z) = 0.46136 0.23477
#
# Static dielectric constant tensor:
#      x y z
#    x 1.742690 0.000000 0.000000 
#    y 0.000000 1.812520 0.000000 
#    z 0.000000 0.000000 1.724890 
# 
# From -- ./inp_files/22143.got.cif
#   From: 2010.05.17/outbox.cif.g08.bks.cpg/sg38_12_cif.got.tgz:22143.got - 2010.06.03 18:07:57.
