data_PCOD9357064
_publ_section_title
;
Structure prediction by ZEFSAII (Michael W. Deem and Ramdas Pophale) SiO2 
 PCOD9357064
Probable space group: A M M 2
;
_chemical_formula_sum "Si O2"
_cell_formula_units_Z 64
_cell_length_a 7.735756
_cell_length_b 25.842153
_cell_length_c 15.255777
_cell_angle_alpha 90.000000
_cell_angle_beta 90.000000
_cell_angle_gamma 90.000000
_cell_volume 3049.760871
_symmetry_space_group_name_H-M "A M M 2"
_symmetry_group_IT_number 38
_symmetry_cell_setting 'orthorhombic'
loop_
_space_group_symop_operation_xyz
x,y,z
-x,-y,z
-x,y,z
x,-y,z
x,1/2+y,1/2+z
-x,1/2-y,1/2+z
-x,1/2+y,1/2+z
x,1/2-y,1/2+z
loop_
_atom_site_type_symbol
_atom_site_label
_atom_site_fract_x
_atom_site_fract_y
_atom_site_fract_z
Si Si1 0.295499 0.227740 0.845650
Si Si2 0.790190 0.157248 0.323622
Si Si3 0.708697 0.782007 0.643159
Si Si4 0.206156 0.166869 0.123979
Si Si5 0.798044 0.943182 0.425283
Si Si6 0.296834 0.393286 0.099875
Si Si7 0.209830 0.440037 0.287496
Si Si8 0.200237 0.871704 0.947131
O O1 0.500000 0.217623 0.849603
O O2 0.265137 0.288080 0.865155
O O3 0.234947 0.218603 0.745223
O O4 0.206877 0.185981 0.907117
O O5 0.728173 0.156944 0.222342
O O6 0.725788 0.106583 0.374244
O O7 0.000000 0.157486 0.323728
O O8 0.500000 0.783524 0.643305
O O9 0.763187 0.727382 0.603903
O O10 0.771328 0.834321 0.597394
O O11 0.000000 0.158873 0.126954
O O12 0.277966 0.132635 0.044371
O O13 0.787842 0.929862 0.528048
O O14 0.000000 0.945667 0.400766
O O15 0.721439 0.000000 0.408184
O O16 0.500000 0.392546 0.079741
O O17 0.272687 0.413732 0.198203
O O18 0.260097 0.500000 0.289833
O O19 0.275129 0.409265 0.372949
O O20 0.000000 0.437192 0.286243
O O21 0.000000 0.887334 0.957331
#
# Coordination Sequence:
#
# PCOD9357064 Si02
#       8
#     8   8   8   8   8   8   8   8
#     4  10  19  33  53  78 108 140 175 216 264 319
#     4   9  19  37  57  78 106 140 180 223 269 319
#     4   9  19  34  50  75 109 141 174 212 262 317
#     4   9  19  34  54  79 108 141 177 217 264 318
#     4  10  22  39  57  78 106 142 185 228 272 323
#     4  11  22  36  54  80 111 143 180 224 273 323
#     4  10  21  37  56  78 109 148 185 222 267 320
#     4  10  20  34  53  80 111 142 179 220 265 317
#
# _framework density 20.985251999999999
#
# number of rings (size 3 to 8) (size 9 to 14) (size 15 to 20)
#    0.000    2.250    1.250    1.125    1.750    4.500 
#    0.000    0.625    0.000    3.750    0.000    0.000 
#    0.000    5.000    0.000    0.000    0.000    0.000 
#
# Total GULP energy -178672.035815 kJ/mol
# GULP energy per Si atom -5583.501119 kJ/mol
# Density = 2.093749 g / cm^3
# Si number density = 20.985252 Si / 1000 Ang^3
#
#
#
# Elastic Constant Matrix: (Units=GPa)
#
#
# Indices 1 2 3 4 5 6 
#
# 1 35.7230 -4.7328 -8.7368 0.0000 0.0000 0.0000
# 2 -4.7328 110.7338 29.0993 0.0000 0.0000 0.0000
# 3 -8.7368 29.0993 57.8680 0.0000 0.0000 0.0000
# 4 0.0000 0.0000 0.0000 27.1741 0.0000 0.0000
# 5 0.0000 0.0000 0.0000 0.0000 1.3001 0.0000
# 6 0.0000 0.0000 0.0000 0.0000 0.0000 134.4428
#
#
#
# Elastic Compliance Matrix: (Units=1/GPa)
#
#
# Indices 1 2 3 4 5 6 
#
# 1 0.029067 0.000103 0.004337 0.000000 0.000000 0.000000
# 2 0.000103 0.010406 -0.005217 0.000000 0.000000 0.000000
# 3 0.004337 -0.005217 0.020559 0.000000 0.000000 0.000000
# 4 0.000000 0.000000 0.000000 0.036800 0.000000 0.000000
# 5 0.000000 0.000000 0.000000 0.000000 0.769190 0.000000
# 6 0.000000 0.000000 0.000000 0.000000 0.000000 0.007438
#
#
# Mechanical properties :
#
#
# Convention : Reuss Voigt Hill
#
# Bulk Modulus (GPa) = 17.10067 26.17601 21.63834
# Shear Modulus (GPa) = 5.58966 45.16307 25.37637
#
# Velocity S-wave (km/s) = 1.63383 4.64414 3.48120
# Velocity P-wave (km/s) = 3.42429 6.42324 5.14703
#
# Compressibility (1/GPa) = 0.05847723
#
# Stress axis : x y z
#
# Youngs Moduli (GPa) = 34.40271 96.09771 48.64048
#
# Poissons Ratio (x) = -0.00987 -0.21095
# Poissons Ratio (y) = -0.00353 0.25377
# Poissons Ratio (z) = -0.14920 0.50137
#
# Static dielectric constant tensor:
#      x y z
#    x 1.763400 0.000000 0.000000 
#    y 0.000000 1.741740 0.000000 
#    z 0.000000 0.000000 1.769800 
# 
# From -- ./inp_files/12746.got.cif
#   From: 2010.05.17/outbox.cif.g08.bks.cpg/sg38_7_cif.got.tgz:12746.got - 2010.06.03 18:07:57.
