data_PCOD9357345
_publ_section_title
;
Structure prediction by ZEFSAII (Michael W. Deem and Ramdas Pophale) SiO2 
 PCOD9357345
Probable space group: A M M 2
;
_chemical_formula_sum "Si O2"
_cell_formula_units_Z 48
_cell_length_a 14.744239
_cell_length_b 7.632221
_cell_length_c 20.888398
_cell_angle_alpha 90.000000
_cell_angle_beta 90.000000
_cell_angle_gamma 90.000000
_cell_volume 2350.598384
_symmetry_space_group_name_H-M "A M M 2"
_symmetry_group_IT_number 38
_symmetry_cell_setting 'orthorhombic'
loop_
_space_group_symop_operation_xyz
x,y,z
-x,-y,z
-x,y,z
x,-y,z
x,1/2+y,1/2+z
-x,1/2-y,1/2+z
-x,1/2+y,1/2+z
x,1/2-y,1/2+z
loop_
_atom_site_type_symbol
_atom_site_label
_atom_site_fract_x
_atom_site_fract_y
_atom_site_fract_z
Si Si1 0.104352 0.710054 0.058200
Si Si2 0.217970 0.705341 0.683264
Si Si3 0.398902 0.713829 0.472730
Si Si4 0.600954 0.214030 0.121754
Si Si5 0.102083 0.793428 0.299908
Si Si6 0.208339 0.707485 0.426884
O O1 0.104211 0.500000 0.063052
O O2 0.155669 0.781587 0.120283
O O3 0.000000 0.770687 0.055635
O O4 0.157243 0.759255 0.993719
O O5 0.233684 0.500000 0.697202
O O6 0.316111 0.779992 0.664325
O O7 0.164651 0.783123 0.743559
O O8 0.500000 0.769885 0.452299
O O9 0.398377 0.500000 0.471533
O O10 0.386389 0.764668 0.547294
O O11 0.311549 0.775529 0.433487
O O12 0.500000 0.268041 0.141974
O O13 0.602868 0.000000 0.122005
O O14 0.151099 0.779154 0.367936
O O15 0.000000 0.719621 0.301517
O O16 0.093166 0.000000 0.285727
O O17 0.213604 0.500000 0.417376
#
# Coordination Sequence:
#
# PCOD9357345 Si02
#       6
#     8   8   8   8   8   8
#     4  11  23  36  52  77 109 139 171 221 278 319
#     4  10  19  35  58  81 104 138 183 220 256 314
#     4   8  14  27  50  80 108 132 165 213 266 314
#     4   8  13  25  50  82 109 132 165 212 263 313
#     4  10  22  38  53  73 109 150 179 216 273 319
#     4  11  21  35  57  81 103 137 185 224 256 311
#
# _framework density 20.420331999999998
#
# number of rings (size 3 to 8) (size 9 to 14) (size 15 to 20)
#    0.000    2.333    1.667    3.000    0.000    5.000 
#    0.000    0.833    0.000    4.500    0.000    0.000 
#    0.000    0.000    0.000    0.000    0.000    0.000 
#
# Total GULP energy -133961.944148 kJ/mol
# GULP energy per Si atom -5581.747673 kJ/mol
# Density = 2.037385 g / cm^3
# Si number density = 20.420332 Si / 1000 Ang^3
#
#
#
# Elastic Constant Matrix: (Units=GPa)
#
#
# Indices 1 2 3 4 5 6 
#
# 1 196.2393 -4.4280 57.9842 0.0000 0.0000 0.0000
# 2 -4.4280 40.4575 -17.0876 0.0000 0.0000 0.0000
# 3 57.9842 -17.0876 92.7667 0.0000 0.0000 0.0000
# 4 0.0000 0.0000 0.0000 15.5371 0.0000 0.0000
# 5 0.0000 0.0000 0.0000 0.0000 27.0233 0.0000
# 6 0.0000 0.0000 0.0000 0.0000 0.0000 4.3364
#
#
#
# Elastic Compliance Matrix: (Units=1/GPa)
#
#
# Indices 1 2 3 4 5 6 
#
# 1 0.006291 -0.001054 -0.004127 0.000000 0.000000 0.000000
# 2 -0.001054 0.026979 0.005629 0.000000 0.000000 0.000000
# 3 -0.004127 0.005629 0.014396 0.000000 0.000000 0.000000
# 4 0.000000 0.000000 0.000000 0.064362 0.000000 0.000000
# 5 0.000000 0.000000 0.000000 0.000000 0.037005 0.000000
# 6 0.000000 0.000000 0.000000 0.000000 0.000000 0.230607
#
#
# Mechanical properties :
#
#
# Convention : Reuss Voigt Hill
#
# Bulk Modulus (GPa) = 20.59239 44.71119 32.65179
# Shear Modulus (GPa) = 12.66038 28.91235 20.78637
#
# Velocity S-wave (km/s) = 2.49266 3.76688 3.19396
# Velocity P-wave (km/s) = 4.28843 6.39235 5.44301
#
# Compressibility (1/GPa) = 0.04856162
#
# Stress axis : x y z
#
# Youngs Moduli (GPa) = 158.94827 37.06558 69.46431
#
# Poissons Ratio (x) = 0.03908 0.28665
# Poissons Ratio (y) = 0.16759 -0.39099
# Poissons Ratio (z) = 0.65592 -0.20863
#
# Static dielectric constant tensor:
#      x y z
#    x 1.755000 0.000000 0.000000 
#    y 0.000000 1.785430 0.000000 
#    z 0.000000 0.000000 1.707500 
# 
# From -- ./inp_files/18151.got.cif
#   From: 2010.05.17/outbox.cif.g08.bks.cpg/sg38_10_cif.got.tgz:18151.got - 2010.06.03 18:07:57.
