data_PCOD9357713
_publ_section_title
;
Structure prediction by ZEFSAII (Michael W. Deem and Ramdas Pophale) SiO2 
 PCOD9357713
Probable space group: A M M 2
;
_chemical_formula_sum "Si O2"
_cell_formula_units_Z 64
_cell_length_a 8.570216
_cell_length_b 14.226416
_cell_length_c 25.123123
_cell_angle_alpha 90.000000
_cell_angle_beta 90.000000
_cell_angle_gamma 90.000000
_cell_volume 3063.098033
_symmetry_space_group_name_H-M "A M M 2"
_symmetry_group_IT_number 38
_symmetry_cell_setting 'orthorhombic'
loop_
_space_group_symop_operation_xyz
x,y,z
-x,-y,z
-x,y,z
x,-y,z
x,1/2+y,1/2+z
-x,1/2-y,1/2+z
-x,1/2+y,1/2+z
x,1/2-y,1/2+z
loop_
_atom_site_type_symbol
_atom_site_label
_atom_site_fract_x
_atom_site_fract_y
_atom_site_fract_z
Si Si1 0.326045 0.112512 0.635300
Si Si2 0.686461 0.604377 0.359412
Si Si3 0.820778 0.758677 0.555977
Si Si4 0.811818 0.390741 0.751490
Si Si5 0.825617 0.389062 0.241747
Si Si6 0.187421 0.300001 0.861688
Si Si7 0.313985 0.891541 0.135383
Si Si8 0.190165 0.103933 0.467391
O O1 0.500000 0.145276 0.620073
O O2 0.195650 0.156337 0.598125
O O3 0.286248 0.144186 0.695059
O O4 0.325443 0.000000 0.632148
O O5 0.500000 0.605776 0.360646
O O6 0.737822 0.500000 0.378689
O O7 0.748170 0.614542 0.299095
O O8 0.752092 0.700052 0.383567
O O9 0.738610 0.673089 0.586274
O O10 0.753700 0.808660 0.503209
O O11 0.000000 0.732759 0.546637
O O12 0.763460 0.500000 0.759248
O O13 0.757639 0.329573 0.802401
O O14 0.754746 0.361515 0.692856
O O15 0.000000 0.388864 0.751372
O O16 0.844023 0.500000 0.230889
O O17 0.000000 0.346340 0.241532
O O18 0.228585 0.377368 0.905847
O O19 0.000000 0.294108 0.859085
O O20 0.500000 0.888877 0.139464
O O21 0.264141 0.000000 0.127046
O O22 0.000000 0.104146 0.471867
O O23 0.244637 0.000000 0.484542
#
# Coordination Sequence:
#
# PCOD9357713 Si02
#       8
#     8   8   8   8   8   8   8   8
#     4  10  20  33  50  76 112 151 189 231 283 344
#     4  10  21  36  52  74 111 156 196 237 288 343
#     4  11  22  36  59  86 114 151 196 242 293 352
#     4   9  18  34  58  88 119 150 187 235 292 355
#     4   9  17  30  49  73 103 141 186 233 279 332
#     4  10  20  35  60  89 116 151 196 243 294 351
#     4  10  22  40  60  83 116 156 196 243 298 355
#     4   9  19  38  63  91 121 151 189 242 298 352
#
# _framework density 20.893878000000001
#
# number of rings (size 3 to 8) (size 9 to 14) (size 15 to 20)
#    0.000    2.250    0.000    2.625    1.750    6.250 
#    0.000    1.875    0.000    6.375    0.000    0.000 
#    0.000    0.000    0.000    0.000    0.000    0.000 
#
# Total GULP energy -178453.859227 kJ/mol
# GULP energy per Si atom -5576.683101 kJ/mol
# Density = 2.084632 g / cm^3
# Si number density = 20.893878 Si / 1000 Ang^3
#
#
#
# Elastic Constant Matrix: (Units=GPa)
#
#
# Indices 1 2 3 4 5 6 
#
# 1 24.3666 14.7795 12.1466 0.0000 0.0000 0.0000
# 2 14.7795 135.5415 39.9186 0.0000 0.0000 0.0000
# 3 12.1466 39.9186 76.9491 0.0000 0.0000 0.0000
# 4 0.0000 0.0000 0.0000 64.0837 0.0000 0.0000
# 5 0.0000 0.0000 0.0000 0.0000 -27.5599 0.0000
# 6 0.0000 0.0000 0.0000 0.0000 0.0000 20.3580
#
#
#
# Elastic Compliance Matrix: (Units=1/GPa)
#
#
# Indices 1 2 3 4 5 6 
#
# 1 0.045823 -0.003383 -0.005478 0.000000 0.000000 0.000000
# 2 -0.003383 0.008958 -0.004113 0.000000 0.000000 0.000000
# 3 -0.005478 -0.004113 0.015994 0.000000 0.000000 0.000000
# 4 0.000000 0.000000 0.000000 0.015605 0.000000 0.000000
# 5 0.000000 0.000000 0.000000 0.000000 -0.036285 0.000000
# 6 0.000000 0.000000 0.000000 0.000000 0.000000 0.049121
#
#
# Mechanical properties :
#
#
# Convention : Reuss Voigt Hill
#
# Bulk Modulus (GPa) = 22.30848 41.17185 31.74017
# Shear Modulus (GPa) = 35.68719 22.71053 29.19886
#
# Velocity S-wave (km/s) = 4.13731 3.30046 3.74235
# Velocity P-wave (km/s) = 5.78993 5.85424 5.82217
#
# Compressibility (1/GPa) = 0.04482600
#
# Stress axis : x y z
#
# Youngs Moduli (GPa) = 21.82327 111.63113 62.52311
#
# Poissons Ratio (x) = 0.37766 0.34251
# Poissons Ratio (y) = 0.07383 0.25716
# Poissons Ratio (z) = 0.11955 0.45915
#
# Static dielectric constant tensor:
#      x y z
#    x 1.775700 0.000000 0.000000 
#    y 0.000000 1.800240 0.000000 
#    z 0.000000 0.000000 1.756070 
# 
# From -- ./inp_files/22220.got.cif
#   From: 2010.05.17/outbox.cif.g08.bks.cpg/sg38_12_cif.got.tgz:22220.got - 2010.06.03 18:07:57.
