data_PCOD9357852
_publ_section_title
;
Structure prediction by ZEFSAII (Michael W. Deem and Ramdas Pophale) SiO2 
 PCOD9357852
Probable space group: A M M 2
;
_chemical_formula_sum "Si O2"
_cell_formula_units_Z 40
_cell_length_a 21.248393
_cell_length_b 11.353885
_cell_length_c 8.712377
_cell_angle_alpha 90.000000
_cell_angle_beta 90.000000
_cell_angle_gamma 90.000000
_cell_volume 2101.876726
_symmetry_space_group_name_H-M "A M M 2"
_symmetry_group_IT_number 38
_symmetry_cell_setting 'orthorhombic'
loop_
_space_group_symop_operation_xyz
x,y,z
-x,-y,z
-x,y,z
x,-y,z
x,1/2+y,1/2+z
-x,1/2-y,1/2+z
-x,1/2+y,1/2+z
x,1/2-y,1/2+z
loop_
_atom_site_type_symbol
_atom_site_label
_atom_site_fract_x
_atom_site_fract_y
_atom_site_fract_z
Si Si1 0.877255 0.134451 0.500000
Si Si2 0.732735 0.629081 0.098637
Si Si3 0.428042 0.866237 0.030905
Si Si4 0.073992 0.368413 0.660753
Si Si5 0.345753 0.296591 0.813095
O O1 0.804950 0.146938 0.551452
O O2 0.912068 0.250269 0.564984
O O3 0.886064 0.137489 0.316911
O O4 0.898185 0.000000 0.547651
O O5 0.726760 0.500000 0.170850
O O6 0.691143 0.633269 0.944048
O O7 0.705734 0.724554 0.215230
O O8 0.500000 0.826075 0.055607
O O9 0.392206 0.788680 0.906545
O O10 0.429527 0.000000 0.975778
O O11 0.388656 0.861604 0.188541
O O12 0.086221 0.500000 0.589628
O O13 0.000000 0.366877 0.701360
#
# Coordination Sequence:
#
# PCOD9357852 Si02
#       5
#     8   8   8   8   8
#     4  10  21  37  57  81 109 142 180 222 268 318
#     4  10  20  35  54  77 105 136 173 216 261 311
#     4  10  20  34  52  75 103 135 172 213 257 307
#     4  10  21  37  56  80 110 142 178 221 268 318
#     4  10  20  34  53  76 103 136 172 212 260 310
#
# _framework density 19.030611
#
# number of rings (size 3 to 8) (size 9 to 14) (size 15 to 20)
#    0.000    2.000    0.000    3.600    0.000    2.000 
#    0.000    5.000    0.000    9.600    0.000    0.000 
#    0.000    0.000    0.000    0.000    0.000    0.000 
#
# Total GULP energy -111486.588045 kJ/mol
# GULP energy per Si atom -5574.329402 kJ/mol
# Density = 1.898730 g / cm^3
# Si number density = 19.030611 Si / 1000 Ang^3
#
#
#
# Elastic Constant Matrix: (Units=GPa)
#
#
# Indices 1 2 3 4 5 6 
#
# 1 45.6427 16.7972 -12.4742 0.0000 0.0000 0.0000
# 2 16.7972 111.6189 20.3605 0.0000 0.0000 0.0000
# 3 -12.4742 20.3605 34.1936 0.0000 0.0000 0.0000
# 4 0.0000 0.0000 0.0000 -9.0188 0.0000 0.0000
# 5 0.0000 0.0000 0.0000 0.0000 24.4044 0.0000
# 6 0.0000 0.0000 0.0000 0.0000 0.0000 32.8659
#
#
#
# Elastic Compliance Matrix: (Units=1/GPa)
#
#
# Indices 1 2 3 4 5 6 
#
# 1 0.028414 -0.006918 0.014485 0.000000 0.000000 0.000000
# 2 -0.006918 0.011735 -0.009512 0.000000 0.000000 0.000000
# 3 0.014485 -0.009512 0.040193 0.000000 0.000000 0.000000
# 4 0.000000 0.000000 0.000000 -0.110879 0.000000 0.000000
# 5 0.000000 0.000000 0.000000 0.000000 0.040976 0.000000
# 6 0.000000 0.000000 0.000000 0.000000 0.000000 0.030427
#
#
# Mechanical properties :
#
#
# Convention : Reuss Voigt Hill
#
# Bulk Modulus (GPa) = 13.07985 26.75803 19.91894
# Shear Modulus (GPa) = 71.18489 20.76839 45.97664
#
# Velocity S-wave (km/s) = 6.12264 3.30709 4.92054
# Velocity P-wave (km/s) = 7.54123 5.35476 6.54002
#
# Compressibility (1/GPa) = 0.07645346
#
# Stress axis : x y z
#
# Youngs Moduli (GPa) = 35.19373 85.21389 24.87981
#
# Poissons Ratio (x) = 0.58953 -0.36039
# Poissons Ratio (y) = 0.24348 0.23665
# Poissons Ratio (z) = -0.50979 0.81052
#
# Static dielectric constant tensor:
#      x y z
#    x 1.654440 0.000000 0.000000 
#    y 0.000000 1.676920 0.000000 
#    z 0.000000 0.000000 1.622330 
# 
# From -- ./inp_files/6065.got.cif
#   From: 2010.05.17/outbox.cif.g08.bks.cpg/sg38_4_cif.got.tgz:6065.got - 2010.06.03 18:07:57.
