data_PCOD9357737
_publ_section_title
;
Structure prediction by ZEFSAII (Michael W. Deem and Ramdas Pophale) SiO2 
 PCOD9357737
Probable space group: A M M 2
;
_chemical_formula_sum "Si O2"
_cell_formula_units_Z 64
_cell_length_a 9.355834
_cell_length_b 7.579033
_cell_length_c 43.035692
_cell_angle_alpha 90.000000
_cell_angle_beta 90.000000
_cell_angle_gamma 90.000000
_cell_volume 3051.582364
_symmetry_space_group_name_H-M "A M M 2"
_symmetry_group_IT_number 38
_symmetry_cell_setting 'orthorhombic'
loop_
_space_group_symop_operation_xyz
x,y,z
-x,-y,z
-x,y,z
x,-y,z
x,1/2+y,1/2+z
-x,1/2-y,1/2+z
-x,1/2+y,1/2+z
x,1/2-y,1/2+z
loop_
_atom_site_type_symbol
_atom_site_label
_atom_site_fract_x
_atom_site_fract_y
_atom_site_fract_z
Si Si1 0.164713 0.715805 0.550900
Si Si2 0.661113 0.289986 0.869293
Si Si3 0.836864 0.790471 0.172104
Si Si4 0.337316 0.788037 0.990370
Si Si5 0.335721 0.783932 0.112361
Si Si6 0.834795 0.212816 0.807577
Si Si7 0.833792 0.711899 0.239852
Si Si8 0.837989 0.211873 0.428161
O O1 0.164083 0.500000 0.550659
O O2 0.250130 0.775781 0.520407
O O3 0.245808 0.770255 0.582199
O O4 0.000000 0.772683 0.550466
O O5 0.500000 0.217958 0.869320
O O6 0.650653 0.500000 0.874169
O O7 0.738720 0.264370 0.836497
O O8 0.756573 0.219089 0.897629
O O9 0.741127 0.722759 0.143921
O O10 0.772475 0.764874 0.206556
O O11 0.000000 0.718301 0.171393
O O12 0.848405 0.000000 0.167544
O O13 0.500000 0.720815 0.989399
O O14 0.252659 0.748705 0.958912
O O15 0.344881 0.000000 0.993141
O O16 0.500000 0.727200 0.110550
O O17 0.336528 0.000000 0.112550
O O18 0.778745 0.272359 0.773549
O O19 0.000000 0.272773 0.811433
O O20 0.838849 0.000000 0.806902
O O21 0.832146 0.500000 0.240216
O O22 0.000000 0.770377 0.239172
O O23 0.000000 0.280096 0.430558
O O24 0.847239 0.000000 0.425191
#
# Coordination Sequence:
#
# PCOD9357737 Si02
#       8
#     8   8   8   8   8   8   8   8
#     4   9  16  27  45  69  97 128 162 202 245 287
#     4  10  21  36  53  74 100 130 164 202 246 295
#     4   9  16  26  43  68  93 118 154 197 237 280
#     4  10  20  33  51  77 106 134 165 202 246 295
#     4   9  16  26  41  63  93 126 157 194 243 292
#     4   9  18  33  53  76 100 128 164 204 246 294
#     4   8  15  29  48  69  94 124 157 193 235 284
#     4  10  21  37  56  76  99 131 169 205 244 292
#
# _framework density 20.972725000000001
#
# number of rings (size 3 to 8) (size 9 to 14) (size 15 to 20)
#    0.000    2.750    0.000    2.625    0.000    6.500 
#    0.000    1.875    0.000    3.375    0.000    1.750 
#    0.000    0.000    0.000    0.000    0.000    0.000 
#
# Total GULP energy -178577.325651 kJ/mol
# GULP energy per Si atom -5580.541427 kJ/mol
# Density = 2.092499 g / cm^3
# Si number density = 20.972725 Si / 1000 Ang^3
#
#
#
# Elastic Constant Matrix: (Units=GPa)
#
#
# Indices 1 2 3 4 5 6 
#
# 1 182.2570 7.2918 132.3956 0.0000 0.0000 0.0000
# 2 7.2918 44.4261 -0.5174 0.0000 0.0000 0.0000
# 3 132.3956 -0.5174 243.7494 0.0000 0.0000 0.0000
# 4 0.0000 0.0000 0.0000 12.7241 0.0000 0.0000
# 5 0.0000 0.0000 0.0000 0.0000 -105.2342 0.0000
# 6 0.0000 0.0000 0.0000 0.0000 0.0000 9.2008
#
#
#
# Elastic Compliance Matrix: (Units=1/GPa)
#
#
# Indices 1 2 3 4 5 6 
#
# 1 0.009170 -0.001563 -0.004984 0.000000 0.000000 0.000000
# 2 -0.001563 0.022776 0.000897 0.000000 0.000000 0.000000
# 3 -0.004984 0.000897 0.006812 0.000000 0.000000 0.000000
# 4 0.000000 0.000000 0.000000 0.078591 0.000000 0.000000
# 5 0.000000 0.000000 0.000000 0.000000 -0.009503 0.000000
# 6 0.000000 0.000000 0.000000 0.000000 0.000000 0.108686
#
#
# Mechanical properties :
#
#
# Convention : Reuss Voigt Hill
#
# Bulk Modulus (GPa) = 36.41898 83.19693 59.80796
# Shear Modulus (GPa) = 21.09839 5.42230 13.26034
#
# Velocity S-wave (km/s) = 3.17518 1.60966 2.51722
# Velocity P-wave (km/s) = 5.55382 6.57343 6.08502
#
# Compressibility (1/GPa) = 0.02745821
#
# Stress axis : x y z
#
# Youngs Moduli (GPa) = 109.05371 43.90528 146.80822
#
# Poissons Ratio (x) = 0.06863 0.73169
# Poissons Ratio (y) = 0.17046 -0.13174
# Poissons Ratio (z) = 0.54352 -0.03940
#
# Static dielectric constant tensor:
#      x y z
#    x 1.727090 0.000000 0.000000 
#    y 0.000000 1.814570 0.000000 
#    z 0.000000 0.000000 1.738050 
# 
# From -- ./inp_files/24610.got.cif
#   From: 2010.05.17/outbox.cif.g08.bks.cpg/sg38_13_cif.got.tgz:24610.got - 2010.06.03 18:07:57.
