data_PCOD9357894
_publ_section_title
;
Structure prediction by ZEFSAII (Michael W. Deem and Ramdas Pophale) SiO2 
 PCOD9357894
Probable space group: A M M 2
;
_chemical_formula_sum "Si O2"
_cell_formula_units_Z 64
_cell_length_a 8.651240
_cell_length_b 20.144616
_cell_length_c 21.307658
_cell_angle_alpha 90.000000
_cell_angle_beta 90.000000
_cell_angle_gamma 90.000000
_cell_volume 3713.411439
_symmetry_space_group_name_H-M "A M M 2"
_symmetry_group_IT_number 38
_symmetry_cell_setting 'orthorhombic'
loop_
_space_group_symop_operation_xyz
x,y,z
-x,-y,z
-x,y,z
x,-y,z
x,1/2+y,1/2+z
-x,1/2-y,1/2+z
-x,1/2+y,1/2+z
x,1/2-y,1/2+z
loop_
_atom_site_type_symbol
_atom_site_label
_atom_site_fract_x
_atom_site_fract_y
_atom_site_fract_z
Si Si1 0.813279 0.573532 0.636810
Si Si2 0.186574 0.287129 0.582953
Si Si3 0.686966 0.713673 0.826330
Si Si4 0.814754 0.924967 0.899408
Si Si5 0.313541 0.573636 0.777818
Si Si6 0.315499 0.575734 0.258698
Si Si7 0.185343 0.206324 0.706747
Si Si8 0.315291 0.208496 0.950672
O O1 0.764054 0.500000 0.614575
O O2 0.762071 0.637095 0.597320
O O3 0.754649 0.581707 0.708026
O O4 0.000000 0.574417 0.637693
O O5 0.233009 0.242194 0.642266
O O6 0.253800 0.265177 0.516700
O O7 0.000000 0.286696 0.579566
O O8 0.500000 0.717425 0.824080
O O9 0.733291 0.636637 0.819283
O O10 0.751286 0.752835 0.766298
O O11 0.738032 0.748318 0.890739
O O12 0.756769 0.915315 0.827983
O O13 0.745231 0.866232 0.940356
O O14 0.000000 0.920792 0.900884
O O15 0.769851 0.000000 0.918609
O O16 0.500000 0.574820 0.772908
O O17 0.267940 0.500000 0.800707
O O18 0.500000 0.583665 0.264021
O O19 0.282168 0.500000 0.238874
O O20 0.247899 0.631889 0.213916
O O21 0.000000 0.206290 0.709540
O O22 0.500000 0.208145 0.950800
#
# Coordination Sequence:
#
# PCOD9357894 Si02
#       8
#     8   8   8   8   8   8   8   8
#     4   9  17  31  50  72 102 137 172 210 253 306
#     4  10  22  37  51  75 108 143 183 222 266 320
#     4  10  20  34  53  78 107 138 175 221 273 320
#     4  10  20  34  53  77 107 144 182 220 264 317
#     4   9  17  30  51  78 105 133 168 212 263 316
#     4  10  20  34  54  81 111 140 174 220 271 322
#     4  11  21  34  56  82 106 139 182 223 269 320
#     4  11  23  36  52  76 106 144 184 225 271 319
#
# _framework density 17.234825000000001
#
# number of rings (size 3 to 8) (size 9 to 14) (size 15 to 20)
#    0.000    2.000    2.500    1.500    0.000    4.000 
#    0.000    1.250    0.000    0.750    0.000    1.750 
#    0.000    0.000    0.000    0.000    0.000    0.000 
#
# Total GULP energy -178573.697790 kJ/mol
# GULP energy per Si atom -5580.428056 kJ/mol
# Density = 1.719560 g / cm^3
# Si number density = 17.234825 Si / 1000 Ang^3
#
#
#
# Elastic Constant Matrix: (Units=GPa)
#
#
# Indices 1 2 3 4 5 6 
#
# 1 16.6486 23.0920 24.5386 0.0000 0.0000 0.0000
# 2 23.0920 109.4541 64.6732 0.0000 0.0000 0.0000
# 3 24.5386 64.6732 118.2125 0.0000 0.0000 0.0000
# 4 0.0000 0.0000 0.0000 23.3395 0.0000 0.0000
# 5 0.0000 0.0000 0.0000 0.0000 26.2758 0.0000
# 6 0.0000 0.0000 0.0000 0.0000 0.0000 22.5474
#
#
#
# Elastic Compliance Matrix: (Units=1/GPa)
#
#
# Indices 1 2 3 4 5 6 
#
# 1 0.097152 -0.012679 -0.013230 0.000000 0.000000 0.000000
# 2 -0.012679 0.015155 -0.005659 0.000000 0.000000 0.000000
# 3 -0.013230 -0.005659 0.014302 0.000000 0.000000 0.000000
# 4 0.000000 0.000000 0.000000 0.042846 0.000000 0.000000
# 5 0.000000 0.000000 0.000000 0.000000 0.038058 0.000000
# 6 0.000000 0.000000 0.000000 0.000000 0.000000 0.044351
#
#
# Mechanical properties :
#
#
# Convention : Reuss Voigt Hill
#
# Bulk Modulus (GPa) = 15.75514 52.10255 33.92885
# Shear Modulus (GPa) = 14.87397 23.23329 19.05363
#
# Velocity S-wave (km/s) = 2.94090 3.67555 3.32856
# Velocity P-wave (km/s) = 4.54898 6.95051 5.87379
#
# Compressibility (1/GPa) = 0.06347135
#
# Stress axis : x y z
#
# Youngs Moduli (GPa) = 10.29319 65.98412 69.92111
#
# Poissons Ratio (x) = 0.83663 0.92506
# Poissons Ratio (y) = 0.13051 0.39571
# Poissons Ratio (z) = 0.13618 0.37343
#
# Static dielectric constant tensor:
#      x y z
#    x 1.582920 0.000000 0.000000 
#    y 0.000000 1.615140 0.000000 
#    z 0.000000 0.000000 1.560100 
# 
# From -- ./inp_files/17191.got.cif
#   From: 2010.05.17/outbox.cif.g08.bks.cpg/sg38_9_cif.got.tgz:17191.got - 2010.06.03 18:07:57.
