data_PCOD9357372
_publ_section_title
;
Structure prediction by ZEFSAII (Michael W. Deem and Ramdas Pophale) SiO2 
 PCOD9357372
Probable space group: A M M 2
;
_chemical_formula_sum "Si O2"
_cell_formula_units_Z 64
_cell_length_a 20.896096
_cell_length_b 18.833628
_cell_length_c 9.303884
_cell_angle_alpha 90.000000
_cell_angle_beta 90.000000
_cell_angle_gamma 90.000000
_cell_volume 3661.537024
_symmetry_space_group_name_H-M "A M M 2"
_symmetry_group_IT_number 38
_symmetry_cell_setting 'orthorhombic'
loop_
_space_group_symop_operation_xyz
x,y,z
-x,-y,z
-x,y,z
x,-y,z
x,1/2+y,1/2+z
-x,1/2-y,1/2+z
-x,1/2+y,1/2+z
x,1/2-y,1/2+z
loop_
_atom_site_type_symbol
_atom_site_label
_atom_site_fract_x
_atom_site_fract_y
_atom_site_fract_z
Si Si1 0.124525 0.796766 0.552510
Si Si2 0.680883 0.416859 0.587907
Si Si3 0.574802 0.191592 0.579188
Si Si4 0.340531 0.581579 0.253925
Si Si5 0.071891 0.177180 0.238757
Si Si6 0.425262 0.162750 0.244569
Si Si7 0.189206 0.917623 0.735386
Si Si8 0.814135 0.650717 0.547682
O O1 0.089425 0.814794 0.405040
O O2 0.078855 0.754817 0.663864
O O3 0.153886 0.865592 0.626215
O O4 0.127668 0.865940 0.156531
O O5 0.697819 0.500000 0.596515
O O6 0.656545 0.403794 0.424884
O O7 0.625019 0.396467 0.697080
O O8 0.745227 0.371084 0.608625
O O9 0.500000 0.175600 0.606491
O O10 0.618038 0.135942 0.663646
O O11 0.585418 0.186373 0.408781
O O12 0.586427 0.270043 0.640830
O O13 0.360881 0.500000 0.229934
O O14 0.265705 0.587259 0.213797
O O15 0.178300 0.235650 0.022492
O O16 0.000000 0.150502 0.218669
O O17 0.500000 0.141391 0.230025
O O18 0.170609 0.000000 0.721999
O O19 0.177250 0.889634 0.897245
#
# Coordination Sequence:
#
# PCOD9357372 Si02
#       8
#     8   8   8   8   8   8   8   8
#     4  10  19  35  59  91 113 150 196 239 292 337
#     4  10  21  38  60  85 116 153 189 241 295 351
#     4  10  21  37  56  77 110 148 192 243 289 346
#     4   9  20  36  56  81 110 146 187 231 289 348
#     4  10  20  35  61  89 117 150 199 246 287 344
#     4  10  22  38  56  83 113 152 195 242 295 347
#     4  10  20  38  59  83 121 156 189 241 297 354
#     4   9  19  37  59  89 113 152 199 236 287 347
#
# _framework density 17.478998000000001
#
# number of rings (size 3 to 8) (size 9 to 14) (size 15 to 20)
#    0.750    1.500    1.250    2.250    1.750    3.500 
#    0.000    5.000    0.000    6.000    0.000    0.000 
#    0.000    0.000    0.000    0.000    0.000    0.000 
#
# Total GULP energy -178348.481665 kJ/mol
# GULP energy per Si atom -5573.390052 kJ/mol
# Density = 1.743922 g / cm^3
# Si number density = 17.478998 Si / 1000 Ang^3
#
#
#
# Elastic Constant Matrix: (Units=GPa)
#
#
# Indices 1 2 3 4 5 6 
#
# 1 65.9824 39.3107 39.0521 0.0000 0.0000 0.0000
# 2 39.3107 59.8353 22.8834 0.0000 0.0000 0.0000
# 3 39.0521 22.8834 61.7671 0.0000 0.0000 0.0000
# 4 0.0000 0.0000 0.0000 24.4096 0.0000 0.0000
# 5 0.0000 0.0000 0.0000 0.0000 18.4911 0.0000
# 6 0.0000 0.0000 0.0000 0.0000 0.0000 6.8758
#
#
#
# Elastic Compliance Matrix: (Units=1/GPa)
#
#
# Indices 1 2 3 4 5 6 
#
# 1 0.034159 -0.016524 -0.015475 0.000000 0.000000 0.000000
# 2 -0.016524 0.027464 0.000272 0.000000 0.000000 0.000000
# 3 -0.015475 0.000272 0.025873 0.000000 0.000000 0.000000
# 4 0.000000 0.000000 0.000000 0.040968 0.000000 0.000000
# 5 0.000000 0.000000 0.000000 0.000000 0.054080 0.000000
# 6 0.000000 0.000000 0.000000 0.000000 0.000000 0.145437
#
#
# Mechanical properties :
#
#
# Convention : Reuss Voigt Hill
#
# Bulk Modulus (GPa) = 41.59231 43.34192 42.46712
# Shear Modulus (GPa) = 12.51722 15.71120 14.11421
#
# Velocity S-wave (km/s) = 2.67896 3.00135 2.84473
# Velocity P-wave (km/s) = 5.78069 6.07135 5.92780
#
# Compressibility (1/GPa) = 0.02404290
#
# Stress axis : x y z
#
# Youngs Moduli (GPa) = 29.27476 36.41108 38.64976
#
# Poissons Ratio (x) = 0.60164 0.59812
# Poissons Ratio (y) = 0.48372 -0.01052
# Poissons Ratio (z) = 0.45304 -0.00991
#
# Static dielectric constant tensor:
#      x y z
#    x 1.590360 0.000000 0.000000 
#    y 0.000000 1.578160 0.000000 
#    z 0.000000 0.000000 1.582120 
# 
# From -- ./inp_files/6482.got.cif
#   From: 2010.05.17/outbox.cif.g08.bks.cpg/sg38_4_cif.got.tgz:6482.got - 2010.06.03 18:07:57.
