data_PCOD9357748
_publ_section_title
;
Structure prediction by ZEFSAII (Michael W. Deem and Ramdas Pophale) SiO2 
 PCOD9357748
Probable space group: A M M 2
;
_chemical_formula_sum "Si O2"
_cell_formula_units_Z 48
_cell_length_a 9.386569
_cell_length_b 8.022660
_cell_length_c 32.384793
_cell_angle_alpha 90.000000
_cell_angle_beta 90.000000
_cell_angle_gamma 90.000000
_cell_volume 2438.744987
_symmetry_space_group_name_H-M "A M M 2"
_symmetry_group_IT_number 38
_symmetry_cell_setting 'orthorhombic'
loop_
_space_group_symop_operation_xyz
x,y,z
-x,-y,z
-x,y,z
x,-y,z
x,1/2+y,1/2+z
-x,1/2-y,1/2+z
-x,1/2+y,1/2+z
x,1/2-y,1/2+z
loop_
_atom_site_type_symbol
_atom_site_label
_atom_site_fract_x
_atom_site_fract_y
_atom_site_fract_z
Si Si1 0.335659 0.297995 0.955270
Si Si2 0.334574 0.704561 0.135197
Si Si3 0.838825 0.799739 0.714716
Si Si4 0.838027 0.698990 0.374919
Si Si5 0.673424 0.193202 0.545181
Si Si6 0.661552 0.801614 0.294705
O O1 0.500000 0.244343 0.948212
O O2 0.337735 0.500000 0.957315
O O3 0.236452 0.246421 0.917808
O O4 0.286593 0.234529 0.000553
O O5 0.500000 0.751679 0.141422
O O6 0.332141 0.500000 0.134031
O O7 0.239426 0.761684 0.173330
O O8 0.285326 0.764659 0.089775
O O9 0.747549 0.761869 0.755186
O O10 0.000000 0.735438 0.718506
O O11 0.846082 0.000000 0.711125
O O12 0.843479 0.500000 0.372265
O O13 0.744473 0.760331 0.336614
O O14 0.000000 0.764152 0.372713
O O15 0.500000 0.191996 0.545276
O O16 0.720841 0.000000 0.545163
O O17 0.500000 0.734195 0.295589
O O18 0.653773 0.000000 0.291340
#
# Coordination Sequence:
#
# PCOD9357748 Si02
#       6
#     8   8   8   8   8   8
#     4   9  17  31  53  80 107 135 171 214 256 299
#     4   8  13  24  45  72 102 137 174 211 251 292
#     4  10  20  33  51  78 110 140 170 206 250 301
#     4  11  24  39  54  75 104 136 169 206 251 305
#     4   7  11  22  43  72 103 133 168 211 253 291
#     4  11  24  40  58  79 100 126 166 213 257 304
#
# _framework density 19.682255000000001
#
# number of rings (size 3 to 8) (size 9 to 14) (size 15 to 20)
#    0.000    2.667    0.000    4.500    0.000    8.000 
#    0.000    0.833    0.000    4.000    0.000    2.333 
#    0.000    0.000    0.000    0.000    0.000    0.000 
#
# Total GULP energy -133846.981645 kJ/mol
# GULP energy per Si atom -5576.957569 kJ/mol
# Density = 1.963746 g / cm^3
# Si number density = 19.682255 Si / 1000 Ang^3
#
#
#
# Elastic Constant Matrix: (Units=GPa)
#
#
# Indices 1 2 3 4 5 6 
#
# 1 140.6794 7.4166 103.9777 0.0000 0.0000 0.0000
# 2 7.4166 15.3705 1.1456 0.0000 0.0000 0.0000
# 3 103.9777 1.1456 205.7207 0.0000 0.0000 0.0000
# 4 0.0000 0.0000 0.0000 18.1358 0.0000 0.0000
# 5 0.0000 0.0000 0.0000 0.0000 -12.0499 0.0000
# 6 0.0000 0.0000 0.0000 0.0000 0.0000 16.6963
#
#
#
# Elastic Compliance Matrix: (Units=1/GPa)
#
#
# Indices 1 2 3 4 5 6 
#
# 1 0.011753 -0.005231 -0.005911 0.000000 0.000000 0.000000
# 2 -0.005231 0.067415 0.002268 0.000000 0.000000 0.000000
# 3 -0.005911 0.002268 0.007836 0.000000 0.000000 0.000000
# 4 0.000000 0.000000 0.000000 0.055140 0.000000 0.000000
# 5 0.000000 0.000000 0.000000 0.000000 -0.082988 0.000000
# 6 0.000000 0.000000 0.000000 0.000000 0.000000 0.059894
#
#
# Mechanical properties :
#
#
# Convention : Reuss Voigt Hill
#
# Bulk Modulus (GPa) = 14.43907 65.20559 39.82233
# Shear Modulus (GPa) = 31.27309 21.17181 26.22245
#
# Velocity S-wave (km/s) = 3.99042 3.28331 3.65401
# Velocity P-wave (km/s) = 5.34634 6.89743 6.17081
#
# Compressibility (1/GPa) = 0.06925656
#
# Stress axis : x y z
#
# Youngs Moduli (GPa) = 85.08289 14.83360 127.61452
#
# Poissons Ratio (x) = 0.07759 0.75437
# Poissons Ratio (y) = 0.44504 -0.28947
# Poissons Ratio (z) = 0.50295 -0.03365
#
# Static dielectric constant tensor:
#      x y z
#    x 1.677730 0.000000 0.000000 
#    y 0.000000 1.723590 0.000000 
#    z 0.000000 0.000000 1.701000 
# 
# From -- ./inp_files/24285.got.cif
#   From: 2010.05.17/outbox.cif.g08.bks.cpg/sg38_13_cif.got.tgz:24285.got - 2010.06.03 18:07:57.
