data_PCOD9357399
_publ_section_title
;
Structure prediction by ZEFSAII (Michael W. Deem and Ramdas Pophale) SiO2 
 PCOD9357399
Probable space group: A M M 2
;
_chemical_formula_sum "Si O2"
_cell_formula_units_Z 64
_cell_length_a 14.623331
_cell_length_b 24.637203
_cell_length_c 8.921339
_cell_angle_alpha 90.000000
_cell_angle_beta 90.000000
_cell_angle_gamma 90.000000
_cell_volume 3214.161944
_symmetry_space_group_name_H-M "A M M 2"
_symmetry_group_IT_number 38
_symmetry_cell_setting 'orthorhombic'
loop_
_space_group_symop_operation_xyz
x,y,z
-x,-y,z
-x,y,z
x,-y,z
x,1/2+y,1/2+z
-x,1/2-y,1/2+z
-x,1/2+y,1/2+z
x,1/2-y,1/2+z
loop_
_atom_site_type_symbol
_atom_site_label
_atom_site_fract_x
_atom_site_fract_y
_atom_site_fract_z
Si Si1 0.401303 0.580403 0.307970
Si Si2 0.762262 0.859971 0.249744
Si Si3 0.103150 0.673798 0.004819
Si Si4 0.216551 0.441056 0.479166
Si Si5 0.396249 0.206840 0.816174
Si Si6 0.674708 0.061411 0.485746
Si Si7 0.866833 0.938471 0.662036
Si Si8 0.724413 0.750854 0.578623
O O1 0.500000 0.558357 0.351478
O O2 0.315323 0.557670 0.397614
O O3 0.400635 0.643555 0.350022
O O4 0.390297 0.574298 0.127618
O O5 0.850839 0.846177 0.349963
O O6 0.690351 0.893066 0.356860
O O7 0.729926 0.803472 0.178238
O O8 0.785979 0.897614 0.109244
O O9 0.095334 0.618757 0.103171
O O10 0.179431 0.716716 0.066612
O O11 0.000000 0.696299 0.988822
O O12 0.197470 0.500000 0.546017
O O13 0.149204 0.431753 0.339434
O O14 0.500000 0.229204 0.826876
O O15 0.352937 0.211662 0.652309
O O16 0.319992 0.233077 0.922467
O O17 0.771574 0.059332 0.571822
O O18 0.654839 0.000000 0.427976
O O19 0.905015 0.000000 0.639332
#
# Coordination Sequence:
#
# PCOD9357399 Si02
#       8
#     8   8   8   8   8   8   8   8
#     4  10  20  35  58  88 124 164 214 268 319 380
#     4  11  22  39  63  86 127 164 206 256 325 372
#     4  11  25  43  66  94 125 169 216 260 322 391
#     4  10  19  35  62  91 121 164 210 256 324 386
#     4  11  23  40  64  92 121 167 217 262 319 381
#     4   9  18  35  58  85 118 165 212 248 311 385
#     4   8  17  36  63  90 121 161 209 259 307 375
#     4  12  23  42  63  91 128 165 208 270 320 379
#
# _framework density 19.911878999999999
#
# number of rings (size 3 to 8) (size 9 to 14) (size 15 to 20)
#    0.000    1.750    2.500    4.125    0.000    2.250 
#    0.000    1.875    0.000    2.250    0.000    0.000 
#    0.000    0.000    0.000    0.000    0.000    0.000 
#
# Total GULP energy -178184.929788 kJ/mol
# GULP energy per Si atom -5568.279056 kJ/mol
# Density = 1.986656 g / cm^3
# Si number density = 19.911879 Si / 1000 Ang^3
#
#
#
# Elastic Constant Matrix: (Units=GPa)
#
#
# Indices 1 2 3 4 5 6 
#
# 1 83.8280 26.8064 10.8005 0.0000 0.0000 0.0000
# 2 26.8064 103.2829 43.9803 0.0000 0.0000 0.0000
# 3 10.8005 43.9803 77.0925 0.0000 0.0000 0.0000
# 4 0.0000 0.0000 0.0000 38.7929 0.0000 0.0000
# 5 0.0000 0.0000 0.0000 0.0000 7.5179 0.0000
# 6 0.0000 0.0000 0.0000 0.0000 0.0000 22.5392
#
#
#
# Elastic Compliance Matrix: (Units=1/GPa)
#
#
# Indices 1 2 3 4 5 6 
#
# 1 0.013010 -0.003435 0.000137 0.000000 0.000000 0.000000
# 2 -0.003435 0.013696 -0.007332 0.000000 0.000000 0.000000
# 3 0.000137 -0.007332 0.017135 0.000000 0.000000 0.000000
# 4 0.000000 0.000000 0.000000 0.025778 0.000000 0.000000
# 5 0.000000 0.000000 0.000000 0.000000 0.133015 0.000000
# 6 0.000000 0.000000 0.000000 0.000000 0.000000 0.044367
#
#
# Mechanical properties :
#
#
# Convention : Reuss Voigt Hill
#
# Bulk Modulus (GPa) = 44.28558 47.48641 45.88600
# Shear Modulus (GPa) = 18.12986 25.94442 22.03714
#
# Velocity S-wave (km/s) = 3.02073 3.61357 3.33037
# Velocity P-wave (km/s) = 5.86988 6.42733 6.15492
#
# Compressibility (1/GPa) = 0.02258071
#
# Stress axis : x y z
#
# Youngs Moduli (GPa) = 76.86405 73.01485 58.35974
#
# Poissons Ratio (x) = 0.25080 -0.00799
# Poissons Ratio (y) = 0.26403 0.42790
# Poissons Ratio (z) = -0.01053 0.53535
#
# Static dielectric constant tensor:
#      x y z
#    x 1.750000 0.000000 0.000000 
#    y 0.000000 1.766710 0.000000 
#    z 0.000000 0.000000 1.710630 
# 
# From -- ./inp_files/5905.got.cif
#   From: 2010.05.17/outbox.cif.g08.bks.cpg/sg38_3_cif.got.tgz:5905.got - 2010.06.03 18:07:57.
