data_PCOD9357865
_publ_section_title
;
Structure prediction by ZEFSAII (Michael W. Deem and Ramdas Pophale) SiO2 
 PCOD9357865
Probable space group: A M M 2
;
_chemical_formula_sum "Si O2"
_cell_formula_units_Z 58
_cell_length_a 26.992036
_cell_length_b 12.049331
_cell_length_c 7.536418
_cell_angle_alpha 90.000000
_cell_angle_beta 90.000000
_cell_angle_gamma 90.000000
_cell_volume 2451.114265
_symmetry_space_group_name_H-M "A M M 2"
_symmetry_group_IT_number 38
_symmetry_cell_setting 'orthorhombic'
loop_
_space_group_symop_operation_xyz
x,y,z
-x,-y,z
-x,y,z
x,-y,z
x,1/2+y,1/2+z
-x,1/2-y,1/2+z
-x,1/2+y,1/2+z
x,1/2-y,1/2+z
loop_
_atom_site_type_symbol
_atom_site_label
_atom_site_fract_x
_atom_site_fract_y
_atom_site_fract_z
Si Si1 0.616837 0.193726 0.403080
Si Si2 0.000000 0.500000 0.712246
Si Si3 0.816032 0.374395 0.838763
Si Si4 0.088701 0.652790 0.594684
Si Si5 0.556761 0.120812 0.078756
Si Si6 0.324640 0.618980 0.230228
Si Si7 0.941685 0.881668 0.706560
Si Si8 0.789688 0.875624 0.726688
O O1 0.595507 0.125618 0.240135
O O2 0.572887 0.277669 0.456881
O O3 0.661506 0.275609 0.347877
O O4 0.637031 0.125599 0.567918
O O5 0.956748 0.405560 0.691624
O O6 0.792134 0.500000 0.803528
O O7 0.862455 0.371038 0.706208
O O8 0.795193 0.246510 0.815791
O O9 0.823192 0.377443 0.050768
O O10 0.075333 0.781599 0.589253
O O11 0.089064 0.617671 0.389143
O O12 0.500000 0.133496 0.139244
O O13 0.560117 0.000000 0.989787
O O14 0.330356 0.500000 0.324415
O O15 0.268066 0.624454 0.167854
O O16 0.000000 0.870585 0.757276
O O17 0.937682 0.000000 0.613231
O O18 0.796636 0.000000 0.815366
#
# Coordination Sequence:
#
# PCOD9357865 Si02
#       8
#     8   2   8   8   8   8   8   8
#     4  10  20  34  56  83 110 149 198 239 290 342
#     4  12  20  40  62  86 112 156 184 228 280 332
#     4  11  23  40  61  87 115 152 189 233 287 354
#     4  12  22  40  63  82 117 151 184 230 280 331
#     4  10  20  34  52  79 117 156 195 240 286 338
#     4  10  20  37  58  81 111 147 188 244 294 348
#     4  11  21  38  55  81 110 142 180 224 267 320
#     4  10  23  41  61  87 120 151 192 242 300 355
#
# _framework density 23.662707000000001
#
# number of rings (size 3 to 8) (size 9 to 14) (size 15 to 20)
#    0.000    1.379    2.759    2.897    0.000    1.103 
#    1.241    3.448    0.000    6.621    0.000    0.000 
#    0.000    0.000    0.000    0.000    0.000    0.000 
#
# Total GULP energy -161612.324126 kJ/mol
# GULP energy per Si atom -5572.838763 kJ/mol
# Density = 2.360885 g / cm^3
# Si number density = 23.662707 Si / 1000 Ang^3
#
#
#
# Elastic Constant Matrix: (Units=GPa)
#
#
# Indices 1 2 3 4 5 6 
#
# 1 73.7494 30.4385 -14.6866 0.0000 0.0000 0.0000
# 2 30.4385 214.9336 21.1965 0.0000 0.0000 0.0000
# 3 -14.6866 21.1965 30.9844 0.0000 0.0000 0.0000
# 4 0.0000 0.0000 0.0000 76.5599 0.0000 0.0000
# 5 0.0000 0.0000 0.0000 0.0000 -17.9117 0.0000
# 6 0.0000 0.0000 0.0000 0.0000 0.0000 26.4116
#
#
#
# Elastic Compliance Matrix: (Units=1/GPa)
#
#
# Indices 1 2 3 4 5 6 
#
# 1 0.017062 -0.003446 0.010445 0.000000 0.000000 0.000000
# 2 -0.003446 0.005685 -0.005523 0.000000 0.000000 0.000000
# 3 0.010445 -0.005523 0.041004 0.000000 0.000000 0.000000
# 4 0.000000 0.000000 0.000000 0.013062 0.000000 0.000000
# 5 0.000000 0.000000 0.000000 0.000000 -0.055830 0.000000
# 6 0.000000 0.000000 0.000000 0.000000 0.000000 0.037862
#
#
# Mechanical properties :
#
#
# Convention : Reuss Voigt Hill
#
# Bulk Modulus (GPa) = 14.99202 43.72936 29.36069
# Shear Modulus (GPa) = 63.99781 35.85988 49.92885
#
# Velocity S-wave (km/s) = 5.20620 3.89711 4.59848
# Velocity P-wave (km/s) = 6.51835 6.22659 6.37414
#
# Compressibility (1/GPa) = 0.06670217
#
# Stress axis : x y z
#
# Youngs Moduli (GPa) = 58.61024 175.89123 24.38814
#
# Poissons Ratio (x) = 0.60618 -0.25473
# Poissons Ratio (y) = 0.20199 0.13469
# Poissons Ratio (z) = -0.61218 0.97143
#
# Static dielectric constant tensor:
#      x y z
#    x 1.896110 0.000000 0.000000 
#    y 0.000000 1.938500 0.000000 
#    z 0.000000 0.000000 1.868580 
# 
# From -- ./inp_files/7013.got.cif
#   From: 2010.05.17/outbox.cif.g08.bks.cpg/sg38_4_cif.got.tgz:7013.got - 2010.06.03 18:07:57.
