data_PCOD9357387
_publ_section_title
;
Structure prediction by ZEFSAII (Michael W. Deem and Ramdas Pophale) SiO2 
 PCOD9357387
Probable space group: A M M 2
;
_chemical_formula_sum "Si O2"
_cell_formula_units_Z 64
_cell_length_a 9.025237
_cell_length_b 25.621389
_cell_length_c 15.163245
_cell_angle_alpha 90.000000
_cell_angle_beta 90.000000
_cell_angle_gamma 90.000000
_cell_volume 3506.335248
_symmetry_space_group_name_H-M "A M M 2"
_symmetry_group_IT_number 38
_symmetry_cell_setting 'orthorhombic'
loop_
_space_group_symop_operation_xyz
x,y,z
-x,-y,z
-x,y,z
x,-y,z
x,1/2+y,1/2+z
-x,1/2-y,1/2+z
-x,1/2+y,1/2+z
x,1/2-y,1/2+z
loop_
_atom_site_type_symbol
_atom_site_label
_atom_site_fract_x
_atom_site_fract_y
_atom_site_fract_z
Si Si1 0.823843 0.061789 0.342900
Si Si2 0.179179 0.103355 0.147350
Si Si3 0.676944 0.941044 0.975450
Si Si4 0.822572 0.218145 0.181290
Si Si5 0.177369 0.851020 0.861473
Si Si6 0.178289 0.834140 0.655610
Si Si7 0.823655 0.767404 0.389896
Si Si8 0.324239 0.863494 0.484449
O O1 0.786103 0.082426 0.245066
O O2 0.737314 0.093344 0.417214
O O3 0.000000 0.071410 0.354914
O O4 0.797446 0.000000 0.347682
O O5 0.254142 0.070113 0.071317
O O6 0.230750 0.163768 0.141447
O O7 0.000000 0.101610 0.137355
O O8 0.500000 0.936920 0.979774
O O9 0.715920 0.000000 0.947501
O O10 0.741288 0.897410 0.910566
O O11 0.768803 0.273764 0.146006
O O12 0.800108 0.218354 0.286861
O O13 0.000000 0.218602 0.168296
O O14 0.208354 0.849837 0.756684
O O15 0.215895 0.793542 0.899329
O O16 0.000000 0.856578 0.872353
O O17 0.255661 0.868589 0.581832
O O18 0.000000 0.835292 0.643813
O O19 0.733841 0.807988 0.447541
O O20 0.000000 0.772916 0.408073
O O21 0.500000 0.864795 0.487353
#
# Coordination Sequence:
#
# PCOD9357387 Si02
#       8
#     8   8   8   8   8   8   8   8
#     4  10  21  39  63  86 111 150 198 246 290 332
#     4  10  19  35  61  89 113 146 194 242 283 332
#     4  11  25  41  56  80 119 160 191 230 291 352
#     4   8  15  31  57  85 111 143 184 230 282 331
#     4   9  20  39  65  89 107 142 197 250 293 331
#     4   9  19  37  60  85 115 150 191 242 290 336
#     4   9  17  35  59  83 113 147 186 234 285 337
#     4  12  24  35  53  86 123 159 192 228 283 347
#
# _framework density 18.252676999999998
#
# number of rings (size 3 to 8) (size 9 to 14) (size 15 to 20)
#    0.000    2.250    1.250    3.375    1.750    3.250 
#    0.000    2.500    0.000    0.750    0.000    0.000 
#    0.000    0.000    0.000    0.000    0.000    0.000 
#
# Total GULP energy -178646.278556 kJ/mol
# GULP energy per Si atom -5582.696205 kJ/mol
# Density = 1.821113 g / cm^3
# Si number density = 18.252677 Si / 1000 Ang^3
#
#
#
# Elastic Constant Matrix: (Units=GPa)
#
#
# Indices 1 2 3 4 5 6 
#
# 1 47.3360 49.1516 46.4862 0.0000 0.0000 0.0000
# 2 49.1516 102.4375 48.3015 0.0000 0.0000 0.0000
# 3 46.4862 48.3015 75.4751 0.0000 0.0000 0.0000
# 4 0.0000 0.0000 0.0000 27.3084 0.0000 0.0000
# 5 0.0000 0.0000 0.0000 0.0000 -117.0854 0.0000
# 6 0.0000 0.0000 0.0000 0.0000 0.0000 18.3508
#
#
#
# Elastic Compliance Matrix: (Units=1/GPa)
#
#
# Indices 1 2 3 4 5 6 
#
# 1 0.074396 -0.020181 -0.032907 0.000000 0.000000 0.000000
# 2 -0.020181 0.019455 -0.000021 0.000000 0.000000 0.000000
# 3 -0.032907 -0.000021 0.033531 0.000000 0.000000 0.000000
# 4 0.000000 0.000000 0.000000 0.036619 0.000000 0.000000
# 5 0.000000 0.000000 0.000000 0.000000 -0.008541 0.000000
# 6 0.000000 0.000000 0.000000 0.000000 0.000000 0.054494
#
#
# Mechanical properties :
#
#
# Convention : Reuss Voigt Hill
#
# Bulk Modulus (GPa) = 47.24776 57.01413 52.13095
# Shear Modulus (GPa) = 15.46907 -8.86463 3.30222
#
# Velocity S-wave (km/s) = 2.91434 -2.20616 1.34651
# Velocity P-wave (km/s) = 6.10459 4.98140 5.57137
#
# Compressibility (1/GPa) = 0.02116502
#
# Stress axis : x y z
#
# Youngs Moduli (GPa) = 13.44153 51.40057 29.82344
#
# Poissons Ratio (x) = 1.03729 0.98140
# Poissons Ratio (y) = 0.27126 0.00063
# Poissons Ratio (z) = 0.44232 0.00108
#
# Static dielectric constant tensor:
#      x y z
#    x 1.603540 0.000000 0.000000 
#    y 0.000000 1.629090 0.000000 
#    z 0.000000 0.000000 1.630140 
# 
# From -- ./inp_files/12808.got.cif
#   From: 2010.05.17/outbox.cif.g08.bks.cpg/sg38_7_cif.got.tgz:12808.got - 2010.06.03 18:07:57.
