data_PCOD9357213
_publ_section_title
;
Structure prediction by ZEFSAII (Michael W. Deem and Ramdas Pophale) SiO2 
 PCOD9357213
Probable space group: A M M 2
;
_chemical_formula_sum "Si O2"
_cell_formula_units_Z 64
_cell_length_a 8.069422
_cell_length_b 25.876146
_cell_length_c 15.435651
_cell_angle_alpha 90.000000
_cell_angle_beta 90.000000
_cell_angle_gamma 90.000000
_cell_volume 3223.049470
_symmetry_space_group_name_H-M "A M M 2"
_symmetry_group_IT_number 38
_symmetry_cell_setting 'orthorhombic'
loop_
_space_group_symop_operation_xyz
x,y,z
-x,-y,z
-x,y,z
x,-y,z
x,1/2+y,1/2+z
-x,1/2-y,1/2+z
-x,1/2+y,1/2+z
x,1/2-y,1/2+z
loop_
_atom_site_type_symbol
_atom_site_label
_atom_site_fract_x
_atom_site_fract_y
_atom_site_fract_z
Si Si1 0.303485 0.232386 0.845650
Si Si2 0.201138 0.153753 0.318460
Si Si3 0.699202 0.778870 0.642129
Si Si4 0.197138 0.165347 0.122017
Si Si5 0.800776 0.942367 0.432774
Si Si6 0.299083 0.392458 0.110510
Si Si7 0.301899 0.441703 0.290877
Si Si8 0.193665 0.867252 0.942713
O O1 0.500000 0.225600 0.856723
O O2 0.258105 0.292117 0.860017
O O3 0.262358 0.220310 0.744994
O O4 0.215309 0.190380 0.904702
O O5 0.261522 0.153273 0.218439
O O6 0.259956 0.103701 0.370755
O O7 0.000000 0.154318 0.317730
O O8 0.500000 0.775482 0.633785
O O9 0.773294 0.726186 0.606025
O O10 0.756242 0.832840 0.601643
O O11 0.000000 0.156694 0.124731
O O12 0.265185 0.133839 0.040158
O O13 0.758321 0.926835 0.530784
O O14 0.000000 0.943403 0.424325
O O15 0.737800 0.000000 0.412842
O O16 0.500000 0.391923 0.111521
O O17 0.239828 0.414766 0.202691
O O18 0.500000 0.444778 0.281080
O O19 0.236535 0.500000 0.299610
O O20 0.269338 0.406722 0.374265
O O21 0.000000 0.879400 0.947843
#
# Coordination Sequence:
#
# PCOD9357213 Si02
#       8
#     8   8   8   8   8   8   8   8
#     4  10  19  34  55  80 110 143 181 222 269 328
#     4   9  19  38  58  78 108 144 185 230 277 326
#     4   9  18  33  53  79 109 142 180 217 264 323
#     4   9  20  36  54  78 111 147 182 222 273 326
#     4  10  22  38  56  80 109 143 186 232 278 328
#     4  10  20  36  56  81 111 145 183 223 272 329
#     4  10  21  39  60  80 109 150 189 226 272 327
#     4  11  22  35  54  83 115 146 183 227 275 323
#
# _framework density 19.856971000000001
#
# number of rings (size 3 to 8) (size 9 to 14) (size 15 to 20)
#    0.000    2.250    1.250    1.125    1.750    4.000 
#    0.000    0.625    0.000    2.250    0.000    0.000 
#    0.000    0.000    0.000    0.000    0.000    0.000 
#
# Total GULP energy -178636.327625 kJ/mol
# GULP energy per Si atom -5582.385238 kJ/mol
# Density = 1.981178 g / cm^3
# Si number density = 19.856971 Si / 1000 Ang^3
#
#
#
# Elastic Constant Matrix: (Units=GPa)
#
#
# Indices 1 2 3 4 5 6 
#
# 1 5.2182 -1.4007 -2.2561 0.0000 0.0000 0.0000
# 2 -1.4007 128.1342 51.7942 0.0000 0.0000 0.0000
# 3 -2.2561 51.7942 79.8549 0.0000 0.0000 0.0000
# 4 0.0000 0.0000 0.0000 27.0734 0.0000 0.0000
# 5 0.0000 0.0000 0.0000 0.0000 10.3637 0.0000
# 6 0.0000 0.0000 0.0000 0.0000 0.0000 19.7669
#
#
#
# Elastic Compliance Matrix: (Units=1/GPa)
#
#
# Indices 1 2 3 4 5 6 
#
# 1 0.194009 -0.000129 0.005565 0.000000 0.000000 0.000000
# 2 -0.000129 0.010578 -0.006864 0.000000 0.000000 0.000000
# 3 0.005565 -0.006864 0.017132 0.000000 0.000000 0.000000
# 4 0.000000 0.000000 0.000000 0.036937 0.000000 0.000000
# 5 0.000000 0.000000 0.000000 0.000000 0.096490 0.000000
# 6 0.000000 0.000000 0.000000 0.000000 0.000000 0.050590
#
#
# Mechanical properties :
#
#
# Convention : Reuss Voigt Hill
#
# Bulk Modulus (GPa) = 4.56909 34.38691 19.47800
# Shear Modulus (GPa) = 10.38323 22.44546 16.41434
#
# Velocity S-wave (km/s) = 2.28918 3.36572 2.87823
# Velocity P-wave (km/s) = 3.04847 5.69728 4.56904
#
# Compressibility (1/GPa) = 0.21886217
#
# Stress axis : x y z
#
# Youngs Moduli (GPa) = 5.15440 94.53947 58.36983
#
# Poissons Ratio (x) = 0.01215 -0.32480
# Poissons Ratio (y) = 0.00066 0.40067
# Poissons Ratio (z) = -0.02868 0.64895
#
# Static dielectric constant tensor:
#      x y z
#    x 1.706100 0.000000 0.000000 
#    y 0.000000 1.691670 0.000000 
#    z 0.000000 0.000000 1.716470 
# 
# From -- ./inp_files/12754.got.cif
#   From: 2010.05.17/outbox.cif.g08.bks.cpg/sg38_7_cif.got.tgz:12754.got - 2010.06.03 18:07:57.
