data_PCOD9357179
_publ_section_title
;
Structure prediction by ZEFSAII (Michael W. Deem and Ramdas Pophale) SiO2 
 PCOD9357179
Probable space group: A M M 2
;
_chemical_formula_sum "Si O2"
_cell_formula_units_Z 48
_cell_length_a 19.365083
_cell_length_b 8.589330
_cell_length_c 15.173406
_cell_angle_alpha 90.000000
_cell_angle_beta 90.000000
_cell_angle_gamma 90.000000
_cell_volume 2523.839481
_symmetry_space_group_name_H-M "A M M 2"
_symmetry_group_IT_number 38
_symmetry_cell_setting 'orthorhombic'
loop_
_space_group_symop_operation_xyz
x,y,z
-x,-y,z
-x,y,z
x,-y,z
x,1/2+y,1/2+z
-x,1/2-y,1/2+z
-x,1/2+y,1/2+z
x,1/2-y,1/2+z
loop_
_atom_site_type_symbol
_atom_site_label
_atom_site_fract_x
_atom_site_fract_y
_atom_site_fract_z
Si Si1 0.104540 0.312141 0.979320
Si Si2 0.000000 0.189158 0.631183
Si Si3 0.000000 0.686999 0.335968
Si Si4 0.500000 0.816939 0.377055
Si Si5 0.646278 0.817321 0.818313
Si Si6 0.347520 0.682211 0.634458
Si Si7 0.500000 0.684520 0.569466
Si Si8 0.264992 0.183815 0.474987
O O1 0.099027 0.500000 0.974775
O O2 0.065013 0.244800 0.894221
O O3 0.184852 0.270354 0.980361
O O4 0.065177 0.263911 0.069637
O O5 0.000000 0.242052 0.733365
O O6 0.000000 0.000000 0.635005
O O7 0.000000 0.500000 0.334845
O O8 0.430866 0.739469 0.340386
O O9 0.500000 0.786574 0.481661
O O10 0.500000 0.000000 0.356598
O O11 0.671767 0.724597 0.733308
O O12 0.645900 0.000000 0.800087
O O13 0.694396 0.778168 0.900751
O O14 0.336672 0.500000 0.616028
O O15 0.429393 0.714031 0.621642
O O16 0.303794 0.781629 0.565980
O O17 0.500000 0.500000 0.544588
O O18 0.269254 0.000000 0.454871
#
# Coordination Sequence:
#
# PCOD9357179 Si02
#       8
#     8   4   4   4   8   8   4   8
#     4   9  20  39  60  83 119 160 194 234 290 352
#     4   8  16  35  60  85 114 151 189 230 284 342
#     4  10  19  33  60  93 120 149 195 242 284 342
#     4  12  23  38  63  88 116 152 201 256 305 362
#     4  12  25  41  61  86 120 160 203 250 304 361
#     4  11  23  40  62  88 120 156 200 252 305 363
#     4  10  21  38  61  86 116 152 193 246 311 362
#     4  11  23  40  61  88 121 160 204 248 299 358
#
# _framework density 19.018640999999999
#
# number of rings (size 3 to 8) (size 9 to 14) (size 15 to 20)
#    0.000    1.500    1.667    4.500    0.000    4.000 
#    0.000    5.000    0.000    0.000    0.000    0.000 
#    0.000    0.000    0.000    0.000    0.000    0.000 
#
# Total GULP energy -134094.328036 kJ/mol
# GULP energy per Si atom -5587.263668 kJ/mol
# Density = 1.897535 g / cm^3
# Si number density = 19.018641 Si / 1000 Ang^3
#
#
#
# Elastic Constant Matrix: (Units=GPa)
#
#
# Indices 1 2 3 4 5 6 
#
# 1 126.0030 22.5777 35.1293 0.0000 0.0000 0.0000
# 2 22.5777 30.2271 -4.5351 0.0000 0.0000 0.0000
# 3 35.1293 -4.5351 111.3573 0.0000 0.0000 0.0000
# 4 0.0000 0.0000 0.0000 34.2741 0.0000 0.0000
# 5 0.0000 0.0000 0.0000 0.0000-1636.6285 0.0000
# 6 0.0000 0.0000 0.0000 0.0000 0.0000 11.4031
#
#
#
# Elastic Compliance Matrix: (Units=1/GPa)
#
#
# Indices 1 2 3 4 5 6 
#
# 1 0.010446 -0.008348 -0.003635 0.000000 0.000000 0.000000
# 2 -0.008348 0.039957 0.004261 0.000000 0.000000 0.000000
# 3 -0.003635 0.004261 0.010300 0.000000 0.000000 0.000000
# 4 0.000000 0.000000 0.000000 0.029177 0.000000 0.000000
# 5 0.000000 0.000000 0.000000 0.000000 -0.000611 0.000000
# 6 0.000000 0.000000 0.000000 0.000000 0.000000 0.087695
#
#
# Mechanical properties :
#
#
# Convention : Reuss Voigt Hill
#
# Bulk Modulus (GPa) = 22.09504 41.54791 31.82147
# Shear Modulus (GPa) = 24.09702 -303.89589 -139.89944
#
# Velocity S-wave (km/s) = 3.56339 -12.65446 -8.58597
# Velocity P-wave (km/s) = 5.34538 13.84270 9.02905
#
# Compressibility (1/GPa) = 0.04525904
#
# Stress axis : x y z
#
# Youngs Moduli (GPa) = 95.73462 25.02675 97.08377
#
# Poissons Ratio (x) = 0.20891 0.35291
# Poissons Ratio (y) = 0.79915 -0.41364
# Poissons Ratio (z) = 0.34801 -0.10663
#
# Static dielectric constant tensor:
#      x y z
#    x 1.646080 0.000000 0.000000 
#    y 0.000000 1.632680 0.000000 
#    z 0.000000 0.000000 1.640360 
# 
# From -- ./inp_files/15126.got.cif
#   From: 2010.05.17/outbox.cif.g08.bks.cpg/sg38_8_cif.got.tgz:15126.got - 2010.06.03 18:07:57.
