data_PCOD9357037
_publ_section_title
;
Structure prediction by ZEFSAII (Michael W. Deem and Ramdas Pophale) SiO2 
 PCOD9357037
Probable space group: A M M 2
;
_chemical_formula_sum "Si O2"
_cell_formula_units_Z 36
_cell_length_a 11.351742
_cell_length_b 31.729372
_cell_length_c 5.233081
_cell_angle_alpha 90.000000
_cell_angle_beta 90.000000
_cell_angle_gamma 90.000000
_cell_volume 1884.870188
_symmetry_space_group_name_H-M "A M M 2"
_symmetry_group_IT_number 38
_symmetry_cell_setting 'orthorhombic'
loop_
_space_group_symop_operation_xyz
x,y,z
-x,-y,z
-x,y,z
x,-y,z
x,1/2+y,1/2+z
-x,1/2-y,1/2+z
-x,1/2+y,1/2+z
x,1/2-y,1/2+z
loop_
_atom_site_type_symbol
_atom_site_label
_atom_site_fract_x
_atom_site_fract_y
_atom_site_fract_z
Si Si1 0.500000 0.222401 0.570240
Si Si2 0.863896 0.140682 0.118943
Si Si3 0.785045 0.545552 0.607713
Si Si4 0.713321 0.657728 0.117978
Si Si5 0.364823 0.437430 0.106664
O O1 0.500000 0.241890 0.287524
O O2 0.616893 0.194249 0.607579
O O3 0.857072 0.089240 0.118527
O O4 0.799322 0.156976 0.373448
O O5 0.000000 0.153223 0.109250
O O6 0.791216 0.156961 0.874560
O O7 0.847733 0.500000 0.618511
O O8 0.710285 0.547380 0.347671
O O9 0.696202 0.547888 0.846532
O O10 0.644447 0.613279 0.110132
O O11 0.500000 0.450276 0.122756
#
# Coordination Sequence:
#
# PCOD9357037 Si02
#       5
#     4   8   8   8   8
#     4  12  24  40  68  98 123 146 175 232 302 350
#     4  10  21  38  62  83 112 163 205 236 279 331
#     4  10  21  32  48  79 112 148 198 248 288 324
#     4  10  21  39  60  88 119 147 193 237 280 353
#     4  10  19  33  52  73 110 155 189 231 290 345
#
# _framework density 19.099456
#
# number of rings (size 3 to 8) (size 9 to 14) (size 15 to 20)
#    0.000    1.778    1.111    3.333    0.000    3.111 
#    0.000    0.000    0.000   21.333    0.000    0.000 
#    0.000    0.000    0.000    0.000    0.000    0.000 
#
# Total GULP energy -100532.898327 kJ/mol
# GULP energy per Si atom -5585.161018 kJ/mol
# Density = 1.905599 g / cm^3
# Si number density = 19.099456 Si / 1000 Ang^3
#
#
#
# Elastic Constant Matrix: (Units=GPa)
#
#
# Indices 1 2 3 4 5 6 
#
# 1 107.1080 21.7211 10.2944 0.0000 0.0000 0.0000
# 2 21.7211 51.6401 -1.6879 0.0000 0.0000 0.0000
# 3 10.2944 -1.6879 77.8162 0.0000 0.0000 0.0000
# 4 0.0000 0.0000 0.0000 20.1619 0.0000 0.0000
# 5 0.0000 0.0000 0.0000 0.0000 -138.5829 0.0000
# 6 0.0000 0.0000 0.0000 0.0000 0.0000 -14.9735
#
#
#
# Elastic Compliance Matrix: (Units=1/GPa)
#
#
# Indices 1 2 3 4 5 6 
#
# 1 0.010372 -0.004411 -0.001468 0.000000 0.000000 0.000000
# 2 -0.004411 0.021254 0.001045 0.000000 0.000000 0.000000
# 3 -0.001468 0.001045 0.013068 0.000000 0.000000 0.000000
# 4 0.000000 0.000000 0.000000 0.049598 0.000000 0.000000
# 5 0.000000 0.000000 0.000000 0.000000 -0.007216 0.000000
# 6 0.000000 0.000000 0.000000 0.000000 0.000000 -0.066785
#
#
# Mechanical properties :
#
#
# Convention : Reuss Voigt Hill
#
# Bulk Modulus (GPa) = 28.55032 33.02438 30.78735
# Shear Modulus (GPa) = 120.09207 -12.92977 53.58115
#
# Velocity S-wave (km/s) = 7.93812 -2.60469 5.30233
# Velocity P-wave (km/s) = 9.94982 2.87792 7.32398
#
# Compressibility (1/GPa) = 0.03502588
#
# Stress axis : x y z
#
# Youngs Moduli (GPa) = 96.41432 47.04956 76.52501
#
# Poissons Ratio (x) = 0.20752 0.11232
# Poissons Ratio (y) = 0.42525 -0.07993
# Poissons Ratio (z) = 0.14152 -0.04914
#
# Static dielectric constant tensor:
#      x y z
#    x 1.623040 0.000000 0.000000 
#    y 0.000000 1.683790 0.000000 
#    z 0.000000 0.000000 1.629030 
# 
# From -- ./inp_files/949.got.cif
#   From: 2010.05.17/outbox.cif.g08.bks.cpg/sg38_1_cif.got.tgz:949.got - 2010.06.03 18:07:57.
