data_PCOD9357097
_publ_section_title
;
Structure prediction by ZEFSAII (Michael W. Deem and Ramdas Pophale) SiO2 
 PCOD9357097
Probable space group: A M M 2
;
_chemical_formula_sum "Si O2"
_cell_formula_units_Z 64
_cell_length_a 21.778424
_cell_length_b 8.844235
_cell_length_c 16.907329
_cell_angle_alpha 90.000000
_cell_angle_beta 90.000000
_cell_angle_gamma 90.000000
_cell_volume 3256.579811
_symmetry_space_group_name_H-M "A M M 2"
_symmetry_group_IT_number 38
_symmetry_cell_setting 'orthorhombic'
loop_
_space_group_symop_operation_xyz
x,y,z
-x,-y,z
-x,y,z
x,-y,z
x,1/2+y,1/2+z
-x,1/2-y,1/2+z
-x,1/2+y,1/2+z
x,1/2-y,1/2+z
loop_
_atom_site_type_symbol
_atom_site_label
_atom_site_fract_x
_atom_site_fract_y
_atom_site_fract_z
Si Si1 0.123789 0.682408 0.958150
Si Si2 0.313123 0.172955 0.654658
Si Si3 0.929861 0.183131 0.631149
Si Si4 0.862527 0.818519 0.793503
Si Si5 0.353955 0.665356 0.423724
Si Si6 0.729290 0.671635 0.801598
Si Si7 0.431614 0.676676 0.044528
Si Si8 0.762387 0.330853 0.534717
O O1 0.126440 0.500000 0.954532
O O2 0.104926 0.745110 0.871444
O O3 0.089057 0.725187 0.040748
O O4 0.189364 0.759885 0.974782
O O5 0.306006 0.298898 0.720404
O O6 0.377167 0.192407 0.608396
O O7 0.253565 0.206549 0.600301
O O8 0.310222 0.000000 0.683963
O O9 0.889280 0.231600 0.707423
O O10 0.000000 0.230953 0.644606
O O11 0.927424 0.000000 0.631737
O O12 0.790856 0.772137 0.798687
O O13 0.868233 0.000000 0.798926
O O14 0.363572 0.500000 0.387153
O O15 0.320943 0.779417 0.365231
O O16 0.413386 0.726740 0.468007
O O17 0.302090 0.650711 0.490958
O O18 0.748764 0.500000 0.813344
O O19 0.500000 0.714107 0.073565
O O20 0.430580 0.500000 0.022048
O O21 0.781536 0.500000 0.562105
#
# Coordination Sequence:
#
# PCOD9357097 Si02
#       8
#     8   8   8   8   8   8   8   8
#     4  11  21  35  60  89 117 155 198 246 305 366
#     4  10  20  34  55  81 114 151 188 236 294 352
#     4   9  21  41  61  83 116 160 207 249 297 364
#     4  11  22  38  62  90 121 158 200 251 308 368
#     4  10  20  34  55  82 113 148 185 233 288 344
#     4  12  23  36  56  84 118 151 190 240 299 360
#     4   9  19  37  59  82 110 149 195 238 284 346
#     4  10  19  33  54  81 113 145 185 233 285 348
#
# _framework density 19.652519999999999
#
# number of rings (size 3 to 8) (size 9 to 14) (size 15 to 20)
#    0.000    1.750    1.250    3.750    0.000    3.250 
#    0.000    2.500    0.000    7.500    0.000    0.000 
#    0.000    0.000    0.000    0.000    0.000    0.000 
#
# Total GULP energy -178263.265734 kJ/mol
# GULP energy per Si atom -5570.727054 kJ/mol
# Density = 1.960779 g / cm^3
# Si number density = 19.652520 Si / 1000 Ang^3
#
#
#
# Elastic Constant Matrix: (Units=GPa)
#
#
# Indices 1 2 3 4 5 6 
#
# 1 63.2547 17.8129 32.5342 0.0000 0.0000 0.0000
# 2 17.8129 61.9958 30.0150 0.0000 0.0000 0.0000
# 3 32.5342 30.0150 88.8271 0.0000 0.0000 0.0000
# 4 0.0000 0.0000 0.0000 31.4832 0.0000 0.0000
# 5 0.0000 0.0000 0.0000 0.0000 15.8911 0.0000
# 6 0.0000 0.0000 0.0000 0.0000 0.0000 -23.6446
#
#
#
# Elastic Compliance Matrix: (Units=1/GPa)
#
#
# Indices 1 2 3 4 5 6 
#
# 1 0.019825 -0.002607 -0.006380 0.000000 0.000000 0.000000
# 2 -0.002607 0.019628 -0.005677 0.000000 0.000000 0.000000
# 3 -0.006380 -0.005677 0.015513 0.000000 0.000000 0.000000
# 4 0.000000 0.000000 0.000000 0.031763 0.000000 0.000000
# 5 0.000000 0.000000 0.000000 0.000000 0.062928 0.000000
# 6 0.000000 0.000000 0.000000 0.000000 0.000000 -0.042293
#
#
# Mechanical properties :
#
#
# Convention : Reuss Voigt Hill
#
# Bulk Modulus (GPa) = 39.00724 41.64464 40.32594
# Shear Modulus (GPa) = 34.42595 13.66030 24.04312
#
# Velocity S-wave (km/s) = 4.18991 2.63932 3.50152
# Velocity P-wave (km/s) = 6.58017 5.52490 6.07549
#
# Compressibility (1/GPa) = 0.02563626
#
# Stress axis : x y z
#
# Youngs Moduli (GPa) = 50.44174 50.94781 64.46178
#
# Poissons Ratio (x) = 0.13283 0.41128
# Poissons Ratio (y) = 0.13151 0.36598
# Poissons Ratio (z) = 0.32183 0.28925
#
# Static dielectric constant tensor:
#      x y z
#    x 1.692230 0.000000 0.000000 
#    y 0.000000 1.716890 0.000000 
#    z 0.000000 0.000000 1.806040 
# 
# From -- ./inp_files/18946.got.cif
#   From: 2010.05.17/outbox.cif.g08.bks.cpg/sg38_10_cif.got.tgz:18946.got - 2010.06.03 18:07:57.
