data_PCOD9357402
_publ_section_title
;
Structure prediction by ZEFSAII (Michael W. Deem and Ramdas Pophale) SiO2 
 PCOD9357402
Probable space group: A M M 2
;
_chemical_formula_sum "Si O2"
_cell_formula_units_Z 64
_cell_length_a 15.641923
_cell_length_b 16.209409
_cell_length_c 12.105385
_cell_angle_alpha 90.000000
_cell_angle_beta 90.000000
_cell_angle_gamma 90.000000
_cell_volume 3069.275909
_symmetry_space_group_name_H-M "A M M 2"
_symmetry_group_IT_number 38
_symmetry_cell_setting 'orthorhombic'
loop_
_space_group_symop_operation_xyz
x,y,z
-x,-y,z
-x,y,z
x,-y,z
x,1/2+y,1/2+z
-x,1/2-y,1/2+z
-x,1/2+y,1/2+z
x,1/2-y,1/2+z
loop_
_atom_site_type_symbol
_atom_site_label
_atom_site_fract_x
_atom_site_fract_y
_atom_site_fract_z
Si Si1 0.367388 0.093817 0.977730
Si Si2 0.257592 0.592122 0.078013
Si Si3 0.241599 0.322229 0.845134
Si Si4 0.401999 0.399916 0.724045
Si Si5 0.405499 0.600716 0.235248
Si Si6 0.094672 0.878101 0.721750
Si Si7 0.817551 0.852290 0.938897
Si Si8 0.096963 0.817827 0.173806
O O1 0.397953 0.131123 0.861559
O O2 0.264754 0.094980 0.971680
O O3 0.399350 0.000000 0.978657
O O4 0.395069 0.128297 0.095707
O O5 0.287416 0.500000 0.050960
O O6 0.330372 0.631802 0.155965
O O7 0.171164 0.588903 0.147969
O O8 0.239532 0.636620 0.964637
O O9 0.331464 0.348290 0.790693
O O10 0.222556 0.227040 0.875247
O O11 0.166164 0.351066 0.761917
O O12 0.500000 0.388305 0.761547
O O13 0.383834 0.500000 0.729387
O O14 0.500000 0.619101 0.192292
O O15 0.395920 0.500000 0.241067
O O16 0.120248 0.892276 0.848907
O O17 0.093077 0.779895 0.698238
O O18 0.000000 0.908844 0.696845
O O19 0.868026 0.829490 0.049899
O O20 0.000000 0.850503 0.185667
#
# Coordination Sequence:
#
# PCOD9357402 Si02
#       8
#     8   8   8   8   8   8   8   8
#     4  10  19  35  63  89 115 154 201 248 295 348
#     4  11  22  37  57  85 121 157 193 238 293 356
#     4  11  23  38  61  88 121 157 201 247 293 360
#     4  10  21  39  63  88 119 163 208 248 297 357
#     4   9  18  34  58  86 113 148 195 241 289 347
#     4  10  21  36  57  84 113 151 195 237 293 359
#     4  11  20  37  64  86 118 150 195 249 302 350
#     4  10  21  39  63  87 113 153 202 249 295 354
#
# _framework density 20.851824000000001
#
# number of rings (size 3 to 8) (size 9 to 14) (size 15 to 20)
#    0.000    1.750    3.750    1.125    0.000    3.250 
#    0.000    2.500    0.000    3.750    0.000    0.000 
#    0.000    0.000    0.000    0.000    0.000    0.000 
#
# Total GULP energy -178579.371266 kJ/mol
# GULP energy per Si atom -5580.605352 kJ/mol
# Density = 2.080436 g / cm^3
# Si number density = 20.851824 Si / 1000 Ang^3
#
#
#
# Elastic Constant Matrix: (Units=GPa)
#
#
# Indices 1 2 3 4 5 6 
#
# 1 178.7952 22.8531 75.2687 0.0000 0.0000 0.0000
# 2 22.8531 27.7642 25.0191 0.0000 0.0000 0.0000
# 3 75.2687 25.0191 141.2112 0.0000 0.0000 0.0000
# 4 0.0000 0.0000 0.0000 3.4784 0.0000 0.0000
# 5 0.0000 0.0000 0.0000 0.0000 13.2953 0.0000
# 6 0.0000 0.0000 0.0000 0.0000 0.0000 17.1335
#
#
#
# Elastic Compliance Matrix: (Units=1/GPa)
#
#
# Indices 1 2 3 4 5 6 
#
# 1 0.007419 -0.003026 -0.003418 0.000000 0.000000 0.000000
# 2 -0.003026 0.044095 -0.006199 0.000000 0.000000 0.000000
# 3 -0.003418 -0.006199 0.010002 0.000000 0.000000 0.000000
# 4 0.000000 0.000000 0.000000 0.287489 0.000000 0.000000
# 5 0.000000 0.000000 0.000000 0.000000 0.075215 0.000000
# 6 0.000000 0.000000 0.000000 0.000000 0.000000 0.058365
#
#
# Mechanical properties :
#
#
# Convention : Reuss Voigt Hill
#
# Bulk Modulus (GPa) = 27.60301 66.00582 46.80441
# Shear Modulus (GPa) = 9.61633 21.75674 15.68653
#
# Velocity S-wave (km/s) = 2.14983 3.23367 2.74576
# Velocity P-wave (km/s) = 4.40781 6.75763 5.70501
#
# Compressibility (1/GPa) = 0.03622793
#
# Stress axis : x y z
#
# Youngs Moduli (GPa) = 134.79293 22.67828 99.98040
#
# Poissons Ratio (x) = 0.06863 0.34175
# Poissons Ratio (y) = 0.40792 0.61983
# Poissons Ratio (z) = 0.46075 0.14059
#
# Static dielectric constant tensor:
#      x y z
#    x 1.755860 0.000000 0.000000 
#    y 0.000000 1.794150 0.000000 
#    z 0.000000 0.000000 1.728980 
# 
# From -- ./inp_files/10245.got.cif
#   From: 2010.05.17/outbox.cif.g08.bks.cpg/sg38_6_cif.got.tgz:10245.got - 2010.06.03 18:07:57.
