data_PCOD9357059
_publ_section_title
;
Structure prediction by ZEFSAII (Michael W. Deem and Ramdas Pophale) SiO2 
 PCOD9357059
Probable space group: A M M 2
;
_chemical_formula_sum "Si O2"
_cell_formula_units_Z 48
_cell_length_a 8.119355
_cell_length_b 8.958981
_cell_length_c 34.906155
_cell_angle_alpha 90.000000
_cell_angle_beta 90.000000
_cell_angle_gamma 90.000000
_cell_volume 2539.113758
_symmetry_space_group_name_H-M "A M M 2"
_symmetry_group_IT_number 38
_symmetry_cell_setting 'orthorhombic'
loop_
_space_group_symop_operation_xyz
x,y,z
-x,-y,z
-x,y,z
x,-y,z
x,1/2+y,1/2+z
-x,1/2-y,1/2+z
-x,1/2+y,1/2+z
x,1/2-y,1/2+z
loop_
_atom_site_type_symbol
_atom_site_label
_atom_site_fract_x
_atom_site_fract_y
_atom_site_fract_z
Si Si1 0.305154 0.825609 0.768860
Si Si2 0.500000 0.682301 0.644445
Si Si3 0.183057 0.682038 0.507483
Si Si4 0.304274 0.674314 0.424822
Si Si5 0.182438 0.820050 0.192751
Si Si6 0.500000 0.317542 0.556030
Si Si7 0.197610 0.672106 0.846688
O O1 0.500000 0.808035 0.761824
O O2 0.210669 0.737965 0.735680
O O3 0.265224 0.764077 0.810820
O O4 0.263326 0.000000 0.766906
O O5 0.500000 0.500000 0.644922
O O6 0.665130 0.731613 0.666547
O O7 0.500000 0.728916 0.600237
O O8 0.186852 0.500000 0.507599
O O9 0.215233 0.727192 0.463476
O O10 0.334801 0.731346 0.533904
O O11 0.000000 0.728280 0.519957
O O12 0.500000 0.681469 0.431786
O O13 0.260645 0.500000 0.418620
O O14 0.259327 0.763913 0.386961
O O15 0.000000 0.774546 0.179142
O O16 0.187228 0.000000 0.193260
O O17 0.500000 0.500000 0.555330
O O18 0.248263 0.500000 0.842587
O O19 0.000000 0.680147 0.846119
#
# Coordination Sequence:
#
# PCOD9357059 Si02
#       7
#     8   4   8   8   8   4   8
#     4  11  23  38  57  81 107 140 183 227 272 322
#     4   9  18  32  51  76 111 146 177 224 273 319
#     4   9  16  27  46  73 107 145 181 222 270 316
#     4  10  19  33  53  77 106 141 184 229 270 317
#     4  10  20  35  56  81 110 147 185 220 270 329
#     4   9  16  28  46  74 109 142 177 218 269 327
#     4  11  24  38  52  76 109 144 183 225 270 322
#
# _framework density 18.904235
#
# number of rings (size 3 to 8) (size 9 to 14) (size 15 to 20)
#    0.000    2.000    1.667    2.500    0.000    8.333 
#    0.000    3.333    0.000    0.000    0.000    2.333 
#    0.000    0.000    0.000    0.000    0.000    0.000 
#
# Total GULP energy -133997.818945 kJ/mol
# GULP energy per Si atom -5583.242456 kJ/mol
# Density = 1.886121 g / cm^3
# Si number density = 18.904235 Si / 1000 Ang^3
#
#
#
# Elastic Constant Matrix: (Units=GPa)
#
#
# Indices 1 2 3 4 5 6 
#
# 1 132.1757 24.9446 72.5085 0.0000 0.0000 0.0000
# 2 24.9446 10.0215 5.3983 0.0000 0.0000 0.0000
# 3 72.5085 5.3983 124.9127 0.0000 0.0000 0.0000
# 4 0.0000 0.0000 0.0000 17.3692 0.0000 0.0000
# 5 0.0000 0.0000 0.0000 0.0000 7.9151 0.0000
# 6 0.0000 0.0000 0.0000 0.0000 0.0000 12.0939
#
#
#
# Elastic Compliance Matrix: (Units=1/GPa)
#
#
# Indices 1 2 3 4 5 6 
#
# 1 0.024105 -0.053713 -0.011671 0.000000 0.000000 0.000000
# 2 -0.053713 0.221851 0.021591 0.000000 0.000000 0.000000
# 3 -0.011671 0.021591 0.013847 0.000000 0.000000 0.000000
# 4 0.000000 0.000000 0.000000 0.057573 0.000000 0.000000
# 5 0.000000 0.000000 0.000000 0.000000 0.126340 0.000000
# 6 0.000000 0.000000 0.000000 0.000000 0.000000 0.082686
#
#
# Mechanical properties :
#
#
# Convention : Reuss Voigt Hill
#
# Bulk Modulus (GPa) = 5.80659 52.53477 29.17068
# Shear Modulus (GPa) = 7.44718 18.42621 12.93670
#
# Velocity S-wave (km/s) = 1.98695 3.12543 2.61880
# Velocity P-wave (km/s) = 2.88829 6.39333 4.96069
#
# Compressibility (1/GPa) = 0.17221808
#
# Stress axis : x y z
#
# Youngs Moduli (GPa) = 41.48511 4.50752 72.21670
#
# Poissons Ratio (x) = 0.24211 0.84284
# Poissons Ratio (y) = 2.22829 -1.55925
# Poissons Ratio (z) = 0.48417 -0.09732
#
# Static dielectric constant tensor:
#      x y z
#    x 1.676040 0.000000 0.000000 
#    y 0.000000 1.639810 0.000000 
#    z 0.000000 0.000000 1.618430 
# 
# From -- ./inp_files/24430.got.cif
#   From: 2010.05.17/outbox.cif.g08.bks.cpg/sg38_13_cif.got.tgz:24430.got - 2010.06.03 18:07:57.
