data_PCOD9357643
_publ_section_title
;
Structure prediction by ZEFSAII (Michael W. Deem and Ramdas Pophale) SiO2 
 PCOD9357643
Probable space group: A M M 2
;
_chemical_formula_sum "Si O2"
_cell_formula_units_Z 40
_cell_length_a 7.539943
_cell_length_b 13.972053
_cell_length_c 19.308392
_cell_angle_alpha 90.000000
_cell_angle_beta 90.000000
_cell_angle_gamma 90.000000
_cell_volume 2034.109810
_symmetry_space_group_name_H-M "A M M 2"
_symmetry_group_IT_number 38
_symmetry_cell_setting 'orthorhombic'
loop_
_space_group_symop_operation_xyz
x,y,z
-x,-y,z
-x,y,z
x,-y,z
x,1/2+y,1/2+z
-x,1/2-y,1/2+z
-x,1/2+y,1/2+z
x,1/2-y,1/2+z
loop_
_atom_site_type_symbol
_atom_site_label
_atom_site_fract_x
_atom_site_fract_y
_atom_site_fract_z
Si Si1 0.792969 0.195216 0.639950
Si Si2 0.217095 0.888827 0.783494
Si Si3 0.786137 0.299874 0.427533
Si Si4 0.217254 0.607284 0.996535
Si Si5 0.290314 0.393556 0.574061
O O1 0.720251 0.165605 0.714442
O O2 0.720590 0.137911 0.573475
O O3 0.781287 0.307004 0.620703
O O4 0.000000 0.169133 0.642456
O O5 0.278988 0.841413 0.855066
O O6 0.000000 0.885454 0.785072
O O7 0.267312 0.000000 0.780203
O O8 0.725843 0.192175 0.445418
O O9 0.740037 0.364607 0.493965
O O10 0.000000 0.297871 0.424699
O O11 0.273238 0.500000 0.979230
O O12 0.000000 0.608364 0.997142
O O13 0.500000 0.395414 0.585709
O O14 0.218376 0.500000 0.587309
#
# Coordination Sequence:
#
# PCOD9357643 Si02
#       5
#     8   8   8   8   8
#     4   9  17  29  47  69  90 118 157 195 232 275
#     4   9  16  27  46  73 101 123 147 187 236 278
#     4   9  17  29  48  73  97 123 155 189 227 273
#     4   8  13  23  41  64  89 118 152 187 221 260
#     4  10  20  33  48  66  91 124 158 193 234 275
#
# _framework density 19.664621
#
# number of rings (size 3 to 8) (size 9 to 14) (size 15 to 20)
#    0.000    3.000    0.000    3.000    0.000    4.800 
#    0.000    2.000    0.000   19.800    0.000    0.000 
#    0.000    0.000    0.000    0.000    0.000    0.000 
#
# Total GULP energy -111540.852317 kJ/mol
# GULP energy per Si atom -5577.042616 kJ/mol
# Density = 1.961986 g / cm^3
# Si number density = 19.664621 Si / 1000 Ang^3
#
#
#
# Elastic Constant Matrix: (Units=GPa)
#
#
# Indices 1 2 3 4 5 6 
#
# 1 44.9941 -12.1466 -1.3953 0.0000 0.0000 0.0000
# 2 -12.1466 140.0512 75.5871 0.0000 0.0000 0.0000
# 3 -1.3953 75.5871 152.1123 0.0000 0.0000 0.0000
# 4 0.0000 0.0000 0.0000 16.6484 0.0000 0.0000
# 5 0.0000 0.0000 0.0000 0.0000 -15.3828 0.0000
# 6 0.0000 0.0000 0.0000 0.0000 0.0000 -36.2874
#
#
#
# Elastic Compliance Matrix: (Units=1/GPa)
#
#
# Indices 1 2 3 4 5 6 
#
# 1 0.022883 0.002557 -0.001061 0.000000 0.000000 0.000000
# 2 0.002557 0.010043 -0.004967 0.000000 0.000000 0.000000
# 3 -0.001061 -0.004967 0.009033 0.000000 0.000000 0.000000
# 4 0.000000 0.000000 0.000000 0.060066 0.000000 0.000000
# 5 0.000000 0.000000 0.000000 0.000000 -0.065008 0.000000
# 6 0.000000 0.000000 0.000000 0.000000 0.000000 -0.027558
#
#
# Mechanical properties :
#
#
# Convention : Reuss Voigt Hill
#
# Bulk Modulus (GPa) = 28.55792 51.24979 39.90385
# Shear Modulus (GPa) = 178.11651 11.33646 94.72649
#
# Velocity S-wave (km/s) = 9.52753 2.40363 6.94806
# Velocity P-wave (km/s) = 11.64413 5.81565 9.20346
#
# Compressibility (1/GPa) = 0.03501656
#
# Stress axis : x y z
#
# Youngs Moduli (GPa) = 43.70146 99.57446 110.71112
#
# Poissons Ratio (x) = -0.25462 0.11744
# Poissons Ratio (y) = -0.11175 0.54990
# Poissons Ratio (z) = 0.04636 0.49458
#
# Static dielectric constant tensor:
#      x y z
#    x 1.737320 0.000000 0.000000 
#    y 0.000000 1.689350 0.000000 
#    z 0.000000 0.000000 1.668310 
# 
# From -- ./inp_files/16467.got.cif
#   From: 2010.05.17/outbox.cif.g08.bks.cpg/sg38_9_cif.got.tgz:16467.got - 2010.06.03 18:07:57.
