data_PCOD9357241
_publ_section_title
;
Structure prediction by ZEFSAII (Michael W. Deem and Ramdas Pophale) SiO2 
 PCOD9357241
Probable space group: A M M 2
;
_chemical_formula_sum "Si O2"
_cell_formula_units_Z 56
_cell_length_a 7.548547
_cell_length_b 20.074291
_cell_length_c 15.988573
_cell_angle_alpha 90.000000
_cell_angle_beta 90.000000
_cell_angle_gamma 90.000000
_cell_volume 2422.776113
_symmetry_space_group_name_H-M "A M M 2"
_symmetry_group_IT_number 38
_symmetry_cell_setting 'orthorhombic'
loop_
_space_group_symop_operation_xyz
x,y,z
-x,-y,z
-x,y,z
x,-y,z
x,1/2+y,1/2+z
-x,1/2-y,1/2+z
-x,1/2+y,1/2+z
x,1/2-y,1/2+z
loop_
_atom_site_type_symbol
_atom_site_label
_atom_site_fract_x
_atom_site_fract_y
_atom_site_fract_z
Si Si1 0.711859 0.574829 0.574680
Si Si2 0.710746 0.000000 0.490318
Si Si3 0.217372 0.575167 0.212917
Si Si4 0.202208 0.143404 0.555723
Si Si5 0.300787 0.643936 0.728991
Si Si6 0.212140 0.500000 0.794819
Si Si7 0.213510 0.126357 0.891404
Si Si8 0.210382 0.723086 0.896264
O O1 0.500000 0.573053 0.588343
O O2 0.781945 0.500000 0.592195
O O3 0.782747 0.633152 0.636592
O O4 0.741108 0.591416 0.478158
O O5 0.796090 0.067158 0.524533
O O6 0.745724 0.000000 0.392170
O O7 0.500000 0.000000 0.506157
O O8 0.273128 0.500000 0.189628
O O9 0.280309 0.632436 0.148446
O O10 0.273842 0.589907 0.307362
O O11 0.000000 0.575953 0.210122
O O12 0.283166 0.184762 0.478516
O O13 0.000000 0.166967 0.567400
O O14 0.500000 0.668810 0.717738
O O15 0.293756 0.567179 0.758657
O O16 0.229544 0.685420 0.807563
O O17 0.000000 0.500000 0.782402
O O18 0.280278 0.202168 0.891696
O O19 0.000000 0.128062 0.886536
O O20 0.000000 0.726498 0.909551
#
# Coordination Sequence:
#
# PCOD9357241 Si02
#       8
#     8   4   8   8   8   4   8   8
#     4  10  22  41  62  86 118 157 199 249 307 355
#     4  12  22  32  52  85 118 149 186 237 292 344
#     4   9  17  32  57  83 107 144 193 244 293 334
#     4  10  19  34  56  81 112 153 190 230 292 350
#     4  11  22  38  60  87 120 156 196 243 298 359
#     4  12  22  34  56  87 120 153 190 239 300 356
#     4  10  22  39  59  86 118 155 203 248 287 344
#     4  10  22  37  56  87 123 156 193 237 290 354
#
# _framework density 23.113982
#
# number of rings (size 3 to 8) (size 9 to 14) (size 15 to 20)
#    0.000    1.714    2.857    2.143    0.000    3.714 
#    0.000    3.571    0.000    0.000    0.000    0.000 
#    0.000    0.000    0.000    0.000    0.000    0.000 
#
# Total GULP energy -156282.620244 kJ/mol
# GULP energy per Si atom -5581.522152 kJ/mol
# Density = 2.306137 g / cm^3
# Si number density = 23.113982 Si / 1000 Ang^3
#
#
#
# Elastic Constant Matrix: (Units=GPa)
#
#
# Indices 1 2 3 4 5 6 
#
# 1 73.9294 0.1411 4.0193 0.0000 0.0000 0.0000
# 2 0.1411 74.0261 31.5306 0.0000 0.0000 0.0000
# 3 4.0193 31.5306 181.4766 0.0000 0.0000 0.0000
# 4 0.0000 0.0000 0.0000 32.1717 0.0000 0.0000
# 5 0.0000 0.0000 0.0000 0.0000 30.8795 0.0000
# 6 0.0000 0.0000 0.0000 0.0000 0.0000 -7.6265
#
#
#
# Elastic Compliance Matrix: (Units=1/GPa)
#
#
# Indices 1 2 3 4 5 6 
#
# 1 0.013544 0.000110 -0.000319 0.000000 0.000000 0.000000
# 2 0.000110 0.014589 -0.002537 0.000000 0.000000 0.000000
# 3 -0.000319 -0.002537 0.005958 0.000000 0.000000 0.000000
# 4 0.000000 0.000000 0.000000 0.031083 0.000000 0.000000
# 5 0.000000 0.000000 0.000000 0.000000 0.032384 0.000000
# 6 0.000000 0.000000 0.000000 0.000000 0.000000 -0.131122
#
#
# Mechanical properties :
#
#
# Convention : Reuss Voigt Hill
#
# Bulk Modulus (GPa) = 34.96678 44.53491 39.75085
# Shear Modulus (GPa) = -269.70843 30.66768 -119.52037
#
# Velocity S-wave (km/s) = -10.81386 3.64648 -7.19871
# Velocity P-wave (km/s) = 11.86417 6.08592 7.20139
#
# Compressibility (1/GPa) = 0.02859858
#
# Stress axis : x y z
#
# Youngs Moduli (GPa) = 73.83584 68.54359 167.83448
#
# Poissons Ratio (x) = -0.00755 0.05355
# Poissons Ratio (y) = -0.00813 0.42584
# Poissons Ratio (z) = 0.02356 0.17391
#
# Static dielectric constant tensor:
#      x y z
#    x 1.884600 0.000000 0.000000 
#    y 0.000000 1.826470 0.000000 
#    z 0.000000 0.000000 1.942980 
# 
# From -- ./inp_files/12495.got.cif
#   From: 2010.05.17/outbox.cif.g08.bks.cpg/sg38_7_cif.got.tgz:12495.got - 2010.06.03 18:07:57.
