data_PCOD9357162
_publ_section_title
;
Structure prediction by ZEFSAII (Michael W. Deem and Ramdas Pophale) SiO2 
 PCOD9357162
Probable space group: A M M 2
;
_chemical_formula_sum "Si O2"
_cell_formula_units_Z 34
_cell_length_a 8.296478
_cell_length_b 8.163478
_cell_length_c 27.321434
_cell_angle_alpha 90.000000
_cell_angle_beta 90.000000
_cell_angle_gamma 90.000000
_cell_volume 1850.429241
_symmetry_space_group_name_H-M "A M M 2"
_symmetry_group_IT_number 38
_symmetry_cell_setting 'orthorhombic'
loop_
_space_group_symop_operation_xyz
x,y,z
-x,-y,z
-x,y,z
x,-y,z
x,1/2+y,1/2+z
-x,1/2-y,1/2+z
-x,1/2+y,1/2+z
x,1/2-y,1/2+z
loop_
_atom_site_type_symbol
_atom_site_label
_atom_site_fract_x
_atom_site_fract_y
_atom_site_fract_z
Si Si1 0.000000 0.816905 0.885320
Si Si2 0.000000 0.500000 0.480966
Si Si3 0.308091 0.681381 0.129187
Si Si4 0.322262 0.303212 0.835056
Si Si5 0.818929 0.500000 0.576575
Si Si6 0.810346 0.306160 0.731852
O O1 0.833274 0.738900 0.867570
O O2 0.000000 0.847317 0.943783
O O3 0.000000 0.000000 0.863461
O O4 0.850186 0.500000 0.518333
O O5 0.500000 0.682894 0.134969
O O6 0.258801 0.500000 0.111150
O O7 0.261918 0.833596 0.094811
O O8 0.231563 0.713554 0.182288
O O9 0.500000 0.244046 0.851284
O O10 0.327694 0.500000 0.833186
O O11 0.286492 0.247684 0.779427
O O12 0.000000 0.500000 0.598944
O O13 0.774631 0.500000 0.723853
O O14 0.000000 0.292366 0.742997
#
# Coordination Sequence:
#
# PCOD9357162 Si02
#       6
#     4   2   8   8   4   8
#     4  10  21  41  61  85 118 154 206 263 318 367
#     4   8  24  44  66  86 110 158 216 258 328 384
#     4  11  23  37  58  91 130 167 205 252 312 379
#     4  10  20  36  61  91 126 167 209 252 308 374
#     4  10  21  43  66  86 115 163 208 264 322 370
#     4  10  19  33  56  88 126 172 211 248 302 369
#
# _framework density 18.374116000000001
#
# number of rings (size 3 to 8) (size 9 to 14) (size 15 to 20)
#    0.706    1.176    2.353    2.118    0.000    4.235 
#    0.000    4.706    0.000    2.824    0.000    0.000 
#    0.000    0.000    0.000    0.000    0.000    0.000 
#
# Total GULP energy -94739.826931 kJ/mol
# GULP energy per Si atom -5572.930996 kJ/mol
# Density = 1.833230 g / cm^3
# Si number density = 18.374116 Si / 1000 Ang^3
#
#
#
# Elastic Constant Matrix: (Units=GPa)
#
#
# Indices 1 2 3 4 5 6 
#
# 1 106.9586 38.0409 39.5229 0.0000 0.0000 0.0000
# 2 38.0409 83.0112 34.6091 0.0000 0.0000 0.0000
# 3 39.5229 34.6091 106.5443 0.0000 0.0000 0.0000
# 4 0.0000 0.0000 0.0000 0.6334 0.0000 0.0000
# 5 0.0000 0.0000 0.0000 0.0000 6.5327 0.0000
# 6 0.0000 0.0000 0.0000 0.0000 0.0000 22.0113
#
#
#
# Elastic Compliance Matrix: (Units=1/GPa)
#
#
# Indices 1 2 3 4 5 6 
#
# 1 0.011984 -0.004208 -0.003078 0.000000 0.000000 0.000000
# 2 -0.004208 0.015411 -0.003445 0.000000 0.000000 0.000000
# 3 -0.003078 -0.003445 0.011647 0.000000 0.000000 0.000000
# 4 0.000000 0.000000 0.000000 1.578829 0.000000 0.000000
# 5 0.000000 0.000000 0.000000 0.000000 0.153076 0.000000
# 6 0.000000 0.000000 0.000000 0.000000 0.000000 0.045431
#
#
# Mechanical properties :
#
#
# Convention : Reuss Voigt Hill
#
# Bulk Modulus (GPa) = 56.88792 57.87331 57.38062
# Shear Modulus (GPa) = 2.71194 18.12489 10.41841
#
# Velocity S-wave (km/s) = 1.21621 3.14417 2.38379
# Velocity P-wave (km/s) = 5.74459 6.68929 6.23486
#
# Compressibility (1/GPa) = 0.01757842
#
# Stress axis : x y z
#
# Youngs Moduli (GPa) = 83.44735 64.88726 85.86066
#
# Poissons Ratio (x) = 0.27306 0.26431
# Poissons Ratio (y) = 0.35116 0.29580
# Poissons Ratio (z) = 0.25688 0.22354
#
# Static dielectric constant tensor:
#      x y z
#    x 1.668950 0.000000 0.000000 
#    y 0.000000 1.686840 0.000000 
#    z 0.000000 0.000000 1.608400 
# 
# From -- ./inp_files/23181.got.cif
#   From: 2010.05.17/outbox.cif.g08.bks.cpg/sg38_12_cif.got.tgz:23181.got - 2010.06.03 18:07:57.
