data_PCOD9357100
_publ_section_title
;
Structure prediction by ZEFSAII (Michael W. Deem and Ramdas Pophale) SiO2 
 PCOD9357100
Probable space group: A M M 2
;
_chemical_formula_sum "Si O2"
_cell_formula_units_Z 56
_cell_length_a 8.667285
_cell_length_b 23.182573
_cell_length_c 14.638800
_cell_angle_alpha 90.000000
_cell_angle_beta 90.000000
_cell_angle_gamma 90.000000
_cell_volume 2941.373604
_symmetry_space_group_name_H-M "A M M 2"
_symmetry_group_IT_number 38
_symmetry_cell_setting 'orthorhombic'
loop_
_space_group_symop_operation_xyz
x,y,z
-x,-y,z
-x,y,z
x,-y,z
x,1/2+y,1/2+z
-x,1/2-y,1/2+z
-x,1/2+y,1/2+z
x,1/2-y,1/2+z
loop_
_atom_site_type_symbol
_atom_site_label
_atom_site_fract_x
_atom_site_fract_y
_atom_site_fract_z
Si Si1 0.314480 0.108629 0.251960
Si Si2 0.683446 0.500000 0.437910
Si Si3 0.185679 0.653590 0.931333
Si Si4 0.184941 0.847759 0.638373
Si Si5 0.815932 0.500000 0.642339
Si Si6 0.318024 0.777907 0.142963
Si Si7 0.185096 0.107832 0.827278
Si Si8 0.317496 0.781292 0.927306
O O1 0.500000 0.106101 0.250731
O O2 0.253225 0.111509 0.355069
O O3 0.265214 0.168482 0.203356
O O4 0.247423 0.055881 0.194924
O O5 0.500000 0.500000 0.447708
O O6 0.757423 0.500000 0.538344
O O7 0.737555 0.443774 0.382509
O O8 0.247303 0.718091 0.910538
O O9 0.000000 0.653513 0.928097
O O10 0.237894 0.639360 0.035083
O O11 0.234075 0.782261 0.660493
O O12 0.236084 0.888487 0.721174
O O13 0.000000 0.849750 0.636840
O O14 0.000000 0.500000 0.643401
O O15 0.500000 0.768930 0.159868
O O16 0.299485 0.792523 0.035822
O O17 0.233529 0.168415 0.872590
O O18 0.000000 0.101345 0.831149
O O19 0.500000 0.780723 0.905795
#
# Coordination Sequence:
#
# PCOD9357100 Si02
#       8
#     8   4   8   8   4   8   8   8
#     4  11  22  38  59  85 116 152 192 239 288 338
#     4  12  26  44  63  86 115 148 185 232 284 340
#     4  10  20  36  56  83 117 154 194 238 286 342
#     4   9  20  36  56  82 115 150 188 235 285 334
#     4  12  26  44  65  88 113 148 189 232 280 338
#     4   9  19  33  53  81 115 150 185 226 281 342
#     4  11  22  38  59  84 112 149 194 240 288 343
#     4  10  19  33  54  84 118 153 189 234 292 350
#
# _framework density 19.038723000000001
#
# number of rings (size 3 to 8) (size 9 to 14) (size 15 to 20)
#    0.000    1.714    0.000    4.714    0.000    6.857 
#    0.000    0.714    0.000    1.714    0.000    0.000 
#    0.000    0.000    0.000    0.000    0.000    0.000 
#
# Total GULP energy -156478.788499 kJ/mol
# GULP energy per Si atom -5588.528161 kJ/mol
# Density = 1.899539 g / cm^3
# Si number density = 19.038723 Si / 1000 Ang^3
#
#
#
# Elastic Constant Matrix: (Units=GPa)
#
#
# Indices 1 2 3 4 5 6 
#
# 1 63.6348 25.4413 42.0529 0.0000 0.0000 0.0000
# 2 25.4413 67.4509 89.5546 0.0000 0.0000 0.0000
# 3 42.0529 89.5546 150.0339 0.0000 0.0000 0.0000
# 4 0.0000 0.0000 0.0000 35.2679 0.0000 0.0000
# 5 0.0000 0.0000 0.0000 0.0000 23.3639 0.0000
# 6 0.0000 0.0000 0.0000 0.0000 0.0000 34.1707
#
#
#
# Elastic Compliance Matrix: (Units=1/GPa)
#
#
# Indices 1 2 3 4 5 6 
#
# 1 0.019290 -0.000469 -0.005127 0.000000 0.000000 0.000000
# 2 -0.000469 0.071460 -0.042523 0.000000 0.000000 0.000000
# 3 -0.005127 -0.042523 0.033484 0.000000 0.000000 0.000000
# 4 0.000000 0.000000 0.000000 0.028354 0.000000 0.000000
# 5 0.000000 0.000000 0.000000 0.000000 0.042801 0.000000
# 6 0.000000 0.000000 0.000000 0.000000 0.000000 0.029265
#
#
# Mechanical properties :
#
#
# Convention : Reuss Voigt Hill
#
# Bulk Modulus (GPa) = 35.71813 66.13526 50.92670
# Shear Modulus (GPa) = 15.14123 26.83189 20.98656
#
# Velocity S-wave (km/s) = 2.82314 3.75818 3.32371
# Velocity P-wave (km/s) = 5.42479 7.32424 6.44488
#
# Compressibility (1/GPa) = 0.02799698
#
# Stress axis : x y z
#
# Youngs Moduli (GPa) = 51.83949 13.99384 29.86507
#
# Poissons Ratio (x) = 0.00656 0.15312
# Poissons Ratio (y) = 0.02430 1.26995
# Poissons Ratio (z) = 0.26579 0.59506
#
# Static dielectric constant tensor:
#      x y z
#    x 1.637410 0.000000 0.000000 
#    y 0.000000 1.621970 0.000000 
#    z 0.000000 0.000000 1.693270 
# 
# From -- ./inp_files/12502.got.cif
#   From: 2010.05.17/outbox.cif.g08.bks.cpg/sg38_7_cif.got.tgz:12502.got - 2010.06.03 18:07:57.
