data_PCOD9357384
_publ_section_title
;
Structure prediction by ZEFSAII (Michael W. Deem and Ramdas Pophale) SiO2 
 PCOD9357384
Probable space group: A M M 2
;
_chemical_formula_sum "Si O2"
_cell_formula_units_Z 36
_cell_length_a 7.480423
_cell_length_b 14.508707
_cell_length_c 19.299754
_cell_angle_alpha 90.000000
_cell_angle_beta 90.000000
_cell_angle_gamma 90.000000
_cell_volume 2094.626726
_symmetry_space_group_name_H-M "A M M 2"
_symmetry_group_IT_number 38
_symmetry_cell_setting 'orthorhombic'
loop_
_space_group_symop_operation_xyz
x,y,z
-x,-y,z
-x,y,z
x,-y,z
x,1/2+y,1/2+z
-x,1/2-y,1/2+z
-x,1/2+y,1/2+z
x,1/2-y,1/2+z
loop_
_atom_site_type_symbol
_atom_site_label
_atom_site_fract_x
_atom_site_fract_y
_atom_site_fract_z
Si Si1 0.000000 0.698816 0.296250
Si Si2 0.000000 0.297189 0.942937
Si Si3 0.000000 0.500000 0.364860
Si Si4 0.000000 0.500000 0.991564
Si Si5 0.712287 0.298670 0.539691
Si Si6 0.711678 0.803636 0.681296
Si Si7 0.288987 0.500000 0.485102
Si Si8 0.711667 0.500000 0.111753
O O1 0.000000 0.758580 0.365659
O O2 0.000000 0.592187 0.319876
O O3 0.171360 0.716756 0.248157
O O4 0.170555 0.257497 0.984739
O O5 0.000000 0.406945 0.947812
O O6 0.170476 0.500000 0.416115
O O7 0.829778 0.500000 0.042990
O O8 0.500000 0.282812 0.529194
O O9 0.755752 0.262731 0.616544
O O10 0.748964 0.406700 0.527484
O O11 0.500000 0.797120 0.695109
O O12 0.750833 0.907639 0.655007
O O13 0.500000 0.500000 0.468013
O O14 0.500000 0.500000 0.095573
#
# Coordination Sequence:
#
# PCOD9357384 Si02
#       8
#     4   4   2   2   8   8   4   4
#     4  12  24  36  53  82 123 157 182 224 286 351
#     4  12  23  37  58  83 116 155 190 230 282 339
#     4  12  22  35  54  85 122 154 180 222 292 355
#     4  12  22  35  60  87 114 144 192 246 278 327
#     4  10  20  38  62  86 111 146 194 241 282 330
#     4  10  21  37  58  84 114 150 190 235 286 337
#     4  10  20  36  61  90 113 141 190 244 286 329
#     4  10  19  35  61  88 110 142 190 244 291 331
#
# _framework density 17.186831999999999
#
# number of rings (size 3 to 8) (size 9 to 14) (size 15 to 20)
#    0.000    1.333    4.444    2.000    0.000    1.778 
#    0.000    1.111    0.000    0.000    0.000    0.000 
#    0.000    0.000    0.000    0.000    0.000    0.000 
#
# Total GULP energy -100567.458804 kJ/mol
# GULP energy per Si atom -5587.081045 kJ/mol
# Density = 1.714771 g / cm^3
# Si number density = 17.186832 Si / 1000 Ang^3
#
#
#
# Elastic Constant Matrix: (Units=GPa)
#
#
# Indices 1 2 3 4 5 6 
#
# 1 73.4074 50.8548 73.3203 0.0000 0.0000 0.0000
# 2 50.8548 130.9902 75.0104 0.0000 0.0000 0.0000
# 3 73.3203 75.0104 159.8589 0.0000 0.0000 0.0000
# 4 0.0000 0.0000 0.0000 24.0607 0.0000 0.0000
# 5 0.0000 0.0000 0.0000 0.0000 -8.1537 0.0000
# 6 0.0000 0.0000 0.0000 0.0000 0.0000 11.4679
#
#
#
# Elastic Compliance Matrix: (Units=1/GPa)
#
#
# Indices 1 2 3 4 5 6 
#
# 1 0.027061 -0.004647 -0.010231 0.000000 0.000000 0.000000
# 2 -0.004647 0.011237 -0.003141 0.000000 0.000000 0.000000
# 3 -0.010231 -0.003141 0.012422 0.000000 0.000000 0.000000
# 4 0.000000 0.000000 0.000000 0.041562 0.000000 0.000000
# 5 0.000000 0.000000 0.000000 0.000000 -0.122643 0.000000
# 6 0.000000 0.000000 0.000000 0.000000 0.000000 0.087200
#
#
# Mechanical properties :
#
#
# Convention : Reuss Voigt Hill
#
# Bulk Modulus (GPa) = 68.11533 84.73639 76.42586
# Shear Modulus (GPa) = 51.13939 16.47971 33.80955
#
# Velocity S-wave (km/s) = 5.46073 3.09990 4.44010
# Velocity P-wave (km/s) = 8.91503 7.88813 8.41726
#
# Compressibility (1/GPa) = 0.01468098
#
# Stress axis : x y z
#
# Youngs Moduli (GPa) = 36.95344 88.98984 80.50178
#
# Poissons Ratio (x) = 0.41356 0.82362
# Poissons Ratio (y) = 0.17173 0.25288
# Poissons Ratio (z) = 0.37807 0.27955
#
# Static dielectric constant tensor:
#      x y z
#    x 1.599910 0.000000 0.000000 
#    y 0.000000 1.577710 0.000000 
#    z 0.000000 0.000000 1.537910 
# 
# From -- ./inp_files/11644.got.cif
#   From: 2010.05.17/outbox.cif.g08.bks.cpg/sg38_6_cif.got.tgz:11644.got - 2010.06.03 18:07:57.
