data_PCOD9357080
_publ_section_title
;
Structure prediction by ZEFSAII (Michael W. Deem and Ramdas Pophale) SiO2 
 PCOD9357080
Probable space group: A M M 2
;
_chemical_formula_sum "Si O2"
_cell_formula_units_Z 64
_cell_length_a 8.665780
_cell_length_b 21.088644
_cell_length_c 20.053108
_cell_angle_alpha 90.000000
_cell_angle_beta 90.000000
_cell_angle_gamma 90.000000
_cell_volume 3664.696451
_symmetry_space_group_name_H-M "A M M 2"
_symmetry_group_IT_number 38
_symmetry_cell_setting 'orthorhombic'
loop_
_space_group_symop_operation_xyz
x,y,z
-x,-y,z
-x,y,z
x,-y,z
x,1/2+y,1/2+z
-x,1/2-y,1/2+z
-x,1/2+y,1/2+z
x,1/2-y,1/2+z
loop_
_atom_site_type_symbol
_atom_site_label
_atom_site_fract_x
_atom_site_fract_y
_atom_site_fract_z
Si Si1 0.815662 0.234911 0.444090
Si Si2 0.816465 0.122281 0.804127
Si Si3 0.314902 0.929253 0.669835
Si Si4 0.314535 0.690752 0.080435
Si Si5 0.684481 0.764968 0.302243
Si Si6 0.314481 0.571614 0.588169
Si Si7 0.183701 0.191205 0.165080
Si Si8 0.684679 0.622610 0.443594
O O1 0.757284 0.195427 0.507142
O O2 0.748096 0.212109 0.373488
O O3 0.752427 0.306696 0.453174
O O4 0.000000 0.236615 0.441451
O O5 0.764825 0.081903 0.740861
O O6 0.741979 0.192171 0.795413
O O7 0.755045 0.096858 0.874881
O O8 0.000000 0.128782 0.806655
O O9 0.500000 0.924325 0.679541
O O10 0.269818 0.873113 0.619643
O O11 0.280239 0.000000 0.644878
O O12 0.500000 0.693709 0.075816
O O13 0.256293 0.751139 0.122524
O O14 0.500000 0.765846 0.301617
O O15 0.751219 0.802880 0.239723
O O16 0.500000 0.578787 0.595666
O O17 0.271869 0.500000 0.606904
O O18 0.232510 0.625580 0.630885
O O19 0.280174 0.583344 0.509965
O O20 0.000000 0.198183 0.165267
O O21 0.500000 0.627258 0.436399
#
# Coordination Sequence:
#
# PCOD9357080 Si02
#       8
#     8   8   8   8   8   8   8   8
#     4  11  21  34  55  85 117 145 182 236 287 335
#     4  11  21  33  52  80 115 150 188 233 281 333
#     4  10  22  39  58  80 110 151 196 236 278 334
#     4  11  21  36  59  84 112 149 191 234 282 338
#     4  11  21  36  58  83 113 149 188 233 282 340
#     4  10  22  39  58  81 112 153 197 236 279 338
#     4  12  23  36  58  87 116 147 187 239 290 335
#     4  10  19  33  54  78 111 152 192 230 274 332
#
# _framework density 17.463927999999999
#
# number of rings (size 3 to 8) (size 9 to 14) (size 15 to 20)
#    0.000    1.250    2.500    6.750    0.000    2.000 
#    0.000    1.250    0.000    0.750    0.000    1.750 
#    0.000    0.000    0.000    0.000    0.000    0.000 
#
# Total GULP energy -178846.675199 kJ/mol
# GULP energy per Si atom -5588.958600 kJ/mol
# Density = 1.742418 g / cm^3
# Si number density = 17.463928 Si / 1000 Ang^3
#
#
#
# Elastic Constant Matrix: (Units=GPa)
#
#
# Indices 1 2 3 4 5 6 
#
# 1 87.7656 40.4117 44.9695 0.0000 0.0000 0.0000
# 2 40.4117 93.7474 57.8659 0.0000 0.0000 0.0000
# 3 44.9695 57.8659 125.2197 0.0000 0.0000 0.0000
# 4 0.0000 0.0000 0.0000 21.8071 0.0000 0.0000
# 5 0.0000 0.0000 0.0000 0.0000 -438.7463 0.0000
# 6 0.0000 0.0000 0.0000 0.0000 0.0000 -32.0949
#
#
#
# Elastic Compliance Matrix: (Units=1/GPa)
#
#
# Indices 1 2 3 4 5 6 
#
# 1 0.015183 -0.004448 -0.003397 0.000000 0.000000 0.000000
# 2 -0.004448 0.016227 -0.005901 0.000000 0.000000 0.000000
# 3 -0.003397 -0.005901 0.011933 0.000000 0.000000 0.000000
# 4 0.000000 0.000000 0.000000 0.045857 0.000000 0.000000
# 5 0.000000 0.000000 0.000000 0.000000 -0.002279 0.000000
# 6 0.000000 0.000000 0.000000 0.000000 0.000000 -0.031158
#
#
# Mechanical properties :
#
#
# Convention : Reuss Voigt Hill
#
# Bulk Modulus (GPa) = 63.09153 65.91410 64.50281
# Shear Modulus (GPa) = 56.47269 -78.90779 -11.21755
#
# Velocity S-wave (km/s) = 5.69271 -6.72914 -2.53717
# Velocity P-wave (km/s) = 8.91148 4.74871 5.33218
#
# Compressibility (1/GPa) = 0.01584999
#
# Stress axis : x y z
#
# Youngs Moduli (GPa) = 65.86490 61.62578 83.80117
#
# Poissons Ratio (x) = 0.27411 0.28467
# Poissons Ratio (y) = 0.29296 0.49454
# Poissons Ratio (z) = 0.22374 0.36368
#
# Static dielectric constant tensor:
#      x y z
#    x 1.591770 0.000000 0.000000 
#    y 0.000000 1.582440 0.000000 
#    z 0.000000 0.000000 1.597450 
# 
# From -- ./inp_files/20086.got.cif
#   From: 2010.05.17/outbox.cif.g08.bks.cpg/sg38_11_cif.got.tgz:20086.got - 2010.06.03 18:07:57.
