data_PCOD9357578
_publ_section_title
;
Structure prediction by ZEFSAII (Michael W. Deem and Ramdas Pophale) SiO2 
 PCOD9357578
Probable space group: A M M 2
;
_chemical_formula_sum "Si O2"
_cell_formula_units_Z 56
_cell_length_a 7.823862
_cell_length_b 24.349590
_cell_length_c 14.433862
_cell_angle_alpha 90.000000
_cell_angle_beta 90.000000
_cell_angle_gamma 90.000000
_cell_volume 2749.763756
_symmetry_space_group_name_H-M "A M M 2"
_symmetry_group_IT_number 38
_symmetry_cell_setting 'orthorhombic'
loop_
_space_group_symop_operation_xyz
x,y,z
-x,-y,z
-x,y,z
x,-y,z
x,1/2+y,1/2+z
-x,1/2-y,1/2+z
-x,1/2+y,1/2+z
x,1/2-y,1/2+z
loop_
_atom_site_type_symbol
_atom_site_label
_atom_site_fract_x
_atom_site_fract_y
_atom_site_fract_z
Si Si1 0.295818 0.833118 0.917400
Si Si2 0.706623 0.619725 0.911786
Si Si3 0.203290 0.438633 0.725123
Si Si4 0.701531 0.828415 0.124000
Si Si5 0.709605 0.771100 0.306716
Si Si6 0.293751 0.936921 0.596869
Si Si7 0.797160 0.062060 0.805137
O O1 0.500000 0.825518 0.922586
O O2 0.231183 0.786920 0.846246
O O3 0.266146 0.893605 0.878061
O O4 0.225083 0.824868 0.020956
O O5 0.500000 0.620003 0.913523
O O6 0.760712 0.577339 0.831745
O O7 0.760576 0.679811 0.876574
O O8 0.768096 0.600694 0.012445
O O9 0.267489 0.500000 0.705274
O O10 0.280547 0.390190 0.663176
O O11 0.000000 0.437779 0.710659
O O12 0.500000 0.816092 0.117337
O O13 0.771227 0.788627 0.204559
O O14 0.500000 0.771078 0.303556
O O15 0.500000 0.937354 0.593355
O O16 0.244022 0.919559 0.700189
O O17 0.234377 0.000000 0.583993
O O18 0.000000 0.059122 0.814151
O O19 0.726814 0.000000 0.816713
#
# Coordination Sequence:
#
# PCOD9357578 Si02
#       7
#     8   8   8   8   8   8   8
#     4  10  20  35  57  80 101 131 170 211 255 303
#     4   9  17  31  53  79 106 137 172 211 255 302
#     4  10  20  32  48  73 106 143 178 213 256 303
#     4   9  19  35  54  77 104 134 170 212 256 302
#     4   8  16  32  53  78 106 132 163 207 255 303
#     4   9  17  30  51  79 107 136 172 212 253 299
#     4  10  22  38  53  72 102 137 171 211 258 306
#
# _framework density 20.365386999999998
#
# number of rings (size 3 to 8) (size 9 to 14) (size 15 to 20)
#    0.000    2.714    0.000    2.143    0.000    5.429 
#    0.000   11.429    0.000    1.714    0.000    0.000 
#    0.000    0.000    0.000    0.000    0.000    0.000 
#
# Total GULP energy -156205.000202 kJ/mol
# GULP energy per Si atom -5578.750007 kJ/mol
# Density = 2.031903 g / cm^3
# Si number density = 20.365387 Si / 1000 Ang^3
#
#
#
# Elastic Constant Matrix: (Units=GPa)
#
#
# Indices 1 2 3 4 5 6 
#
# 1 22.3135 -0.1636 5.2730 0.0000 0.0000 0.0000
# 2 -0.1636 93.5951 82.4557 0.0000 0.0000 0.0000
# 3 5.2730 82.4557 164.2349 0.0000 0.0000 0.0000
# 4 0.0000 0.0000 0.0000 13.2610 0.0000 0.0000
# 5 0.0000 0.0000 0.0000 0.0000 -12.8850 0.0000
# 6 0.0000 0.0000 0.0000 0.0000 0.0000 -54.7476
#
#
#
# Elastic Compliance Matrix: (Units=1/GPa)
#
#
# Indices 1 2 3 4 5 6 
#
# 1 0.045469 0.002449 -0.002689 0.000000 0.000000 0.000000
# 2 0.002449 0.019290 -0.009763 0.000000 0.000000 0.000000
# 3 -0.002689 -0.009763 0.011077 0.000000 0.000000 0.000000
# 4 0.000000 0.000000 0.000000 0.075409 0.000000 0.000000
# 5 0.000000 0.000000 0.000000 0.000000 -0.077610 0.000000
# 6 0.000000 0.000000 0.000000 0.000000 0.000000 -0.018266
#
#
# Mechanical properties :
#
#
# Convention : Reuss Voigt Hill
#
# Bulk Modulus (GPa) = 17.91203 50.58596 34.24900
# Shear Modulus (GPa) = 53.19883 1.96425 27.58154
#
# Velocity S-wave (km/s) = 5.11653 0.98316 3.68412
# Velocity P-wave (km/s) = 6.61208 5.11683 5.91192
#
# Compressibility (1/GPa) = 0.05582840
#
# Stress axis : x y z
#
# Youngs Moduli (GPa) = 21.99287 51.84061 90.27771
#
# Poissons Ratio (x) = -0.12694 0.24278
# Poissons Ratio (y) = -0.05385 0.88141
# Poissons Ratio (z) = 0.05914 0.50613
#
# Static dielectric constant tensor:
#      x y z
#    x 1.736600 0.000000 0.000000 
#    y 0.000000 1.725180 0.000000 
#    z 0.000000 0.000000 1.717740 
# 
# From -- ./inp_files/12441.got.cif
#   From: 2010.05.17/outbox.cif.g08.bks.cpg/sg38_7_cif.got.tgz:12441.got - 2010.06.03 18:07:57.
