data_PCOD9357218
_publ_section_title
;
Structure prediction by ZEFSAII (Michael W. Deem and Ramdas Pophale) SiO2 
 PCOD9357218
Probable space group: A M M 2
;
_chemical_formula_sum "Si O2"
_cell_formula_units_Z 56
_cell_length_a 14.207277
_cell_length_b 20.727918
_cell_length_c 10.287291
_cell_angle_alpha 90.000000
_cell_angle_beta 90.000000
_cell_angle_gamma 90.000000
_cell_volume 3029.476270
_symmetry_space_group_name_H-M "A M M 2"
_symmetry_group_IT_number 38
_symmetry_cell_setting 'orthorhombic'
loop_
_space_group_symop_operation_xyz
x,y,z
-x,-y,z
-x,y,z
x,-y,z
x,1/2+y,1/2+z
-x,1/2-y,1/2+z
-x,1/2+y,1/2+z
x,1/2-y,1/2+z
loop_
_atom_site_type_symbol
_atom_site_label
_atom_site_fract_x
_atom_site_fract_y
_atom_site_fract_z
Si Si1 0.691601 0.302644 0.180540
Si Si2 0.388037 0.572253 0.560517
Si Si3 0.894761 0.676160 0.813709
Si Si4 0.730902 0.073233 0.323471
Si Si5 0.106042 0.717923 0.099484
Si Si6 0.613362 0.787466 0.949901
Si Si7 0.610266 0.572153 0.082798
O O1 0.801240 0.317656 0.152901
O O2 0.667966 0.269954 0.317816
O O3 0.636017 0.369855 0.176887
O O4 0.652361 0.256456 0.066761
O O5 0.500000 0.573338 0.584721
O O6 0.366195 0.500000 0.506057
O O7 0.333147 0.578701 0.695875
O O8 0.367320 0.636935 0.479875
O O9 0.814840 0.623369 0.820478
O O10 0.887982 0.715834 0.680153
O O11 0.000000 0.647964 0.820207
O O12 0.885933 0.720896 0.943093
O O13 0.667449 0.083233 0.450551
O O14 0.767505 0.000000 0.328681
O O15 0.000000 0.691679 0.126782
O O16 0.500000 0.778568 0.936736
O O17 0.500000 0.574515 0.053779
O O18 0.631942 0.500000 0.132221
#
# Coordination Sequence:
#
# PCOD9357218 Si02
#       7
#     8   8   8   8   8   8   8
#     4  12  23  39  59  83 117 152 190 242 295 348
#     4   9  19  36  57  81 113 153 195 235 280 342
#     4  10  20  36  57  84 112 145 190 239 292 343
#     4  10  19  34  55  82 113 147 188 233 285 340
#     4  10  21  37  57  81 110 145 189 238 288 345
#     4  11  24  37  55  86 119 153 190 235 294 351
#     4  10  21  36  55  80 112 151 191 230 280 346
#
# _framework density 18.485043000000001
#
# number of rings (size 3 to 8) (size 9 to 14) (size 15 to 20)
#    0.000    1.714    1.429    3.429    2.000    2.571 
#    0.000    1.429    0.000    0.429    0.000    0.000 
#    0.000    5.714    0.000    0.000    0.000    0.000 
#
# Total GULP energy -156211.015765 kJ/mol
# GULP energy per Si atom -5578.964849 kJ/mol
# Density = 1.844297 g / cm^3
# Si number density = 18.485043 Si / 1000 Ang^3
#
#
#
# Elastic Constant Matrix: (Units=GPa)
#
#
# Indices 1 2 3 4 5 6 
#
# 1 65.3912 38.4827 20.7750 0.0000 0.0000 0.0000
# 2 38.4827 78.9215 40.9623 0.0000 0.0000 0.0000
# 3 20.7750 40.9623 97.9902 0.0000 0.0000 0.0000
# 4 0.0000 0.0000 0.0000 23.4961 0.0000 0.0000
# 5 0.0000 0.0000 0.0000 0.0000 23.2688 0.0000
# 6 0.0000 0.0000 0.0000 0.0000 0.0000 26.1059
#
#
#
# Elastic Compliance Matrix: (Units=1/GPa)
#
#
# Indices 1 2 3 4 5 6 
#
# 1 0.021451 -0.010343 -0.000224 0.000000 0.000000 0.000000
# 2 -0.010343 0.021169 -0.006656 0.000000 0.000000 0.000000
# 3 -0.000224 -0.006656 0.013035 0.000000 0.000000 0.000000
# 4 0.000000 0.000000 0.000000 0.042560 0.000000 0.000000
# 5 0.000000 0.000000 0.000000 0.000000 0.042976 0.000000
# 6 0.000000 0.000000 0.000000 0.000000 0.000000 0.038306
#
#
# Mechanical properties :
#
#
# Convention : Reuss Voigt Hill
#
# Bulk Modulus (GPa) = 47.15268 49.19362 48.17315
# Shear Modulus (GPa) = 22.62309 24.04636 23.33473
#
# Velocity S-wave (km/s) = 3.50217 3.61065 3.55682
# Velocity P-wave (km/s) = 6.47437 6.63723 6.55631
#
# Compressibility (1/GPa) = 0.02120770
#
# Stress axis : x y z
#
# Youngs Moduli (GPa) = 46.61839 47.23880 76.71593
#
# Poissons Ratio (x) = 0.48860 0.01719
# Poissons Ratio (y) = 0.48219 0.51064
# Poissons Ratio (z) = 0.01045 0.31444
#
# Static dielectric constant tensor:
#      x y z
#    x 1.638140 0.000000 0.000000 
#    y 0.000000 1.651610 0.000000 
#    z 0.000000 0.000000 1.648560 
# 
# From -- ./inp_files/5695.got.cif
#   From: 2010.05.17/outbox.cif.g08.bks.cpg/sg38_3_cif.got.tgz:5695.got - 2010.06.03 18:07:57.
