data_PCOD9357753
_publ_section_title
;
Structure prediction by ZEFSAII (Michael W. Deem and Ramdas Pophale) SiO2 
 PCOD9357753
Probable space group: A M M 2
;
_chemical_formula_sum "Si O2"
_cell_formula_units_Z 48
_cell_length_a 7.639347
_cell_length_b 9.420048
_cell_length_c 34.711199
_cell_angle_alpha 90.000000
_cell_angle_beta 90.000000
_cell_angle_gamma 90.000000
_cell_volume 2497.922549
_symmetry_space_group_name_H-M "A M M 2"
_symmetry_group_IT_number 38
_symmetry_cell_setting 'orthorhombic'
loop_
_space_group_symop_operation_xyz
x,y,z
-x,-y,z
-x,y,z
x,-y,z
x,1/2+y,1/2+z
-x,1/2-y,1/2+z
-x,1/2+y,1/2+z
x,1/2-y,1/2+z
loop_
_atom_site_type_symbol
_atom_site_label
_atom_site_fract_x
_atom_site_fract_y
_atom_site_fract_z
Si Si1 0.789419 0.660801 0.230430
Si Si2 0.500000 0.167927 0.943445
Si Si3 0.291871 0.661031 0.655095
Si Si4 0.199765 0.667307 0.568501
Si Si5 0.786302 0.162594 0.304209
Si Si6 0.500000 0.829926 0.523503
Si Si7 0.794724 0.167479 0.880578
O O1 0.722810 0.500000 0.231623
O O2 0.748555 0.735994 0.190190
O O3 0.724786 0.752769 0.266577
O O4 0.000000 0.655224 0.233753
O O5 0.669732 0.194100 0.916755
O O6 0.500000 0.000000 0.954284
O O7 0.500000 0.265878 0.980654
O O8 0.500000 0.659399 0.648993
O O9 0.234705 0.500000 0.664978
O O10 0.209524 0.700174 0.614099
O O11 0.249459 0.500000 0.564567
O O12 0.332038 0.765860 0.545557
O O13 0.000000 0.683062 0.555240
O O14 0.738369 0.241813 0.343595
O O15 0.000000 0.162409 0.303298
O O16 0.727773 0.000000 0.303619
O O17 0.500000 0.000000 0.523759
O O18 0.000000 0.196616 0.888820
O O19 0.780295 0.000000 0.870921
#
# Coordination Sequence:
#
# PCOD9357753 Si02
#       7
#     8   4   8   8   8   4   8
#     4  10  20  33  51  78 113 153 197 242 288 342
#     4  10  22  40  62  87 116 151 194 238 287 352
#     4  10  20  36  58  83 114 150 194 247 296 345
#     4  10  21  41  69  93 117 157 205 249 297 359
#     4   9  17  31  53  79 109 148 193 240 287 338
#     4  12  26  42  62  91 130 161 190 244 303 360
#     4   9  18  35  59  85 113 147 189 239 294 349
#
# _framework density 19.215966999999999
#
# number of rings (size 3 to 8) (size 9 to 14) (size 15 to 20)
#    0.000    2.167    0.833    2.250    0.000    6.333 
#    1.500    1.667    0.000    0.000    0.000    0.000 
#    0.000    0.000    0.000    0.000    0.000    0.000 
#
# Total GULP energy -134071.050914 kJ/mol
# GULP energy per Si atom -5586.293788 kJ/mol
# Density = 1.917223 g / cm^3
# Si number density = 19.215967 Si / 1000 Ang^3
#
#
#
# Elastic Constant Matrix: (Units=GPa)
#
#
# Indices 1 2 3 4 5 6 
#
# 1 80.3227 57.5999 51.0489 0.0000 0.0000 0.0000
# 2 57.5999 149.3277 117.9685 0.0000 0.0000 0.0000
# 3 51.0489 117.9685 144.0332 0.0000 0.0000 0.0000
# 4 0.0000 0.0000 0.0000 36.9099 0.0000 0.0000
# 5 0.0000 0.0000 0.0000 0.0000 21.4020 0.0000
# 6 0.0000 0.0000 0.0000 0.0000 0.0000 16.3810
#
#
#
# Elastic Compliance Matrix: (Units=1/GPa)
#
#
# Indices 1 2 3 4 5 6 
#
# 1 0.017391 -0.005210 -0.001897 0.000000 0.000000 0.000000
# 2 -0.005210 0.020533 -0.014971 0.000000 0.000000 0.000000
# 3 -0.001897 -0.014971 0.019877 0.000000 0.000000 0.000000
# 4 0.000000 0.000000 0.000000 0.027093 0.000000 0.000000
# 5 0.000000 0.000000 0.000000 0.000000 0.046725 0.000000
# 6 0.000000 0.000000 0.000000 0.000000 0.000000 0.061046
#
#
# Mechanical properties :
#
#
# Convention : Reuss Voigt Hill
#
# Bulk Modulus (GPa) = 73.28080 91.87980 82.58030
# Shear Modulus (GPa) = 20.71506 24.74299 22.72903
#
# Velocity S-wave (km/s) = 3.28687 3.59224 3.44295
# Velocity P-wave (km/s) = 7.25416 8.06993 7.67289
#
# Compressibility (1/GPa) = 0.01364614
#
# Stress axis : x y z
#
# Youngs Moduli (GPa) = 57.49998 48.70108 50.30914
#
# Poissons Ratio (x) = 0.25372 0.09543
# Poissons Ratio (y) = 0.29956 0.75319
# Poissons Ratio (z) = 0.10907 0.72911
#
# Static dielectric constant tensor:
#      x y z
#    x 1.697070 0.000000 0.000000 
#    y 0.000000 1.651000 0.000000 
#    z 0.000000 0.000000 1.628000 
# 
# From -- ./inp_files/24324.got.cif
#   From: 2010.05.17/outbox.cif.g08.bks.cpg/sg38_13_cif.got.tgz:24324.got - 2010.06.03 18:07:57.
