data_PCOD9357746
_publ_section_title
;
Structure prediction by ZEFSAII (Michael W. Deem and Ramdas Pophale) SiO2 
 PCOD9357746
Probable space group: A M M 2
;
_chemical_formula_sum "Si O2"
_cell_formula_units_Z 64
_cell_length_a 16.222578
_cell_length_b 8.704859
_cell_length_c 24.222139
_cell_angle_alpha 90.000000
_cell_angle_beta 90.000000
_cell_angle_gamma 90.000000
_cell_volume 3420.535514
_symmetry_space_group_name_H-M "A M M 2"
_symmetry_group_IT_number 38
_symmetry_cell_setting 'orthorhombic'
loop_
_space_group_symop_operation_xyz
x,y,z
-x,-y,z
-x,y,z
x,-y,z
x,1/2+y,1/2+z
-x,1/2-y,1/2+z
-x,1/2+y,1/2+z
x,1/2-y,1/2+z
loop_
_atom_site_type_symbol
_atom_site_label
_atom_site_fract_x
_atom_site_fract_y
_atom_site_fract_z
Si Si1 0.596875 0.313426 0.401520
Si Si2 0.089357 0.180119 0.139529
Si Si3 0.244263 0.314402 0.840051
Si Si4 0.403375 0.671521 0.523074
Si Si5 0.902458 0.184547 0.917144
Si Si6 0.689955 0.320775 0.109435
Si Si7 0.154566 0.317711 0.034411
Si Si8 0.240932 0.315734 0.713090
O O1 0.500000 0.268278 0.391532
O O2 0.598797 0.500000 0.399119
O O3 0.667832 0.243975 0.363310
O O4 0.625502 0.268794 0.463667
O O5 0.092016 0.274759 0.083233
O O6 0.157445 0.234801 0.182294
O O7 0.000000 0.189950 0.165643
O O8 0.105247 0.000000 0.126017
O O9 0.241925 0.500000 0.842912
O O10 0.164694 0.251681 0.873768
O O11 0.242407 0.263364 0.775930
O O12 0.500000 0.654862 0.514066
O O13 0.369181 0.500000 0.534056
O O14 0.389562 0.780241 0.574536
O O15 0.000000 0.231212 0.909801
O O16 0.899997 0.000000 0.913885
O O17 0.870778 0.236561 0.977831
O O18 0.702837 0.500000 0.117878
O O19 0.760571 0.267043 0.065290
O O20 0.692277 0.241008 0.168750
O O21 0.158676 0.500000 0.024589
O O22 0.242903 0.500000 0.714319
#
# Coordination Sequence:
#
# PCOD9357746 Si02
#       8
#     8   8   8   8   8   8   8   8
#     4   9  19  37  61  87 114 147 185 223 270 331
#     4   9  17  31  52  75  99 132 175 220 266 320
#     4  11  23  38  58  83 110 144 187 235 282 323
#     4   9  18  33  54  80 108 137 169 207 257 320
#     4  11  24  39  55  78 110 150 191 227 270 329
#     4  10  20  33  52  79 107 136 172 215 266 319
#     4  10  20  33  51  78 109 137 170 219 275 325
#     4   9  20  37  54  73 101 140 182 220 262 316
#
# _framework density 18.710521
#
# number of rings (size 3 to 8) (size 9 to 14) (size 15 to 20)
#    0.000    2.250    0.000    3.375    0.000    8.750 
#    0.000    3.125    0.000    0.750    0.000    0.000 
#    0.000    0.000    0.000    0.000    0.000    0.000 
#
# Total GULP energy -178221.548271 kJ/mol
# GULP energy per Si atom -5569.423383 kJ/mol
# Density = 1.866793 g / cm^3
# Si number density = 18.710521 Si / 1000 Ang^3
#
#
#
# Elastic Constant Matrix: (Units=GPa)
#
#
# Indices 1 2 3 4 5 6 
#
# 1 54.9705 19.8657 58.3892 0.0000 0.0000 0.0000
# 2 19.8657 28.4004 34.0819 0.0000 0.0000 0.0000
# 3 58.3892 34.0819 169.7144 0.0000 0.0000 0.0000
# 4 0.0000 0.0000 0.0000 28.6121 0.0000 0.0000
# 5 0.0000 0.0000 0.0000 0.0000 12.2363 0.0000
# 6 0.0000 0.0000 0.0000 0.0000 0.0000 24.7152
#
#
#
# Elastic Compliance Matrix: (Units=1/GPa)
#
#
# Indices 1 2 3 4 5 6 
#
# 1 0.031438 -0.011872 -0.008432 0.000000 0.000000 0.000000
# 2 -0.011872 0.050874 -0.006132 0.000000 0.000000 0.000000
# 3 -0.008432 -0.006132 0.010025 0.000000 0.000000 0.000000
# 4 0.000000 0.000000 0.000000 0.034950 0.000000 0.000000
# 5 0.000000 0.000000 0.000000 0.000000 0.081724 0.000000
# 6 0.000000 0.000000 0.000000 0.000000 0.000000 0.040461
#
#
# Mechanical properties :
#
#
# Convention : Reuss Voigt Hill
#
# Bulk Modulus (GPa) = 25.33899 53.08432 39.21166
# Shear Modulus (GPa) = 15.84792 22.49594 19.17193
#
# Velocity S-wave (km/s) = 2.91349 3.47120 3.20450
# Velocity P-wave (km/s) = 4.98898 6.67073 5.89019
#
# Compressibility (1/GPa) = 0.03946487
#
# Stress axis : x y z
#
# Youngs Moduli (GPa) = 31.80817 19.65658 99.75387
#
# Poissons Ratio (x) = 0.23336 0.84114
# Poissons Ratio (y) = 0.37762 0.61168
# Poissons Ratio (z) = 0.26821 0.12053
#
# Static dielectric constant tensor:
#      x y z
#    x 1.744470 0.000000 0.000000 
#    y 0.000000 1.657470 0.000000 
#    z 0.000000 0.000000 1.633530 
# 
# From -- ./inp_files/21419.got.cif
#   From: 2010.05.17/outbox.cif.g08.bks.cpg/sg38_11_cif.got.tgz:21419.got - 2010.06.03 18:07:57.
