data_PCOD9357700
_publ_section_title
;
Structure prediction by ZEFSAII (Michael W. Deem and Ramdas Pophale) SiO2 
 PCOD9357700
Probable space group: A M M 2
;
_chemical_formula_sum "Si O2"
_cell_formula_units_Z 64
_cell_length_a 9.158282
_cell_length_b 33.273787
_cell_length_c 12.041120
_cell_angle_alpha 90.000000
_cell_angle_beta 90.000000
_cell_angle_gamma 90.000000
_cell_volume 3669.299222
_symmetry_space_group_name_H-M "A M M 2"
_symmetry_group_IT_number 38
_symmetry_cell_setting 'orthorhombic'
loop_
_space_group_symop_operation_xyz
x,y,z
-x,-y,z
-x,y,z
x,-y,z
x,1/2+y,1/2+z
-x,1/2-y,1/2+z
-x,1/2+y,1/2+z
x,1/2-y,1/2+z
loop_
_atom_site_type_symbol
_atom_site_label
_atom_site_fract_x
_atom_site_fract_y
_atom_site_fract_z
Si Si1 0.175219 0.684757 0.303480
Si Si2 0.667152 0.602830 0.674045
Si Si3 0.175183 0.225149 0.229492
Si Si4 0.323627 0.047450 0.729622
Si Si5 0.665586 0.815138 0.033327
Si Si6 0.176229 0.879438 0.613580
Si Si7 0.676577 0.453006 0.480375
Si Si8 0.175581 0.646157 0.866193
O O1 0.212914 0.730361 0.269340
O O2 0.254035 0.676308 0.418753
O O3 0.215800 0.653204 0.207776
O O4 0.000000 0.682792 0.317980
O O5 0.500000 0.591564 0.703332
O O6 0.661573 0.643914 0.603753
O O7 0.732196 0.571029 0.586792
O O8 0.757580 0.613083 0.783436
O O9 0.248226 0.215689 0.111562
O O10 0.218397 0.190108 0.317306
O O11 0.000000 0.222992 0.216922
O O12 0.500000 0.050848 0.724062
O O13 0.249379 0.078261 0.645408
O O14 0.276239 0.059052 0.856023
O O15 0.288845 0.000000 0.713040
O O16 0.500000 0.801703 0.013346
O O17 0.219748 0.862737 0.492521
O O18 0.000000 0.883747 0.614264
O O19 0.500000 0.447807 0.481016
O O20 0.707544 0.500000 0.492005
O O21 0.000000 0.644498 0.861207
#
# Coordination Sequence:
#
# PCOD9357700 Si02
#       8
#     8   8   8   8   8   8   8   8
#     4  10  21  34  54  78 101 134 177 220 260 315
#     4   9  17  31  51  73  98 130 165 203 250 305
#     4   9  19  35  56  74  96 134 178 220 259 308
#     4   9  18  34  56  80 106 138 175 213 261 319
#     4  10  20  33  50  74 104 132 164 210 265 315
#     4  10  21  35  52  78 107 137 177 220 265 315
#     4   8  14  27  50  77 101 126 160 205 252 299
#     4   9  19  35  52  71  99 136 173 213 258 305
#
# _framework density 17.442022999999999
#
# number of rings (size 3 to 8) (size 9 to 14) (size 15 to 20)
#    0.000    2.750    0.000    1.875    1.750    3.250 
#    0.000    1.250    0.000    3.375    0.000    0.000 
#    0.000    0.000    0.000    0.000    0.000    0.000 
#
# Total GULP energy -178338.437080 kJ/mol
# GULP energy per Si atom -5573.076159 kJ/mol
# Density = 1.740232 g / cm^3
# Si number density = 17.442023 Si / 1000 Ang^3
#
#
#
# Elastic Constant Matrix: (Units=GPa)
#
#
# Indices 1 2 3 4 5 6 
#
# 1 13.4896 21.9458 40.6366 0.0000 0.0000 0.0000
# 2 21.9458 64.7626 51.9294 0.0000 0.0000 0.0000
# 3 40.6366 51.9294 144.4555 0.0000 0.0000 0.0000
# 4 0.0000 0.0000 0.0000 15.5058 0.0000 0.0000
# 5 0.0000 0.0000 0.0000 0.0000 22.7346 0.0000
# 6 0.0000 0.0000 0.0000 0.0000 0.0000 19.8793
#
#
#
# Elastic Compliance Matrix: (Units=1/GPa)
#
#
# Indices 1 2 3 4 5 6 
#
# 1 1.123474 -0.178839 -0.251754 0.000000 0.000000 0.000000
# 2 -0.178839 0.050163 0.032276 0.000000 0.000000 0.000000
# 3 -0.251754 0.032276 0.066140 0.000000 0.000000 0.000000
# 4 0.000000 0.000000 0.000000 0.064492 0.000000 0.000000
# 5 0.000000 0.000000 0.000000 0.000000 0.043986 0.000000
# 6 0.000000 0.000000 0.000000 0.000000 0.000000 0.050304
#
#
# Mechanical properties :
#
#
# Convention : Reuss Voigt Hill
#
# Bulk Modulus (GPa) = 2.25660 50.19238 26.22449
# Shear Modulus (GPa) = 2.13410 18.83698 10.48554
#
# Velocity S-wave (km/s) = 1.10734 3.28987 2.45453
# Velocity P-wave (km/s) = 1.71217 6.57800 4.80633
#
# Compressibility (1/GPa) = 0.44314439
#
# Stress axis : x y z
#
# Youngs Moduli (GPa) = 0.89010 19.93512 15.11937
#
# Poissons Ratio (x) = 3.56518 3.80636
# Poissons Ratio (y) = 0.15918 -0.48800
# Poissons Ratio (z) = 0.22408 -0.64343
#
# Static dielectric constant tensor:
#      x y z
#    x 1.593710 0.000000 0.000000 
#    y 0.000000 1.595830 0.000000 
#    z 0.000000 0.000000 1.585470 
# 
# From -- ./inp_files/8540.got.cif
#   From: 2010.05.17/outbox.cif.g08.bks.cpg/sg38_5_cif.got.tgz:8540.got - 2010.06.03 18:07:57.
