data_PCOD9357290
_publ_section_title
;
Structure prediction by ZEFSAII (Michael W. Deem and Ramdas Pophale) SiO2 
 PCOD9357290
Probable space group: A M M 2
;
_chemical_formula_sum "Si O2"
_cell_formula_units_Z 64
_cell_length_a 8.372696
_cell_length_b 15.983491
_cell_length_c 24.545399
_cell_angle_alpha 90.000000
_cell_angle_beta 90.000000
_cell_angle_gamma 90.000000
_cell_volume 3284.785841
_symmetry_space_group_name_H-M "A M M 2"
_symmetry_group_IT_number 38
_symmetry_cell_setting 'orthorhombic'
loop_
_space_group_symop_operation_xyz
x,y,z
-x,-y,z
-x,y,z
x,-y,z
x,1/2+y,1/2+z
-x,1/2-y,1/2+z
-x,1/2+y,1/2+z
x,1/2-y,1/2+z
loop_
_atom_site_type_symbol
_atom_site_label
_atom_site_fract_x
_atom_site_fract_y
_atom_site_fract_z
Si Si1 0.190093 0.092579 0.655970
Si Si2 0.690241 0.352993 0.272476
Si Si3 0.192620 0.907156 0.158234
Si Si4 0.309464 0.751047 0.088195
Si Si5 0.693042 0.248977 0.463761
Si Si6 0.305143 0.592814 0.392739
Si Si7 0.193375 0.837063 0.275079
Si Si8 0.807104 0.593807 0.892826
O O1 0.230524 0.107605 0.719315
O O2 0.260311 0.168165 0.620947
O O3 0.000000 0.094780 0.649497
O O4 0.248917 0.000000 0.639830
O O5 0.500000 0.364493 0.267888
O O6 0.743547 0.391303 0.330150
O O7 0.731207 0.254798 0.273769
O O8 0.249775 0.833005 0.119632
O O9 0.239902 0.886000 0.220419
O O10 0.000000 0.907528 0.157069
O O11 0.249619 0.000000 0.142789
O O12 0.500000 0.754408 0.086856
O O13 0.249530 0.749050 0.026022
O O14 0.500000 0.251657 0.464160
O O15 0.749798 0.330931 0.430622
O O16 0.744223 0.165611 0.432332
O O17 0.500000 0.594450 0.393196
O O18 0.254755 0.500000 0.410463
O O19 0.238912 0.883373 0.330758
O O20 0.000000 0.828399 0.274714
O O21 0.752629 0.500000 0.906718
O O22 0.000000 0.594759 0.894919
#
# Coordination Sequence:
#
# PCOD9357290 Si02
#       8
#     8   8   8   8   8   8   8   8
#     4  11  24  41  61  85 116 154 193 238 294 354
#     4  11  20  33  59  90 120 151 186 231 286 346
#     4  10  21  38  61  87 118 156 193 232 285 349
#     4  11  24  40  60  85 115 153 198 249 295 340
#     4  10  22  40  59  82 113 151 196 243 290 337
#     4   9  18  34  57  84 115 150 184 223 279 342
#     4  10  19  34  58  86 119 155 188 228 286 347
#     4  10  21  37  59  87 118 153 192 234 285 345
#
# _framework density 19.483767
#
# number of rings (size 3 to 8) (size 9 to 14) (size 15 to 20)
#    0.000    1.750    2.500    1.875    0.000    5.500 
#    0.000    3.750    0.000    3.375    0.000    0.000 
#    0.000    0.000    0.000    0.000    0.000    0.000 
#
# Total GULP energy -178773.274872 kJ/mol
# GULP energy per Si atom -5586.664840 kJ/mol
# Density = 1.943942 g / cm^3
# Si number density = 19.483767 Si / 1000 Ang^3
#
#
#
# Elastic Constant Matrix: (Units=GPa)
#
#
# Indices 1 2 3 4 5 6 
#
# 1 10.0984 18.0875 17.3892 0.0000 0.0000 0.0000
# 2 18.0875 201.7513 94.5534 0.0000 0.0000 0.0000
# 3 17.3892 94.5534 161.9108 0.0000 0.0000 0.0000
# 4 0.0000 0.0000 0.0000 -2.1357 0.0000 0.0000
# 5 0.0000 0.0000 0.0000 0.0000 13.3226 0.0000
# 6 0.0000 0.0000 0.0000 0.0000 0.0000 1.0320
#
#
#
# Elastic Compliance Matrix: (Units=1/GPa)
#
#
# Indices 1 2 3 4 5 6 
#
# 1 0.128182 -0.006939 -0.009714 0.000000 0.000000 0.000000
# 2 -0.006939 0.007200 -0.003459 0.000000 0.000000 0.000000
# 3 -0.009714 -0.003459 0.009240 0.000000 0.000000 0.000000
# 4 0.000000 0.000000 0.000000 -0.468221 0.000000 0.000000
# 5 0.000000 0.000000 0.000000 0.000000 0.075061 0.000000
# 6 0.000000 0.000000 0.000000 0.000000 0.000000 0.968950
#
#
# Mechanical properties :
#
#
# Convention : Reuss Voigt Hill
#
# Bulk Modulus (GPa) = 9.57890 70.42453 40.00171
# Shear Modulus (GPa) = 6.28586 18.69247 12.48917
#
# Velocity S-wave (km/s) = 1.79811 3.10076 2.53455
# Velocity P-wave (km/s) = 3.03940 7.00309 5.39821
#
# Compressibility (1/GPa) = 0.10439610
#
# Stress axis : x y z
#
# Youngs Moduli (GPa) = 7.80140 138.88865 108.22712
#
# Poissons Ratio (x) = 0.96376 1.05137
# Poissons Ratio (y) = 0.05413 0.37441
# Poissons Ratio (z) = 0.07579 0.48048
#
# Static dielectric constant tensor:
#      x y z
#    x 1.674600 0.000000 0.000000 
#    y 0.000000 1.676670 0.000000 
#    z 0.000000 0.000000 1.665240 
# 
# From -- ./inp_files/22125.got.cif
#   From: 2010.05.17/outbox.cif.g08.bks.cpg/sg38_12_cif.got.tgz:22125.got - 2010.06.03 18:07:57.
