data_PCOD9357426
_publ_section_title
;
Structure prediction by ZEFSAII (Michael W. Deem and Ramdas Pophale) SiO2 
 PCOD9357426
Probable space group: A M M 2
;
_chemical_formula_sum "Si O2"
_cell_formula_units_Z 40
_cell_length_a 8.308198
_cell_length_b 26.573339
_cell_length_c 9.208197
_cell_angle_alpha 90.000000
_cell_angle_beta 90.000000
_cell_angle_gamma 90.000000
_cell_volume 2032.954075
_symmetry_space_group_name_H-M "A M M 2"
_symmetry_group_IT_number 38
_symmetry_cell_setting 'orthorhombic'
loop_
_space_group_symop_operation_xyz
x,y,z
-x,-y,z
-x,y,z
x,-y,z
x,1/2+y,1/2+z
-x,1/2-y,1/2+z
-x,1/2+y,1/2+z
x,1/2-y,1/2+z
loop_
_atom_site_type_symbol
_atom_site_label
_atom_site_fract_x
_atom_site_fract_y
_atom_site_fract_z
Si Si1 0.307184 0.400645 0.489510
Si Si2 0.303185 0.300634 0.320334
Si Si3 0.192646 0.399774 0.820870
Si Si4 0.192893 0.500000 0.323341
Si Si5 0.694465 0.300198 0.985844
Si Si6 0.196698 0.500000 0.988734
O O1 0.500000 0.399738 0.490838
O O2 0.250367 0.350633 0.404965
O O3 0.247940 0.400626 0.654617
O O4 0.250962 0.450350 0.406103
O O5 0.500000 0.300558 0.320208
O O6 0.250709 0.250179 0.403124
O O7 0.250254 0.300907 0.152967
O O8 0.252685 0.349895 0.901354
O O9 0.250189 0.449794 0.905165
O O10 0.000000 0.400081 0.824087
O O11 0.000000 0.500000 0.322924
O O12 0.249539 0.500000 0.156112
O O13 0.500000 0.299154 0.987318
O O14 0.000000 0.500000 0.988382
#
# Coordination Sequence:
#
# PCOD9357426 Si02
#       6
#     8   8   8   4   8   4
#     4  11  22  38  59  86 115 150 193 236 279 337
#     4   9  19  35  59  85 113 148 190 236 287 339
#     4  11  22  38  58  83 113 151 192 234 283 339
#     4  11  22  39  60  84 114 149 184 233 292 342
#     4  10  19  36  59  84 112 147 187 235 289 342
#     4   9  21  39  58  78 110 151 188 225 280 342
#
# _framework density 19.675801
#
# number of rings (size 3 to 8) (size 9 to 14) (size 15 to 20)
#    0.000    1.800    0.000    4.500    0.000    4.000 
#    0.000   10.500    0.000    0.000    0.000    0.000 
#    0.000    0.000    0.000    0.000    0.000    0.000 
#
# Total GULP energy -111805.732495 kJ/mol
# GULP energy per Si atom -5590.286625 kJ/mol
# Density = 1.963102 g / cm^3
# Si number density = 19.675801 Si / 1000 Ang^3
#
#
#
# Elastic Constant Matrix: (Units=GPa)
#
#
# Indices 1 2 3 4 5 6 
#
# 1 18.8881 20.0877 20.8803 0.0000 0.0000 0.0000
# 2 20.0877 244.4579 150.3952 0.0000 0.0000 0.0000
# 3 20.8803 150.3952 245.7152 0.0000 0.0000 0.0000
# 4 0.0000 0.0000 0.0000 47.4855 0.0000 0.0000
# 5 0.0000 0.0000 0.0000 0.0000 25.9496 0.0000
# 6 0.0000 0.0000 0.0000 0.0000 0.0000 2.2608
#
#
#
# Elastic Compliance Matrix: (Units=1/GPa)
#
#
# Indices 1 2 3 4 5 6 
#
# 1 0.059654 -0.002860 -0.003319 0.000000 0.000000 0.000000
# 2 -0.002860 0.006699 -0.003857 0.000000 0.000000 0.000000
# 3 -0.003319 -0.003857 0.006712 0.000000 0.000000 0.000000
# 4 0.000000 0.000000 0.000000 0.021059 0.000000 0.000000
# 5 0.000000 0.000000 0.000000 0.000000 0.038536 0.000000
# 6 0.000000 0.000000 0.000000 0.000000 0.000000 0.442319
#
#
# Mechanical properties :
#
#
# Convention : Reuss Voigt Hill
#
# Bulk Modulus (GPa) = 18.87031 99.08752 58.97891
# Shear Modulus (GPa) = 8.16040 36.31904 22.23972
#
# Velocity S-wave (km/s) = 2.03873 4.30102 3.36565
# Velocity P-wave (km/s) = 3.89273 8.66802 6.71892
#
# Compressibility (1/GPa) = 0.05299330
#
# Stress axis : x y z
#
# Youngs Moduli (GPa) = 16.76341 149.28517 148.97604
#
# Poissons Ratio (x) = 0.42699 0.49439
# Poissons Ratio (y) = 0.04795 0.57459
# Poissons Ratio (z) = 0.05563 0.57579
#
# Static dielectric constant tensor:
#      x y z
#    x 1.693760 0.000000 0.000000 
#    y 0.000000 1.653250 0.000000 
#    z 0.000000 0.000000 1.659970 
# 
# From -- ./inp_files/3470.got.cif
#   From: 2010.05.17/outbox.cif.g08.bks.cpg/sg38_2_cif.got.tgz:3470.got - 2010.06.03 18:07:57.
