data_PCOD9357350
_publ_section_title
;
Structure prediction by ZEFSAII (Michael W. Deem and Ramdas Pophale) SiO2 
 PCOD9357350
Probable space group: A M M 2
;
_chemical_formula_sum "Si O2"
_cell_formula_units_Z 40
_cell_length_a 8.340854
_cell_length_b 11.917189
_cell_length_c 20.675850
_cell_angle_alpha 90.000000
_cell_angle_beta 90.000000
_cell_angle_gamma 90.000000
_cell_volume 2055.169846
_symmetry_space_group_name_H-M "A M M 2"
_symmetry_group_IT_number 38
_symmetry_cell_setting 'orthorhombic'
loop_
_space_group_symop_operation_xyz
x,y,z
-x,-y,z
-x,y,z
x,-y,z
x,1/2+y,1/2+z
-x,1/2-y,1/2+z
-x,1/2+y,1/2+z
x,1/2-y,1/2+z
loop_
_atom_site_type_symbol
_atom_site_label
_atom_site_fract_x
_atom_site_fract_y
_atom_site_fract_z
Si Si1 0.194945 0.500000 0.430321
Si Si2 0.691741 0.756087 0.763925
Si Si3 0.192246 0.500000 0.281485
Si Si4 0.806433 0.722967 0.505871
Si Si5 0.306860 0.872032 0.136450
Si Si6 0.806277 0.126907 0.389955
O O1 0.248506 0.500000 0.356396
O O2 0.246509 0.389320 0.467957
O O3 0.000000 0.500000 0.429366
O O4 0.500000 0.753388 0.765709
O O5 0.748050 0.676564 0.705301
O O6 0.754504 0.708673 0.832109
O O7 0.747235 0.883446 0.752316
O O8 0.000000 0.500000 0.280532
O O9 0.744418 0.709026 0.578240
O O10 0.754578 0.825050 0.459793
O O11 0.000000 0.723933 0.508316
O O12 0.500000 0.875945 0.137465
O O13 0.247757 0.000000 0.125794
O O14 0.000000 0.126111 0.390069
O O15 0.748596 0.000000 0.378874
#
# Coordination Sequence:
#
# PCOD9357350 Si02
#       6
#     4   8   4   8   8   8
#     4   9  16  31  57  85 111 136 173 236 291 333
#     4  11  23  39  59  85 119 154 192 238 292 349
#     4  11  21  39  63  87 117 148 189 240 289 343
#     4  10  19  35  58  84 113 146 188 239 290 341
#     4  10  22  39  57  81 115 153 191 236 286 340
#     4  10  21  38  60  86 117 152 194 242 291 344
#
# _framework density 19.463111000000001
#
# number of rings (size 3 to 8) (size 9 to 14) (size 15 to 20)
#    0.000    1.800    3.000    1.500    0.000    3.600 
#    1.800    0.000    0.000    0.000    0.000    0.000 
#    0.000    0.000    0.000    0.000    0.000    0.000 
#
# Total GULP energy -111655.353306 kJ/mol
# GULP energy per Si atom -5582.767665 kJ/mol
# Density = 1.941881 g / cm^3
# Si number density = 19.463111 Si / 1000 Ang^3
#
#
#
# Elastic Constant Matrix: (Units=GPa)
#
#
# Indices 1 2 3 4 5 6 
#
# 1 13.9330 15.0698 12.8292 0.0000 0.0000 0.0000
# 2 15.0698 110.8880 33.1465 0.0000 0.0000 0.0000
# 3 12.8292 33.1465 110.4646 0.0000 0.0000 0.0000
# 4 0.0000 0.0000 0.0000 35.3430 0.0000 0.0000
# 5 0.0000 0.0000 0.0000 0.0000 29.1884 0.0000
# 6 0.0000 0.0000 0.0000 0.0000 0.0000 18.6061
#
#
#
# Elastic Compliance Matrix: (Units=1/GPa)
#
#
# Indices 1 2 3 4 5 6 
#
# 1 0.089319 -0.009928 -0.007394 0.000000 0.000000 0.000000
# 2 -0.009928 0.011010 -0.002151 0.000000 0.000000 0.000000
# 3 -0.007394 -0.002151 0.010557 0.000000 0.000000 0.000000
# 4 0.000000 0.000000 0.000000 0.028294 0.000000 0.000000
# 5 0.000000 0.000000 0.000000 0.000000 0.034260 0.000000
# 6 0.000000 0.000000 0.000000 0.000000 0.000000 0.053746
#
#
# Mechanical properties :
#
#
# Convention : Reuss Voigt Hill
#
# Bulk Modulus (GPa) = 13.90057 39.70851 26.80454
# Shear Modulus (GPa) = 17.23468 28.24350 22.73909
#
# Velocity S-wave (km/s) = 2.97897 3.81350 3.42177
# Velocity P-wave (km/s) = 4.35774 6.31163 5.42340
#
# Compressibility (1/GPa) = 0.07193950
#
# Stress axis : x y z
#
# Youngs Moduli (GPa) = 11.19582 90.82427 94.72570
#
# Poissons Ratio (x) = 0.90173 0.70043
# Poissons Ratio (y) = 0.11116 0.20373
# Poissons Ratio (z) = 0.08278 0.19534
#
# Static dielectric constant tensor:
#      x y z
#    x 1.676870 0.000000 0.000000 
#    y 0.000000 1.677120 0.000000 
#    z 0.000000 0.000000 1.661430 
# 
# From -- ./inp_files/19500.got.cif
#   From: 2010.05.17/outbox.cif.g08.bks.cpg/sg38_10_cif.got.tgz:19500.got - 2010.06.03 18:07:57.
