data_PCOD9357174
_publ_section_title
;
Structure prediction by ZEFSAII (Michael W. Deem and Ramdas Pophale) SiO2 
 PCOD9357174
Probable space group: A M M 2
;
_chemical_formula_sum "Si O2"
_cell_formula_units_Z 64
_cell_length_a 14.902275
_cell_length_b 8.997126
_cell_length_c 24.755496
_cell_angle_alpha 90.000000
_cell_angle_beta 90.000000
_cell_angle_gamma 90.000000
_cell_volume 3319.158626
_symmetry_space_group_name_H-M "A M M 2"
_symmetry_group_IT_number 38
_symmetry_cell_setting 'orthorhombic'
loop_
_space_group_symop_operation_xyz
x,y,z
-x,-y,z
-x,y,z
x,-y,z
x,1/2+y,1/2+z
-x,1/2-y,1/2+z
-x,1/2+y,1/2+z
x,1/2-y,1/2+z
loop_
_atom_site_type_symbol
_atom_site_label
_atom_site_fract_x
_atom_site_fract_y
_atom_site_fract_z
Si Si1 0.096669 0.672122 0.625000
Si Si2 0.101756 0.322685 0.364003
Si Si3 0.745422 0.821153 0.437002
Si Si4 0.898275 0.725144 0.244359
Si Si5 0.396778 0.678230 0.847272
Si Si6 0.307654 0.165931 0.746046
Si Si7 0.264886 0.320975 0.554776
Si Si8 0.393709 0.676067 0.135060
O O1 0.092742 0.500000 0.609452
O O2 0.104505 0.676894 0.690102
O O3 0.181712 0.732779 0.592818
O O4 0.000000 0.743039 0.611249
O O5 0.119278 0.500000 0.352313
O O6 0.173295 0.255926 0.404639
O O7 0.104086 0.231045 0.307570
O O8 0.000000 0.314508 0.385170
O O9 0.655592 0.786585 0.402561
O O10 0.741420 0.753503 0.496486
O O11 0.756422 0.000000 0.438484
O O12 0.799648 0.653776 0.240672
O O13 0.000000 0.656892 0.240786
O O14 0.500000 0.731168 0.846189
O O15 0.398008 0.500000 0.842267
O O16 0.339401 0.742474 0.797659
O O17 0.347599 0.229117 0.690587
O O18 0.345258 0.000000 0.752408
O O19 0.263505 0.500000 0.550449
O O20 0.353175 0.266443 0.585623
O O21 0.500000 0.691611 0.139301
O O22 0.372604 0.500000 0.128533
#
# Coordination Sequence:
#
# PCOD9357174 Si02
#       8
#     8   8   8   8   8   8   8   8
#     4   9  19  36  58  86 121 159 196 238 293 354
#     4  10  21  38  60  88 123 162 200 241 293 350
#     4  11  24  41  61  86 118 156 202 250 304 359
#     4  10  19  33  58  92 126 157 191 233 288 353
#     4  10  23  42  62  85 115 154 198 245 300 358
#     4  11  21  36  62  93 126 157 192 238 292 354
#     4  11  23  40  63  88 116 153 204 254 299 351
#     4  10  22  40  60  86 122 160 195 240 302 359
#
# _framework density 19.281994999999998
#
# number of rings (size 3 to 8) (size 9 to 14) (size 15 to 20)
#    0.000    1.750    2.500    1.500    0.000    5.000 
#    0.000    3.750    0.000    1.125    0.000    0.000 
#    0.000    0.000    0.000    0.000    0.000    0.000 
#
# Total GULP energy -178217.940033 kJ/mol
# GULP energy per Si atom -5569.310626 kJ/mol
# Density = 1.923811 g / cm^3
# Si number density = 19.281995 Si / 1000 Ang^3
#
#
#
# Elastic Constant Matrix: (Units=GPa)
#
#
# Indices 1 2 3 4 5 6 
#
# 1 128.9704 37.6283 62.5097 0.0000 0.0000 0.0000
# 2 37.6283 35.1166 37.2879 0.0000 0.0000 0.0000
# 3 62.5097 37.2879 140.6904 0.0000 0.0000 0.0000
# 4 0.0000 0.0000 0.0000 24.7673 0.0000 0.0000
# 5 0.0000 0.0000 0.0000 0.0000 13.8308 0.0000
# 6 0.0000 0.0000 0.0000 0.0000 0.0000 14.1192
#
#
#
# Elastic Compliance Matrix: (Units=1/GPa)
#
#
# Indices 1 2 3 4 5 6 
#
# 1 0.011959 -0.009981 -0.002668 0.000000 0.000000 0.000000
# 2 -0.009981 0.047960 -0.008276 0.000000 0.000000 0.000000
# 3 -0.002668 -0.008276 0.010487 0.000000 0.000000 0.000000
# 4 0.000000 0.000000 0.000000 0.040376 0.000000 0.000000
# 5 0.000000 0.000000 0.000000 0.000000 0.072303 0.000000
# 6 0.000000 0.000000 0.000000 0.000000 0.000000 0.070826
#
#
# Mechanical properties :
#
#
# Convention : Reuss Voigt Hill
#
# Bulk Modulus (GPa) = 35.02107 64.40324 49.71216
# Shear Modulus (GPa) = 16.37846 21.70021 19.03934
#
# Velocity S-wave (km/s) = 2.91764 3.35836 3.14573
# Velocity P-wave (km/s) = 5.43619 6.96501 6.24754
#
# Compressibility (1/GPa) = 0.02855423
#
# Stress axis : x y z
#
# Youngs Moduli (GPa) = 83.61878 20.85080 95.35848
#
# Poissons Ratio (x) = 0.20812 0.25442
# Poissons Ratio (y) = 0.83463 0.78921
# Poissons Ratio (z) = 0.22310 0.17257
#
# Static dielectric constant tensor:
#      x y z
#    x 1.691380 0.000000 0.000000 
#    y 0.000000 1.670830 0.000000 
#    z 0.000000 0.000000 1.648650 
# 
# From -- ./inp_files/22905.got.cif
#   From: 2010.05.17/outbox.cif.g08.bks.cpg/sg38_12_cif.got.tgz:22905.got - 2010.06.03 18:07:57.
