data_PCOD9357775
_publ_section_title
;
Structure prediction by ZEFSAII (Michael W. Deem and Ramdas Pophale) SiO2 
 PCOD9357775
Probable space group: A M M 2
;
_chemical_formula_sum "Si O2"
_cell_formula_units_Z 64
_cell_length_a 9.148874
_cell_length_b 16.802547
_cell_length_c 22.877172
_cell_angle_alpha 90.000000
_cell_angle_beta 90.000000
_cell_angle_gamma 90.000000
_cell_volume 3516.779205
_symmetry_space_group_name_H-M "A M M 2"
_symmetry_group_IT_number 38
_symmetry_cell_setting 'orthorhombic'
loop_
_space_group_symop_operation_xyz
x,y,z
-x,-y,z
-x,y,z
x,-y,z
x,1/2+y,1/2+z
-x,1/2-y,1/2+z
-x,1/2+y,1/2+z
x,1/2-y,1/2+z
loop_
_atom_site_type_symbol
_atom_site_label
_atom_site_fract_x
_atom_site_fract_y
_atom_site_fract_z
Si Si1 0.835808 0.797686 0.461280
Si Si2 0.168545 0.383757 0.422363
Si Si3 0.324832 0.590635 0.298431
Si Si4 0.672846 0.911538 0.043791
Si Si5 0.677716 0.910330 0.244537
Si Si6 0.674397 0.413856 0.879590
Si Si7 0.174666 0.256797 0.590171
Si Si8 0.676687 0.731441 0.206737
O O1 0.835978 0.710563 0.432848
O O2 0.728182 0.848938 0.423605
O O3 0.796243 0.787888 0.529052
O O4 0.000000 0.830401 0.457642
O O5 0.243283 0.402300 0.360631
O O6 0.260335 0.412897 0.478401
O O7 0.000000 0.411426 0.424224
O O8 0.500000 0.597071 0.308100
O O9 0.297053 0.500000 0.275575
O O10 0.283966 0.664257 0.255332
O O11 0.500000 0.893505 0.041249
O O12 0.755224 0.844095 0.080300
O O13 0.690367 0.000000 0.069217
O O14 0.500000 0.911493 0.240683
O O15 0.722375 0.904508 0.312614
O O16 0.721772 0.823915 0.219291
O O17 0.724697 0.000000 0.223775
O O18 0.500000 0.412772 0.877236
O O19 0.724787 0.500000 0.900486
O O20 0.248287 0.214078 0.644896
O O21 0.000000 0.263775 0.596884
O O22 0.500000 0.730268 0.202288
#
# Coordination Sequence:
#
# PCOD9357775 Si02
#       8
#     8   8   8   8   8   8   8   8
#     4   9  19  34  50  71 101 136 169 205 256 313
#     4  10  20  33  52  80 111 140 172 213 264 321
#     4  10  21  36  54  78 107 140 181 225 268 318
#     4  10  20  34  54  80 108 138 172 210 257 317
#     4   8  15  29  50  77 106 132 161 200 249 307
#     4   9  17  30  51  79 105 129 162 205 253 307
#     4  10  22  38  53  72 101 136 176 220 264 314
#     4  10  20  35  55  76 101 138 180 223 267 307
#
# _framework density 18.198468999999999
#
# number of rings (size 3 to 8) (size 9 to 14) (size 15 to 20)
#    0.000    2.500    0.000    3.750    0.000    8.000 
#    0.000    2.500    0.000    3.000    0.000    0.000 
#    0.000    0.000    0.000    0.000    0.000    0.000 
#
# Total GULP energy -178278.932940 kJ/mol
# GULP energy per Si atom -5571.216654 kJ/mol
# Density = 1.815705 g / cm^3
# Si number density = 18.198469 Si / 1000 Ang^3
#
#
#
# Elastic Constant Matrix: (Units=GPa)
#
#
# Indices 1 2 3 4 5 6 
#
# 1 23.8959 17.4580 27.5545 0.0000 0.0000 0.0000
# 2 17.4580 74.5092 43.2017 0.0000 0.0000 0.0000
# 3 27.5545 43.2017 84.2288 0.0000 0.0000 0.0000
# 4 0.0000 0.0000 0.0000 -3.5923 0.0000 0.0000
# 5 0.0000 0.0000 0.0000 0.0000 10.5705 0.0000
# 6 0.0000 0.0000 0.0000 0.0000 0.0000 -125.9902
#
#
#
# Elastic Compliance Matrix: (Units=1/GPa)
#
#
# Indices 1 2 3 4 5 6 
#
# 1 0.068164 -0.004329 -0.020078 0.000000 0.000000 0.000000
# 2 -0.004329 0.019377 -0.008522 0.000000 0.000000 0.000000
# 3 -0.020078 -0.008522 0.022812 0.000000 0.000000 0.000000
# 4 0.000000 0.000000 0.000000 -0.278370 0.000000 0.000000
# 5 0.000000 0.000000 0.000000 0.000000 0.094603 0.000000
# 6 0.000000 0.000000 0.000000 0.000000 0.000000 -0.007937
#
#
# Mechanical properties :
#
#
# Convention : Reuss Voigt Hill
#
# Bulk Modulus (GPa) = 22.47571 39.89581 31.18576
# Shear Modulus (GPa) = -7563.51822 -17.50776 -3790.51299
#
# Velocity S-wave (km/s) = -64.53798 -3.10505 -45.68803
# Velocity P-wave (km/s) = 74.43896 3.01912 52.59298
#
# Compressibility (1/GPa) = 0.04449248
#
# Stress axis : x y z
#
# Youngs Moduli (GPa) = 14.67054 51.60775 43.83662
#
# Poissons Ratio (x) = 0.22344 0.88017
# Poissons Ratio (y) = 0.06352 0.37359
# Poissons Ratio (z) = 0.29456 0.43981
#
# Static dielectric constant tensor:
#      x y z
#    x 1.618800 0.000000 0.000000 
#    y 0.000000 1.689090 0.000000 
#    z 0.000000 0.000000 1.608130 
# 
# From -- ./inp_files/20056.got.cif
#   From: 2010.05.17/outbox.cif.g08.bks.cpg/sg38_11_cif.got.tgz:20056.got - 2010.06.03 18:07:57.
