data_PCOD9357192
_publ_section_title
;
Structure prediction by ZEFSAII (Michael W. Deem and Ramdas Pophale) SiO2 
 PCOD9357192
Probable space group: A M M 2
;
_chemical_formula_sum "Si O2"
_cell_formula_units_Z 40
_cell_length_a 7.433042
_cell_length_b 26.535606
_cell_length_c 9.240547
_cell_angle_alpha 90.000000
_cell_angle_beta 90.000000
_cell_angle_gamma 90.000000
_cell_volume 1822.608021
_symmetry_space_group_name_H-M "A M M 2"
_symmetry_group_IT_number 38
_symmetry_cell_setting 'orthorhombic'
loop_
_space_group_symop_operation_xyz
x,y,z
-x,-y,z
-x,y,z
x,-y,z
x,1/2+y,1/2+z
-x,1/2-y,1/2+z
-x,1/2+y,1/2+z
x,1/2-y,1/2+z
loop_
_atom_site_type_symbol
_atom_site_label
_atom_site_fract_x
_atom_site_fract_y
_atom_site_fract_z
Si Si1 0.791302 0.397074 0.551960
Si Si2 0.291602 0.000000 0.895518
Si Si3 0.220341 0.801411 0.872669
Si Si4 0.217495 0.000000 0.555422
Si Si5 0.780694 0.799468 0.539473
Si Si6 0.220292 0.901692 0.379609
O O1 0.785187 0.449201 0.465026
O O2 0.716217 0.351249 0.456925
O O3 0.716877 0.403395 0.713517
O O4 0.000000 0.383569 0.574416
O O5 0.269479 0.000000 0.723086
O O6 0.500000 0.000000 0.932383
O O7 0.278056 0.800532 0.705978
O O8 0.000000 0.802038 0.869860
O O9 0.275572 0.751130 0.957225
O O10 0.279118 0.049965 0.471635
O O11 0.000000 0.000000 0.552373
O O12 0.724948 0.849738 0.455333
O O13 0.000000 0.799281 0.539657
O O14 0.000000 0.903129 0.380031
#
# Coordination Sequence:
#
# PCOD9357192 Si02
#       6
#     8   4   8   4   8   8
#     4  10  19  34  55  78 102 134 172 212 255 304
#     4  12  25  38  52  74 102 134 169 212 260 310
#     4   9  16  25  43  71 106 140 169 204 250 297
#     4  10  19  34  54  76 102 136 173 212 254 302
#     4   9  15  24  39  70 110 140 166 205 252 296
#     4   9  17  29  50  78 107 135 170 213 256 299
#
# _framework density 21.946570999999999
#
# number of rings (size 3 to 8) (size 9 to 14) (size 15 to 20)
#    0.000    2.400    0.000    3.900    0.000    9.600 
#    0.000    2.000    0.000    0.000    0.000   12.600 
#    0.000    0.000    0.000    0.000    0.000    0.000 
#
# Total GULP energy -111799.851234 kJ/mol
# GULP energy per Si atom -5589.992562 kJ/mol
# Density = 2.189662 g / cm^3
# Si number density = 21.946571 Si / 1000 Ang^3
#
#
#
# Elastic Constant Matrix: (Units=GPa)
#
#
# Indices 1 2 3 4 5 6 
#
# 1 64.3821 -12.9815 -8.8115 0.0000 0.0000 0.0000
# 2 -12.9815 227.6068 137.0497 0.0000 0.0000 0.0000
# 3 -8.8115 137.0497 246.2632 0.0000 0.0000 0.0000
# 4 0.0000 0.0000 0.0000 29.5042 0.0000 0.0000
# 5 0.0000 0.0000 0.0000 0.0000 -26.7332 0.0000
# 6 0.0000 0.0000 0.0000 0.0000 0.0000 -29.1992
#
#
#
# Elastic Compliance Matrix: (Units=1/GPa)
#
#
# Indices 1 2 3 4 5 6 
#
# 1 0.015714 0.000839 0.000095 0.000000 0.000000 0.000000
# 2 0.000839 0.006653 -0.003672 0.000000 0.000000 0.000000
# 3 0.000095 -0.003672 0.006108 0.000000 0.000000 0.000000
# 4 0.000000 0.000000 0.000000 0.033893 0.000000 0.000000
# 5 0.000000 0.000000 0.000000 0.000000 -0.037407 0.000000
# 6 0.000000 0.000000 0.000000 0.000000 0.000000 -0.034248
#
#
# Mechanical properties :
#
#
# Convention : Reuss Voigt Hill
#
# Bulk Modulus (GPa) = 43.48047 85.41839 64.44943
# Shear Modulus (GPa) = 1296.53771 22.91405 659.72588
#
# Velocity S-wave (km/s) = 24.33213 3.23473 17.35679
# Velocity P-wave (km/s) = 28.44747 7.27715 20.76313
#
# Compressibility (1/GPa) = 0.02299883
#
# Stress axis : x y z
#
# Youngs Moduli (GPa) = 63.63564 150.31778 163.72534
#
# Poissons Ratio (x) = -0.12608 -0.01563
# Poissons Ratio (y) = -0.05338 0.60124
# Poissons Ratio (z) = -0.00608 0.55201
#
# Static dielectric constant tensor:
#      x y z
#    x 1.828880 0.000000 0.000000 
#    y 0.000000 1.752600 0.000000 
#    z 0.000000 0.000000 1.745950 
# 
# From -- ./inp_files/3516.got.cif
#   From: 2010.05.17/outbox.cif.g08.bks.cpg/sg38_2_cif.got.tgz:3516.got - 2010.06.03 18:07:57.
