data_PCOD9357549
_publ_section_title
;
Structure prediction by ZEFSAII (Michael W. Deem and Ramdas Pophale) SiO2 
 PCOD9357549
Probable space group: A M M 2
;
_chemical_formula_sum "Si O2"
_cell_formula_units_Z 48
_cell_length_a 7.593879
_cell_length_b 9.803358
_cell_length_c 32.393739
_cell_angle_alpha 90.000000
_cell_angle_beta 90.000000
_cell_angle_gamma 90.000000
_cell_volume 2411.568565
_symmetry_space_group_name_H-M "A M M 2"
_symmetry_group_IT_number 38
_symmetry_cell_setting 'orthorhombic'
loop_
_space_group_symop_operation_xyz
x,y,z
-x,-y,z
-x,y,z
x,-y,z
x,1/2+y,1/2+z
-x,1/2-y,1/2+z
-x,1/2+y,1/2+z
x,1/2-y,1/2+z
loop_
_atom_site_type_symbol
_atom_site_label
_atom_site_fract_x
_atom_site_fract_y
_atom_site_fract_z
Si Si1 0.288931 0.845729 0.160870
Si Si2 0.712568 0.344169 0.839792
Si Si3 0.215095 0.342447 0.991794
Si Si4 0.296624 0.833861 0.249701
Si Si5 0.789239 0.654620 0.417303
Si Si6 0.211477 0.845858 0.584268
O O1 0.500000 0.854170 0.165877
O O2 0.219268 0.792730 0.205310
O O3 0.255988 0.752584 0.121639
O O4 0.222938 0.000000 0.153987
O O5 0.500000 0.350438 0.836765
O O6 0.773207 0.500000 0.848422
O O7 0.780688 0.299174 0.794467
O O8 0.756861 0.240961 0.876030
O O9 0.267271 0.500000 0.984102
O O10 0.271352 0.303845 0.038292
O O11 0.000000 0.341093 0.991086
O O12 0.278627 0.240801 0.956440
O O13 0.500000 0.786558 0.250427
O O14 0.297959 0.000000 0.248772
O O15 0.720555 0.500000 0.415155
O O16 0.000000 0.645930 0.422255
O O17 0.000000 0.851330 0.582186
O O18 0.275878 0.000000 0.591902
#
# Coordination Sequence:
#
# PCOD9357549 Si02
#       6
#     8   8   8   8   8   8
#     4   9  17  30  49  72  96 122 154 192 232 273
#     4   9  17  31  52  73  91 118 158 197 231 270
#     4   8  15  30  50  67  86 119 161 196 225 266
#     4   7  12  26  47  68  90 118 154 193 227 264
#     4  10  20  32  47  70  98 124 151 187 233 281
#     4   9  18  32  49  70  95 122 154 192 232 274
#
# _framework density 19.904057000000002
#
# number of rings (size 3 to 8) (size 9 to 14) (size 15 to 20)
#    0.000    3.333    0.000    3.500    0.000    2.667 
#    0.000    4.167    0.000    9.000    0.000    0.000 
#    0.000    0.000    0.000    0.000    0.000    0.000 
#
# Total GULP energy -133707.281980 kJ/mol
# GULP energy per Si atom -5571.136749 kJ/mol
# Density = 1.985875 g / cm^3
# Si number density = 19.904057 Si / 1000 Ang^3
#
#
#
# Elastic Constant Matrix: (Units=GPa)
#
#
# Indices 1 2 3 4 5 6 
#
# 1 41.8033 5.1081 5.4400 0.0000 0.0000 0.0000
# 2 5.1081 115.0489 130.6590 0.0000 0.0000 0.0000
# 3 5.4400 130.6590 242.0010 0.0000 0.0000 0.0000
# 4 0.0000 0.0000 0.0000 31.8626 0.0000 0.0000
# 5 0.0000 0.0000 0.0000 0.0000 24.0066 0.0000
# 6 0.0000 0.0000 0.0000 0.0000 0.0000 17.0967
#
#
#
# Elastic Compliance Matrix: (Units=1/GPa)
#
#
# Indices 1 2 3 4 5 6 
#
# 1 0.024053 -0.001173 0.000093 0.000000 0.000000 0.000000
# 2 -0.001173 0.022527 -0.012136 0.000000 0.000000 0.000000
# 3 0.000093 -0.012136 0.010683 0.000000 0.000000 0.000000
# 4 0.000000 0.000000 0.000000 0.031385 0.000000 0.000000
# 5 0.000000 0.000000 0.000000 0.000000 0.041655 0.000000
# 6 0.000000 0.000000 0.000000 0.000000 0.000000 0.058491
#
#
# Mechanical properties :
#
#
# Convention : Reuss Voigt Hill
#
# Bulk Modulus (GPa) = 32.43700 75.69638 54.06669
# Shear Modulus (GPa) = 22.17270 31.76958 26.97114
#
# Velocity S-wave (km/s) = 3.34125 3.99950 3.68510
# Velocity P-wave (km/s) = 5.58725 7.70981 6.73270
#
# Compressibility (1/GPa) = 0.03082899
#
# Stress axis : x y z
#
# Youngs Moduli (GPa) = 41.57507 44.39153 93.61063
#
# Poissons Ratio (x) = 0.05209 -0.00869
# Poissons Ratio (y) = 0.04878 1.13607
# Poissons Ratio (z) = -0.00386 0.53874
#
# Static dielectric constant tensor:
#      x y z
#    x 1.772830 0.000000 0.000000 
#    y 0.000000 1.675470 0.000000 
#    z 0.000000 0.000000 1.731300 
# 
# From -- ./inp_files/23343.got.cif
#   From: 2010.05.17/outbox.cif.g08.bks.cpg/sg38_12_cif.got.tgz:23343.got - 2010.06.03 18:07:57.
