data_PCOD9357667
_publ_section_title
;
Structure prediction by ZEFSAII (Michael W. Deem and Ramdas Pophale) SiO2 
 PCOD9357667
Probable space group: A M M 2
;
_chemical_formula_sum "Si O2"
_cell_formula_units_Z 64
_cell_length_a 13.461320
_cell_length_b 28.149976
_cell_length_c 7.852576
_cell_angle_alpha 90.000000
_cell_angle_beta 90.000000
_cell_angle_gamma 90.000000
_cell_volume 2975.622443
_symmetry_space_group_name_H-M "A M M 2"
_symmetry_group_IT_number 38
_symmetry_cell_setting 'orthorhombic'
loop_
_space_group_symop_operation_xyz
x,y,z
-x,-y,z
-x,y,z
x,-y,z
x,1/2+y,1/2+z
-x,1/2-y,1/2+z
-x,1/2+y,1/2+z
x,1/2-y,1/2+z
loop_
_atom_site_type_symbol
_atom_site_label
_atom_site_fract_x
_atom_site_fract_y
_atom_site_fract_z
Si Si1 0.304795 0.107044 0.027430
Si Si2 0.111677 0.727097 0.235227
Si Si3 0.246186 0.081302 0.367594
Si Si4 0.112659 0.325440 0.873123
Si Si5 0.301297 0.210532 0.946420
Si Si6 0.391429 0.200259 0.599022
Si Si7 0.385651 0.910374 0.653764
Si Si8 0.115422 0.946883 0.087365
O O1 0.325639 0.083057 0.210365
O O2 0.189229 0.091303 0.002141
O O3 0.317309 0.163286 0.054594
O O4 0.360647 0.091606 0.855420
O O5 0.132541 0.783878 0.235032
O O6 0.196634 0.704999 0.351099
O O7 0.000000 0.722227 0.307263
O O8 0.111401 0.702111 0.053115
O O9 0.193001 0.133043 0.381041
O O10 0.301345 0.065040 0.537912
O O11 0.155945 0.052235 0.282104
O O12 0.000000 0.343758 0.843714
O O13 0.383944 0.208230 0.799997
O O14 0.313396 0.262229 0.026264
O O15 0.500000 0.212411 0.531980
O O16 0.377701 0.143986 0.582780
O O17 0.500000 0.926134 0.631241
O O18 0.000000 0.934926 0.076021
O O19 0.130396 0.000000 0.016061
#
# Coordination Sequence:
#
# PCOD9357667 Si02
#       8
#     8   8   8   8   8   8   8   8
#     4   9  23  37  61  89 118 157 201 251 304 358
#     4  10  21  32  47  72 110 156 195 235 285 346
#     4  10  21  38  62  90 117 159 197 247 303 360
#     4  10  20  33  49  76 112 150 197 243 290 350
#     4  11  20  34  50  77 112 150 197 248 292 343
#     4  10  22  35  52  76 112 156 205 255 292 334
#     4  10  21  41  61  89 127 163 209 255 296 348
#     4   9  20  42  70  96 123 153 190 244 307 375
#
# _framework density 21.508106000000002
#
# number of rings (size 3 to 8) (size 9 to 14) (size 15 to 20)
#    0.750    1.375    0.000    3.750    5.250    1.500 
#    0.000    1.875    0.000    4.500    0.000    0.000 
#    0.000    0.000    0.000    0.000    0.000    0.000 
#
# Total GULP energy -178247.180394 kJ/mol
# GULP energy per Si atom -5570.224387 kJ/mol
# Density = 2.145915 g / cm^3
# Si number density = 21.508106 Si / 1000 Ang^3
#
#
#
# Elastic Constant Matrix: (Units=GPa)
#
#
# Indices 1 2 3 4 5 6 
#
# 1 91.0915 5.9469 9.5270 0.0000 0.0000 0.0000
# 2 5.9469 33.4767 -5.7136 0.0000 0.0000 0.0000
# 3 9.5270 -5.7136 55.4893 0.0000 0.0000 0.0000
# 4 0.0000 0.0000 0.0000 4.3663 0.0000 0.0000
# 5 0.0000 0.0000 0.0000 0.0000 29.3214 0.0000
# 6 0.0000 0.0000 0.0000 0.0000 0.0000 6.4791
#
#
#
# Elastic Compliance Matrix: (Units=1/GPa)
#
#
# Indices 1 2 3 4 5 6 
#
# 1 0.011364 -0.002394 -0.002198 0.000000 0.000000 0.000000
# 2 -0.002394 0.030910 0.003594 0.000000 0.000000 0.000000
# 3 -0.002198 0.003594 0.018769 0.000000 0.000000 0.000000
# 4 0.000000 0.000000 0.000000 0.229025 0.000000 0.000000
# 5 0.000000 0.000000 0.000000 0.000000 0.034105 0.000000
# 6 0.000000 0.000000 0.000000 0.000000 0.000000 0.154342
#
#
# Mechanical properties :
#
#
# Convention : Reuss Voigt Hill
#
# Bulk Modulus (GPa) = 16.93547 22.17535 19.55541
# Shear Modulus (GPa) = 9.99614 19.38653 14.69133
#
# Velocity S-wave (km/s) = 2.15817 3.00552 2.61638
# Velocity P-wave (km/s) = 3.75518 4.73041 4.27073
#
# Compressibility (1/GPa) = 0.05904767
#
# Stress axis : x y z
#
# Youngs Moduli (GPa) = 87.99652 32.35184 53.27985
#
# Poissons Ratio (x) = 0.07744 0.11709
# Poissons Ratio (y) = 0.21065 -0.19147
# Poissons Ratio (z) = 0.19338 -0.11626
#
# Static dielectric constant tensor:
#      x y z
#    x 1.801530 0.000000 0.000000 
#    y 0.000000 1.865940 0.000000 
#    z 0.000000 0.000000 1.823330 
# 
# From -- ./inp_files/5976.got.cif
#   From: 2010.05.17/outbox.cif.g08.bks.cpg/sg38_3_cif.got.tgz:5976.got - 2010.06.03 18:07:57.
