data_PCOD9357012
_publ_section_title
;
Structure prediction by ZEFSAII (Michael W. Deem and Ramdas Pophale) SiO2 
 PCOD9357012
Probable space group: A M M 2
;
_chemical_formula_sum "Si O2"
_cell_formula_units_Z 64
_cell_length_a 14.359747
_cell_length_b 7.695353
_cell_length_c 27.195685
_cell_angle_alpha 90.000000
_cell_angle_beta 90.000000
_cell_angle_gamma 90.000000
_cell_volume 3005.213541
_symmetry_space_group_name_H-M "A M M 2"
_symmetry_group_IT_number 38
_symmetry_cell_setting 'orthorhombic'
loop_
_space_group_symop_operation_xyz
x,y,z
-x,-y,z
-x,y,z
x,-y,z
x,1/2+y,1/2+z
-x,1/2-y,1/2+z
-x,1/2+y,1/2+z
x,1/2-y,1/2+z
loop_
_atom_site_type_symbol
_atom_site_label
_atom_site_fract_x
_atom_site_fract_y
_atom_site_fract_z
Si Si1 0.394619 0.207235 0.298720
Si Si2 0.392421 0.207446 0.906420
Si Si3 0.782165 0.295814 0.748538
Si Si4 0.393886 0.795696 0.515146
Si Si5 0.795354 0.204235 0.054352
Si Si6 0.107652 0.286455 0.653677
Si Si7 0.110188 0.711328 0.455305
Si Si8 0.889438 0.291028 0.347001
O O1 0.500000 0.278870 0.295951
O O2 0.354875 0.235667 0.353808
O O3 0.319868 0.279362 0.260395
O O4 0.400975 0.000000 0.292110
O O5 0.500000 0.269863 0.905637
O O6 0.389965 0.000000 0.907022
O O7 0.357473 0.266588 0.959311
O O8 0.768884 0.500000 0.738273
O O9 0.838658 0.224304 0.702349
O O10 0.840005 0.281109 0.798960
O O11 0.500000 0.724072 0.518507
O O12 0.315900 0.721321 0.550981
O O13 0.399114 0.000000 0.523618
O O14 0.840622 0.273367 0.104169
O O15 0.818423 0.000000 0.053731
O O16 0.838969 0.278518 0.003971
O O17 0.108088 0.500000 0.654257
O O18 0.000000 0.233335 0.653953
O O19 0.120170 0.500000 0.454301
O O20 0.143136 0.771036 0.401190
O O21 0.000000 0.747790 0.459175
O O22 0.877491 0.500000 0.345826
O O23 0.000000 0.254895 0.344341
#
# Coordination Sequence:
#
# PCOD9357012 Si02
#       8
#     8   8   8   8   8   8   8   8
#     4   9  18  32  48  70 105 145 181 217 263 316
#     4   9  17  30  50  75 102 135 177 221 259 302
#     4  10  20  33  52  77 104 140 183 221 262 314
#     4  10  21  36  52  73 108 148 178 210 261 319
#     4  10  19  32  55  82 103 133 181 226 263 307
#     4   9  18  34  56  81 108 137 174 222 273 321
#     4   8  15  29  49  74 103 132 164 208 266 323
#     4   9  18  32  49  72 103 135 167 211 270 329
#
# _framework density 21.296323000000001
#
# number of rings (size 3 to 8) (size 9 to 14) (size 15 to 20)
#    0.000    2.750    0.000    2.250    1.750    5.000 
#    0.000    1.250    0.000    5.250    0.000    1.750 
#    0.000    0.000    0.000    0.000    0.000    0.000 
#
# Total GULP energy -178542.842150 kJ/mol
# GULP energy per Si atom -5579.463817 kJ/mol
# Density = 2.124785 g / cm^3
# Si number density = 21.296323 Si / 1000 Ang^3
#
#
#
# Elastic Constant Matrix: (Units=GPa)
#
#
# Indices 1 2 3 4 5 6 
#
# 1 119.3457 -3.2353 99.3487 0.0000 0.0000 0.0000
# 2 -3.2353 28.8838 2.6332 0.0000 0.0000 0.0000
# 3 99.3487 2.6332 165.7605 0.0000 0.0000 0.0000
# 4 0.0000 0.0000 0.0000 11.3022 0.0000 0.0000
# 5 0.0000 0.0000 0.0000 0.0000 40.9958 0.0000
# 6 0.0000 0.0000 0.0000 0.0000 0.0000 8.1106
#
#
#
# Elastic Compliance Matrix: (Units=1/GPa)
#
#
# Indices 1 2 3 4 5 6 
#
# 1 0.016950 0.002829 -0.010204 0.000000 0.000000 0.000000
# 2 0.002829 0.035144 -0.002254 0.000000 0.000000 0.000000
# 3 -0.010204 -0.002254 0.012184 0.000000 0.000000 0.000000
# 4 0.000000 0.000000 0.000000 0.088479 0.000000 0.000000
# 5 0.000000 0.000000 0.000000 0.000000 0.024393 0.000000
# 6 0.000000 0.000000 0.000000 0.000000 0.000000 0.123295
#
#
# Mechanical properties :
#
#
# Convention : Reuss Voigt Hill
#
# Bulk Modulus (GPa) = 22.21214 56.83145 39.52179
# Shear Modulus (GPa) = 14.93838 26.43127 20.68482
#
# Velocity S-wave (km/s) = 2.65137 3.52677 3.11993
# Velocity P-wave (km/s) = 4.45260 6.58241 5.61933
#
# Compressibility (1/GPa) = 0.04502044
#
# Stress axis : x y z
#
# Youngs Moduli (GPa) = 58.99763 28.45448 82.07296
#
# Poissons Ratio (x) = -0.08049 0.83746
# Poissons Ratio (y) = -0.16689 0.18497
# Poissons Ratio (z) = 0.60200 0.06413
#
# Static dielectric constant tensor:
#      x y z
#    x 1.798440 0.000000 0.000000 
#    y 0.000000 1.805960 0.000000 
#    z 0.000000 0.000000 1.760340 
# 
# From -- ./inp_files/22917.got.cif
#   From: 2010.05.17/outbox.cif.g08.bks.cpg/sg38_12_cif.got.tgz:22917.got - 2010.06.03 18:07:57.
