data_PCOD9357888
_publ_section_title
;
Structure prediction by ZEFSAII (Michael W. Deem and Ramdas Pophale) SiO2 
 PCOD9357888
Probable space group: A M M 2
;
_chemical_formula_sum "Si O2"
_cell_formula_units_Z 64
_cell_length_a 14.084302
_cell_length_b 13.755863
_cell_length_c 19.283540
_cell_angle_alpha 90.000000
_cell_angle_beta 90.000000
_cell_angle_gamma 90.000000
_cell_volume 3736.026376
_symmetry_space_group_name_H-M "A M M 2"
_symmetry_group_IT_number 38
_symmetry_cell_setting 'orthorhombic'
loop_
_space_group_symop_operation_xyz
x,y,z
-x,-y,z
-x,y,z
x,-y,z
x,1/2+y,1/2+z
-x,1/2-y,1/2+z
-x,1/2+y,1/2+z
x,1/2-y,1/2+z
loop_
_atom_site_type_symbol
_atom_site_label
_atom_site_fract_x
_atom_site_fract_y
_atom_site_fract_z
Si Si1 0.115231 0.889374 0.171080
Si Si2 0.106540 0.617647 0.521925
Si Si3 0.698482 0.306725 0.876745
Si Si4 0.295670 0.111590 0.947791
Si Si5 0.385139 0.307091 0.585551
Si Si6 0.385582 0.391869 0.016147
Si Si7 0.385792 0.386007 0.734635
Si Si8 0.888995 0.618262 0.826289
O O1 0.140427 0.843066 0.097158
O O2 0.134754 0.848727 0.247083
O O3 0.000000 0.895121 0.168058
O O4 0.152265 0.000000 0.171634
O O5 0.101848 0.500000 0.530005
O O6 0.185490 0.633747 0.464839
O O7 0.000000 0.651849 0.506267
O O8 0.674836 0.194815 0.894398
O O9 0.653463 0.367725 0.939826
O O10 0.656117 0.337361 0.803048
O O11 0.810418 0.332006 0.873815
O O12 0.307407 0.000000 0.925855
O O13 0.348054 0.128173 0.021519
O O14 0.500000 0.312875 0.585366
O O15 0.357039 0.196503 0.566520
O O16 0.352283 0.341824 0.661216
O O17 0.500000 0.390463 0.012663
O O18 0.355437 0.500000 0.037820
O O19 0.500000 0.376666 0.736757
O O20 0.362527 0.500000 0.736096
O O21 0.879736 0.500000 0.828712
O O22 0.000000 0.640027 0.840574
#
# Coordination Sequence:
#
# PCOD9357888 Si02
#       8
#     8   8   8   8   8   8   8   8
#     4   7  11  21  38  62  89 114 143 182 231 283
#     4   8  14  26  45  67  90 119 157 199 239 280
#     4  11  21  31  47  72 100 132 166 202 242 296
#     4  10  21  34  48  68  97 134 169 202 245 294
#     4   9  19  34  52  76 101 125 160 202 245 293
#     4   9  17  32  53  74  99 131 165 199 235 283
#     4  10  20  34  53  77 101 123 154 201 250 293
#     4   9  17  28  43  68 101 130 155 191 244 299
#
# _framework density 17.130500999999999
#
# number of rings (size 3 to 8) (size 9 to 14) (size 15 to 20)
#    0.000    2.875    0.000    3.375    1.750    2.750 
#    0.000    0.625    0.000    0.750    0.000    0.000 
#    0.000    0.000    0.000    0.000    0.000    0.000 
#
# Total GULP energy -178241.287544 kJ/mol
# GULP energy per Si atom -5570.040236 kJ/mol
# Density = 1.709151 g / cm^3
# Si number density = 17.130501 Si / 1000 Ang^3
#
#
#
# Elastic Constant Matrix: (Units=GPa)
#
#
# Indices 1 2 3 4 5 6 
#
# 1 33.3520 24.6619 25.7279 0.0000 0.0000 0.0000
# 2 24.6619 100.2004 54.7300 0.0000 0.0000 0.0000
# 3 25.7279 54.7300 94.2844 0.0000 0.0000 0.0000
# 4 0.0000 0.0000 0.0000 12.9112 0.0000 0.0000
# 5 0.0000 0.0000 0.0000 0.0000 20.9743 0.0000
# 6 0.0000 0.0000 0.0000 0.0000 0.0000 17.0534
#
#
#
# Elastic Compliance Matrix: (Units=1/GPa)
#
#
# Indices 1 2 3 4 5 6 
#
# 1 0.040082 -0.005698 -0.007630 0.000000 0.000000 0.000000
# 2 -0.005698 0.015423 -0.007398 0.000000 0.000000 0.000000
# 3 -0.007630 -0.007398 0.016983 0.000000 0.000000 0.000000
# 4 0.000000 0.000000 0.000000 0.077452 0.000000 0.000000
# 5 0.000000 0.000000 0.000000 0.000000 0.047677 0.000000
# 6 0.000000 0.000000 0.000000 0.000000 0.000000 0.058639
#
#
# Mechanical properties :
#
#
# Convention : Reuss Voigt Hill
#
# Bulk Modulus (GPa) = 32.22020 48.67517 40.44769
# Shear Modulus (GPa) = 16.23092 18.36891 17.29992
#
# Velocity S-wave (km/s) = 3.08147 3.27814 3.18132
# Velocity P-wave (km/s) = 5.61338 6.54250 6.09567
#
# Compressibility (1/GPa) = 0.03103643
#
# Stress axis : x y z
#
# Youngs Moduli (GPa) = 24.94874 64.83733 58.88354
#
# Poissons Ratio (x) = 0.36942 0.44928
# Poissons Ratio (y) = 0.14215 0.43562
# Poissons Ratio (z) = 0.19036 0.47967
#
# Static dielectric constant tensor:
#      x y z
#    x 1.638220 0.000000 0.000000 
#    y 0.000000 1.568150 0.000000 
#    z 0.000000 0.000000 1.590190 
# 
# From -- ./inp_files/18542.got.cif
#   From: 2010.05.17/outbox.cif.g08.bks.cpg/sg38_10_cif.got.tgz:18542.got - 2010.06.03 18:07:57.
