data_PCOD9357139
_publ_section_title
;
Structure prediction by ZEFSAII (Michael W. Deem and Ramdas Pophale) SiO2 
 PCOD9357139
Probable space group: A M M 2
;
_chemical_formula_sum "Si O2"
_cell_formula_units_Z 64
_cell_length_a 13.655903
_cell_length_b 12.353773
_cell_length_c 20.448164
_cell_angle_alpha 90.000000
_cell_angle_beta 90.000000
_cell_angle_gamma 90.000000
_cell_volume 3449.644645
_symmetry_space_group_name_H-M "A M M 2"
_symmetry_group_IT_number 38
_symmetry_cell_setting 'orthorhombic'
loop_
_space_group_symop_operation_xyz
x,y,z
-x,-y,z
-x,y,z
x,-y,z
x,1/2+y,1/2+z
-x,1/2-y,1/2+z
-x,1/2+y,1/2+z
x,1/2-y,1/2+z
loop_
_atom_site_type_symbol
_atom_site_label
_atom_site_fract_x
_atom_site_fract_y
_atom_site_fract_z
Si Si1 0.113146 0.749129 0.747180
Si Si2 0.693305 0.874471 0.765819
Si Si3 0.387672 0.127051 0.911922
Si Si4 0.605195 0.881974 0.553796
Si Si5 0.189323 0.375104 0.622244
Si Si6 0.607378 0.295749 0.666578
Si Si7 0.766412 0.740949 0.993489
Si Si8 0.883078 0.875722 0.381436
O O1 0.193329 0.844374 0.752161
O O2 0.128519 0.684072 0.679526
O O3 0.136103 0.670965 0.808879
O O4 0.000000 0.784207 0.752483
O O5 0.662680 0.861256 0.841194
O O6 0.632980 0.784435 0.726114
O O7 0.673335 0.000000 0.748005
O O8 0.500000 0.166805 0.910788
O O9 0.318748 0.183625 0.964140
O O10 0.390956 0.000000 0.926912
O O11 0.500000 0.876763 0.517283
O O12 0.603762 0.786434 0.605656
O O13 0.704539 0.864101 0.514982
O O14 0.608286 0.000000 0.585791
O O15 0.160425 0.500000 0.611492
O O16 0.301013 0.371380 0.650125
O O17 0.187273 0.303698 0.555562
O O18 0.500000 0.346220 0.674640
O O19 0.838266 0.702747 0.936341
O O20 0.000000 0.877119 0.389634
O O21 0.847558 0.000000 0.386858
#
# Coordination Sequence:
#
# PCOD9357139 Si02
#       8
#     8   8   8   8   8   8   8   8
#     4  10  21  40  62  84 110 145 193 242 289 346
#     4  10  19  33  55  84 115 147 185 230 283 340
#     4  10  20  33  52  80 115 154 190 226 273 333
#     4   9  17  29  47  73 104 141 183 223 271 330
#     4  10  22  37  57  83 114 152 193 238 287 340
#     4   9  18  32  52  78 110 148 188 232 275 326
#     4  11  20  35  54  81 115 147 187 235 284 342
#     4  10  21  38  61  84 107 143 191 242 294 346
#
# _framework density 18.552634999999999
#
# number of rings (size 3 to 8) (size 9 to 14) (size 15 to 20)
#    0.000    2.125    1.250    2.250    0.000    3.500 
#    0.000    0.625    0.000    1.125    0.000    0.000 
#    0.000    0.000    0.000    0.000    0.000    0.000 
#
# Total GULP energy -178297.443409 kJ/mol
# GULP energy per Si atom -5571.795107 kJ/mol
# Density = 1.851041 g / cm^3
# Si number density = 18.552635 Si / 1000 Ang^3
#
#
#
# Elastic Constant Matrix: (Units=GPa)
#
#
# Indices 1 2 3 4 5 6 
#
# 1 48.3273 0.0126 19.0253 0.0000 0.0000 0.0000
# 2 0.0126 55.4097 29.8489 0.0000 0.0000 0.0000
# 3 19.0253 29.8489 101.1679 0.0000 0.0000 0.0000
# 4 0.0000 0.0000 0.0000 12.8594 0.0000 0.0000
# 5 0.0000 0.0000 0.0000 0.0000 20.3691 0.0000
# 6 0.0000 0.0000 0.0000 0.0000 0.0000 19.9942
#
#
#
# Elastic Compliance Matrix: (Units=1/GPa)
#
#
# Indices 1 2 3 4 5 6 
#
# 1 0.022688 0.002727 -0.005071 0.000000 0.000000 0.000000
# 2 0.002727 0.021786 -0.006940 0.000000 0.000000 0.000000
# 3 -0.005071 -0.006940 0.012886 0.000000 0.000000 0.000000
# 4 0.000000 0.000000 0.000000 0.077764 0.000000 0.000000
# 5 0.000000 0.000000 0.000000 0.000000 0.049094 0.000000
# 6 0.000000 0.000000 0.000000 0.000000 0.000000 0.050014
#
#
# Mechanical properties :
#
#
# Convention : Reuss Voigt Hill
#
# Bulk Modulus (GPa) = 25.78014 33.63095 29.70554
# Shear Modulus (GPa) = 18.81597 21.04575 19.93086
#
# Velocity S-wave (km/s) = 3.18810 3.37171 3.28119
# Velocity P-wave (km/s) = 5.24193 5.77274 5.51373
#
# Compressibility (1/GPa) = 0.03878956
#
# Stress axis : x y z
#
# Youngs Moduli (GPa) = 44.07640 45.90196 77.60398
#
# Poissons Ratio (x) = -0.12516 0.39354
# Poissons Ratio (y) = -0.12018 0.53861
# Poissons Ratio (z) = 0.22351 0.31858
#
# Static dielectric constant tensor:
#      x y z
#    x 1.671890 0.000000 0.000000 
#    y 0.000000 1.629270 0.000000 
#    z 0.000000 0.000000 1.648760 
# 
# From -- ./inp_files/18450.got.cif
#   From: 2010.05.17/outbox.cif.g08.bks.cpg/sg38_10_cif.got.tgz:18450.got - 2010.06.03 18:07:57.
