data_PCOD9357641
_publ_section_title
;
Structure prediction by ZEFSAII (Michael W. Deem and Ramdas Pophale) SiO2 
 PCOD9357641
Probable space group: A M M 2
;
_chemical_formula_sum "Si O2"
_cell_formula_units_Z 64
_cell_length_a 14.866818
_cell_length_b 7.657014
_cell_length_c 32.497795
_cell_angle_alpha 90.000000
_cell_angle_beta 90.000000
_cell_angle_gamma 90.000000
_cell_volume 3699.400584
_symmetry_space_group_name_H-M "A M M 2"
_symmetry_group_IT_number 38
_symmetry_cell_setting 'orthorhombic'
loop_
_space_group_symop_operation_xyz
x,y,z
-x,-y,z
-x,y,z
x,-y,z
x,1/2+y,1/2+z
-x,1/2-y,1/2+z
-x,1/2+y,1/2+z
x,1/2-y,1/2+z
loop_
_atom_site_type_symbol
_atom_site_label
_atom_site_fract_x
_atom_site_fract_y
_atom_site_fract_z
Si Si1 0.609356 0.201989 0.313320
Si Si2 0.900117 0.704691 0.013939
Si Si3 0.397889 0.709346 0.724144
Si Si4 0.395779 0.785897 0.403141
Si Si5 0.603792 0.213650 0.564749
Si Si6 0.714352 0.206881 0.643934
Si Si7 0.712159 0.214196 0.483304
Si Si8 0.100115 0.707051 0.607964
O O1 0.500000 0.200607 0.313338
O O2 0.633724 0.279206 0.268823
O O3 0.634578 0.277081 0.357833
O O4 0.640053 0.000000 0.313634
O O5 0.905312 0.500000 0.003476
O O6 0.880367 0.715410 0.062819
O O7 0.000000 0.781369 0.007350
O O8 0.814180 0.776987 0.990045
O O9 0.500000 0.773387 0.715429
O O10 0.404206 0.500000 0.728839
O O11 0.332064 0.742757 0.686505
O O12 0.500000 0.735316 0.409844
O O13 0.334126 0.730347 0.440964
O O14 0.395233 0.000000 0.402037
O O15 0.500000 0.268681 0.565938
O O16 0.658232 0.277082 0.604745
O O17 0.653138 0.267268 0.522805
O O18 0.604285 0.000000 0.565133
O O19 0.818458 0.254918 0.638459
O O20 0.709028 0.000000 0.641075
O O21 0.713218 0.000000 0.483449
O O22 0.096632 0.500000 0.602265
O O23 0.000000 0.767431 0.620711
#
# Coordination Sequence:
#
# PCOD9357641 Si02
#       8
#     8   8   8   8   8   8   8   8
#     4   7  11  21  36  55  80 110 142 178 218 253
#     4   9  16  27  42  60  84 112 142 178 220 261
#     4   9  17  29  44  62  88 119 149 183 222 261
#     4   8  12  18  32  56  84 110 139 176 214 254
#     4   9  16  24  34  53  84 116 141 168 203 244
#     4  11  20  30  44  64  89 116 146 179 216 262
#     4   9  14  21  34  56  83 112 142 173 214 256
#     4  10  20  33  48  64  82 108 145 186 223 260
#
# _framework density 17.300101000000002
#
# number of rings (size 3 to 8) (size 9 to 14) (size 15 to 20)
#    0.000    3.000    1.250    3.000    0.000    3.000 
#    0.000    0.000    0.000    0.000    0.000    1.750 
#    0.000    6.000    0.000    0.000    0.000    1.000 
#
# Total GULP energy -178280.840500 kJ/mol
# GULP energy per Si atom -5571.276266 kJ/mol
# Density = 1.726072 g / cm^3
# Si number density = 17.300101 Si / 1000 Ang^3
#
#
#
# Elastic Constant Matrix: (Units=GPa)
#
#
# Indices 1 2 3 4 5 6 
#
# 1 130.3202 4.3021 91.4660 0.0000 0.0000 0.0000
# 2 4.3021 33.0687 5.4501 0.0000 0.0000 0.0000
# 3 91.4660 5.4501 155.0866 0.0000 0.0000 0.0000
# 4 0.0000 0.0000 0.0000 7.0192 0.0000 0.0000
# 5 0.0000 0.0000 0.0000 0.0000 11.1190 0.0000
# 6 0.0000 0.0000 0.0000 0.0000 0.0000 4.4390
#
#
#
# Elastic Compliance Matrix: (Units=1/GPa)
#
#
# Indices 1 2 3 4 5 6 
#
# 1 0.013099 -0.000433 -0.007710 0.000000 0.000000 0.000000
# 2 -0.000433 0.030431 -0.000814 0.000000 0.000000 0.000000
# 3 -0.007710 -0.000814 0.011024 0.000000 0.000000 0.000000
# 4 0.000000 0.000000 0.000000 0.142465 0.000000 0.000000
# 5 0.000000 0.000000 0.000000 0.000000 0.089936 0.000000
# 6 0.000000 0.000000 0.000000 0.000000 0.000000 0.225277
#
#
# Mechanical properties :
#
#
# Convention : Reuss Voigt Hill
#
# Bulk Modulus (GPa) = 27.29357 57.87910 42.58634
# Shear Modulus (GPa) = 9.21896 18.99926 14.10911
#
# Velocity S-wave (km/s) = 2.31093 3.31753 2.85888
# Velocity P-wave (km/s) = 4.78867 6.94286 5.96383
#
# Compressibility (1/GPa) = 0.03663867
#
# Stress axis : x y z
#
# Youngs Moduli (GPa) = 76.34000 32.86171 90.71125
#
# Poissons Ratio (x) = 0.01424 0.69942
# Poissons Ratio (y) = 0.03309 0.07382
# Poissons Ratio (z) = 0.58861 0.02674
#
# Static dielectric constant tensor:
#      x y z
#    x 1.572400 0.000000 0.000000 
#    y 0.000000 1.690980 0.000000 
#    z 0.000000 0.000000 1.611030 
# 
# From -- ./inp_files/25099.got.cif
#   From: 2010.05.17/outbox.cif.g08.bks.cpg/sg38_13_cif.got.tgz:25099.got - 2010.06.03 18:07:57.
