data_PCOD9357767
_publ_section_title
;
Structure prediction by ZEFSAII (Michael W. Deem and Ramdas Pophale) SiO2 
 PCOD9357767
Probable space group: A M M 2
;
_chemical_formula_sum "Si O2"
_cell_formula_units_Z 48
_cell_length_a 10.044857
_cell_length_b 13.056009
_cell_length_c 17.485851
_cell_angle_alpha 90.000000
_cell_angle_beta 90.000000
_cell_angle_gamma 90.000000
_cell_volume 2293.194928
_symmetry_space_group_name_H-M "A M M 2"
_symmetry_group_IT_number 38
_symmetry_cell_setting 'orthorhombic'
loop_
_space_group_symop_operation_xyz
x,y,z
-x,-y,z
-x,y,z
x,-y,z
x,1/2+y,1/2+z
-x,1/2-y,1/2+z
-x,1/2+y,1/2+z
x,1/2-y,1/2+z
loop_
_atom_site_type_symbol
_atom_site_label
_atom_site_fract_x
_atom_site_fract_y
_atom_site_fract_z
Si Si1 0.649127 0.118629 0.275700
Si Si2 0.345356 0.668190 0.446677
Si Si3 0.842434 0.698696 0.315172
Si Si4 0.145543 0.665409 0.140866
Si Si5 0.346426 0.610347 0.012185
Si Si6 0.241060 0.887441 0.111904
O O1 0.500000 0.151626 0.300097
O O2 0.765921 0.192751 0.304025
O O3 0.657158 0.121208 0.182980
O O4 0.667377 0.000000 0.297188
O O5 0.500000 0.647421 0.428024
O O6 0.240964 0.640448 0.380484
O O7 0.325990 0.790418 0.460490
O O8 0.309527 0.621231 0.529204
O O9 0.832399 0.648960 0.230870
O O10 0.000000 0.709234 0.333146
O O11 0.256503 0.619608 0.086740
O O12 0.150284 0.787925 0.124164
O O13 0.000000 0.626553 0.119951
O O14 0.500000 0.614657 0.035848
O O15 0.322263 0.500000 0.974713
O O16 0.177057 0.000000 0.118283
#
# Coordination Sequence:
#
# PCOD9357767 Si02
#       6
#     8   8   8   8   8   8
#     4   9  17  31  54  80 102 128 166 213 264 314
#     4  10  20  33  52  78 108 140 172 211 259 311
#     4  10  21  35  49  70 105 142 174 211 254 304
#     4   9  19  35  55  79 105 136 175 216 258 306
#     4   9  19  36  57  80 104 132 171 219 266 310
#     4   9  18  33  55  82 108 133 168 216 264 311
#
# _framework density 20.931497
#
# number of rings (size 3 to 8) (size 9 to 14) (size 15 to 20)
#    0.000    2.667    0.000    1.000    0.000   10.000 
#    0.000    5.833    0.000    1.000    0.000    0.000 
#    0.000    0.000    0.000    0.000    0.000    0.000 
#
# Total GULP energy -133852.391535 kJ/mol
# GULP energy per Si atom -5577.182981 kJ/mol
# Density = 2.088386 g / cm^3
# Si number density = 20.931497 Si / 1000 Ang^3
#
#
#
# Elastic Constant Matrix: (Units=GPa)
#
#
# Indices 1 2 3 4 5 6 
#
# 1 97.3102 3.2023 70.7080 0.0000 0.0000 0.0000
# 2 3.2023 56.9681 5.7236 0.0000 0.0000 0.0000
# 3 70.7080 5.7236 132.6939 0.0000 0.0000 0.0000
# 4 0.0000 0.0000 0.0000 2.7991 0.0000 0.0000
# 5 0.0000 0.0000 0.0000 0.0000 22.8760 0.0000
# 6 0.0000 0.0000 0.0000 0.0000 0.0000 5.5252
#
#
#
# Elastic Compliance Matrix: (Units=1/GPa)
#
#
# Indices 1 2 3 4 5 6 
#
# 1 0.016770 -0.000045 -0.008934 0.000000 0.000000 0.000000
# 2 -0.000045 0.017630 -0.000736 0.000000 0.000000 0.000000
# 3 -0.008934 -0.000736 0.012329 0.000000 0.000000 0.000000
# 4 0.000000 0.000000 0.000000 0.357252 0.000000 0.000000
# 5 0.000000 0.000000 0.000000 0.000000 0.043714 0.000000
# 6 0.000000 0.000000 0.000000 0.000000 0.000000 0.180989
#
#
# Mechanical properties :
#
#
# Convention : Reuss Voigt Hill
#
# Bulk Modulus (GPa) = 36.63363 49.58222 43.10792
# Shear Modulus (GPa) = 7.60788 20.06263 13.83526
#
# Velocity S-wave (km/s) = 1.90855 3.09931 2.57374
# Velocity P-wave (km/s) = 4.73248 6.04540 5.42878
#
# Compressibility (1/GPa) = 0.02729732
#
# Stress axis : x y z
#
# Youngs Moduli (GPa) = 59.63191 56.72085 81.11280
#
# Poissons Ratio (x) = 0.00256 0.72466
# Poissons Ratio (y) = 0.00269 0.05974
# Poissons Ratio (z) = 0.53275 0.04177
#
# Static dielectric constant tensor:
#      x y z
#    x 1.708490 0.000000 0.000000 
#    y 0.000000 1.794390 0.000000 
#    z 0.000000 0.000000 1.763000 
# 
# From -- ./inp_files/16653.got.cif
#   From: 2010.05.17/outbox.cif.g08.bks.cpg/sg38_9_cif.got.tgz:16653.got - 2010.06.03 18:07:57.
