data_PCOD9357682
_publ_section_title
;
Structure prediction by ZEFSAII (Michael W. Deem and Ramdas Pophale) SiO2 
 PCOD9357682
Probable space group: A M M 2
;
_chemical_formula_sum "Si O2"
_cell_formula_units_Z 64
_cell_length_a 20.647879
_cell_length_b 7.705440
_cell_length_c 20.763652
_cell_angle_alpha 90.000000
_cell_angle_beta 90.000000
_cell_angle_gamma 90.000000
_cell_volume 3303.517647
_symmetry_space_group_name_H-M "A M M 2"
_symmetry_group_IT_number 38
_symmetry_cell_setting 'orthorhombic'
loop_
_space_group_symop_operation_xyz
x,y,z
-x,-y,z
-x,y,z
x,-y,z
x,1/2+y,1/2+z
-x,1/2-y,1/2+z
-x,1/2+y,1/2+z
x,1/2-y,1/2+z
loop_
_atom_site_type_symbol
_atom_site_label
_atom_site_fract_x
_atom_site_fract_y
_atom_site_fract_z
Si Si1 0.322868 0.796226 0.595240
Si Si2 0.675386 0.204768 0.238573
Si Si3 0.176548 0.210306 0.605101
Si Si4 0.073637 0.711737 0.999931
Si Si5 0.426706 0.292077 0.994404
Si Si6 0.073798 0.787798 0.352752
Si Si7 0.426441 0.792695 0.848221
Si Si8 0.179206 0.793122 0.251358
O O1 0.344449 0.780997 0.669477
O O2 0.249712 0.724577 0.591983
O O3 0.374970 0.721730 0.545504
O O4 0.317137 0.000000 0.579725
O O5 0.623617 0.233220 0.294349
O O6 0.746965 0.274682 0.256977
O O7 0.682263 0.000000 0.227784
O O8 0.125636 0.271739 0.551993
O O9 0.158577 0.261098 0.677769
O O10 0.177861 0.000000 0.603239
O O11 0.074327 0.500000 0.000692
O O12 0.088367 0.763928 0.926420
O O13 0.000000 0.765461 0.015098
O O14 0.500000 0.222957 0.002846
O O15 0.430269 0.500000 0.003212
O O16 0.407000 0.259569 0.920574
O O17 0.127291 0.724407 0.302422
O O18 0.000000 0.734111 0.337311
O O19 0.073856 0.000000 0.351591
O O20 0.500000 0.726491 0.837366
O O21 0.428509 0.000000 0.845853
O O22 0.182246 0.000000 0.261912
#
# Coordination Sequence:
#
# PCOD9357682 Si02
#       8
#     8   8   8   8   8   8   8   8
#     4   9  18  32  49  70  97 128 161 197 238 285
#     4  10  20  33  50  72  99 130 163 201 242 285
#     4   9  17  29  46  67  92 122 154 190 233 280
#     4   8  14  25  42  65  90 116 152 196 235 273
#     4   9  18  33  52  73  97 124 155 193 237 285
#     4   8  14  26  45  68  93 122 158 198 235 273
#     4  10  21  36  53  73  98 127 159 197 240 287
#     4   9  18  31  47  69  96 124 156 195 236 278
#
# _framework density 19.373287999999999
#
# number of rings (size 3 to 8) (size 9 to 14) (size 15 to 20)
#    0.000    3.000    0.000    1.500    0.000    3.750 
#    0.000    5.000    0.000    0.750    0.000    1.750 
#    0.000    0.000    0.000    0.000    0.000    0.000 
#
# Total GULP energy -178423.802288 kJ/mol
# GULP energy per Si atom -5575.743822 kJ/mol
# Density = 1.932919 g / cm^3
# Si number density = 19.373288 Si / 1000 Ang^3
#
#
#
# Elastic Constant Matrix: (Units=GPa)
#
#
# Indices 1 2 3 4 5 6 
#
# 1 124.7263 -3.9553 125.0962 0.0000 0.0000 0.0000
# 2 -3.9553 26.9635 -14.4282 0.0000 0.0000 0.0000
# 3 125.0962 -14.4282 152.9152 0.0000 0.0000 0.0000
# 4 0.0000 0.0000 0.0000 22.1165 0.0000 0.0000
# 5 0.0000 0.0000 0.0000 0.0000 45.1540 0.0000
# 6 0.0000 0.0000 0.0000 0.0000 0.0000 4.8794
#
#
#
# Elastic Compliance Matrix: (Units=1/GPa)
#
#
# Indices 1 2 3 4 5 6 
#
# 1 0.050044 -0.015340 -0.042387 0.000000 0.000000 0.000000
# 2 -0.015340 0.043762 0.016679 0.000000 0.000000 0.000000
# 3 -0.042387 0.016679 0.042789 0.000000 0.000000 0.000000
# 4 0.000000 0.000000 0.000000 0.045215 0.000000 0.000000
# 5 0.000000 0.000000 0.000000 0.000000 0.022146 0.000000
# 6 0.000000 0.000000 0.000000 0.000000 0.000000 0.204942
#
#
# Mechanical properties :
#
#
# Convention : Reuss Voigt Hill
#
# Bulk Modulus (GPa) = 18.34965 57.55894 37.95429
# Shear Modulus (GPa) = 9.82008 27.62281 18.72144
#
# Velocity S-wave (km/s) = 2.25386 3.78010 3.11199
# Velocity P-wave (km/s) = 4.03303 6.98764 5.70493
#
# Compressibility (1/GPa) = 0.05449696
#
# Stress axis : x y z
#
# Youngs Moduli (GPa) = 19.98248 22.85111 23.37044
#
# Poissons Ratio (x) = 0.35054 0.99060
# Poissons Ratio (y) = 0.30654 -0.38979
# Poissons Ratio (z) = 0.84700 -0.38112
#
# Static dielectric constant tensor:
#      x y z
#    x 1.692610 0.000000 0.000000 
#    y 0.000000 1.719540 0.000000 
#    z 0.000000 0.000000 1.639560 
# 
# From -- ./inp_files/18877.got.cif
#   From: 2010.05.17/outbox.cif.g08.bks.cpg/sg38_10_cif.got.tgz:18877.got - 2010.06.03 18:07:57.
