data_PCOD9357694
_publ_section_title
;
Structure prediction by ZEFSAII (Michael W. Deem and Ramdas Pophale) SiO2 
 PCOD9357694
Probable space group: A M M 2
;
_chemical_formula_sum "Si O2"
_cell_formula_units_Z 64
_cell_length_a 7.613620
_cell_length_b 29.361525
_cell_length_c 14.604312
_cell_angle_alpha 90.000000
_cell_angle_beta 90.000000
_cell_angle_gamma 90.000000
_cell_volume 3264.757349
_symmetry_space_group_name_H-M "A M M 2"
_symmetry_group_IT_number 38
_symmetry_cell_setting 'orthorhombic'
loop_
_space_group_symop_operation_xyz
x,y,z
-x,-y,z
-x,y,z
x,-y,z
x,1/2+y,1/2+z
-x,1/2-y,1/2+z
-x,1/2+y,1/2+z
x,1/2-y,1/2+z
loop_
_atom_site_type_symbol
_atom_site_label
_atom_site_fract_x
_atom_site_fract_y
_atom_site_fract_z
Si Si1 0.712140 0.448271 0.586350
Si Si2 0.290317 0.698811 0.085917
Si Si3 0.789188 0.948560 0.571267
Si Si4 0.288808 0.377376 0.225031
Si Si5 0.284450 0.877608 0.933586
Si Si6 0.792386 0.630577 0.724273
Si Si7 0.787805 0.872183 0.431701
Si Si8 0.704707 0.199889 0.067873
O O1 0.500000 0.449464 0.584355
O O2 0.776642 0.500000 0.590198
O O3 0.769590 0.420563 0.495876
O O4 0.763172 0.417274 0.672763
O O5 0.500000 0.701944 0.100874
O O6 0.220904 0.665891 0.166572
O O7 0.218019 0.749953 0.081422
O O8 0.259945 0.671854 0.991554
O O9 0.751285 0.922054 0.665377
O O10 0.723460 0.915953 0.489397
O O11 0.000000 0.950728 0.562285
O O12 0.720775 0.000000 0.569281
O O13 0.500000 0.373567 0.229126
O O14 0.224848 0.379378 0.329040
O O15 0.500000 0.877307 0.934137
O O16 0.222831 0.832379 0.987378
O O17 0.723471 0.629769 0.827723
O O18 0.714272 0.669774 0.659737
O O19 0.000000 0.639207 0.727609
O O20 0.000000 0.874893 0.428832
O O21 0.500000 0.206604 0.044665
#
# Coordination Sequence:
#
# PCOD9357694 Si02
#       8
#     8   8   8   8   8   8   8   8
#     4   9  18  33  51  70  94 127 165 202 243 290
#     4   9  18  31  50  75  98 123 158 199 239 279
#     4   9  18  33  50  67  91 124 158 191 232 284
#     4   9  17  30  48  71  96 120 153 196 237 280
#     4   8  15  29  48  68  93 125 157 189 230 283
#     4  10  20  33  50  73  99 128 162 199 241 288
#     4   9  19  34  50  69  96 129 161 194 236 286
#     4   9  18  33  51  71  97 129 162 197 238 283
#
# _framework density 19.603294999999999
#
# number of rings (size 3 to 8) (size 9 to 14) (size 15 to 20)
#    0.000    3.000    0.000    1.125    0.000    4.000 
#    0.000    7.500    0.000    0.000    0.000    0.000 
#    0.000    0.000    0.000    0.000    0.000    0.000 
#
# Total GULP energy -178442.846776 kJ/mol
# GULP energy per Si atom -5576.338962 kJ/mol
# Density = 1.955868 g / cm^3
# Si number density = 19.603295 Si / 1000 Ang^3
#
#
#
# Elastic Constant Matrix: (Units=GPa)
#
#
# Indices 1 2 3 4 5 6 
#
# 1 35.7829 -9.4476 -16.0975 0.0000 0.0000 0.0000
# 2 -9.4476 179.4288 73.9693 0.0000 0.0000 0.0000
# 3 -16.0975 73.9693 150.3850 0.0000 0.0000 0.0000
# 4 0.0000 0.0000 0.0000 4.8152 0.0000 0.0000
# 5 0.0000 0.0000 0.0000 0.0000 17.5540 0.0000
# 6 0.0000 0.0000 0.0000 0.0000 0.0000 30.4473
#
#
#
# Elastic Compliance Matrix: (Units=1/GPa)
#
#
# Indices 1 2 3 4 5 6 
#
# 1 0.029374 0.000314 0.002990 0.000000 0.000000 0.000000
# 2 0.000314 0.006994 -0.003407 0.000000 0.000000 0.000000
# 3 0.002990 -0.003407 0.008645 0.000000 0.000000 0.000000
# 4 0.000000 0.000000 0.000000 0.207674 0.000000 0.000000
# 5 0.000000 0.000000 0.000000 0.000000 0.056967 0.000000
# 6 0.000000 0.000000 0.000000 0.000000 0.000000 0.032844
#
#
# Mechanical properties :
#
#
# Convention : Reuss Voigt Hill
#
# Bulk Modulus (GPa) = 22.31733 51.38280 36.85006
# Shear Modulus (GPa) = 13.98055 31.70813 22.84434
#
# Velocity S-wave (km/s) = 2.67343 4.02617 3.41740
# Velocity P-wave (km/s) = 4.57589 6.91965 5.86602
#
# Compressibility (1/GPa) = 0.04480824
#
# Stress axis : x y z
#
# Youngs Moduli (GPa) = 34.04346 142.97706 115.67123
#
# Poissons Ratio (x) = -0.04492 -0.34583
# Poissons Ratio (y) = -0.01069 0.39404
# Poissons Ratio (z) = -0.10178 0.48706
#
# Static dielectric constant tensor:
#      x y z
#    x 1.741250 0.000000 0.000000 
#    y 0.000000 1.679270 0.000000 
#    z 0.000000 0.000000 1.664440 
# 
# From -- ./inp_files/13095.got.cif
#   From: 2010.05.17/outbox.cif.g08.bks.cpg/sg38_7_cif.got.tgz:13095.got - 2010.06.03 18:07:57.
