data_PCOD9357707
_publ_section_title
;
Structure prediction by ZEFSAII (Michael W. Deem and Ramdas Pophale) SiO2 
 PCOD9357707
Probable space group: A M M 2
;
_chemical_formula_sum "Si O2"
_cell_formula_units_Z 44
_cell_length_a 7.360208
_cell_length_b 14.452229
_cell_length_c 21.761674
_cell_angle_alpha 90.000000
_cell_angle_beta 90.000000
_cell_angle_gamma 90.000000
_cell_volume 2314.819980
_symmetry_space_group_name_H-M "A M M 2"
_symmetry_group_IT_number 38
_symmetry_cell_setting 'orthorhombic'
loop_
_space_group_symop_operation_xyz
x,y,z
-x,-y,z
-x,y,z
x,-y,z
x,1/2+y,1/2+z
-x,1/2-y,1/2+z
-x,1/2+y,1/2+z
x,1/2-y,1/2+z
loop_
_atom_site_type_symbol
_atom_site_label
_atom_site_fract_x
_atom_site_fract_y
_atom_site_fract_z
Si Si1 0.716655 0.395053 0.774730
Si Si2 0.000000 0.391629 0.095323
Si Si3 0.280279 0.205840 0.825561
Si Si4 0.718178 0.609423 0.451670
Si Si5 0.710183 0.609777 0.200518
Si Si6 0.000000 0.392145 0.667971
Si Si7 0.000000 0.794114 0.038603
O O1 0.500000 0.389590 0.763983
O O2 0.759888 0.500000 0.794587
O O3 0.766335 0.314245 0.822264
O O4 0.826401 0.377579 0.712041
O O5 0.171770 0.374410 0.140097
O O6 0.000000 0.316926 0.041459
O O7 0.000000 0.500000 0.077276
O O8 0.500000 0.198278 0.825170
O O9 0.222162 0.151626 0.886009
O O10 0.219725 0.161186 0.761241
O O11 0.500000 0.620509 0.457651
O O12 0.757958 0.500000 0.454114
O O13 0.826287 0.663642 0.503973
O O14 0.500000 0.636096 0.190441
O O15 0.717126 0.500000 0.213496
O O16 0.000000 0.328858 0.608735
O O17 0.000000 0.500000 0.648619
#
# Coordination Sequence:
#
# PCOD9357707 Si02
#       7
#     8   4   8   8   8   4   4
#     4   9  18  32  51  77 107 135 166 210 262 316
#     4  10  22  37  53  78 109 140 179 223 262 311
#     4   9  17  32  54  79 106 135 168 210 265 321
#     4  10  22  39  57  79 107 138 176 223 269 314
#     4   9  17  31  54  82 108 133 164 211 272 327
#     4  10  20  33  50  75 104 136 176 216 258 308
#     4  12  24  38  55  75 105 146 189 223 258 307
#
# _framework density 19.007957999999999
#
# number of rings (size 3 to 8) (size 9 to 14) (size 15 to 20)
#    0.000    2.364    0.000    2.455    0.000    5.091 
#    0.000    4.545    0.000    1.091    0.000    0.000 
#    0.000    0.000    0.000    0.000    0.000    0.000 
#
# Total GULP energy -122800.615714 kJ/mol
# GULP energy per Si atom -5581.846169 kJ/mol
# Density = 1.896469 g / cm^3
# Si number density = 19.007958 Si / 1000 Ang^3
#
#
#
# Elastic Constant Matrix: (Units=GPa)
#
#
# Indices 1 2 3 4 5 6 
#
# 1 84.3698 46.3919 27.1579 0.0000 0.0000 0.0000
# 2 46.3919 140.7169 78.3466 0.0000 0.0000 0.0000
# 3 27.1579 78.3466 59.8040 0.0000 0.0000 0.0000
# 4 0.0000 0.0000 0.0000 36.8492 0.0000 0.0000
# 5 0.0000 0.0000 0.0000 0.0000 13.2290 0.0000
# 6 0.0000 0.0000 0.0000 0.0000 0.0000 15.3317
#
#
#
# Elastic Compliance Matrix: (Units=1/GPa)
#
#
# Indices 1 2 3 4 5 6 
#
# 1 0.014500 -0.004118 -0.001190 0.000000 0.000000 0.000000
# 2 -0.004118 0.027431 -0.034066 0.000000 0.000000 0.000000
# 3 -0.001190 -0.034066 0.061891 0.000000 0.000000 0.000000
# 4 0.000000 0.000000 0.000000 0.027138 0.000000 0.000000
# 5 0.000000 0.000000 0.000000 0.000000 0.075592 0.000000
# 6 0.000000 0.000000 0.000000 0.000000 0.000000 0.065224
#
#
# Mechanical properties :
#
#
# Convention : Reuss Voigt Hill
#
# Bulk Modulus (GPa) = 39.88339 65.40927 52.64633
# Shear Modulus (GPa) = 13.93220 21.94828 17.94024
#
# Velocity S-wave (km/s) = 2.71027 3.40176 3.07551
# Velocity P-wave (km/s) = 5.55177 7.06509 6.35365
#
# Compressibility (1/GPa) = 0.02507309
#
# Stress axis : x y z
#
# Youngs Moduli (GPa) = 68.96614 36.45514 16.15756
#
# Poissons Ratio (x) = 0.15011 0.01923
# Poissons Ratio (y) = 0.28398 0.55043
# Poissons Ratio (z) = 0.08208 1.24189
#
# Static dielectric constant tensor:
#      x y z
#    x 1.713390 0.000000 0.000000 
#    y 0.000000 1.683340 0.000000 
#    z 0.000000 0.000000 1.611170 
# 
# From -- ./inp_files/16566.got.cif
#   From: 2010.05.17/outbox.cif.g08.bks.cpg/sg38_9_cif.got.tgz:16566.got - 2010.06.03 18:07:57.
