data_PCOD9357844
_publ_section_title
;
Structure prediction by ZEFSAII (Michael W. Deem and Ramdas Pophale) SiO2 
 PCOD9357844
Probable space group: A M M 2
;
_chemical_formula_sum "Si O2"
_cell_formula_units_Z 64
_cell_length_a 33.729618
_cell_length_b 11.544797
_cell_length_c 8.555256
_cell_angle_alpha 90.000000
_cell_angle_beta 90.000000
_cell_angle_gamma 90.000000
_cell_volume 3331.430312
_symmetry_space_group_name_H-M "A M M 2"
_symmetry_group_IT_number 38
_symmetry_cell_setting 'orthorhombic'
loop_
_space_group_symop_operation_xyz
x,y,z
-x,-y,z
-x,y,z
x,-y,z
x,1/2+y,1/2+z
-x,1/2-y,1/2+z
-x,1/2+y,1/2+z
x,1/2-y,1/2+z
loop_
_atom_site_type_symbol
_atom_site_label
_atom_site_fract_x
_atom_site_fract_y
_atom_site_fract_z
Si Si1 0.596742 0.794890 0.545070
Si Si2 0.648514 0.868136 0.261904
Si Si3 0.046604 0.129790 0.253797
Si Si4 0.164609 0.373165 0.284617
Si Si5 0.213035 0.203500 0.077081
Si Si6 0.924910 0.367682 0.406922
Si Si7 0.264318 0.368212 0.864216
Si Si8 0.454245 0.869735 0.830632
O O1 0.620602 0.864995 0.414667
O O2 0.628137 0.713384 0.634730
O O3 0.572553 0.863594 0.675735
O O4 0.564993 0.716642 0.453776
O O5 0.692193 0.826957 0.311949
O O6 0.652046 0.000000 0.203770
O O7 0.054326 0.249020 0.347626
O O8 0.000000 0.129767 0.211954
O O9 0.054482 0.000000 0.326688
O O10 0.071655 0.135026 0.094313
O O11 0.168617 0.500000 0.210871
O O12 0.178890 0.277100 0.163483
O O13 0.192940 0.365431 0.436092
O O14 0.119843 0.359381 0.343921
O O15 0.235902 0.135757 0.212538
O O16 0.244444 0.289520 0.995682
O O17 0.939562 0.500000 0.361663
O O18 0.268312 0.500000 0.920210
O O19 0.500000 0.840470 0.796043
O O20 0.453031 0.000000 0.894058
#
# Coordination Sequence:
#
# PCOD9357844 Si02
#       8
#     8   8   8   8   8   8   8   8
#     4  10  20  34  52  74 100 131 166 205 250 298
#     4  10  20  34  52  74 101 132 167 207 250 298
#     4  10  21  37  56  80 110 142 178 221 267 316
#     4  10  20  35  54  77 105 136 172 214 258 306
#     4  10  20  34  53  76 103 135 170 209 255 304
#     4  10  21  37  57  81 109 142 180 221 266 317
#     4  10  20  34  52  75 102 133 169 208 251 300
#     4  10  20  34  52  74 100 130 165 205 249 298
#
# _framework density 19.210967
#
# number of rings (size 3 to 8) (size 9 to 14) (size 15 to 20)
#    0.000    2.000    0.000    3.750    0.000    1.250 
#    0.000    3.125    0.000   18.000    0.000    0.000 
#    0.000    0.000    0.000    0.000    0.000    0.000 
#
# Total GULP energy -178458.414895 kJ/mol
# GULP energy per Si atom -5576.825465 kJ/mol
# Density = 1.916724 g / cm^3
# Si number density = 19.210967 Si / 1000 Ang^3
#
#
#
# Elastic Constant Matrix: (Units=GPa)
#
#
# Indices 1 2 3 4 5 6 
#
# 1 47.2839 12.1611 -18.4338 0.0000 0.0000 0.0000
# 2 12.1611 91.5785 13.6192 0.0000 0.0000 0.0000
# 3 -18.4338 13.6192 29.2293 0.0000 0.0000 0.0000
# 4 0.0000 0.0000 0.0000 5.5439 0.0000 0.0000
# 5 0.0000 0.0000 0.0000 0.0000 23.1165 0.0000
# 6 0.0000 0.0000 0.0000 0.0000 0.0000 14.1087
#
#
#
# Elastic Compliance Matrix: (Units=1/GPa)
#
#
# Indices 1 2 3 4 5 6 
#
# 1 0.032673 -0.007954 0.024312 0.000000 0.000000 0.000000
# 2 -0.007954 0.013669 -0.011386 0.000000 0.000000 0.000000
# 3 0.024312 -0.011386 0.054850 0.000000 0.000000 0.000000
# 4 0.000000 0.000000 0.000000 0.180379 0.000000 0.000000
# 5 0.000000 0.000000 0.000000 0.000000 0.043259 0.000000
# 6 0.000000 0.000000 0.000000 0.000000 0.000000 0.070878
#
#
# Mechanical properties :
#
#
# Convention : Reuss Voigt Hill
#
# Bulk Modulus (GPa) = 8.99806 20.30942 14.65374
# Shear Modulus (GPa) = 11.82568 19.27017 15.54792
#
# Velocity S-wave (km/s) = 2.48376 3.17058 2.84795
# Velocity P-wave (km/s) = 3.59436 4.89879 4.29637
#
# Compressibility (1/GPa) = 0.11113501
#
# Stress axis : x y z
#
# Youngs Moduli (GPa) = 30.60671 73.15772 18.23163
#
# Poissons Ratio (x) = 0.58192 -0.44324
# Poissons Ratio (y) = 0.24345 0.20758
# Poissons Ratio (z) = -0.74410 0.83294
#
# Static dielectric constant tensor:
#      x y z
#    x 1.656820 0.000000 0.000000 
#    y 0.000000 1.670520 0.000000 
#    z 0.000000 0.000000 1.632300 
# 
# From -- ./inp_files/7046.got.cif
#   From: 2010.05.17/outbox.cif.g08.bks.cpg/sg38_4_cif.got.tgz:7046.got - 2010.06.03 18:07:57.
