data_PCOD9357112
_publ_section_title
;
Structure prediction by ZEFSAII (Michael W. Deem and Ramdas Pophale) SiO2 
 PCOD9357112
Probable space group: A M M 2
;
_chemical_formula_sum "Si O2"
_cell_formula_units_Z 64
_cell_length_a 20.261077
_cell_length_b 8.830221
_cell_length_c 20.660812
_cell_angle_alpha 90.000000
_cell_angle_beta 90.000000
_cell_angle_gamma 90.000000
_cell_volume 3696.421487
_symmetry_space_group_name_H-M "A M M 2"
_symmetry_group_IT_number 38
_symmetry_cell_setting 'orthorhombic'
loop_
_space_group_symop_operation_xyz
x,y,z
-x,-y,z
-x,y,z
x,-y,z
x,1/2+y,1/2+z
-x,1/2-y,1/2+z
-x,1/2+y,1/2+z
x,1/2-y,1/2+z
loop_
_atom_site_type_symbol
_atom_site_label
_atom_site_fract_x
_atom_site_fract_y
_atom_site_fract_z
Si Si1 0.175948 0.318333 0.044060
Si Si2 0.813097 0.181380 0.690820
Si Si3 0.923270 0.680874 0.439501
Si Si4 0.316750 0.682511 0.503698
Si Si5 0.424845 0.682564 0.607806
Si Si6 0.155246 0.319910 0.824322
Si Si7 0.296933 0.818126 0.858191
Si Si8 0.339923 0.180797 0.719381
O O1 0.176168 0.500000 0.038680
O O2 0.162885 0.278282 0.119154
O O3 0.248211 0.256747 0.025574
O O4 0.122734 0.249752 0.995328
O O5 0.848318 0.263221 0.750393
O O6 0.734700 0.217155 0.695710
O O7 0.819019 0.000000 0.699706
O O8 0.914742 0.500000 0.438527
O O9 0.898789 0.747553 0.371290
O O10 0.000000 0.716139 0.450535
O O11 0.310120 0.500000 0.509388
O O12 0.376364 0.732570 0.549836
O O13 0.327092 0.717279 0.427923
O O14 0.500000 0.736193 0.600546
O O15 0.425535 0.500000 0.607075
O O16 0.392359 0.737416 0.674485
O O17 0.152293 0.500000 0.827424
O O18 0.226429 0.262478 0.850361
O O19 0.340377 0.778728 0.795415
O O20 0.285052 0.000000 0.854942
O O21 0.348555 0.000000 0.713233
#
# Coordination Sequence:
#
# PCOD9357112 Si02
#       8
#     8   8   8   8   8   8   8   8
#     4  11  21  35  58  87 114 143 185 237 281 328
#     4   9  19  35  55  81 114 144 178 228 280 330
#     4  11  24  41  59  80 113 155 190 225 279 340
#     4  10  19  33  55  79 108 148 186 227 280 335
#     4  10  21  35  51  76 110 147 188 233 283 337
#     4  11  21  33  55  85 112 142 183 230 275 326
#     4   9  18  33  53  78 108 140 177 227 280 327
#     4   9  17  32  52  76 105 138 181 225 272 331
#
# _framework density 17.314042000000001
#
# number of rings (size 3 to 8) (size 9 to 14) (size 15 to 20)
#    0.000    2.000    2.500    2.625    0.000    4.250 
#    0.000    1.250    0.000    3.000    0.000    0.000 
#    0.000    0.000    0.000    0.000    0.000    0.000 
#
# Total GULP energy -178588.830425 kJ/mol
# GULP energy per Si atom -5580.900951 kJ/mol
# Density = 1.727463 g / cm^3
# Si number density = 17.314042 Si / 1000 Ang^3
#
#
#
# Elastic Constant Matrix: (Units=GPa)
#
#
# Indices 1 2 3 4 5 6 
#
# 1 113.6249 45.4300 84.4748 0.0000 0.0000 0.0000
# 2 45.4300 35.8919 50.1598 0.0000 0.0000 0.0000
# 3 84.4748 50.1598 163.5182 0.0000 0.0000 0.0000
# 4 0.0000 0.0000 0.0000 29.6357 0.0000 0.0000
# 5 0.0000 0.0000 0.0000 0.0000 23.4797 0.0000
# 6 0.0000 0.0000 0.0000 0.0000 0.0000 17.8453
#
#
#
# Elastic Compliance Matrix: (Units=1/GPa)
#
#
# Indices 1 2 3 4 5 6 
#
# 1 0.019452 -0.018515 -0.004370 0.000000 0.000000 0.000000
# 2 -0.018515 0.066391 -0.010801 0.000000 0.000000 0.000000
# 3 -0.004370 -0.010801 0.011686 0.000000 0.000000 0.000000
# 4 0.000000 0.000000 0.000000 0.033743 0.000000 0.000000
# 5 0.000000 0.000000 0.000000 0.000000 0.042590 0.000000
# 6 0.000000 0.000000 0.000000 0.000000 0.000000 0.056037
#
#
# Mechanical properties :
#
#
# Convention : Reuss Voigt Hill
#
# Bulk Modulus (GPa) = 33.15797 74.79602 53.97700
# Shear Modulus (GPa) = 16.26954 23.05683 19.66319
#
# Velocity S-wave (km/s) = 3.06873 3.65318 3.37364
# Velocity P-wave (km/s) = 5.63460 7.81587 6.81309
#
# Compressibility (1/GPa) = 0.03015866
#
# Stress axis : x y z
#
# Youngs Moduli (GPa) = 51.40788 15.06233 85.57191
#
# Poissons Ratio (x) = 0.27888 0.37392
# Poissons Ratio (y) = 0.95181 0.92423
# Poissons Ratio (z) = 0.22464 0.16268
#
# Static dielectric constant tensor:
#      x y z
#    x 1.557700 0.000000 0.000000 
#    y 0.000000 1.583230 0.000000 
#    z 0.000000 0.000000 1.601900 
# 
# From -- ./inp_files/21413.got.cif
#   From: 2010.05.17/outbox.cif.g08.bks.cpg/sg38_11_cif.got.tgz:21413.got - 2010.06.03 18:07:57.
