data_PCOD9357405
_publ_section_title
;
Structure prediction by ZEFSAII (Michael W. Deem and Ramdas Pophale) SiO2 
 PCOD9357405
Probable space group: A M M 2
;
_chemical_formula_sum "Si O2"
_cell_formula_units_Z 64
_cell_length_a 17.660195
_cell_length_b 15.113741
_cell_length_c 11.986146
_cell_angle_alpha 90.000000
_cell_angle_beta 90.000000
_cell_angle_gamma 90.000000
_cell_volume 3199.241565
_symmetry_space_group_name_H-M "A M M 2"
_symmetry_group_IT_number 38
_symmetry_cell_setting 'orthorhombic'
loop_
_space_group_symop_operation_xyz
x,y,z
-x,-y,z
-x,y,z
x,-y,z
x,1/2+y,1/2+z
-x,1/2-y,1/2+z
-x,1/2+y,1/2+z
x,1/2-y,1/2+z
loop_
_atom_site_type_symbol
_atom_site_label
_atom_site_fract_x
_atom_site_fract_y
_atom_site_fract_z
Si Si1 0.739808 0.603226 0.561930
Si Si2 0.088378 0.098992 0.506011
Si Si3 0.417386 0.104326 0.942966
Si Si4 0.189210 0.601223 0.227344
Si Si5 0.584038 0.901358 0.485765
Si Si6 0.305041 0.844393 0.301794
Si Si7 0.170505 0.763054 0.915735
Si Si8 0.362052 0.831872 0.711083
O O1 0.754359 0.500000 0.530311
O O2 0.659989 0.633017 0.504544
O O3 0.730881 0.607847 0.695223
O O4 0.801617 0.673890 0.517558
O O5 0.142344 0.104020 0.613588
O O6 0.108221 0.188342 0.439316
O O7 0.000000 0.100623 0.536501
O O8 0.102550 0.000000 0.454173
O O9 0.500000 0.142750 0.974941
O O10 0.404963 0.118430 0.810898
O O11 0.420557 0.000000 0.966371
O O12 0.189737 0.500000 0.267981
O O13 0.153740 0.668061 0.316755
O O14 0.275891 0.631118 0.207527
O O15 0.500000 0.883319 0.441970
O O16 0.644256 0.897856 0.387404
O O17 0.603423 0.839878 0.589341
O O18 0.585469 0.000000 0.534803
O O19 0.241654 0.794694 0.373823
O O20 0.357652 0.768682 0.249684
#
# Coordination Sequence:
#
# PCOD9357405 Si02
#       8
#     8   8   8   8   8   8   8   8
#     4  11  22  39  61  88 123 162 208 259 310 374
#     4  10  23  42  64  93 127 163 200 244 306 375
#     4  10  20  35  57  85 118 160 208 260 316 367
#     4  10  19  35  64  93 122 154 195 252 307 364
#     4  11  24  39  54  75 109 154 202 254 313 370
#     4  11  23  38  55  85 116 153 201 254 305 364
#     4  11  21  39  63  93 120 155 205 249 303 363
#     4  11  21  36  60  86 115 151 206 258 311 366
#
# _framework density 20.004742
#
# number of rings (size 3 to 8) (size 9 to 14) (size 15 to 20)
#    0.000    1.375    2.500    5.250    0.000    5.000 
#    0.000    1.250    0.000    1.125    0.000    0.000 
#    0.000    0.000    0.000    0.000    0.000    0.000 
#
# Total GULP energy -178607.829751 kJ/mol
# GULP energy per Si atom -5581.494680 kJ/mol
# Density = 1.995921 g / cm^3
# Si number density = 20.004742 Si / 1000 Ang^3
#
#
#
# Elastic Constant Matrix: (Units=GPa)
#
#
# Indices 1 2 3 4 5 6 
#
# 1 33.8757 15.6267 -5.9913 0.0000 0.0000 0.0000
# 2 15.6267 87.6583 2.0690 0.0000 0.0000 0.0000
# 3 -5.9913 2.0690 44.1306 0.0000 0.0000 0.0000
# 4 0.0000 0.0000 0.0000 -7.9742 0.0000 0.0000
# 5 0.0000 0.0000 0.0000 0.0000 5.5073 0.0000
# 6 0.0000 0.0000 0.0000 0.0000 0.0000 22.4747
#
#
#
# Elastic Compliance Matrix: (Units=1/GPa)
#
#
# Indices 1 2 3 4 5 6 
#
# 1 0.033143 -0.006021 0.004782 0.000000 0.000000 0.000000
# 2 -0.006021 0.012514 -0.001404 0.000000 0.000000 0.000000
# 3 0.004782 -0.001404 0.023375 0.000000 0.000000 0.000000
# 4 0.000000 0.000000 0.000000 -0.125404 0.000000 0.000000
# 5 0.000000 0.000000 0.000000 0.000000 0.181576 0.000000
# 6 0.000000 0.000000 0.000000 0.000000 0.000000 0.044495
#
#
# Mechanical properties :
#
#
# Convention : Reuss Voigt Hill
#
# Bulk Modulus (GPa) = 15.68736 21.00813 18.34775
# Shear Modulus (GPa) = 25.47971 14.26556 19.87264
#
# Velocity S-wave (km/s) = 3.57274 2.67331 3.15524
# Velocity P-wave (km/s) = 4.98780 4.47807 4.73979
#
# Compressibility (1/GPa) = 0.06374558
#
# Stress axis : x y z
#
# Youngs Moduli (GPa) = 30.17226 79.90746 42.78064
#
# Poissons Ratio (x) = 0.48114 -0.20457
# Poissons Ratio (y) = 0.18167 0.06007
# Poissons Ratio (z) = -0.14428 0.11220
#
# Static dielectric constant tensor:
#      x y z
#    x 1.704080 0.000000 0.000000 
#    y 0.000000 1.752170 0.000000 
#    z 0.000000 0.000000 1.707130 
# 
# From -- ./inp_files/10603.got.cif
#   From: 2010.05.17/outbox.cif.g08.bks.cpg/sg38_6_cif.got.tgz:10603.got - 2010.06.03 18:07:57.
