data_PCOD9357992
_publ_section_title
;
Structure prediction by ZEFSAII (Michael W. Deem and Ramdas Pophale) SiO2 
 PCOD9357992
Probable space group: A M M 2
;
_chemical_formula_sum "Si O2"
_cell_formula_units_Z 56
_cell_length_a 22.024986
_cell_length_b 7.937483
_cell_length_c 15.886002
_cell_angle_alpha 90.000000
_cell_angle_beta 90.000000
_cell_angle_gamma 90.000000
_cell_volume 2777.237764
_symmetry_space_group_name_H-M "A M M 2"
_symmetry_group_IT_number 38
_symmetry_cell_setting 'orthorhombic'
loop_
_space_group_symop_operation_xyz
x,y,z
-x,-y,z
-x,y,z
x,-y,z
x,1/2+y,1/2+z
-x,1/2-y,1/2+z
-x,1/2+y,1/2+z
x,1/2-y,1/2+z
loop_
_atom_site_type_symbol
_atom_site_label
_atom_site_fract_x
_atom_site_fract_y
_atom_site_fract_z
Si Si1 0.152402 0.701774 0.563660
Si Si2 0.500000 0.807185 0.134728
Si Si3 0.930245 0.705750 0.716661
Si Si4 0.709494 0.295585 0.556462
Si Si5 0.367054 0.300757 0.397941
Si Si6 0.374031 0.798281 0.712637
Si Si7 0.069477 0.203433 0.407594
Si Si8 0.500000 0.191982 0.448599
O O1 0.156106 0.500000 0.573310
O O2 0.115035 0.766919 0.644472
O O3 0.221231 0.765573 0.558375
O O4 0.114985 0.737061 0.479063
O O5 0.560371 0.773408 0.187509
O O6 0.500000 0.000000 0.105359
O O7 0.500000 0.698312 0.049979
O O8 0.929602 0.500000 0.715818
O O9 0.914677 0.757828 0.812201
O O10 0.000000 0.756388 0.699261
O O11 0.709769 0.500000 0.553167
O O12 0.672895 0.230991 0.474649
O O13 0.673204 0.245986 0.639890
O O14 0.354641 0.500000 0.395704
O O15 0.354547 0.233370 0.304559
O O16 0.438090 0.276022 0.417563
O O17 0.380271 0.000000 0.716770
O O18 0.000000 0.258883 0.425098
O O19 0.069470 0.000000 0.407921
O O20 0.500000 0.000000 0.418981
#
# Coordination Sequence:
#
# PCOD9357992 Si02
#       8
#     8   4   8   8   8   8   8   4
#     4  10  20  34  55  81 108 144 191 229 270 328
#     4  12  23  38  61  86 116 146 173 227 298 337
#     4   8  15  30  52  77 107 142 179 224 277 330
#     4  10  22  39  56  78 112 153 187 226 282 335
#     4  10  22  40  59  80 114 153 182 226 293 337
#     4  11  23  39  60  85 110 145 193 233 274 337
#     4   9  18  33  53  78 108 142 179 223 282 338
#     4  12  23  36  61  92 114 140 189 235 270 333
#
# _framework density 20.163920000000001
#
# number of rings (size 3 to 8) (size 9 to 14) (size 15 to 20)
#    0.000    2.000    1.429    3.429    0.000    5.429 
#    0.000    0.714    0.000    0.857    0.000    0.000 
#    0.000    0.000    0.000    0.000    0.000    0.000 
#
# Total GULP energy -156394.292601 kJ/mol
# GULP energy per Si atom -5585.510450 kJ/mol
# Density = 2.011803 g / cm^3
# Si number density = 20.163920 Si / 1000 Ang^3
#
#
#
# Elastic Constant Matrix: (Units=GPa)
#
#
# Indices 1 2 3 4 5 6 
#
# 1 166.5041 -0.4081 117.8101 0.0000 0.0000 0.0000
# 2 -0.4081 20.9592 -2.9371 0.0000 0.0000 0.0000
# 3 117.8101 -2.9371 191.5090 0.0000 0.0000 0.0000
# 4 0.0000 0.0000 0.0000 20.5309 0.0000 0.0000
# 5 0.0000 0.0000 0.0000 0.0000 7.5016 0.0000
# 6 0.0000 0.0000 0.0000 0.0000 0.0000 42.2444
#
#
#
# Elastic Compliance Matrix: (Units=1/GPa)
#
#
# Indices 1 2 3 4 5 6 
#
# 1 0.010645 -0.000712 -0.006560 0.000000 0.000000 0.000000
# 2 -0.000712 0.047862 0.001172 0.000000 0.000000 0.000000
# 3 -0.006560 0.001172 0.009275 0.000000 0.000000 0.000000
# 4 0.000000 0.000000 0.000000 0.048707 0.000000 0.000000
# 5 0.000000 0.000000 0.000000 0.000000 0.133304 0.000000
# 6 0.000000 0.000000 0.000000 0.000000 0.000000 0.023672
#
#
# Mechanical properties :
#
#
# Convention : Reuss Voigt Hill
#
# Bulk Modulus (GPa) = 17.99100 67.54467 42.76783
# Shear Modulus (GPa) = 16.43698 31.68922 24.06310
#
# Velocity S-wave (km/s) = 2.85821 3.96862 3.45827
# Velocity P-wave (km/s) = 4.45357 7.38718 6.09937
#
# Compressibility (1/GPa) = 0.05558335
#
# Stress axis : x y z
#
# Youngs Moduli (GPa) = 93.93761 20.89335 107.81768
#
# Poissons Ratio (x) = 0.01487 0.70724
# Poissons Ratio (y) = 0.06688 -0.12636
# Poissons Ratio (z) = 0.61619 -0.02449
#
# Static dielectric constant tensor:
#      x y z
#    x 1.671140 0.000000 0.000000 
#    y 0.000000 1.729740 0.000000 
#    z 0.000000 0.000000 1.712480 
# 
# From -- ./inp_files/15520.got.cif
#   From: 2010.05.17/outbox.cif.g08.bks.cpg/sg38_8_cif.got.tgz:15520.got - 2010.06.03 18:07:57.
