data_PCOD9357611
_publ_section_title
;
Structure prediction by ZEFSAII (Michael W. Deem and Ramdas Pophale) SiO2 
 PCOD9357611
Probable space group: A M M 2
;
_chemical_formula_sum "Si O2"
_cell_formula_units_Z 56
_cell_length_a 14.770286
_cell_length_b 7.443054
_cell_length_c 22.084022
_cell_angle_alpha 90.000000
_cell_angle_beta 90.000000
_cell_angle_gamma 90.000000
_cell_volume 2427.829844
_symmetry_space_group_name_H-M "A M M 2"
_symmetry_group_IT_number 38
_symmetry_cell_setting 'orthorhombic'
loop_
_space_group_symop_operation_xyz
x,y,z
-x,-y,z
-x,y,z
x,-y,z
x,1/2+y,1/2+z
-x,1/2-y,1/2+z
-x,1/2+y,1/2+z
x,1/2-y,1/2+z
loop_
_atom_site_type_symbol
_atom_site_label
_atom_site_fract_x
_atom_site_fract_y
_atom_site_fract_z
Si Si1 0.899091 0.705702 0.799470
Si Si2 0.710648 0.279352 0.840938
Si Si3 0.395740 0.284173 0.589978
Si Si4 0.720011 0.287335 0.971063
Si Si5 0.896277 0.279567 0.032499
Si Si6 0.393865 0.718258 0.722161
Si Si7 0.890260 0.294933 0.165037
O O1 0.907071 0.500000 0.819750
O O2 0.814594 0.782960 0.834807
O O3 0.870133 0.703367 0.728584
O O4 0.000000 0.786756 0.803722
O O5 0.708649 0.500000 0.837719
O O6 0.678713 0.222134 0.907642
O O7 0.656589 0.216413 0.782010
O O8 0.500000 0.222145 0.584348
O O9 0.397883 0.500000 0.592698
O O10 0.339513 0.236964 0.530818
O O11 0.359144 0.222116 0.655793
O O12 0.730690 0.500000 0.963023
O O13 0.821045 0.218540 0.985337
O O14 0.897418 0.500000 0.034590
O O15 0.863831 0.219925 0.099703
O O16 0.000000 0.223852 0.021222
O O17 0.500000 0.764450 0.725115
O O18 0.388394 0.500000 0.722716
O O19 0.858912 0.500000 0.170081
O O20 0.000000 0.296619 0.161276
#
# Coordination Sequence:
#
# PCOD9357611 Si02
#       7
#     8   8   8   8   8   8   8
#     4   9  17  28  43  67  98 127 158 200 244 281
#     4   9  18  30  45  71 103 130 159 197 242 290
#     4   9  19  36  56  75  97 130 167 202 250 310
#     4  10  20  32  50  78 105 131 168 210 250 291
#     4   8  15  28  45  67  99 136 169 201 242 295
#     4   8  15  30  51  71  92 124 163 196 234 293
#     4   8  14  26  43  62  86 121 164 202 237 282
#
# _framework density 23.065866
#
# number of rings (size 3 to 8) (size 9 to 14) (size 15 to 20)
#    0.000    3.286    0.000    1.714    2.000    1.429 
#    0.000    5.000    0.000    1.286    0.000    0.000 
#    0.000    0.000    0.000    0.000    0.000    0.000 
#
# Total GULP energy -156165.914393 kJ/mol
# GULP energy per Si atom -5577.354085 kJ/mol
# Density = 2.301337 g / cm^3
# Si number density = 23.065866 Si / 1000 Ang^3
#
#
#
# Elastic Constant Matrix: (Units=GPa)
#
#
# Indices 1 2 3 4 5 6 
#
# 1 78.3836 -2.2110 84.6549 0.0000 0.0000 0.0000
# 2 -2.2110 65.6482 -2.2071 0.0000 0.0000 0.0000
# 3 84.6549 -2.2071 199.7398 0.0000 0.0000 0.0000
# 4 0.0000 0.0000 0.0000 14.2835 0.0000 0.0000
# 5 0.0000 0.0000 0.0000 0.0000 13.2654 0.0000
# 6 0.0000 0.0000 0.0000 0.0000 0.0000 1.4273
#
#
#
# Elastic Compliance Matrix: (Units=1/GPa)
#
#
# Indices 1 2 3 4 5 6 
#
# 1 0.023541 0.000458 -0.009972 0.000000 0.000000 0.000000
# 2 0.000458 0.015247 -0.000025 0.000000 0.000000 0.000000
# 3 -0.009972 -0.000025 0.009233 0.000000 0.000000 0.000000
# 4 0.000000 0.000000 0.000000 0.070011 0.000000 0.000000
# 5 0.000000 0.000000 0.000000 0.000000 0.075384 0.000000
# 6 0.000000 0.000000 0.000000 0.000000 0.000000 0.700626
#
#
# Mechanical properties :
#
#
# Convention : Reuss Voigt Hill
#
# Bulk Modulus (GPa) = 34.55348 56.02726 45.29037
# Shear Modulus (GPa) = 5.41848 23.36424 14.39136
#
# Velocity S-wave (km/s) = 1.53435 3.18612 2.50056
# Velocity P-wave (km/s) = 4.26050 6.15451 5.29291
#
# Compressibility (1/GPa) = 0.02894065
#
# Stress axis : x y z
#
# Youngs Moduli (GPa) = 42.47983 65.58555 108.31129
#
# Poissons Ratio (x) = -0.03001 1.08009
# Poissons Ratio (y) = -0.01944 0.00276
# Poissons Ratio (z) = 0.42361 0.00167
#
# Static dielectric constant tensor:
#      x y z
#    x 1.852550 0.000000 0.000000 
#    y 0.000000 1.879590 0.000000 
#    z 0.000000 0.000000 1.888750 
# 
# From -- ./inp_files/21064.got.cif
#   From: 2010.05.17/outbox.cif.g08.bks.cpg/sg38_11_cif.got.tgz:21064.got - 2010.06.03 18:07:57.
