data_PCOD9357300
_publ_section_title
;
Structure prediction by ZEFSAII (Michael W. Deem and Ramdas Pophale) SiO2 
 PCOD9357300
Probable space group: A M M 2
;
_chemical_formula_sum "Si O2"
_cell_formula_units_Z 58
_cell_length_a 9.775368
_cell_length_b 21.730538
_cell_length_c 13.197284
_cell_angle_alpha 90.000000
_cell_angle_beta 90.000000
_cell_angle_gamma 90.000000
_cell_volume 2803.419933
_symmetry_space_group_name_H-M "A M M 2"
_symmetry_group_IT_number 38
_symmetry_cell_setting 'orthorhombic'
loop_
_space_group_symop_operation_xyz
x,y,z
-x,-y,z
-x,y,z
x,-y,z
x,1/2+y,1/2+z
-x,1/2-y,1/2+z
-x,1/2+y,1/2+z
x,1/2-y,1/2+z
loop_
_atom_site_type_symbol
_atom_site_label
_atom_site_fract_x
_atom_site_fract_y
_atom_site_fract_z
Si Si1 0.000000 0.000000 0.618160
Si Si2 0.771057 0.105210 0.647435
Si Si3 0.658229 0.616820 0.365031
Si Si4 0.845573 0.227872 0.548638
Si Si5 0.163805 0.865758 0.277533
Si Si6 0.340743 0.735952 0.858187
Si Si7 0.650398 0.572997 0.943398
Si Si8 0.843497 0.376026 0.556604
O O1 0.116694 0.054552 0.620854
O O2 0.718134 0.091819 0.760102
O O3 0.823766 0.175971 0.634369
O O4 0.661698 0.097184 0.557845
O O5 0.500000 0.599432 0.378061
O O6 0.666450 0.690764 0.350543
O O7 0.745499 0.603518 0.465890
O O8 0.726899 0.219071 0.465897
O O9 0.840937 0.301162 0.568658
O O10 0.000000 0.216565 0.507180
O O11 0.245797 0.801233 0.280877
O O12 0.229226 0.902262 0.371362
O O13 0.190956 0.898411 0.169700
O O14 0.000000 0.857838 0.286092
O O15 0.500000 0.719760 0.849372
O O16 0.500000 0.588823 0.901460
O O17 0.661286 0.500000 0.946523
O O18 0.000000 0.392814 0.531634
#
# Coordination Sequence:
#
# PCOD9357300 Si02
#       8
#     2   8   8   8   8   8   8   8
#     4  12  28  40  62 100 122 168 222 276 314 374
#     4  12  23  40  63  91 126 164 210 262 318 366
#     4  10  23  40  62  90 125 164 206 255 312 380
#     4  10  19  34  59  88 126 164 200 248 311 376
#     4  11  22  37  61  89 125 162 204 251 310 373
#     4  10  20  34  56  92 127 165 205 246 306 378
#     4  11  25  42  63  89 122 161 208 263 316 370
#     4   9  21  39  60  93 125 162 203 248 306 377
#
# _framework density 20.689015999999999
#
# number of rings (size 3 to 8) (size 9 to 14) (size 15 to 20)
#    0.000    1.517    2.759    2.069    1.931    2.483 
#    0.000    2.759    1.517    0.000    0.000    0.000 
#    0.000    0.000    0.000    0.000    0.000    0.000 
#
# Total GULP energy -161496.360028 kJ/mol
# GULP energy per Si atom -5568.840001 kJ/mol
# Density = 2.064193 g / cm^3
# Si number density = 20.689016 Si / 1000 Ang^3
#
#
#
# Elastic Constant Matrix: (Units=GPa)
#
#
# Indices 1 2 3 4 5 6 
#
# 1 138.2253 -9.0303 54.6729 0.0000 0.0000 0.0000
# 2 -9.0303 23.7296 -14.2686 0.0000 0.0000 0.0000
# 3 54.6729 -14.2686 110.3169 0.0000 0.0000 0.0000
# 4 0.0000 0.0000 0.0000 9.6616 0.0000 0.0000
# 5 0.0000 0.0000 0.0000 0.0000 10.6342 0.0000
# 6 0.0000 0.0000 0.0000 0.0000 0.0000 29.0126
#
#
#
# Elastic Compliance Matrix: (Units=1/GPa)
#
#
# Indices 1 2 3 4 5 6 
#
# 1 0.009013 0.000807 -0.004362 0.000000 0.000000 0.000000
# 2 0.000807 0.045768 0.005520 0.000000 0.000000 0.000000
# 3 -0.004362 0.005520 0.011941 0.000000 0.000000 0.000000
# 4 0.000000 0.000000 0.000000 0.103503 0.000000 0.000000
# 5 0.000000 0.000000 0.000000 0.000000 0.094036 0.000000
# 6 0.000000 0.000000 0.000000 0.000000 0.000000 0.034468
#
#
# Mechanical properties :
#
#
# Convention : Reuss Voigt Hill
#
# Bulk Modulus (GPa) = 14.15437 37.22440 25.68939
# Shear Modulus (GPa) = 15.70603 25.92154 20.81378
#
# Velocity S-wave (km/s) = 2.75825 3.54349 3.17524
# Velocity P-wave (km/s) = 4.12314 5.89688 5.08790
#
# Compressibility (1/GPa) = 0.07064954
#
# Stress axis : x y z
#
# Youngs Moduli (GPa) = 110.95416 21.84952 83.74701
#
# Poissons Ratio (x) = -0.01763 0.36533
# Poissons Ratio (y) = -0.08951 -0.46227
# Poissons Ratio (z) = 0.48402 -0.12061
#
# Static dielectric constant tensor:
#      x y z
#    x 1.730660 0.000000 0.000000 
#    y 0.000000 1.771910 0.000000 
#    z 0.000000 0.000000 1.752150 
# 
# From -- ./inp_files/8370.got.cif
#   From: 2010.05.17/outbox.cif.g08.bks.cpg/sg38_5_cif.got.tgz:8370.got - 2010.06.03 18:07:57.
