data_PCOD9357464
_publ_section_title
;
Structure prediction by ZEFSAII (Michael W. Deem and Ramdas Pophale) SiO2 
 PCOD9357464
Probable space group: A M M 2
;
_chemical_formula_sum "Si O2"
_cell_formula_units_Z 48
_cell_length_a 19.497647
_cell_length_b 8.507385
_cell_length_c 15.413466
_cell_angle_alpha 90.000000
_cell_angle_beta 90.000000
_cell_angle_gamma 90.000000
_cell_volume 2556.693099
_symmetry_space_group_name_H-M "A M M 2"
_symmetry_group_IT_number 38
_symmetry_cell_setting 'orthorhombic'
loop_
_space_group_symop_operation_xyz
x,y,z
-x,-y,z
-x,y,z
x,-y,z
x,1/2+y,1/2+z
-x,1/2-y,1/2+z
-x,1/2+y,1/2+z
x,1/2-y,1/2+z
loop_
_atom_site_type_symbol
_atom_site_label
_atom_site_fract_x
_atom_site_fract_y
_atom_site_fract_z
Si Si1 0.000000 0.809504 0.416880
Si Si2 0.397672 0.187852 0.514089
Si Si3 0.500000 0.688584 0.369330
Si Si4 0.853414 0.688825 0.671129
Si Si5 0.244152 0.187647 0.016939
Si Si6 0.500000 0.690935 0.166109
Si Si7 0.848736 0.189973 0.363609
Si Si8 0.000000 0.687537 0.118049
O O1 0.072019 0.758160 0.376235
O O2 0.000000 0.762401 0.517348
O O3 0.000000 0.000000 0.411974
O O4 0.435905 0.255715 0.428821
O O5 0.318936 0.237387 0.515735
O O6 0.435898 0.238324 0.603910
O O7 0.404151 0.000000 0.509485
O O8 0.500000 0.500000 0.366915
O O9 0.500000 0.744149 0.267566
O O10 0.857256 0.500000 0.665047
O O11 0.802308 0.746438 0.597066
O O12 0.827257 0.729214 0.766337
O O13 0.930250 0.750674 0.659380
O O14 0.200741 0.231483 0.932392
O O15 0.251519 0.000000 0.023694
O O16 0.500000 0.500000 0.170251
O O17 0.846671 0.000000 0.375166
O O18 0.000000 0.500000 0.120911
#
# Coordination Sequence:
#
# PCOD9357464 Si02
#       8
#     4   8   4   8   8   4   8   4
#     4   9  17  31  55  80 103 137 186 232 277 336
#     4  10  21  39  60  85 117 155 190 221 268 336
#     4  10  19  37  64  93 120 145 181 234 278 314
#     4  10  22  38  57  80 110 147 189 238 290 339
#     4  11  23  38  55  83 117 148 186 236 285 326
#     4   8  18  37  62  89 116 147 183 220 268 324
#     4  10  20  38  59  79 107 148 190 231 285 347
#     4  11  20  33  57  84 107 141 190 238 285 342
#
# _framework density 18.774251
#
# number of rings (size 3 to 8) (size 9 to 14) (size 15 to 20)
#    0.000    2.000    1.667    2.500    0.000    4.000 
#    0.000    8.750    0.000    0.000    0.000    0.000 
#    0.000    0.000    0.000    0.000    0.000    0.000 
#
# Total GULP energy -133927.651717 kJ/mol
# GULP energy per Si atom -5580.318822 kJ/mol
# Density = 1.873152 g / cm^3
# Si number density = 18.774251 Si / 1000 Ang^3
#
#
#
# Elastic Constant Matrix: (Units=GPa)
#
#
# Indices 1 2 3 4 5 6 
#
# 1 150.0370 24.2239 76.8042 0.0000 0.0000 0.0000
# 2 24.2239 26.2337 35.1494 0.0000 0.0000 0.0000
# 3 76.8042 35.1494 169.0408 0.0000 0.0000 0.0000
# 4 0.0000 0.0000 0.0000 24.4206 0.0000 0.0000
# 5 0.0000 0.0000 0.0000 0.0000 370.6226 0.0000
# 6 0.0000 0.0000 0.0000 0.0000 0.0000 9.2548
#
#
#
# Elastic Compliance Matrix: (Units=1/GPa)
#
#
# Indices 1 2 3 4 5 6 
#
# 1 0.008965 -0.003910 -0.003260 0.000000 0.000000 0.000000
# 2 -0.003910 0.054545 -0.009565 0.000000 0.000000 0.000000
# 3 -0.003260 -0.009565 0.009386 0.000000 0.000000 0.000000
# 4 0.000000 0.000000 0.000000 0.040949 0.000000 0.000000
# 5 0.000000 0.000000 0.000000 0.000000 0.002698 0.000000
# 6 0.000000 0.000000 0.000000 0.000000 0.000000 0.108051
#
#
# Mechanical properties :
#
#
# Convention : Reuss Voigt Hill
#
# Bulk Modulus (GPa) = 25.36440 68.62962 46.99701
# Shear Modulus (GPa) = 18.43598 94.80187 56.61892
#
# Velocity S-wave (km/s) = 3.13706 7.11374 5.49757
# Velocity P-wave (km/s) = 5.16343 10.20335 8.08608
#
# Compressibility (1/GPa) = 0.03942533
#
# Stress axis : x y z
#
# Youngs Moduli (GPa) = 111.54115 18.33333 106.54103
#
# Poissons Ratio (x) = 0.07168 0.34736
# Poissons Ratio (y) = 0.43613 1.01910
# Poissons Ratio (z) = 0.36367 0.17536
#
# Static dielectric constant tensor:
#      x y z
#    x 1.624440 0.000000 0.000000 
#    y 0.000000 1.643350 0.000000 
#    z 0.000000 0.000000 1.659000 
# 
# From -- ./inp_files/15116.got.cif
#   From: 2010.05.17/outbox.cif.g08.bks.cpg/sg38_8_cif.got.tgz:15116.got - 2010.06.03 18:07:57.
