data_PCOD9357472
_publ_section_title
;
Structure prediction by ZEFSAII (Michael W. Deem and Ramdas Pophale) SiO2 
 PCOD9357472
Probable space group: A M M 2
;
_chemical_formula_sum "Si O2"
_cell_formula_units_Z 48
_cell_length_a 7.397664
_cell_length_b 8.381264
_cell_length_c 34.737032
_cell_angle_alpha 90.000000
_cell_angle_beta 90.000000
_cell_angle_gamma 90.000000
_cell_volume 2153.757641
_symmetry_space_group_name_H-M "A M M 2"
_symmetry_group_IT_number 38
_symmetry_cell_setting 'orthorhombic'
loop_
_space_group_symop_operation_xyz
x,y,z
-x,-y,z
-x,y,z
x,-y,z
x,1/2+y,1/2+z
-x,1/2-y,1/2+z
-x,1/2+y,1/2+z
x,1/2-y,1/2+z
loop_
_atom_site_type_symbol
_atom_site_label
_atom_site_fract_x
_atom_site_fract_y
_atom_site_fract_z
Si Si1 0.779432 0.674699 0.903500
Si Si2 0.716267 0.678867 0.166526
Si Si3 0.717926 0.000000 0.033379
Si Si4 0.720431 0.814293 0.579729
Si Si5 0.779988 0.176228 0.825758
Si Si6 0.212634 0.000000 0.943014
Si Si7 0.784717 0.824792 0.248368
O O1 0.719244 0.500000 0.917379
O O2 0.728079 0.700253 0.858799
O O3 0.715974 0.832332 0.926143
O O4 0.000000 0.673883 0.905460
O O5 0.500000 0.673468 0.163846
O O6 0.783867 0.500000 0.173916
O O7 0.777386 0.725548 0.123768
O O8 0.756436 0.779203 0.204196
O O9 0.780145 0.166530 0.053138
O O10 0.500000 0.000000 0.036855
O O11 0.767000 0.000000 0.988741
O O12 0.500000 0.816784 0.578473
O O13 0.775614 0.000000 0.571304
O O14 0.717125 0.211882 0.782475
O O15 0.000000 0.175929 0.825429
O O16 0.722331 0.000000 0.837807
O O17 0.000000 0.000000 0.932741
O O18 0.000000 0.829229 0.253282
O O19 0.710779 0.000000 0.255407
#
# Coordination Sequence:
#
# PCOD9357472 Si02
#       7
#     8   8   4   8   8   4   8
#     4   9  16  28  48  72  99 132 167 203 244 295
#     4   9  18  33  52  72  95 127 170 214 254 296
#     4  10  20  34  56  78  98 130 168 204 252 304
#     4   8  16  32  53  76  98 125 168 213 245 291
#     4   9  15  26  45  68  96 131 170 207 243 285
#     4  10  20  34  50  76 106 128 160 208 256 298
#     4  10  20  30  43  71 106 135 166 207 252 298
#
# _framework density 22.286628
#
# number of rings (size 3 to 8) (size 9 to 14) (size 15 to 20)
#    0.000    2.833    0.833    2.000    1.167    4.000 
#    0.000    0.833    0.000    2.000    0.000    0.000 
#    0.000    0.000    0.000    0.000    0.000    0.000 
#
# Total GULP energy -133843.928973 kJ/mol
# GULP energy per Si atom -5576.830374 kJ/mol
# Density = 2.223590 g / cm^3
# Si number density = 22.286628 Si / 1000 Ang^3
#
#
#
# Elastic Constant Matrix: (Units=GPa)
#
#
# Indices 1 2 3 4 5 6 
#
# 1 72.2917 5.4685 -5.2175 0.0000 0.0000 0.0000
# 2 5.4685 179.3491 90.9686 0.0000 0.0000 0.0000
# 3 -5.2175 90.9686 120.2553 0.0000 0.0000 0.0000
# 4 0.0000 0.0000 0.0000 31.9908 0.0000 0.0000
# 5 0.0000 0.0000 0.0000 0.0000 19.9875 0.0000
# 6 0.0000 0.0000 0.0000 0.0000 0.0000 -5.9018
#
#
#
# Elastic Compliance Matrix: (Units=1/GPa)
#
#
# Indices 1 2 3 4 5 6 
#
# 1 0.014032 -0.001195 0.001513 0.000000 0.000000 0.000000
# 2 -0.001195 0.009149 -0.006973 0.000000 0.000000 0.000000
# 3 0.001513 -0.006973 0.013656 0.000000 0.000000 0.000000
# 4 0.000000 0.000000 0.000000 0.031259 0.000000 0.000000
# 5 0.000000 0.000000 0.000000 0.000000 0.050031 0.000000
# 6 0.000000 0.000000 0.000000 0.000000 0.000000 -0.169441
#
#
# Mechanical properties :
#
#
# Convention : Reuss Voigt Hill
#
# Bulk Modulus (GPa) = 42.50375 61.59281 52.04828
# Shear Modulus (GPa) = -165.77443 27.92707 -68.92368
#
# Velocity S-wave (km/s) = -8.63391 3.54374 -5.56715
# Velocity P-wave (km/s) = 8.95989 6.66639 4.23314
#
# Compressibility (1/GPa) = 0.02352734
#
# Stress axis : x y z
#
# Youngs Moduli (GPa) = 71.26329 109.30466 73.22922
#
# Poissons Ratio (x) = 0.13065 -0.11080
# Poissons Ratio (y) = 0.08518 0.51059
# Poissons Ratio (z) = -0.10782 0.76213
#
# Static dielectric constant tensor:
#      x y z
#    x 1.869020 0.000000 0.000000 
#    y 0.000000 1.827350 0.000000 
#    z 0.000000 0.000000 1.783400 
# 
# From -- ./inp_files/24379.got.cif
#   From: 2010.05.17/outbox.cif.g08.bks.cpg/sg38_13_cif.got.tgz:24379.got - 2010.06.03 18:07:57.
