data_PCOD9357774
_publ_section_title
;
Structure prediction by ZEFSAII (Michael W. Deem and Ramdas Pophale) SiO2 
 PCOD9357774
Probable space group: A M M 2
;
_chemical_formula_sum "Si O2"
_cell_formula_units_Z 64
_cell_length_a 13.668205
_cell_length_b 13.972377
_cell_length_c 19.228809
_cell_angle_alpha 90.000000
_cell_angle_beta 90.000000
_cell_angle_gamma 90.000000
_cell_volume 3672.266278
_symmetry_space_group_name_H-M "A M M 2"
_symmetry_group_IT_number 38
_symmetry_cell_setting 'orthorhombic'
loop_
_space_group_symop_operation_xyz
x,y,z
-x,-y,z
-x,y,z
x,-y,z
x,1/2+y,1/2+z
-x,1/2-y,1/2+z
-x,1/2+y,1/2+z
x,1/2-y,1/2+z
loop_
_atom_site_type_symbol
_atom_site_label
_atom_site_fract_x
_atom_site_fract_y
_atom_site_fract_z
Si Si1 0.611751 0.793804 0.544060
Si Si2 0.116585 0.721760 0.863827
Si Si3 0.115618 0.253212 0.593004
Si Si4 0.881593 0.608289 0.466748
Si Si5 0.384338 0.109068 0.134668
Si Si6 0.386362 0.388727 0.195267
Si Si7 0.204034 0.387612 0.988686
Si Si8 0.753548 0.276706 0.728507
O O1 0.500000 0.798453 0.518958
O O2 0.631888 0.687210 0.573710
O O3 0.619945 0.859192 0.613717
O O4 0.692126 0.832080 0.491016
O O5 0.143099 0.822061 0.902530
O O6 0.142621 0.642121 0.921201
O O7 0.183327 0.705890 0.796789
O O8 0.000000 0.721857 0.848875
O O9 0.143959 0.337212 0.538350
O O10 0.146115 0.155664 0.554478
O O11 0.172056 0.262049 0.664603
O O12 0.000000 0.257167 0.603288
O O13 0.843773 0.500000 0.462532
O O14 0.000000 0.603962 0.466768
O O15 0.500000 0.116772 0.151665
O O16 0.319647 0.141150 0.200497
O O17 0.363142 0.000000 0.114440
O O18 0.500000 0.373279 0.215284
O O19 0.362564 0.500000 0.203735
O O20 0.313510 0.317949 0.234620
O O21 0.218746 0.500000 0.993508
#
# Coordination Sequence:
#
# PCOD9357774 Si02
#       8
#     8   8   8   8   8   8   8   8
#     4   9  17  32  55  85 113 138 175 227 281 330
#     4  10  23  39  53  74 111 156 192 226 273 331
#     4  10  20  33  52  80 108 139 186 241 280 315
#     4   8  16  34  55  72  95 134 182 229 279 325
#     4   9  18  34  57  85 115 143 173 217 279 342
#     4   9  17  31  54  83 113 142 175 222 283 342
#     4  11  21  37  57  79 108 148 190 226 275 333
#     4  11  20  34  54  82 113 145 183 229 275 328
#
# _framework density 17.42793
#
# number of rings (size 3 to 8) (size 9 to 14) (size 15 to 20)
#    0.000    2.375    2.500    3.000    0.000    3.250 
#    0.000    1.250    0.000    4.500    0.000    1.750 
#    0.000    0.000    0.000    0.000    0.000    0.000 
#
# Total GULP energy -178393.339750 kJ/mol
# GULP energy per Si atom -5574.791867 kJ/mol
# Density = 1.738826 g / cm^3
# Si number density = 17.427930 Si / 1000 Ang^3
#
#
#
# Elastic Constant Matrix: (Units=GPa)
#
#
# Indices 1 2 3 4 5 6 
#
# 1 88.0312 30.4918 18.4587 0.0000 0.0000 0.0000
# 2 30.4918 122.2942 21.3806 0.0000 0.0000 0.0000
# 3 18.4587 21.3806 61.2572 0.0000 0.0000 0.0000
# 4 0.0000 0.0000 0.0000 2.7586 0.0000 0.0000
# 5 0.0000 0.0000 0.0000 0.0000 22.7093 0.0000
# 6 0.0000 0.0000 0.0000 0.0000 0.0000 20.3480
#
#
#
# Elastic Compliance Matrix: (Units=1/GPa)
#
#
# Indices 1 2 3 4 5 6 
#
# 1 0.012914 -0.002705 -0.002948 0.000000 0.000000 0.000000
# 2 -0.002705 0.009275 -0.002422 0.000000 0.000000 0.000000
# 3 -0.002948 -0.002422 0.018058 0.000000 0.000000 0.000000
# 4 0.000000 0.000000 0.000000 0.362503 0.000000 0.000000
# 5 0.000000 0.000000 0.000000 0.000000 0.044035 0.000000
# 6 0.000000 0.000000 0.000000 0.000000 0.000000 0.049145
#
#
# Mechanical properties :
#
#
# Convention : Reuss Voigt Hill
#
# Bulk Modulus (GPa) = 41.49591 45.80497 43.65044
# Shear Modulus (GPa) = 9.61332 22.57996 16.09664
#
# Velocity S-wave (km/s) = 2.35117 3.60338 3.04239
# Velocity P-wave (km/s) = 5.58859 6.60697 6.11900
#
# Compressibility (1/GPa) = 0.02409876
#
# Stress axis : x y z
#
# Youngs Moduli (GPa) = 77.43235 107.81864 55.37644
#
# Poissons Ratio (x) = 0.29162 0.16322
# Poissons Ratio (y) = 0.20943 0.13413
# Poissons Ratio (z) = 0.22823 0.26116
#
# Static dielectric constant tensor:
#      x y z
#    x 1.622300 0.000000 0.000000 
#    y 0.000000 1.604820 0.000000 
#    z 0.000000 0.000000 1.565130 
# 
# From -- ./inp_files/18501.got.cif
#   From: 2010.05.17/outbox.cif.g08.bks.cpg/sg38_10_cif.got.tgz:18501.got - 2010.06.03 18:07:57.
