data_PCOD9357068
_publ_section_title
;
Structure prediction by ZEFSAII (Michael W. Deem and Ramdas Pophale) SiO2 
 PCOD9357068
Probable space group: A M M 2
;
_chemical_formula_sum "Si O2"
_cell_formula_units_Z 40
_cell_length_a 8.715831
_cell_length_b 28.973986
_cell_length_c 9.640040
_cell_angle_alpha 90.000000
_cell_angle_beta 90.000000
_cell_angle_gamma 90.000000
_cell_volume 2434.422103
_symmetry_space_group_name_H-M "A M M 2"
_symmetry_group_IT_number 38
_symmetry_cell_setting 'orthorhombic'
loop_
_space_group_symop_operation_xyz
x,y,z
-x,-y,z
-x,y,z
x,-y,z
x,1/2+y,1/2+z
-x,1/2-y,1/2+z
-x,1/2+y,1/2+z
x,1/2-y,1/2+z
loop_
_atom_site_type_symbol
_atom_site_label
_atom_site_fract_x
_atom_site_fract_y
_atom_site_fract_z
Si Si1 0.182989 0.210586 0.243120
Si Si2 0.317524 0.291306 0.050309
Si Si3 0.181477 0.861407 0.751593
Si Si4 0.682134 0.138010 0.042135
Si Si5 0.182642 0.052927 0.916300
O O1 0.252746 0.251627 0.150759
O O2 0.244734 0.212970 0.398945
O O3 0.239366 0.163733 0.169058
O O4 0.000000 0.213494 0.241914
O O5 0.500000 0.287664 0.041149
O O6 0.267651 0.339012 0.123734
O O7 0.203652 0.916377 0.776559
O O8 0.000000 0.851784 0.743308
O O9 0.249098 0.841766 0.897173
O O10 0.500000 0.143902 0.045206
O O11 0.728528 0.084111 0.028616
O O12 0.000000 0.054524 0.946270
O O13 0.230652 0.000000 0.906712
#
# Coordination Sequence:
#
# PCOD9357068 Si02
#       5
#     8   8   8   8   8
#     4  12  24  39  56  76 106 147 186 223 269 331
#     4  12  24  38  55  79 109 142 181 230 276 322
#     4   9  18  34  54  79 109 143 181 220 265 324
#     4  10  19  33  53  81 111 140 178 227 272 316
#     4   8  16  32  56  83 111 144 184 226 269 323
#
# _framework density 16.431004000000001
#
# number of rings (size 3 to 8) (size 9 to 14) (size 15 to 20)
#    1.200    0.600    0.000    6.600    0.000    0.400 
#    0.000    0.000    0.000    1.200    0.000    2.800 
#    0.000    0.000    0.000    0.000    0.000    0.000 
#
# Total GULP energy -111432.915766 kJ/mol
# GULP energy per Si atom -5571.645788 kJ/mol
# Density = 1.639361 g / cm^3
# Si number density = 16.431004 Si / 1000 Ang^3
#
#
#
# Elastic Constant Matrix: (Units=GPa)
#
#
# Indices 1 2 3 4 5 6 
#
# 1 117.4736 34.9145 27.6203 0.0000 0.0000 0.0000
# 2 34.9145 92.1138 35.2026 0.0000 0.0000 0.0000
# 3 27.6203 35.2026 92.3135 0.0000 0.0000 0.0000
# 4 0.0000 0.0000 0.0000 19.2378 0.0000 0.0000
# 5 0.0000 0.0000 0.0000 0.0000 35.6155 0.0000
# 6 0.0000 0.0000 0.0000 0.0000 0.0000 18.7334
#
#
#
# Elastic Compliance Matrix: (Units=1/GPa)
#
#
# Indices 1 2 3 4 5 6 
#
# 1 0.009837 -0.003048 -0.001781 0.000000 0.000000 0.000000
# 2 -0.003048 0.013653 -0.004294 0.000000 0.000000 0.000000
# 3 -0.001781 -0.004294 0.013003 0.000000 0.000000 0.000000
# 4 0.000000 0.000000 0.000000 0.051981 0.000000 0.000000
# 5 0.000000 0.000000 0.000000 0.000000 0.028078 0.000000
# 6 0.000000 0.000000 0.000000 0.000000 0.000000 0.053381
#
#
# Mechanical properties :
#
#
# Convention : Reuss Voigt Hill
#
# Bulk Modulus (GPa) = 54.80558 55.26397 55.03477
# Shear Modulus (GPa) = 25.73860 28.32824 27.03342
#
# Velocity S-wave (km/s) = 3.96215 4.15670 4.06059
# Velocity P-wave (km/s) = 7.37285 7.53290 7.45330
#
# Compressibility (1/GPa) = 0.01824632
#
# Stress axis : x y z
#
# Youngs Moduli (GPa) = 101.65498 73.24631 76.90480
#
# Poissons Ratio (x) = 0.22326 0.13697
# Poissons Ratio (y) = 0.30985 0.33025
# Poissons Ratio (z) = 0.18104 0.31454
#
# Static dielectric constant tensor:
#      x y z
#    x 1.540840 0.000000 0.000000 
#    y 0.000000 1.585700 0.000000 
#    z 0.000000 0.000000 1.531250 
# 
# From -- ./inp_files/3579.got.cif
#   From: 2010.05.17/outbox.cif.g08.bks.cpg/sg38_2_cif.got.tgz:3579.got - 2010.06.03 18:07:57.
