data_PCOD9357761
_publ_section_title
;
Structure prediction by ZEFSAII (Michael W. Deem and Ramdas Pophale) SiO2 
 PCOD9357761
Probable space group: A M M 2
;
_chemical_formula_sum "Si O2"
_cell_formula_units_Z 56
_cell_length_a 8.987959
_cell_length_b 19.988233
_cell_length_c 15.724872
_cell_angle_alpha 90.000000
_cell_angle_beta 90.000000
_cell_angle_gamma 90.000000
_cell_volume 2825.027013
_symmetry_space_group_name_H-M "A M M 2"
_symmetry_group_IT_number 38
_symmetry_cell_setting 'orthorhombic'
loop_
_space_group_symop_operation_xyz
x,y,z
-x,-y,z
-x,y,z
x,-y,z
x,1/2+y,1/2+z
-x,1/2-y,1/2+z
-x,1/2+y,1/2+z
x,1/2-y,1/2+z
loop_
_atom_site_type_symbol
_atom_site_label
_atom_site_fract_x
_atom_site_fract_y
_atom_site_fract_z
Si Si1 0.321177 0.211146 0.806820
Si Si2 0.331058 0.755355 0.613952
Si Si3 0.827190 0.696152 0.952482
Si Si4 0.178779 0.577344 0.367969
Si Si5 0.333110 0.580121 0.876446
Si Si6 0.837219 0.423313 0.717055
Si Si7 0.670767 0.397070 0.550015
O O1 0.500000 0.206437 0.816521
O O2 0.288100 0.241609 0.713235
O O3 0.258846 0.256273 0.884566
O O4 0.248058 0.137278 0.812245
O O5 0.500000 0.782251 0.608229
O O6 0.224090 0.792511 0.548854
O O7 0.333485 0.680771 0.575737
O O8 0.786374 0.619993 0.930344
O O9 0.000000 0.710283 0.942551
O O10 0.206952 0.500000 0.340856
O O11 0.257077 0.588289 0.459389
O O12 0.000000 0.585672 0.374961
O O13 0.500000 0.603035 0.896517
O O14 0.329651 0.500000 0.886555
O O15 0.291327 0.601131 0.779897
O O16 0.855347 0.500000 0.744187
O O17 0.778240 0.425097 0.622182
O O18 0.000000 0.390061 0.724669
O O19 0.500000 0.421398 0.553498
#
# Coordination Sequence:
#
# PCOD9357761 Si02
#       7
#     8   8   8   8   8   8   8
#     4  11  23  42  67  94 127 167 216 267 318 385
#     4  10  23  41  62  89 121 160 209 263 313 372
#     4  12  24  39  64  94 126 162 202 257 319 380
#     4  11  24  41  61  89 128 170 215 270 329 387
#     4  10  21  38  60  85 118 161 206 253 307 371
#     4  10  20  33  51  80 119 157 195 244 302 364
#     4  11  21  35  58  87 119 160 206 255 314 380
#
# _framework density 19.822818999999999
#
# number of rings (size 3 to 8) (size 9 to 14) (size 15 to 20)
#    0.000    1.286    1.429    4.714    0.000    7.429 
#    0.000    0.714    0.000    0.857    0.000    0.000 
#    0.000    0.000    0.000    0.000    0.000    0.000 
#
# Total GULP energy -156256.542979 kJ/mol
# GULP energy per Si atom -5580.590821 kJ/mol
# Density = 1.977770 g / cm^3
# Si number density = 19.822819 Si / 1000 Ang^3
#
#
#
# Elastic Constant Matrix: (Units=GPa)
#
#
# Indices 1 2 3 4 5 6 
#
# 1 102.5188 23.3080 33.7528 0.0000 0.0000 0.0000
# 2 23.3080 75.2887 21.5402 0.0000 0.0000 0.0000
# 3 33.7528 21.5402 74.2587 0.0000 0.0000 0.0000
# 4 0.0000 0.0000 0.0000 29.5166 0.0000 0.0000
# 5 0.0000 0.0000 0.0000 0.0000 72.8341 0.0000
# 6 0.0000 0.0000 0.0000 0.0000 0.0000 -7.7617
#
#
#
# Elastic Compliance Matrix: (Units=1/GPa)
#
#
# Indices 1 2 3 4 5 6 
#
# 1 0.011830 -0.002316 -0.004705 0.000000 0.000000 0.000000
# 2 -0.002316 0.014938 -0.003280 0.000000 0.000000 0.000000
# 3 -0.004705 -0.003280 0.016557 0.000000 0.000000 0.000000
# 4 0.000000 0.000000 0.000000 0.033879 0.000000 0.000000
# 5 0.000000 0.000000 0.000000 0.000000 0.013730 0.000000
# 6 0.000000 0.000000 0.000000 0.000000 0.000000 -0.128839
#
#
# Mechanical properties :
#
#
# Convention : Reuss Voigt Hill
#
# Bulk Modulus (GPa) = 44.01199 45.47425 44.74312
# Shear Modulus (GPa) = -513.97463 30.48216 -241.74624
#
# Velocity S-wave (km/s) = -16.11978 3.92565 -11.05524
# Velocity P-wave (km/s) = 18.00589 6.59831 11.84640
#
# Compressibility (1/GPa) = 0.02272108
#
# Stress axis : x y z
#
# Youngs Moduli (GPa) = 84.53062 66.94462 60.39887
#
# Poissons Ratio (x) = 0.15506 0.28419
# Poissons Ratio (y) = 0.19579 0.19812
# Poissons Ratio (z) = 0.39774 0.21959
#
# Static dielectric constant tensor:
#      x y z
#    x 1.699290 0.000000 0.000000 
#    y 0.000000 1.715720 0.000000 
#    z 0.000000 0.000000 1.687290 
# 
# From -- ./inp_files/12406.got.cif
#   From: 2010.05.17/outbox.cif.g08.bks.cpg/sg38_7_cif.got.tgz:12406.got - 2010.06.03 18:07:57.
