data_PCOD9357194
_publ_section_title
;
Structure prediction by ZEFSAII (Michael W. Deem and Ramdas Pophale) SiO2 
 PCOD9357194
Probable space group: A M M 2
;
_chemical_formula_sum "Si O2"
_cell_formula_units_Z 56
_cell_length_a 17.261613
_cell_length_b 18.130216
_cell_length_c 10.766695
_cell_angle_alpha 90.000000
_cell_angle_beta 90.000000
_cell_angle_gamma 90.000000
_cell_volume 3369.510114
_symmetry_space_group_name_H-M "A M M 2"
_symmetry_group_IT_number 38
_symmetry_cell_setting 'orthorhombic'
loop_
_space_group_symop_operation_xyz
x,y,z
-x,-y,z
-x,y,z
x,-y,z
x,1/2+y,1/2+z
-x,1/2-y,1/2+z
-x,1/2+y,1/2+z
x,1/2-y,1/2+z
loop_
_atom_site_type_symbol
_atom_site_label
_atom_site_fract_x
_atom_site_fract_y
_atom_site_fract_z
Si Si1 0.410845 0.166442 0.902310
Si Si2 0.683233 0.187455 0.447832
Si Si3 0.410520 0.913358 0.635781
Si Si4 0.833874 0.218864 0.976869
Si Si5 0.778166 0.581851 0.777350
Si Si6 0.908021 0.806020 0.248709
Si Si7 0.733983 0.582074 0.490280
O O1 0.500000 0.166322 0.945185
O O2 0.376077 0.249017 0.903854
O O3 0.408013 0.128745 0.767131
O O4 0.351248 0.116909 0.980397
O O5 0.643161 0.132690 0.544057
O O6 0.758607 0.229687 0.501334
O O7 0.717687 0.137565 0.338720
O O8 0.500000 0.910868 0.592236
O O9 0.389357 0.000000 0.647710
O O10 0.879659 0.214135 0.107967
O O11 0.796336 0.140233 0.938015
O O12 0.880757 0.250491 0.858838
O O13 0.775601 0.500000 0.832948
O O14 0.862676 0.618740 0.782900
O O15 0.756113 0.576994 0.633839
O O16 0.000000 0.812835 0.249189
O O17 0.736480 0.500000 0.434823
#
# Coordination Sequence:
#
# PCOD9357194 Si02
#       7
#     8   8   8   8   8   8   8
#     4  10  21  33  50  75 103 136 177 220 262 306
#     4  10  20  33  55  73 103 137 175 214 261 306
#     4  10  21  35  51  74 104 139 178 219 265 315
#     4   9  20  32  54  79 105 134 176 211 255 313
#     4   9  19  35  53  78 102 130 169 210 255 315
#     4  10  19  34  54  79 106 135 166 211 261 311
#     4   9  18  33  53  74 103 134 170 215 259 308
#
# _framework density 16.619626
#
# number of rings (size 3 to 8) (size 9 to 14) (size 15 to 20)
#    0.000    2.429    0.000    1.714   10.000    1.143 
#    0.000    0.714    0.000    3.000    0.000    0.000 
#    0.000    0.000    0.000    0.000    0.000    0.000 
#
# Total GULP energy -155935.597796 kJ/mol
# GULP energy per Si atom -5569.128493 kJ/mol
# Density = 1.658180 g / cm^3
# Si number density = 16.619626 Si / 1000 Ang^3
#
#
#
# Elastic Constant Matrix: (Units=GPa)
#
#
# Indices 1 2 3 4 5 6 
#
# 1 128.2536 63.1212 37.7060 0.0000 0.0000 0.0000
# 2 63.1212 131.5935 31.0352 0.0000 0.0000 0.0000
# 3 37.7060 31.0352 35.8856 0.0000 0.0000 0.0000
# 4 0.0000 0.0000 0.0000 21.9449 0.0000 0.0000
# 5 0.0000 0.0000 0.0000 0.0000 22.0272 0.0000
# 6 0.0000 0.0000 0.0000 0.0000 0.0000 9.5171
#
#
#
# Elastic Compliance Matrix: (Units=1/GPa)
#
#
# Indices 1 2 3 4 5 6 
#
# 1 0.012540 -0.003652 -0.010017 0.000000 0.000000 0.000000
# 2 -0.003652 0.010610 -0.005338 0.000000 0.000000 0.000000
# 3 -0.010017 -0.005338 0.043008 0.000000 0.000000 0.000000
# 4 0.000000 0.000000 0.000000 0.045569 0.000000 0.000000
# 5 0.000000 0.000000 0.000000 0.000000 0.045398 0.000000
# 6 0.000000 0.000000 0.000000 0.000000 0.000000 0.105074
#
#
# Mechanical properties :
#
#
# Convention : Reuss Voigt Hill
#
# Bulk Modulus (GPa) = 35.53342 62.16194 48.84768
# Shear Modulus (GPa) = 16.15014 21.62253 18.88633
#
# Velocity S-wave (km/s) = 3.12067 3.61088 3.37469
# Velocity P-wave (km/s) = 5.86614 7.40733 6.68132
#
# Compressibility (1/GPa) = 0.02814252
#
# Stress axis : x y z
#
# Youngs Moduli (GPa) = 79.74759 94.24990 23.25141
#
# Poissons Ratio (x) = 0.34424 0.23291
# Poissons Ratio (y) = 0.29127 0.12412
# Poissons Ratio (z) = 0.79883 0.50313
#
# Static dielectric constant tensor:
#      x y z
#    x 1.545580 0.000000 0.000000 
#    y 0.000000 1.599660 0.000000 
#    z 0.000000 0.000000 1.556780 
# 
# From -- ./inp_files/10642.got.cif
#   From: 2010.05.17/outbox.cif.g08.bks.cpg/sg38_6_cif.got.tgz:10642.got - 2010.06.03 18:07:57.
