data_PCOD9357188
_publ_section_title
;
Structure prediction by ZEFSAII (Michael W. Deem and Ramdas Pophale) SiO2 
 PCOD9357188
Probable space group: A M M 2
;
_chemical_formula_sum "Si O2"
_cell_formula_units_Z 64
_cell_length_a 8.624735
_cell_length_b 27.996784
_cell_length_c 15.153659
_cell_angle_alpha 90.000000
_cell_angle_beta 90.000000
_cell_angle_gamma 90.000000
_cell_volume 3659.075889
_symmetry_space_group_name_H-M "A M M 2"
_symmetry_group_IT_number 38
_symmetry_cell_setting 'orthorhombic'
loop_
_space_group_symop_operation_xyz
x,y,z
-x,-y,z
-x,y,z
x,-y,z
x,1/2+y,1/2+z
-x,1/2-y,1/2+z
-x,1/2+y,1/2+z
x,1/2-y,1/2+z
loop_
_atom_site_type_symbol
_atom_site_label
_atom_site_fract_x
_atom_site_fract_y
_atom_site_fract_z
Si Si1 0.187709 0.172914 0.959390
Si Si2 0.314538 0.218544 0.261965
Si Si3 0.314953 0.444157 0.770664
Si Si4 0.184953 0.943889 0.462304
Si Si5 0.813625 0.634282 0.641740
Si Si6 0.186694 0.674727 0.260585
Si Si7 0.684237 0.863394 0.585727
Si Si8 0.186582 0.716604 0.955862
O O1 0.236829 0.160491 0.859903
O O2 0.230102 0.228379 0.976092
O O3 0.000000 0.171570 0.959329
O O4 0.240072 0.140388 0.040425
O O5 0.500000 0.217766 0.256876
O O6 0.242310 0.181127 0.194133
O O7 0.251597 0.271883 0.244944
O O8 0.259375 0.204977 0.360679
O O9 0.500000 0.439485 0.777725
O O10 0.276714 0.500000 0.756250
O O11 0.240931 0.429551 0.864370
O O12 0.253438 0.411062 0.692793
O O13 0.264418 0.911057 0.535051
O O14 0.000000 0.938089 0.467469
O O15 0.222824 0.000000 0.473338
O O16 0.000000 0.632312 0.643860
O O17 0.248575 0.640903 0.183968
O O18 0.000000 0.676834 0.257877
O O19 0.500000 0.859623 0.587794
O O20 0.753442 0.819451 0.529259
O O21 0.000000 0.713782 0.949642
#
# Coordination Sequence:
#
# PCOD9357188 Si02
#       8
#     8   8   8   8   8   8   8   8
#     4   8  18  34  53  74  98 133 176 220 257 293
#     4  11  21  33  49  76 111 142 175 216 263 311
#     4  10  21  37  55  78 109 139 167 208 263 317
#     4  10  21  38  59  81 104 134 172 212 257 312
#     4  11  20  33  54  78 103 135 177 218 259 311
#     4  10  20  37  55  73 102 141 183 221 259 305
#     4  12  23  34  52  80 109 138 173 215 266 316
#     4  10  19  34  53  74 104 143 181 215 256 309
#
# _framework density 17.490756000000001
#
# number of rings (size 3 to 8) (size 9 to 14) (size 15 to 20)
#    0.000    1.750    0.000    6.375    0.000    2.500 
#    0.000    6.875    0.000    0.750    0.000    1.750 
#    0.000    0.000    0.000    0.000    0.000    0.000 
#
# Total GULP energy -178781.518965 kJ/mol
# GULP energy per Si atom -5586.922468 kJ/mol
# Density = 1.745095 g / cm^3
# Si number density = 17.490756 Si / 1000 Ang^3
#
#
#
# Elastic Constant Matrix: (Units=GPa)
#
#
# Indices 1 2 3 4 5 6 
#
# 1 54.6695 18.6435 19.1924 0.0000 0.0000 0.0000
# 2 18.6435 54.9514 59.9672 0.0000 0.0000 0.0000
# 3 19.1924 59.9672 119.7126 0.0000 0.0000 0.0000
# 4 0.0000 0.0000 0.0000 30.9034 0.0000 0.0000
# 5 0.0000 0.0000 0.0000 0.0000 7.3623 0.0000
# 6 0.0000 0.0000 0.0000 0.0000 0.0000 23.9954
#
#
#
# Elastic Compliance Matrix: (Units=1/GPa)
#
#
# Indices 1 2 3 4 5 6 
#
# 1 0.020695 -0.007501 0.000440 0.000000 0.000000 0.000000
# 2 -0.007501 0.042860 -0.020267 0.000000 0.000000 0.000000
# 3 0.000440 -0.020267 0.018435 0.000000 0.000000 0.000000
# 4 0.000000 0.000000 0.000000 0.032359 0.000000 0.000000
# 5 0.000000 0.000000 0.000000 0.000000 0.135828 0.000000
# 6 0.000000 0.000000 0.000000 0.000000 0.000000 0.041675
#
#
# Mechanical properties :
#
#
# Convention : Reuss Voigt Hill
#
# Bulk Modulus (GPa) = 36.58543 47.21554 41.90049
# Shear Modulus (GPa) = 14.05995 21.22089 17.64042
#
# Velocity S-wave (km/s) = 2.83830 3.48697 3.17922
# Velocity P-wave (km/s) = 5.63060 6.57762 6.12245
#
# Compressibility (1/GPa) = 0.02733328
#
# Stress axis : x y z
#
# Youngs Moduli (GPa) = 48.31972 23.33194 54.24427
#
# Poissons Ratio (x) = 0.17502 -0.02385
# Poissons Ratio (y) = 0.36245 1.09937
# Poissons Ratio (z) = -0.02124 0.47287
#
# Static dielectric constant tensor:
#      x y z
#    x 1.582650 0.000000 0.000000 
#    y 0.000000 1.582460 0.000000 
#    z 0.000000 0.000000 1.601910 
# 
# From -- ./inp_files/12819.got.cif
#   From: 2010.05.17/outbox.cif.g08.bks.cpg/sg38_7_cif.got.tgz:12819.got - 2010.06.03 18:07:57.
