data_PCOD9357131
_publ_section_title
;
Structure prediction by ZEFSAII (Michael W. Deem and Ramdas Pophale) SiO2 
 PCOD9357131
Probable space group: A M M 2
;
_chemical_formula_sum "Si O2"
_cell_formula_units_Z 64
_cell_length_a 16.097156
_cell_length_b 8.802200
_cell_length_c 24.035277
_cell_angle_alpha 90.000000
_cell_angle_beta 90.000000
_cell_angle_gamma 90.000000
_cell_volume 3405.567689
_symmetry_space_group_name_H-M "A M M 2"
_symmetry_group_IT_number 38
_symmetry_cell_setting 'orthorhombic'
loop_
_space_group_symop_operation_xyz
x,y,z
-x,-y,z
-x,y,z
x,-y,z
x,1/2+y,1/2+z
-x,1/2-y,1/2+z
-x,1/2+y,1/2+z
x,1/2-y,1/2+z
loop_
_atom_site_type_symbol
_atom_site_label
_atom_site_fract_x
_atom_site_fract_y
_atom_site_fract_z
Si Si1 0.403262 0.668866 0.084060
Si Si2 0.247797 0.682603 0.883833
Si Si3 0.901325 0.315361 0.684003
Si Si4 0.088982 0.320576 0.954561
Si Si5 0.320576 0.318441 0.490361
Si Si6 0.754381 0.681434 0.260909
Si Si7 0.401354 0.180217 0.197268
Si Si8 0.156187 0.818339 0.060767
O O1 0.500000 0.650567 0.095248
O O2 0.364439 0.500000 0.085409
O O3 0.394980 0.748172 0.024861
O O4 0.375265 0.777095 0.134153
O O5 0.253678 0.500000 0.879438
O O6 0.161132 0.726810 0.913301
O O7 0.249662 0.757054 0.823776
O O8 0.311905 0.745393 0.929733
O O9 0.897668 0.500000 0.686540
O O10 0.834592 0.250372 0.728248
O O11 0.868730 0.265611 0.622413
O O12 0.000000 0.274338 0.691158
O O13 0.099444 0.500000 0.965200
O O14 0.000000 0.294696 0.927899
O O15 0.093862 0.238080 0.013453
O O16 0.322099 0.500000 0.486129
O O17 0.244011 0.273387 0.532231
O O18 0.760458 0.500000 0.259505
O O19 0.666921 0.733826 0.233790
O O20 0.500000 0.218316 0.206794
O O21 0.393500 0.000000 0.205544
O O22 0.155841 0.000000 0.063127
#
# Coordination Sequence:
#
# PCOD9357131 Si02
#       8
#     8   8   8   8   8   8   8   8
#     4  10  20  34  55  86 120 148 177 219 273 333
#     4  10  21  38  57  76 105 145 189 234 279 332
#     4  10  21  37  57  82 115 156 198 237 282 340
#     4   9  18  32  52  78 105 136 176 223 275 328
#     4  10  19  33  55  82 112 145 183 227 277 335
#     4  12  25  40  59  83 114 151 193 242 293 346
#     4  10  21  39  64  91 117 148 188 233 284 345
#     4   9  18  32  52  79 108 139 177 223 275 329
#
# _framework density 18.792756000000001
#
# number of rings (size 3 to 8) (size 9 to 14) (size 15 to 20)
#    0.000    2.000    0.000    3.750    0.000    5.500 
#    0.000    1.875    0.000    3.750    0.000    0.000 
#    0.000    0.000    0.000    0.000    0.000    0.000 
#
# Total GULP energy -178329.347818 kJ/mol
# GULP energy per Si atom -5572.792119 kJ/mol
# Density = 1.874998 g / cm^3
# Si number density = 18.792756 Si / 1000 Ang^3
#
#
#
# Elastic Constant Matrix: (Units=GPa)
#
#
# Indices 1 2 3 4 5 6 
#
# 1 52.0595 34.7108 44.2525 0.0000 0.0000 0.0000
# 2 34.7108 64.7901 50.1296 0.0000 0.0000 0.0000
# 3 44.2525 50.1296 153.6153 0.0000 0.0000 0.0000
# 4 0.0000 0.0000 0.0000 32.3030 0.0000 0.0000
# 5 0.0000 0.0000 0.0000 0.0000 10.9007 0.0000
# 6 0.0000 0.0000 0.0000 0.0000 0.0000 22.0033
#
#
#
# Elastic Compliance Matrix: (Units=1/GPa)
#
#
# Indices 1 2 3 4 5 6 
#
# 1 0.032438 -0.013576 -0.004914 0.000000 0.000000 0.000000
# 2 -0.013576 0.026330 -0.004681 0.000000 0.000000 0.000000
# 3 -0.004914 -0.004681 0.009453 0.000000 0.000000 0.000000
# 4 0.000000 0.000000 0.000000 0.030957 0.000000 0.000000
# 5 0.000000 0.000000 0.000000 0.000000 0.091737 0.000000
# 6 0.000000 0.000000 0.000000 0.000000 0.000000 0.045448
#
#
# Mechanical properties :
#
#
# Convention : Reuss Voigt Hill
#
# Bulk Modulus (GPa) = 45.70905 58.73899 52.22402
# Shear Modulus (GPa) = 17.24147 22.46620 19.85383
#
# Velocity S-wave (km/s) = 3.03223 3.46131 3.25385
# Velocity P-wave (km/s) = 6.05267 6.87737 6.47816
#
# Compressibility (1/GPa) = 0.02187751
#
# Stress axis : x y z
#
# Youngs Moduli (GPa) = 30.82805 37.97968 105.78555
#
# Poissons Ratio (x) = 0.51562 0.51985
# Poissons Ratio (y) = 0.41853 0.49522
# Poissons Ratio (z) = 0.15149 0.17780
#
# Static dielectric constant tensor:
#      x y z
#    x 1.740900 0.000000 0.000000 
#    y 0.000000 1.650880 0.000000 
#    z 0.000000 0.000000 1.632830 
# 
# From -- ./inp_files/21388.got.cif
#   From: 2010.05.17/outbox.cif.g08.bks.cpg/sg38_11_cif.got.tgz:21388.got - 2010.06.03 18:07:57.
