data_PCOD9357794
_publ_section_title
;
Structure prediction by ZEFSAII (Michael W. Deem and Ramdas Pophale) SiO2 
 PCOD9357794
Probable space group: A M M 2
;
_chemical_formula_sum "Si O2"
_cell_formula_units_Z 40
_cell_length_a 8.612536
_cell_length_b 13.968997
_cell_length_c 18.966016
_cell_angle_alpha 90.000000
_cell_angle_beta 90.000000
_cell_angle_gamma 90.000000
_cell_volume 2281.772738
_symmetry_space_group_name_H-M "A M M 2"
_symmetry_group_IT_number 38
_symmetry_cell_setting 'orthorhombic'
loop_
_space_group_symop_operation_xyz
x,y,z
-x,-y,z
-x,y,z
x,-y,z
x,1/2+y,1/2+z
-x,1/2-y,1/2+z
-x,1/2+y,1/2+z
x,1/2-y,1/2+z
loop_
_atom_site_type_symbol
_atom_site_label
_atom_site_fract_x
_atom_site_fract_y
_atom_site_fract_z
Si Si1 0.313911 0.111328 0.519770
Si Si2 0.186783 0.197905 0.663950
Si Si3 0.811362 0.106903 0.232793
Si Si4 0.186215 0.706070 0.878728
Si Si5 0.313739 0.109139 0.806760
O O1 0.500000 0.114481 0.522368
O O2 0.247165 0.159529 0.590046
O O3 0.255380 0.165406 0.450370
O O4 0.264877 0.000000 0.516867
O O5 0.235694 0.307672 0.680483
O O6 0.252366 0.135843 0.728865
O O7 0.000000 0.193529 0.665970
O O8 0.766843 0.140208 0.311672
O O9 0.000000 0.104667 0.231590
O O10 0.754805 0.000000 0.216991
O O11 0.243462 0.812313 0.859355
O O12 0.000000 0.705468 0.882596
O O13 0.500000 0.116914 0.807025
O O14 0.270608 0.000000 0.823999
#
# Coordination Sequence:
#
# PCOD9357794 Si02
#       5
#     8   8   8   8   8
#     4  11  23  37  53  75 106 142 176 216 270 324
#     4  10  20  33  53  80 106 137 179 223 264 310
#     4   8  15  30  52  77 103 130 164 209 259 308
#     4  10  20  34  55  81 106 135 174 220 266 314
#     4  10  20  35  55  78 107 142 176 215 265 317
#
# _framework density 17.53023
#
# number of rings (size 3 to 8) (size 9 to 14) (size 15 to 20)
#    0.000    2.200    0.000    4.800    0.000    6.400 
#    0.000    1.000    0.000   15.600    0.000    0.000 
#    0.000    0.000    0.000    0.000    0.000    0.000 
#
# Total GULP energy -111632.645333 kJ/mol
# GULP energy per Si atom -5581.632267 kJ/mol
# Density = 1.749033 g / cm^3
# Si number density = 17.530230 Si / 1000 Ang^3
#
#
#
# Elastic Constant Matrix: (Units=GPa)
#
#
# Indices 1 2 3 4 5 6 
#
# 1 38.8045 29.0126 25.5460 0.0000 0.0000 0.0000
# 2 29.0126 152.8606 75.3158 0.0000 0.0000 0.0000
# 3 25.5460 75.3158 129.7829 0.0000 0.0000 0.0000
# 4 0.0000 0.0000 0.0000 13.8407 0.0000 0.0000
# 5 0.0000 0.0000 0.0000 0.0000 29.4239 0.0000
# 6 0.0000 0.0000 0.0000 0.0000 0.0000 25.4427
#
#
#
# Elastic Compliance Matrix: (Units=1/GPa)
#
#
# Indices 1 2 3 4 5 6 
#
# 1 0.031317 -0.004071 -0.003802 0.000000 0.000000 0.000000
# 2 -0.004071 0.009691 -0.004822 0.000000 0.000000 0.000000
# 3 -0.003802 -0.004822 0.011252 0.000000 0.000000 0.000000
# 4 0.000000 0.000000 0.000000 0.072251 0.000000 0.000000
# 5 0.000000 0.000000 0.000000 0.000000 0.033986 0.000000
# 6 0.000000 0.000000 0.000000 0.000000 0.000000 0.039304
#
#
# Mechanical properties :
#
#
# Convention : Reuss Voigt Hill
#
# Bulk Modulus (GPa) = 37.21723 64.57744 50.89733
# Shear Modulus (GPa) = 21.53815 26.51303 24.02559
#
# Velocity S-wave (km/s) = 3.50898 3.89320 3.70607
# Velocity P-wave (km/s) = 6.13952 7.55825 6.88552
#
# Compressibility (1/GPa) = 0.02686927
#
# Stress axis : x y z
#
# Youngs Moduli (GPa) = 31.93200 103.19362 88.87235
#
# Poissons Ratio (x) = 0.42005 0.33790
# Poissons Ratio (y) = 0.12998 0.42858
# Poissons Ratio (z) = 0.12141 0.49764
#
# Static dielectric constant tensor:
#      x y z
#    x 1.594840 0.000000 0.000000 
#    y 0.000000 1.607620 0.000000 
#    z 0.000000 0.000000 1.554300 
# 
# From -- ./inp_files/16318.got.cif
#   From: 2010.05.17/outbox.cif.g08.bks.cpg/sg38_9_cif.got.tgz:16318.got - 2010.06.03 18:07:57.
