data_PCOD9357307
_publ_section_title
;
Structure prediction by ZEFSAII (Michael W. Deem and Ramdas Pophale) SiO2 
 PCOD9357307
Probable space group: A M M 2
;
_chemical_formula_sum "Si O2"
_cell_formula_units_Z 64
_cell_length_a 8.836183
_cell_length_b 15.796142
_cell_length_c 24.404269
_cell_angle_alpha 90.000000
_cell_angle_beta 90.000000
_cell_angle_gamma 90.000000
_cell_volume 3406.289331
_symmetry_space_group_name_H-M "A M M 2"
_symmetry_group_IT_number 38
_symmetry_cell_setting 'orthorhombic'
loop_
_space_group_symop_operation_xyz
x,y,z
-x,-y,z
-x,y,z
x,-y,z
x,1/2+y,1/2+z
-x,1/2-y,1/2+z
-x,1/2+y,1/2+z
x,1/2-y,1/2+z
loop_
_atom_site_type_symbol
_atom_site_label
_atom_site_fract_x
_atom_site_fract_y
_atom_site_fract_z
Si Si1 0.678564 0.351306 0.107490
Si Si2 0.819552 0.095673 0.223569
Si Si3 0.682914 0.255799 0.918354
Si Si4 0.321066 0.852206 0.110106
Si Si5 0.818955 0.595757 0.222307
Si Si6 0.180984 0.903383 0.491655
Si Si7 0.315736 0.593946 0.488333
Si Si8 0.681201 0.250511 0.290548
O O1 0.500000 0.370615 0.108121
O O2 0.695335 0.249417 0.109404
O O3 0.756871 0.389240 0.161080
O O4 0.751279 0.384677 0.051622
O O5 0.769214 0.110235 0.160896
O O6 0.740748 0.167339 0.259741
O O7 0.000000 0.104843 0.227836
O O8 0.777806 0.000000 0.240139
O O9 0.500000 0.260588 0.922706
O O10 0.751950 0.335891 0.949409
O O11 0.722931 0.252747 0.854496
O O12 0.733641 0.170201 0.949324
O O13 0.500000 0.871311 0.117194
O O14 0.271901 0.887391 0.051129
O O15 0.780101 0.500000 0.239717
O O16 0.748871 0.667072 0.261122
O O17 0.000000 0.604367 0.221719
O O18 0.000000 0.894879 0.494018
O O19 0.218068 0.000000 0.476046
O O20 0.500000 0.594670 0.487590
O O21 0.265637 0.500000 0.471749
O O22 0.500000 0.253797 0.285843
#
# Coordination Sequence:
#
# PCOD9357307 Si02
#       8
#     8   8   8   8   8   8   8   8
#     4  11  21  36  62  93 123 156 197 247 300 356
#     4  11  24  40  60  87 121 159 197 244 302 363
#     4  10  22  41  62  87 117 152 201 252 297 348
#     4  10  19  34  60  90 120 154 192 238 293 355
#     4  11  24  41  62  89 123 161 200 246 302 365
#     4  11  24  40  60  88 122 161 201 243 299 362
#     4   9  17  33  59  88 117 148 182 228 287 347
#     4  11  24  41  63  88 117 157 204 256 306 355
#
# _framework density 18.788772999999999
#
# number of rings (size 3 to 8) (size 9 to 14) (size 15 to 20)
#    0.000    1.500    2.500    2.625    0.000    7.500 
#    0.000    3.750    0.000    0.375    0.000    0.000 
#    0.000    0.000    0.000    0.000    0.000    0.000 
#
# Total GULP energy -178875.709512 kJ/mol
# GULP energy per Si atom -5589.865922 kJ/mol
# Density = 1.874601 g / cm^3
# Si number density = 18.788773 Si / 1000 Ang^3
#
#
#
# Elastic Constant Matrix: (Units=GPa)
#
#
# Indices 1 2 3 4 5 6 
#
# 1 44.7777 62.2892 52.4346 0.0000 0.0000 0.0000
# 2 62.2892 181.4792 105.2188 0.0000 0.0000 0.0000
# 3 52.4346 105.2188 159.5734 0.0000 0.0000 0.0000
# 4 0.0000 0.0000 0.0000 -4.7731 0.0000 0.0000
# 5 0.0000 0.0000 0.0000 0.0000-1040.8882 0.0000
# 6 0.0000 0.0000 0.0000 0.0000 0.0000 14.8035
#
#
#
# Elastic Compliance Matrix: (Units=1/GPa)
#
#
# Indices 1 2 3 4 5 6 
#
# 1 0.048319 -0.011946 -0.008000 0.000000 0.000000 0.000000
# 2 -0.011946 0.011874 -0.003904 0.000000 0.000000 0.000000
# 3 -0.008000 -0.003904 0.011470 0.000000 0.000000 0.000000
# 4 0.000000 0.000000 0.000000 -0.209505 0.000000 0.000000
# 5 0.000000 0.000000 0.000000 0.000000 -0.000961 0.000000
# 6 0.000000 0.000000 0.000000 0.000000 0.000000 0.067552
#
#
# Mechanical properties :
#
#
# Convention : Reuss Voigt Hill
#
# Bulk Modulus (GPa) = 41.73313 91.74617 66.73965
# Shear Modulus (GPa) = -321.24817 -195.11240 -258.18028
#
# Velocity S-wave (km/s) = -13.09007 -10.20150 -11.73500
# Velocity P-wave (km/s) = 14.35990 9.47758 12.16617
#
# Compressibility (1/GPa) = 0.02396178
#
# Stress axis : x y z
#
# Youngs Moduli (GPa) = 20.69598 84.21738 87.18572
#
# Poissons Ratio (x) = 1.00606 0.69750
# Poissons Ratio (y) = 0.24723 0.34038
# Poissons Ratio (z) = 0.16557 0.32879
#
# Static dielectric constant tensor:
#      x y z
#    x 1.684890 0.000000 0.000000 
#    y 0.000000 1.650510 0.000000 
#    z 0.000000 0.000000 1.613770 
# 
# From -- ./inp_files/22190.got.cif
#   From: 2010.05.17/outbox.cif.g08.bks.cpg/sg38_12_cif.got.tgz:22190.got - 2010.06.03 18:07:57.
