data_PCOD9357268
_publ_section_title
;
Structure prediction by ZEFSAII (Michael W. Deem and Ramdas Pophale) SiO2 
 PCOD9357268
Probable space group: A M M 2
;
_chemical_formula_sum "Si O2"
_cell_formula_units_Z 48
_cell_length_a 16.012283
_cell_length_b 8.637794
_cell_length_c 19.059763
_cell_angle_alpha 90.000000
_cell_angle_beta 90.000000
_cell_angle_gamma 90.000000
_cell_volume 2636.171107
_symmetry_space_group_name_H-M "A M M 2"
_symmetry_group_IT_number 38
_symmetry_cell_setting 'orthorhombic'
loop_
_space_group_symop_operation_xyz
x,y,z
-x,-y,z
-x,y,z
x,-y,z
x,1/2+y,1/2+z
-x,1/2-y,1/2+z
-x,1/2+y,1/2+z
x,1/2-y,1/2+z
loop_
_atom_site_type_symbol
_atom_site_label
_atom_site_fract_x
_atom_site_fract_y
_atom_site_fract_z
Si Si1 0.500000 0.182275 0.787170
Si Si2 0.330597 0.674867 0.743070
Si Si3 0.788508 0.322267 0.345915
Si Si4 0.096919 0.812691 0.724712
Si Si5 0.774812 0.322869 0.610690
Si Si6 0.500000 0.819780 0.956294
Si Si7 0.313191 0.817002 0.476762
O O1 0.577118 0.274692 0.756829
O O2 0.500000 0.191736 0.871541
O O3 0.500000 0.000000 0.768535
O O4 0.312653 0.500000 0.770245
O O5 0.277787 0.804099 0.783321
O O6 0.304104 0.674971 0.662922
O O7 0.802873 0.500000 0.366214
O O8 0.869198 0.261696 0.302220
O O9 0.741891 0.239290 0.410019
O O10 0.151566 0.744220 0.660529
O O11 0.000000 0.772229 0.716704
O O12 0.105224 0.000000 0.723176
O O13 0.795634 0.500000 0.591166
O O14 0.743384 0.230665 0.543357
O O15 0.591388 0.751253 0.978560
O O16 0.500000 0.000000 0.976636
O O17 0.322716 0.000000 0.473228
#
# Coordination Sequence:
#
# PCOD9357268 Si02
#       7
#     4   8   8   8   8   4   8
#     4  11  21  32  53  80 108 146 190 237 285 334
#     4  10  20  34  54  78 106 142 187 234 280 332
#     4  10  19  34  57  83 113 147 184 231 285 341
#     4   9  19  38  64  91 117 147 187 236 290 350
#     4  10  22  39  58  83 116 154 191 235 290 346
#     4  11  23  38  57  82 114 154 196 241 289 342
#     4  12  24  38  58  84 116 157 199 241 288 340
#
# _framework density 18.208224999999999
#
# number of rings (size 3 to 8) (size 9 to 14) (size 15 to 20)
#    0.000    1.667    1.667    3.500    0.000    4.333 
#    0.000    1.667    0.000    3.000    0.000    0.000 
#    0.000    0.000    0.000    0.000    0.000    0.000 
#
# Total GULP energy -133633.580364 kJ/mol
# GULP energy per Si atom -5568.065849 kJ/mol
# Density = 1.816678 g / cm^3
# Si number density = 18.208225 Si / 1000 Ang^3
#
#
#
# Elastic Constant Matrix: (Units=GPa)
#
#
# Indices 1 2 3 4 5 6 
#
# 1 105.1082 32.8017 41.2068 0.0000 0.0000 0.0000
# 2 32.8017 87.7367 40.2994 0.0000 0.0000 0.0000
# 3 41.2068 40.2994 91.6806 0.0000 0.0000 0.0000
# 4 0.0000 0.0000 0.0000 28.8060 0.0000 0.0000
# 5 0.0000 0.0000 0.0000 0.0000 7.2368 0.0000
# 6 0.0000 0.0000 0.0000 0.0000 0.0000 24.5733
#
#
#
# Elastic Compliance Matrix: (Units=1/GPa)
#
#
# Indices 1 2 3 4 5 6 
#
# 1 0.011975 -0.002512 -0.004278 0.000000 0.000000 0.000000
# 2 -0.002512 0.014808 -0.005380 0.000000 0.000000 0.000000
# 3 -0.004278 -0.005380 0.015195 0.000000 0.000000 0.000000
# 4 0.000000 0.000000 0.000000 0.034715 0.000000 0.000000
# 5 0.000000 0.000000 0.000000 0.000000 0.138183 0.000000
# 6 0.000000 0.000000 0.000000 0.000000 0.000000 0.040695
#
#
# Mechanical properties :
#
#
# Convention : Reuss Voigt Hill
#
# Bulk Modulus (GPa) = 56.69594 57.01569 56.85582
# Shear Modulus (GPa) = 17.49529 23.47105 20.48317
#
# Velocity S-wave (km/s) = 3.10311 3.59421 3.35765
# Velocity P-wave (km/s) = 6.63658 6.97177 6.80624
#
# Compressibility (1/GPa) = 0.01763795
#
# Stress axis : x y z
#
# Youngs Moduli (GPa) = 83.50607 67.53082 65.81043
#
# Poissons Ratio (x) = 0.16964 0.28155
# Poissons Ratio (y) = 0.20977 0.35406
# Poissons Ratio (z) = 0.35725 0.36332
#
# Static dielectric constant tensor:
#      x y z
#    x 1.704830 0.000000 0.000000 
#    y 0.000000 1.652100 0.000000 
#    z 0.000000 0.000000 1.625290 
# 
# From -- ./inp_files/18186.got.cif
#   From: 2010.05.17/outbox.cif.g08.bks.cpg/sg38_10_cif.got.tgz:18186.got - 2010.06.03 18:07:57.
