data_PCOD9357134
_publ_section_title
;
Structure prediction by ZEFSAII (Michael W. Deem and Ramdas Pophale) SiO2 
 PCOD9357134
Probable space group: A M M 2
;
_chemical_formula_sum "Si O2"
_cell_formula_units_Z 56
_cell_length_a 8.967158
_cell_length_b 24.265208
_cell_length_c 13.906870
_cell_angle_alpha 90.000000
_cell_angle_beta 90.000000
_cell_angle_gamma 90.000000
_cell_volume 3025.995204
_symmetry_space_group_name_H-M "A M M 2"
_symmetry_group_IT_number 38
_symmetry_cell_setting 'orthorhombic'
loop_
_space_group_symop_operation_xyz
x,y,z
-x,-y,z
-x,y,z
x,-y,z
x,1/2+y,1/2+z
-x,1/2-y,1/2+z
-x,1/2+y,1/2+z
x,1/2-y,1/2+z
loop_
_atom_site_type_symbol
_atom_site_label
_atom_site_fract_x
_atom_site_fract_y
_atom_site_fract_z
Si Si1 0.322477 0.563533 0.175140
Si Si2 0.178382 0.728829 0.268099
Si Si3 0.321857 0.170471 0.369552
Si Si4 0.323037 0.126493 0.872851
Si Si5 0.678857 0.062746 0.256751
Si Si6 0.177672 0.334093 0.073497
Si Si7 0.822752 0.064896 0.049844
O O1 0.500000 0.568367 0.155662
O O2 0.278755 0.500000 0.162989
O O3 0.298868 0.583406 0.285032
O O4 0.235554 0.606219 0.108244
O O5 0.253018 0.786266 0.294993
O O6 0.242314 0.682354 0.339942
O O7 0.214647 0.707580 0.160741
O O8 0.000000 0.731998 0.277229
O O9 0.500000 0.175885 0.371563
O O10 0.283346 0.108677 0.335104
O O11 0.255244 0.181454 0.474335
O O12 0.500000 0.135735 0.881596
O O13 0.256676 0.101662 0.969893
O O14 0.500000 0.064707 0.241625
O O15 0.758642 0.075489 0.156007
O O16 0.717794 0.000000 0.285071
O O17 0.000000 0.334821 0.061821
O O18 0.000000 0.073991 0.048145
O O19 0.794555 0.000000 0.029133
#
# Coordination Sequence:
#
# PCOD9357134 Si02
#       7
#     8   8   8   8   8   8   8
#     4   9  18  33  54  81 113 149 189 233 279 327
#     4  10  22  40  59  81 112 147 184 229 278 329
#     4  11  23  39  62  87 110 143 185 228 276 330
#     4  10  19  33  55  82 113 150 191 234 279 329
#     4   9  20  39  59  80 109 145 187 233 277 326
#     4  10  22  39  58  82 113 148 185 228 277 329
#     4  10  20  33  52  81 116 152 189 232 282 333
#
# _framework density 18.506308000000001
#
# number of rings (size 3 to 8) (size 9 to 14) (size 15 to 20)
#    0.000    2.143    0.000    2.571    0.000    6.857 
#    0.000    4.286    0.000    0.000    0.000    0.000 
#    0.000    0.000    0.000    0.000    0.000    0.000 
#
# Total GULP energy -156386.716531 kJ/mol
# GULP energy per Si atom -5585.239876 kJ/mol
# Density = 1.846419 g / cm^3
# Si number density = 18.506308 Si / 1000 Ang^3
#
#
#
# Elastic Constant Matrix: (Units=GPa)
#
#
# Indices 1 2 3 4 5 6 
#
# 1 55.3073 49.0824 50.1640 0.0000 0.0000 0.0000
# 2 49.0824 100.9617 57.8711 0.0000 0.0000 0.0000
# 3 50.1640 57.8711 90.0720 0.0000 0.0000 0.0000
# 4 0.0000 0.0000 0.0000 17.7376 0.0000 0.0000
# 5 0.0000 0.0000 0.0000 0.0000 30.6856 0.0000
# 6 0.0000 0.0000 0.0000 0.0000 0.0000 29.4571
#
#
#
# Elastic Compliance Matrix: (Units=1/GPa)
#
#
# Indices 1 2 3 4 5 6 
#
# 1 0.043636 -0.011530 -0.016895 0.000000 0.000000 0.000000
# 2 -0.011530 0.018725 -0.005610 0.000000 0.000000 0.000000
# 3 -0.016895 -0.005610 0.024116 0.000000 0.000000 0.000000
# 4 0.000000 0.000000 0.000000 0.056378 0.000000 0.000000
# 5 0.000000 0.000000 0.000000 0.000000 0.032589 0.000000
# 6 0.000000 0.000000 0.000000 0.000000 0.000000 0.033948
#
#
# Mechanical properties :
#
#
# Convention : Reuss Voigt Hill
#
# Bulk Modulus (GPa) = 54.32090 62.28623 58.30356
# Shear Modulus (GPa) = 17.63071 21.52429 19.57750
#
# Velocity S-wave (km/s) = 3.08991 3.41409 3.25604
# Velocity P-wave (km/s) = 6.49203 7.01934 6.76083
#
# Compressibility (1/GPa) = 0.01840912
#
# Stress axis : x y z
#
# Youngs Moduli (GPa) = 22.91664 53.40334 41.46683
#
# Poissons Ratio (x) = 0.61573 0.70057
# Poissons Ratio (y) = 0.26422 0.23262
# Poissons Ratio (z) = 0.38717 0.29958
#
# Static dielectric constant tensor:
#      x y z
#    x 1.613390 0.000000 0.000000 
#    y 0.000000 1.631690 0.000000 
#    z 0.000000 0.000000 1.609000 
# 
# From -- ./inp_files/12450.got.cif
#   From: 2010.05.17/outbox.cif.g08.bks.cpg/sg38_7_cif.got.tgz:12450.got - 2010.06.03 18:07:57.
