data_PCOD9357595
_publ_section_title
;
Structure prediction by ZEFSAII (Michael W. Deem and Ramdas Pophale) SiO2 
 PCOD9357595
Probable space group: A M M 2
;
_chemical_formula_sum "Si O2"
_cell_formula_units_Z 64
_cell_length_a 7.655159
_cell_length_b 21.253815
_cell_length_c 16.480973
_cell_angle_alpha 90.000000
_cell_angle_beta 90.000000
_cell_angle_gamma 90.000000
_cell_volume 2681.476279
_symmetry_space_group_name_H-M "A M M 2"
_symmetry_group_IT_number 38
_symmetry_cell_setting 'orthorhombic'
loop_
_space_group_symop_operation_xyz
x,y,z
-x,-y,z
-x,y,z
x,-y,z
x,1/2+y,1/2+z
-x,1/2-y,1/2+z
-x,1/2+y,1/2+z
x,1/2-y,1/2+z
loop_
_atom_site_type_symbol
_atom_site_label
_atom_site_fract_x
_atom_site_fract_y
_atom_site_fract_z
Si Si1 0.205808 0.708966 0.732020
Si Si2 0.708877 0.427513 0.302853
Si Si3 0.700784 0.568382 0.779461
Si Si4 0.797091 0.751126 0.898080
Si Si5 0.790571 0.927758 0.628828
Si Si6 0.288975 0.927124 0.981494
Si Si7 0.201773 0.606257 0.951942
Si Si8 0.204547 0.692341 0.558583
O O1 0.215824 0.633929 0.750666
O O2 0.282307 0.747624 0.807964
O O3 0.280426 0.717950 0.642246
O O4 0.000000 0.724374 0.729324
O O5 0.500000 0.429674 0.308230
O O6 0.774353 0.500000 0.298354
O O7 0.750278 0.396981 0.216129
O O8 0.770017 0.404105 0.390959
O O9 0.500000 0.570659 0.752194
O O10 0.774849 0.500000 0.754828
O O11 0.705760 0.571660 0.877773
O O12 0.799850 0.678968 0.927435
O O13 0.000000 0.771936 0.890087
O O14 0.711965 0.785646 0.974198
O O15 0.727812 0.900267 0.543250
O O16 0.000000 0.928210 0.624841
O O17 0.725852 0.000000 0.631343
O O18 0.500000 0.924635 0.984961
O O19 0.238499 0.000000 0.989179
O O20 0.215921 0.882781 0.051304
O O21 0.000000 0.583759 0.951741
O O22 0.000000 0.711313 0.556993
#
# Coordination Sequence:
#
# PCOD9357595 Si02
#       8
#     8   8   8   8   8   8   8   8
#     4   9  19  36  56  76 105 142 175 213 264 318
#     4   8  15  29  46  63  91 133 171 202 245 304
#     4  10  20  32  49  76 107 139 177 219 263 311
#     4   8  16  34  54  74 102 135 171 213 258 305
#     4   9  16  25  41  70 103 132 169 216 261 304
#     4   9  19  36  55  75 104 141 174 209 263 323
#     4   9  17  31  50  72 102 140 178 217 264 317
#     4  10  20  35  57  83 105 133 176 219 262 313
#
# _framework density 23.867450999999999
#
# number of rings (size 3 to 8) (size 9 to 14) (size 15 to 20)
#    0.000    3.000    0.000    2.250    0.000    3.750 
#    2.250    7.500    0.000    0.000    0.000    0.000 
#    0.000    0.000    0.000    0.000    0.000    0.000 
#
# Total GULP energy -178421.342161 kJ/mol
# GULP energy per Si atom -5575.666943 kJ/mol
# Density = 2.381313 g / cm^3
# Si number density = 23.867451 Si / 1000 Ang^3
#
#
#
# Elastic Constant Matrix: (Units=GPa)
#
#
# Indices 1 2 3 4 5 6 
#
# 1 45.9989 0.2776 3.3144 0.0000 0.0000 0.0000
# 2 0.2776 29.9766 26.5622 0.0000 0.0000 0.0000
# 3 3.3144 26.5622 188.8528 0.0000 0.0000 0.0000
# 4 0.0000 0.0000 0.0000 20.4638 0.0000 0.0000
# 5 0.0000 0.0000 0.0000 0.0000 19.6595 0.0000
# 6 0.0000 0.0000 0.0000 0.0000 0.0000 24.6990
#
#
#
# Elastic Compliance Matrix: (Units=1/GPa)
#
#
# Indices 1 2 3 4 5 6 
#
# 1 0.021768 0.000156 -0.000404 0.000000 0.000000 0.000000
# 2 0.000156 0.038110 -0.005363 0.000000 0.000000 0.000000
# 3 -0.000404 -0.005363 0.006057 0.000000 0.000000 0.000000
# 4 0.000000 0.000000 0.000000 0.048867 0.000000 0.000000
# 5 0.000000 0.000000 0.000000 0.000000 0.050866 0.000000
# 6 0.000000 0.000000 0.000000 0.000000 0.000000 0.040487
#
#
# Mechanical properties :
#
#
# Convention : Reuss Voigt Hill
#
# Bulk Modulus (GPa) = 18.27709 36.12627 27.20168
# Shear Modulus (GPa) = 21.22123 28.60942 24.91533
#
# Velocity S-wave (km/s) = 2.98506 3.46595 3.23446
# Velocity P-wave (km/s) = 4.42212 5.58446 5.03693
#
# Compressibility (1/GPa) = 0.05471331
#
# Stress axis : x y z
#
# Youngs Moduli (GPa) = 45.93937 26.23988 165.11149
#
# Poissons Ratio (x) = -0.00411 0.06671
# Poissons Ratio (y) = -0.00719 0.88548
# Poissons Ratio (z) = 0.01856 0.14072
#
# Static dielectric constant tensor:
#      x y z
#    x 1.867360 0.000000 0.000000 
#    y 0.000000 1.934260 0.000000 
#    z 0.000000 0.000000 1.976490 
# 
# From -- ./inp_files/12860.got.cif
#   From: 2010.05.17/outbox.cif.g08.bks.cpg/sg38_7_cif.got.tgz:12860.got - 2010.06.03 18:07:57.
