data_PCOD9357106
_publ_section_title
;
Structure prediction by ZEFSAII (Michael W. Deem and Ramdas Pophale) SiO2 
 PCOD9357106
Probable space group: A M M 2
;
_chemical_formula_sum "Si O2"
_cell_formula_units_Z 48
_cell_length_a 8.466043
_cell_length_b 7.785372
_cell_length_c 39.204639
_cell_angle_alpha 90.000000
_cell_angle_beta 90.000000
_cell_angle_gamma 90.000000
_cell_volume 2584.028492
_symmetry_space_group_name_H-M "A M M 2"
_symmetry_group_IT_number 38
_symmetry_cell_setting 'orthorhombic'
loop_
_space_group_symop_operation_xyz
x,y,z
-x,-y,z
-x,y,z
x,-y,z
x,1/2+y,1/2+z
-x,1/2-y,1/2+z
-x,1/2+y,1/2+z
x,1/2-y,1/2+z
loop_
_atom_site_type_symbol
_atom_site_label
_atom_site_fract_x
_atom_site_fract_y
_atom_site_fract_z
Si Si1 0.190982 0.194773 0.134840
Si Si2 0.310729 0.000000 0.336856
Si Si3 0.689254 0.302574 0.459959
Si Si4 0.690982 0.305227 0.209328
Si Si5 0.192913 0.500000 0.085519
Si Si6 0.810729 0.000000 0.507312
Si Si7 0.810746 0.197426 0.884209
Si Si8 0.692913 0.000000 0.258649
O O1 0.250000 0.250000 0.172084
O O2 0.243857 0.332212 0.106672
O O3 0.000000 0.197552 0.135413
O O4 0.242458 0.000000 0.127560
O O5 0.252952 0.167729 0.357019
O O6 0.254152 0.000000 0.297714
O O7 0.000000 0.000000 0.507407
O O8 0.500000 0.296140 0.459718
O O9 0.738836 0.500000 0.467047
O O10 0.750000 0.257914 0.422084
O O11 0.752952 0.167729 0.487149
O O12 0.500000 0.302448 0.208755
O O13 0.742458 0.500000 0.216608
O O14 0.743857 0.167788 0.237496
O O15 0.245848 0.500000 0.046454
O O16 0.000000 0.500000 0.085256
O O17 0.500000 0.000000 0.336761
O O18 0.000000 0.203860 0.884450
O O19 0.761164 0.000000 0.877121
O O20 0.500000 0.000000 0.258912
#
# Coordination Sequence:
#
# PCOD9357106 Si02
#       8
#     8   4   8   8   4   4   8   4
#     4  10  19  33  55  79 103 135 176 223 272 322
#     4  11  22  36  57  83 114 152 190 232 280 333
#     4  10  21  38  60  85 114 149 189 233 278 330
#     4  10  19  33  55  79 103 135 176 223 272 322
#     4   9  20  36  52  77 111 144 182 224 273 331
#     4  11  22  36  57  83 114 152 190 232 280 333
#     4  10  21  38  60  85 114 149 189 233 278 330
#     4   9  20  36  52  77 111 144 182 224 273 331
#
# _framework density 18.575645999999999
#
# number of rings (size 3 to 8) (size 9 to 14) (size 15 to 20)
#    0.000    2.000    1.667    2.000    0.000    3.333 
#    0.000    6.667    0.000    0.000    0.000    0.000 
#    0.000    0.000    0.000    0.000    0.000    0.000 
#
# Total GULP energy -134031.768268 kJ/mol
# GULP energy per Si atom -5584.657011 kJ/mol
# Density = 1.853337 g / cm^3
# Si number density = 18.575646 Si / 1000 Ang^3
#
#
#
# Elastic Constant Matrix: (Units=GPa)
#
#
# Indices 1 2 3 4 5 6 
#
# 1 24.0691 27.9306 27.7038 0.0000 0.0000 0.0000
# 2 27.9306 186.8808 134.0773 0.0000 0.0000 0.0000
# 3 27.7038 134.0773 201.0876 0.0000 0.0000 0.0000
# 4 0.0000 0.0000 0.0000 4.4964 0.0000 0.0000
# 5 0.0000 0.0000 0.0000 0.0000 27.8175 0.0000
# 6 0.0000 0.0000 0.0000 0.0000 0.0000 -3.8655
#
#
#
# Elastic Compliance Matrix: (Units=1/GPa)
#
#
# Indices 1 2 3 4 5 6 
#
# 1 0.051721 -0.005018 -0.003779 0.000000 0.000000 0.000000
# 2 -0.005018 0.010745 -0.006473 0.000000 0.000000 0.000000
# 3 -0.003779 -0.006473 0.009810 0.000000 0.000000 0.000000
# 4 0.000000 0.000000 0.000000 0.222401 0.000000 0.000000
# 5 0.000000 0.000000 0.000000 0.000000 0.035949 0.000000
# 6 0.000000 0.000000 0.000000 0.000000 0.000000 -0.258702
#
#
# Mechanical properties :
#
#
# Convention : Reuss Voigt Hill
#
# Bulk Modulus (GPa) = 23.96142 87.94010 55.95076
# Shear Modulus (GPa) = 42.96424 20.51141 31.73782
#
# Velocity S-wave (km/s) = 4.81451 3.32657 4.13797
# Velocity P-wave (km/s) = 6.62068 7.88664 7.28123
#
# Compressibility (1/GPa) = 0.04173375
#
# Stress axis : x y z
#
# Youngs Moduli (GPa) = 19.33453 93.06561 101.94084
#
# Poissons Ratio (x) = 0.46705 0.38528
# Poissons Ratio (y) = 0.09703 0.65987
# Poissons Ratio (z) = 0.07307 0.60242
#
# Static dielectric constant tensor:
#      x y z
#    x 1.640120 0.000000 0.000000 
#    y 0.000000 1.646320 0.000000 
#    z 0.000000 0.000000 1.599650 
# 
# From -- ./inp_files/24456.got.cif
#   From: 2010.05.17/outbox.cif.g08.bks.cpg/sg38_13_cif.got.tgz:24456.got - 2010.06.03 18:07:57.
