data_PCOD9357981
_publ_section_title
;
Structure prediction by ZEFSAII (Michael W. Deem and Ramdas Pophale) SiO2 
 PCOD9357981
Probable space group: A M M 2
;
_chemical_formula_sum "Si O2"
_cell_formula_units_Z 64
_cell_length_a 24.735135
_cell_length_b 7.944737
_cell_length_c 15.864541
_cell_angle_alpha 90.000000
_cell_angle_beta 90.000000
_cell_angle_gamma 90.000000
_cell_volume 3117.606667
_symmetry_space_group_name_H-M "A M M 2"
_symmetry_group_IT_number 38
_symmetry_cell_setting 'orthorhombic'
loop_
_space_group_symop_operation_xyz
x,y,z
-x,-y,z
-x,y,z
x,-y,z
x,1/2+y,1/2+z
-x,1/2-y,1/2+z
-x,1/2+y,1/2+z
x,1/2-y,1/2+z
loop_
_atom_site_type_symbol
_atom_site_label
_atom_site_fract_x
_atom_site_fract_y
_atom_site_fract_z
Si Si1 0.132172 0.303057 0.893910
Si Si2 0.938530 0.301381 0.235669
Si Si3 0.324319 0.293659 0.071284
Si Si4 0.252907 0.700963 0.915483
Si Si5 0.441041 0.203396 0.816541
Si Si6 0.558977 0.797574 0.513492
Si Si7 0.675130 0.796145 0.756963
Si Si8 0.937800 0.197964 0.050601
O O1 0.137379 0.500000 0.875104
O O2 0.098936 0.228818 0.815879
O O3 0.192429 0.230232 0.904750
O O4 0.099485 0.281632 0.980695
O O5 0.941111 0.500000 0.220990
O O6 0.919618 0.222851 0.147213
O O7 0.000000 0.239166 0.252757
O O8 0.325235 0.500000 0.068372
O O9 0.386156 0.236405 0.056508
O O10 0.305768 0.244250 0.164326
O O11 0.285911 0.233076 0.996225
O O12 0.248188 0.500000 0.928020
O O13 0.288034 0.732145 0.832371
O O14 0.500000 0.261772 0.784847
O O15 0.386941 0.261013 0.770300
O O16 0.441246 0.000000 0.812693
O O17 0.436832 0.256286 0.914257
O O18 0.500000 0.734167 0.542950
O O19 0.558302 0.000000 0.523162
O O20 0.675398 0.000000 0.760539
O O21 0.000000 0.260827 0.045721
O O22 0.938396 0.000000 0.031710
#
# Coordination Sequence:
#
# PCOD9357981 Si02
#       8
#     8   8   8   8   8   8   8   8
#     4  11  23  37  57  84 115 155 198 239 288 339
#     4  10  21  38  61  89 120 153 189 233 286 339
#     4   9  18  34  54  75 103 136 174 223 272 322
#     4  10  22  40  56  75 108 145 183 231 278 318
#     4   9  17  29  47  74 107 135 164 214 276 331
#     4   9  16  28  51  77  99 132 175 215 263 327
#     4  10  20  34  55  79 102 138 183 224 275 332
#     4  10  21  38  61  90 123 155 188 230 280 337
#
# _framework density 20.528568
#
# number of rings (size 3 to 8) (size 9 to 14) (size 15 to 20)
#    0.000    2.250    1.250    1.500    0.000    5.500 
#    0.000    5.000    0.000    0.000    0.000    3.500 
#    0.000    0.000    0.000    0.000    0.000    0.000 
#
# Total GULP energy -178621.802310 kJ/mol
# GULP energy per Si atom -5581.931322 kJ/mol
# Density = 2.048184 g / cm^3
# Si number density = 20.528568 Si / 1000 Ang^3
#
#
#
# Elastic Constant Matrix: (Units=GPa)
#
#
# Indices 1 2 3 4 5 6 
#
# 1 111.9374 -4.6049 59.2282 0.0000 0.0000 0.0000
# 2 -4.6049 15.0590 -18.2402 0.0000 0.0000 0.0000
# 3 59.2282 -18.2402 105.8200 0.0000 0.0000 0.0000
# 4 0.0000 0.0000 0.0000 27.8441 0.0000 0.0000
# 5 0.0000 0.0000 0.0000 0.0000 -5.2110 0.0000
# 6 0.0000 0.0000 0.0000 0.0000 0.0000 12.1939
#
#
#
# Elastic Compliance Matrix: (Units=1/GPa)
#
#
# Indices 1 2 3 4 5 6 
#
# 1 0.013132 -0.006177 -0.008415 0.000000 0.000000 0.000000
# 2 -0.006177 0.086834 0.018425 0.000000 0.000000 0.000000
# 3 -0.008415 0.018425 0.017336 0.000000 0.000000 0.000000
# 4 0.000000 0.000000 0.000000 0.035914 0.000000 0.000000
# 5 0.000000 0.000000 0.000000 0.000000 -0.191901 0.000000
# 6 0.000000 0.000000 0.000000 0.000000 0.000000 0.082008
#
#
# Mechanical properties :
#
#
# Convention : Reuss Voigt Hill
#
# Bulk Modulus (GPa) = 8.00205 33.95361 20.97783
# Shear Modulus (GPa) = 64.67287 20.06095 42.36691
#
# Velocity S-wave (km/s) = 5.61892 3.12944 4.54784
# Velocity P-wave (km/s) = 6.78253 5.44367 6.14965
#
# Compressibility (1/GPa) = 0.12496793
#
# Stress axis : x y z
#
# Youngs Moduli (GPa) = 76.15100 11.51626 57.68483
#
# Poissons Ratio (x) = 0.07113 0.48540
# Poissons Ratio (y) = 0.47035 -1.06282
# Poissons Ratio (z) = 0.64078 -0.21218
#
# Static dielectric constant tensor:
#      x y z
#    x 1.747990 0.000000 0.000000 
#    y 0.000000 1.745830 0.000000 
#    z 0.000000 0.000000 1.696910 
# 
# From -- ./inp_files/15853.got.cif
#   From: 2010.05.17/outbox.cif.g08.bks.cpg/sg38_8_cif.got.tgz:15853.got - 2010.06.03 18:07:57.
