data_PCOD9357876
_publ_section_title
;
Structure prediction by ZEFSAII (Michael W. Deem and Ramdas Pophale) SiO2 
 PCOD9357876
Probable space group: A M M 2
;
_chemical_formula_sum "Si O2"
_cell_formula_units_Z 64
_cell_length_a 15.094879
_cell_length_b 8.832051
_cell_length_c 25.544314
_cell_angle_alpha 90.000000
_cell_angle_beta 90.000000
_cell_angle_gamma 90.000000
_cell_volume 3405.535786
_symmetry_space_group_name_H-M "A M M 2"
_symmetry_group_IT_number 38
_symmetry_cell_setting 'orthorhombic'
loop_
_space_group_symop_operation_xyz
x,y,z
-x,-y,z
-x,y,z
x,-y,z
x,1/2+y,1/2+z
-x,1/2-y,1/2+z
-x,1/2+y,1/2+z
x,1/2-y,1/2+z
loop_
_atom_site_type_symbol
_atom_site_label
_atom_site_fract_x
_atom_site_fract_y
_atom_site_fract_z
Si Si1 0.396953 0.682293 0.353450
Si Si2 0.101783 0.684751 0.072078
Si Si3 0.107901 0.174383 0.457035
Si Si4 0.252373 0.315351 0.269896
Si Si5 0.604178 0.819631 0.072150
Si Si6 0.101592 0.317832 0.348458
Si Si7 0.392157 0.326134 0.962762
Si Si8 0.255695 0.683310 0.149882
O O1 0.500000 0.724366 0.345884
O O2 0.392692 0.500000 0.357825
O O3 0.336801 0.729970 0.304715
O O4 0.364137 0.751519 0.408219
O O5 0.100803 0.500000 0.070113
O O6 0.167982 0.730616 0.117843
O O7 0.000000 0.733252 0.080282
O O8 0.134322 0.734212 0.014306
O O9 0.134314 0.263984 0.405353
O O10 0.000000 0.175641 0.458594
O O11 0.136199 0.000000 0.451845
O O12 0.251403 0.500000 0.268805
O O13 0.165764 0.266017 0.302153
O O14 0.254697 0.264555 0.209981
O O15 0.500000 0.780842 0.077674
O O16 0.661200 0.744724 0.117664
O O17 0.612637 0.000000 0.073700
O O18 0.634944 0.759585 0.015382
O O19 0.101289 0.500000 0.348407
O O20 0.000000 0.265754 0.341459
O O21 0.500000 0.321694 0.962027
O O22 0.363821 0.500000 0.965569
O O23 0.258421 0.500000 0.149587
#
# Coordination Sequence:
#
# PCOD9357876 Si02
#       8
#     8   8   8   8   8   8   8   8
#     4   9  17  31  50  70  97 133 165 197 246 303
#     4   8  15  29  50  76 104 132 164 207 257 303
#     4   8  14  27  47  70  96 125 158 197 245 301
#     4   9  19  33  48  71 100 130 169 210 246 290
#     4  10  21  37  55  75 103 137 167 202 256 314
#     4   9  17  30  48  70  97 127 159 199 245 291
#     4   9  17  31  53  80 104 125 158 205 252 301
#     4  10  20  34  53  76 101 133 178 222 251 289
#
# _framework density 18.792929999999998
#
# number of rings (size 3 to 8) (size 9 to 14) (size 15 to 20)
#    0.000    3.000    0.000    1.500    0.000    4.250 
#    0.000    8.750    0.000    2.625    0.000    0.000 
#    0.000    0.000    0.000    0.000    0.000    0.000 
#
# Total GULP energy -178451.508489 kJ/mol
# GULP energy per Si atom -5576.609640 kJ/mol
# Density = 1.875016 g / cm^3
# Si number density = 18.792930 Si / 1000 Ang^3
#
#
#
# Elastic Constant Matrix: (Units=GPa)
#
#
# Indices 1 2 3 4 5 6 
#
# 1 97.6355 24.9286 89.6685 0.0000 0.0000 0.0000
# 2 24.9286 11.5157 34.2334 0.0000 0.0000 0.0000
# 3 89.6685 34.2334 219.1339 0.0000 0.0000 0.0000
# 4 0.0000 0.0000 0.0000 39.8413 0.0000 0.0000
# 5 0.0000 0.0000 0.0000 0.0000 33.4377 0.0000
# 6 0.0000 0.0000 0.0000 0.0000 0.0000 10.2900
#
#
#
# Elastic Compliance Matrix: (Units=1/GPa)
#
#
# Indices 1 2 3 4 5 6 
#
# 1 0.024034 -0.042554 -0.003187 0.000000 0.000000 0.000000
# 2 -0.042554 0.237481 -0.019687 0.000000 0.000000 0.000000
# 3 -0.003187 -0.019687 0.008943 0.000000 0.000000 0.000000
# 4 0.000000 0.000000 0.000000 0.025100 0.000000 0.000000
# 5 0.000000 0.000000 0.000000 0.000000 0.029906 0.000000
# 6 0.000000 0.000000 0.000000 0.000000 0.000000 0.097182
#
#
# Mechanical properties :
#
#
# Convention : Reuss Voigt Hill
#
# Bulk Modulus (GPa) = 7.16317 69.54954 38.35636
# Shear Modulus (GPa) = 8.33284 28.67744 18.50514
#
# Velocity S-wave (km/s) = 2.10800 3.91060 3.14138
# Velocity P-wave (km/s) = 3.12166 7.58150 5.79758
#
# Compressibility (1/GPa) = 0.13960291
#
# Stress axis : x y z
#
# Youngs Moduli (GPa) = 41.60789 4.21086 111.82108
#
# Poissons Ratio (x) = 0.17919 0.35634
# Poissons Ratio (y) = 1.77059 2.20138
# Poissons Ratio (z) = 0.13259 0.08290
#
# Static dielectric constant tensor:
#      x y z
#    x 1.681930 0.000000 0.000000 
#    y 0.000000 1.634710 0.000000 
#    z 0.000000 0.000000 1.632070 
# 
# From -- ./inp_files/22972.got.cif
#   From: 2010.05.17/outbox.cif.g08.bks.cpg/sg38_12_cif.got.tgz:22972.got - 2010.06.03 18:07:57.
