data_PCOD9357176
_publ_section_title
;
Structure prediction by ZEFSAII (Michael W. Deem and Ramdas Pophale) SiO2 
 PCOD9357176
Probable space group: A M M 2
;
_chemical_formula_sum "Si O2"
_cell_formula_units_Z 38
_cell_length_a 12.018065
_cell_length_b 12.138076
_cell_length_c 14.890361
_cell_angle_alpha 90.000000
_cell_angle_beta 90.000000
_cell_angle_gamma 90.000000
_cell_volume 2172.149076
_symmetry_space_group_name_H-M "A M M 2"
_symmetry_group_IT_number 38
_symmetry_cell_setting 'orthorhombic'
loop_
_space_group_symop_operation_xyz
x,y,z
-x,-y,z
-x,y,z
x,-y,z
x,1/2+y,1/2+z
-x,1/2-y,1/2+z
-x,1/2+y,1/2+z
x,1/2-y,1/2+z
loop_
_atom_site_type_symbol
_atom_site_label
_atom_site_fract_x
_atom_site_fract_y
_atom_site_fract_z
Si Si1 0.870113 0.132374 0.940630
Si Si2 0.740521 0.868376 0.758643
Si Si3 0.500000 0.787676 0.498113
Si Si4 0.500000 0.631619 0.332352
Si Si5 0.280303 0.720570 0.600016
Si Si6 0.500000 0.000000 0.368530
Si Si7 0.374060 0.500000 0.688966
O O1 0.815022 0.159073 0.844806
O O2 0.000000 0.160965 0.942749
O O3 0.859975 0.000000 0.951877
O O4 0.800399 0.189135 0.018881
O O5 0.612704 0.835762 0.781519
O O6 0.774702 0.803185 0.670646
O O7 0.743582 0.000000 0.745465
O O8 0.500000 0.684424 0.430263
O O9 0.390548 0.777789 0.559040
O O10 0.500000 0.894026 0.433082
O O11 0.500000 0.500000 0.340555
O O12 0.314844 0.609289 0.652861
O O13 0.396905 0.000000 0.296885
O O14 0.500000 0.500000 0.650285
#
# Coordination Sequence:
#
# PCOD9357176 Si02
#       7
#     8   8   4   4   8   2   4
#     4  10  22  40  61  85 110 149 201 246 287 331
#     4  10  22  38  58  86 118 150 186 237 286 347
#     4  12  22  33  60  88 122 154 184 229 284 349
#     4  10  19  33  59  85 115 147 190 228 279 338
#     4  12  22  36  62  87 118 149 195 235 288 342
#     4  10  24  38  52  84 136 160 178 220 294 356
#     4  10  22  36  53  86 121 152 188 231 281 350
#
# _framework density 17.494195999999999
#
# number of rings (size 3 to 8) (size 9 to 14) (size 15 to 20)
#    0.316    1.053    4.211    1.895    2.947    0.842 
#    0.000    0.000    0.000    0.000    0.000    0.000 
#    0.000    0.000    0.000    0.000    0.000    0.000 
#
# Total GULP energy -106089.469573 kJ/mol
# GULP energy per Si atom -5583.656293 kJ/mol
# Density = 1.745438 g / cm^3
# Si number density = 17.494196 Si / 1000 Ang^3
#
#
#
# Elastic Constant Matrix: (Units=GPa)
#
#
# Indices 1 2 3 4 5 6 
#
# 1 112.5040 39.6255 68.0178 0.0000 0.0000 0.0000
# 2 39.6255 51.4713 68.1564 0.0000 0.0000 0.0000
# 3 68.0178 68.1564 155.0226 0.0000 0.0000 0.0000
# 4 0.0000 0.0000 0.0000 32.3256 0.0000 0.0000
# 5 0.0000 0.0000 0.0000 0.0000 -4.8552 0.0000
# 6 0.0000 0.0000 0.0000 0.0000 0.0000 -0.7763
#
#
#
# Elastic Compliance Matrix: (Units=1/GPa)
#
#
# Indices 1 2 3 4 5 6 
#
# 1 0.012777 -0.005775 -0.003067 0.000000 0.000000 0.000000
# 2 -0.005775 0.049109 -0.019057 0.000000 0.000000 0.000000
# 3 -0.003067 -0.019057 0.016175 0.000000 0.000000 0.000000
# 4 0.000000 0.000000 0.000000 0.030935 0.000000 0.000000
# 5 0.000000 0.000000 0.000000 0.000000 -0.205966 0.000000
# 6 0.000000 0.000000 0.000000 0.000000 0.000000 -1.288084
#
#
# Mechanical properties :
#
#
# Convention : Reuss Voigt Hill
#
# Bulk Modulus (GPa) = 44.91902 74.51080 59.71491
# Shear Modulus (GPa) = -3.78262 14.88535 5.55137
#
# Velocity S-wave (km/s) = -1.47204 2.92014 1.78330
# Velocity P-wave (km/s) = 4.77944 7.35213 6.20068
#
# Compressibility (1/GPa) = 0.02226229
#
# Stress axis : x y z
#
# Youngs Moduli (GPa) = 78.26625 20.36285 61.82475
#
# Poissons Ratio (x) = 0.11760 0.18961
# Poissons Ratio (y) = 0.45202 1.17819
# Poissons Ratio (z) = 0.24003 0.38805
#
# Static dielectric constant tensor:
#      x y z
#    x 1.593490 0.000000 0.000000 
#    y 0.000000 1.589570 0.000000 
#    z 0.000000 0.000000 1.585970 
# 
# From -- ./inp_files/9114.got.cif
#   From: 2010.05.17/outbox.cif.g08.bks.cpg/sg38_5_cif.got.tgz:9114.got - 2010.06.03 18:07:57.
