data_PCOD9357022
_publ_section_title
;
Structure prediction by ZEFSAII (Michael W. Deem and Ramdas Pophale) SiO2 
 PCOD9357022
Probable space group: A M M 2
;
_chemical_formula_sum "Si O2"
_cell_formula_units_Z 56
_cell_length_a 7.702014
_cell_length_b 18.961576
_cell_length_c 17.646670
_cell_angle_alpha 90.000000
_cell_angle_beta 90.000000
_cell_angle_gamma 90.000000
_cell_volume 2577.160694
_symmetry_space_group_name_H-M "A M M 2"
_symmetry_group_IT_number 38
_symmetry_cell_setting 'orthorhombic'
loop_
_space_group_symop_operation_xyz
x,y,z
-x,-y,z
-x,y,z
x,-y,z
x,1/2+y,1/2+z
-x,1/2-y,1/2+z
-x,1/2+y,1/2+z
x,1/2-y,1/2+z
loop_
_atom_site_type_symbol
_atom_site_label
_atom_site_fract_x
_atom_site_fract_y
_atom_site_fract_z
Si Si1 0.710609 0.418374 0.779660
Si Si2 0.796306 0.078590 0.552617
Si Si3 0.206216 0.679890 0.353002
Si Si4 0.202591 0.176523 0.422275
Si Si5 0.297176 0.678083 0.178082
Si Si6 0.709353 0.080148 0.985644
Si Si7 0.287814 0.168181 0.130171
O O1 0.500000 0.416014 0.784065
O O2 0.763725 0.500000 0.781080
O O3 0.782909 0.375111 0.850420
O O4 0.761894 0.380131 0.701743
O O5 0.719073 0.135130 0.493593
O O6 0.784108 0.111769 0.635650
O O7 0.000000 0.072821 0.533070
O O8 0.721145 0.000000 0.547148
O O9 0.279290 0.748461 0.397325
O O10 0.277286 0.676678 0.268261
O O11 0.242524 0.612478 0.404742
O O12 0.000000 0.688774 0.344969
O O13 0.000000 0.190259 0.439696
O O14 0.500000 0.675817 0.160098
O O15 0.226453 0.752177 0.145143
O O16 0.500000 0.078590 0.990718
O O17 0.771647 0.000000 0.995812
O O18 0.771800 0.132066 0.052489
O O19 0.500000 0.169931 0.129210
#
# Coordination Sequence:
#
# PCOD9357022 Si02
#       7
#     8   8   8   8   8   8   8
#     4  10  19  32  55  86 120 155 189 231 284 342
#     4  10  22  40  60  83 116 155 192 237 292 344
#     4  11  23  39  60  86 117 154 195 240 289 341
#     4  10  21  38  59  84 116 155 195 235 284 346
#     4  11  22  38  62  88 115 150 194 242 288 341
#     4  10  21  38  61  87 116 152 193 238 289 345
#     4   9  18  35  58  86 117 149 187 233 286 343
#
# _framework density 21.729340000000001
#
# number of rings (size 3 to 8) (size 9 to 14) (size 15 to 20)
#    0.000    1.857    1.429    2.571    0.000    4.857 
#    0.000    1.429    0.000    1.714    0.000    0.000 
#    0.000    0.000    0.000    0.000    0.000    0.000 
#
# Total GULP energy -156502.824944 kJ/mol
# GULP energy per Si atom -5589.386605 kJ/mol
# Density = 2.167988 g / cm^3
# Si number density = 21.729340 Si / 1000 Ang^3
#
#
#
# Elastic Constant Matrix: (Units=GPa)
#
#
# Indices 1 2 3 4 5 6 
#
# 1 36.7711 -7.9938 -8.6717 0.0000 0.0000 0.0000
# 2 -7.9938 35.4991 51.1371 0.0000 0.0000 0.0000
# 3 -8.6717 51.1371 117.6572 0.0000 0.0000 0.0000
# 4 0.0000 0.0000 0.0000 68.3501 0.0000 0.0000
# 5 0.0000 0.0000 0.0000 0.0000 24.7576 0.0000
# 6 0.0000 0.0000 0.0000 0.0000 0.0000 -6.0940
#
#
#
# Elastic Compliance Matrix: (Units=1/GPa)
#
#
# Indices 1 2 3 4 5 6 
#
# 1 0.028746 0.009150 -0.001858 0.000000 0.000000 0.000000
# 2 0.009150 0.078250 -0.033335 0.000000 0.000000 0.000000
# 3 -0.001858 -0.033335 0.022851 0.000000 0.000000 0.000000
# 4 0.000000 0.000000 0.000000 0.014631 0.000000 0.000000
# 5 0.000000 0.000000 0.000000 0.000000 0.040392 0.000000
# 6 0.000000 0.000000 0.000000 0.000000 0.000000 -0.164095
#
#
# Mechanical properties :
#
#
# Convention : Reuss Voigt Hill
#
# Bulk Modulus (GPa) = 12.86011 28.76341 20.81176
# Shear Modulus (GPa) = 50.61665 27.76645 39.19155
#
# Velocity S-wave (km/s) = 4.83164 3.57856 4.25152
# Velocity P-wave (km/s) = 6.08748 5.50823 5.80509
#
# Compressibility (1/GPa) = 0.07775984
#
# Stress axis : x y z
#
# Youngs Moduli (GPa) = 34.78721 12.77953 43.76220
#
# Poissons Ratio (x) = -0.11693 0.08131
# Poissons Ratio (y) = -0.31829 1.45883
# Poissons Ratio (z) = 0.06464 0.42601
#
# Static dielectric constant tensor:
#      x y z
#    x 1.770210 0.000000 0.000000 
#    y 0.000000 1.784150 0.000000 
#    z 0.000000 0.000000 1.747290 
# 
# From -- ./inp_files/12387.got.cif
#   From: 2010.05.17/outbox.cif.g08.bks.cpg/sg38_7_cif.got.tgz:12387.got - 2010.06.03 18:07:57.
