data_PCOD9357026
_publ_section_title
;
Structure prediction by ZEFSAII (Michael W. Deem and Ramdas Pophale) SiO2 
 PCOD9357026
Probable space group: A M M 2
;
_chemical_formula_sum "Si O2"
_cell_formula_units_Z 64
_cell_length_a 8.277000
_cell_length_b 14.343650
_cell_length_c 25.208306
_cell_angle_alpha 90.000000
_cell_angle_beta 90.000000
_cell_angle_gamma 90.000000
_cell_volume 2992.790363
_symmetry_space_group_name_H-M "A M M 2"
_symmetry_group_IT_number 38
_symmetry_cell_setting 'orthorhombic'
loop_
_space_group_symop_operation_xyz
x,y,z
-x,-y,z
-x,y,z
x,-y,z
x,1/2+y,1/2+z
-x,1/2-y,1/2+z
-x,1/2+y,1/2+z
x,1/2-y,1/2+z
loop_
_atom_site_type_symbol
_atom_site_label
_atom_site_fract_x
_atom_site_fract_y
_atom_site_fract_z
Si Si1 0.319673 0.610695 0.684840
Si Si2 0.697959 0.897071 0.913063
Si Si3 0.305371 0.695257 0.307937
Si Si4 0.177316 0.388503 0.577964
Si Si5 0.681494 0.741354 0.499681
Si Si6 0.805515 0.891250 0.698790
Si Si7 0.805977 0.393418 0.079783
Si Si8 0.303306 0.102589 0.306991
O O1 0.500000 0.652224 0.681347
O O2 0.336371 0.500000 0.674945
O O3 0.203378 0.643177 0.638538
O O4 0.261081 0.614710 0.744830
O O5 0.500000 0.896073 0.916149
O O6 0.744295 0.879496 0.852095
O O7 0.751348 0.000000 0.931124
O O8 0.756473 0.810733 0.948868
O O9 0.500000 0.697234 0.306865
O O10 0.252036 0.669219 0.248632
O O11 0.251043 0.797561 0.328981
O O12 0.182165 0.500000 0.574604
O O13 0.312850 0.342178 0.542584
O O14 0.000000 0.356813 0.559734
O O15 0.500000 0.769108 0.485545
O O16 0.757994 0.826502 0.531739
O O17 0.748459 0.864434 0.639207
O O18 0.000000 0.887557 0.698556
O O19 0.758157 0.000000 0.706918
O O20 0.750889 0.500000 0.071106
O O21 0.000000 0.394458 0.082379
O O22 0.500000 0.098849 0.309847
O O23 0.245257 0.000000 0.325246
#
# Coordination Sequence:
#
# PCOD9357026 Si02
#       8
#     8   8   8   8   8   8   8   8
#     4   8  14  26  43  64  96 136 172 209 258 316
#     4   9  19  36  55  79 114 149 181 228 286 332
#     4  10  19  32  56  85 110 144 192 233 270 323
#     4  10  20  32  47  72 105 140 181 226 274 331
#     4  11  22  35  55  79 106 144 191 234 278 333
#     4   9  19  36  56  80 112 146 177 217 278 342
#     4   9  20  40  61  81 112 149 181 224 286 348
#     4   8  15  28  46  72 107 141 174 215 263 316
#
# _framework density 21.384726000000001
#
# number of rings (size 3 to 8) (size 9 to 14) (size 15 to 20)
#    0.000    2.750    0.000    3.000    1.750    2.750 
#    0.000    3.125    0.000    5.625    0.000    0.000 
#    0.000    0.000    0.000    0.000    0.000    0.000 
#
# Total GULP energy -178265.398698 kJ/mol
# GULP energy per Si atom -5570.793709 kJ/mol
# Density = 2.133605 g / cm^3
# Si number density = 21.384726 Si / 1000 Ang^3
#
#
#
# Elastic Constant Matrix: (Units=GPa)
#
#
# Indices 1 2 3 4 5 6 
#
# 1 12.1197 10.0052 10.9401 0.0000 0.0000 0.0000
# 2 10.0052 138.6826 50.4057 0.0000 0.0000 0.0000
# 3 10.9401 50.4057 78.2104 0.0000 0.0000 0.0000
# 4 0.0000 0.0000 0.0000 32.2768 0.0000 0.0000
# 5 0.0000 0.0000 0.0000 0.0000 -510.4007 0.0000
# 6 0.0000 0.0000 0.0000 0.0000 0.0000 17.7466
#
#
#
# Elastic Compliance Matrix: (Units=1/GPa)
#
#
# Indices 1 2 3 4 5 6 
#
# 1 0.095173 -0.002648 -0.011606 0.000000 0.000000 0.000000
# 2 -0.002648 0.009490 -0.005746 0.000000 0.000000 0.000000
# 3 -0.011606 -0.005746 0.018113 0.000000 0.000000 0.000000
# 4 0.000000 0.000000 0.000000 0.030982 0.000000 0.000000
# 5 0.000000 0.000000 0.000000 0.000000 -0.001959 0.000000
# 6 0.000000 0.000000 0.000000 0.000000 0.000000 0.056349
#
#
# Mechanical properties :
#
#
# Convention : Reuss Voigt Hill
#
# Bulk Modulus (GPa) = 12.08084 41.30166 26.69125
# Shear Modulus (GPa) = 18.13307 -81.56468 -31.71581
#
# Velocity S-wave (km/s) = 2.91511 -6.18259 -3.85529
# Velocity P-wave (km/s) = 4.12214 5.62230 2.70354
#
# Compressibility (1/GPa) = 0.08277568
#
# Stress axis : x y z
#
# Youngs Moduli (GPa) = 10.50718 105.37238 55.20984
#
# Poissons Ratio (x) = 0.27900 0.64079
# Poissons Ratio (y) = 0.02782 0.31723
# Poissons Ratio (z) = 0.12195 0.60546
#
# Static dielectric constant tensor:
#      x y z
#    x 2.125380 0.000000 0.000000 
#    y 0.000000 1.830900 0.000000 
#    z 0.000000 0.000000 1.772090 
# 
# From -- ./inp_files/22221.got.cif
#   From: 2010.05.17/outbox.cif.g08.bks.cpg/sg38_12_cif.got.tgz:22221.got - 2010.06.03 18:07:57.
