data_PCOD9357854
_publ_section_title
;
Structure prediction by ZEFSAII (Michael W. Deem and Ramdas Pophale) SiO2 
 PCOD9357854
Probable space group: A M M 2
;
_chemical_formula_sum "Si O2"
_cell_formula_units_Z 56
_cell_length_a 14.565552
_cell_length_b 8.887515
_cell_length_c 26.297953
_cell_angle_alpha 90.000000
_cell_angle_beta 90.000000
_cell_angle_gamma 90.000000
_cell_volume 3404.311090
_symmetry_space_group_name_H-M "A M M 2"
_symmetry_group_IT_number 38
_symmetry_cell_setting 'orthorhombic'
loop_
_space_group_symop_operation_xyz
x,y,z
-x,-y,z
-x,y,z
x,-y,z
x,1/2+y,1/2+z
-x,1/2-y,1/2+z
-x,1/2+y,1/2+z
x,1/2-y,1/2+z
loop_
_atom_site_type_symbol
_atom_site_label
_atom_site_fract_x
_atom_site_fract_y
_atom_site_fract_z
Si Si1 0.394626 0.320402 0.829710
Si Si2 0.217024 0.819556 0.175942
Si Si3 0.605333 0.820612 0.717564
Si Si4 0.107169 0.180468 0.074981
Si Si5 0.107880 0.320361 0.966604
Si Si6 0.217430 0.680258 0.373455
Si Si7 0.107633 0.819042 0.770506
O O1 0.500000 0.289369 0.845273
O O2 0.382682 0.500000 0.826526
O O3 0.381975 0.249466 0.773685
O O4 0.318172 0.249103 0.865646
O O5 0.318202 0.751057 0.181779
O O6 0.168314 0.776057 0.123209
O O7 0.157448 0.758834 0.223230
O O8 0.221027 0.000000 0.178573
O O9 0.500000 0.790496 0.702001
O O10 0.618242 0.000000 0.720901
O O11 0.000000 0.215592 0.085654
O O12 0.114015 0.000000 0.068152
O O13 0.133270 0.260805 0.022571
O O14 0.117252 0.500000 0.964418
O O15 0.167582 0.244228 0.922917
O O16 0.000000 0.282188 0.958843
O O17 0.222305 0.500000 0.375896
O O18 0.158234 0.721250 0.323138
O O19 0.000000 0.779690 0.772567
O O20 0.115008 0.000000 0.764545
#
# Coordination Sequence:
#
# PCOD9357854 Si02
#       7
#     8   8   8   8   8   8   8
#     4  10  20  34  53  78 107 138 175 219 264 311
#     4  11  21  33  53  79 107 139 175 218 268 315
#     4  10  20  34  52  75 105 141 179 216 259 315
#     4   9  19  36  55  76 104 139 178 218 263 316
#     4  10  21  36  55  79 105 138 181 225 266 309
#     4  11  21  34  54  78 107 143 178 214 262 317
#     4  10  21  34  48  72 107 144 177 209 254 313
#
# _framework density 16.449732000000001
#
# number of rings (size 3 to 8) (size 9 to 14) (size 15 to 20)
#    0.000    1.857    1.429    3.000    0.000    5.714 
#    0.000    1.429    0.000    0.857    0.000    4.000 
#    0.000    0.000    0.000    0.000    0.000    0.000 
#
# Total GULP energy -156359.694104 kJ/mol
# GULP energy per Si atom -5584.274789 kJ/mol
# Density = 1.641229 g / cm^3
# Si number density = 16.449732 Si / 1000 Ang^3
#
#
#
# Elastic Constant Matrix: (Units=GPa)
#
#
# Indices 1 2 3 4 5 6 
#
# 1 133.0919 62.5113 93.3068 0.0000 0.0000 0.0000
# 2 62.5113 56.9642 61.3644 0.0000 0.0000 0.0000
# 3 93.3068 61.3644 138.6041 0.0000 0.0000 0.0000
# 4 0.0000 0.0000 0.0000 29.1584 0.0000 0.0000
# 5 0.0000 0.0000 0.0000 0.0000 22.2471 0.0000
# 6 0.0000 0.0000 0.0000 0.0000 0.0000 29.6750
#
#
#
# Elastic Compliance Matrix: (Units=1/GPa)
#
#
# Indices 1 2 3 4 5 6 
#
# 1 0.018118 -0.012892 -0.006489 0.000000 0.000000 0.000000
# 2 -0.012892 0.042735 -0.010241 0.000000 0.000000 0.000000
# 3 -0.006489 -0.010241 0.016117 0.000000 0.000000 0.000000
# 4 0.000000 0.000000 0.000000 0.034295 0.000000 0.000000
# 5 0.000000 0.000000 0.000000 0.000000 0.044950 0.000000
# 6 0.000000 0.000000 0.000000 0.000000 0.000000 0.033698
#
#
# Mechanical properties :
#
#
# Convention : Reuss Voigt Hill
#
# Bulk Modulus (GPa) = 56.41671 84.78060 70.59865
# Shear Modulus (GPa) = 19.60268 23.64795 21.62531
#
# Velocity S-wave (km/s) = 3.45580 3.79567 3.62972
# Velocity P-wave (km/s) = 7.09185 8.41787 7.78315
#
# Compressibility (1/GPa) = 0.01772524
#
# Stress axis : x y z
#
# Youngs Moduli (GPa) = 55.19293 23.40024 62.04451
#
# Poissons Ratio (x) = 0.30168 0.40263
# Poissons Ratio (y) = 0.71155 0.63541
# Poissons Ratio (z) = 0.35817 0.23965
#
# Static dielectric constant tensor:
#      x y z
#    x 1.555740 0.000000 0.000000 
#    y 0.000000 1.546640 0.000000 
#    z 0.000000 0.000000 1.516130 
# 
# From -- ./inp_files/21009.got.cif
#   From: 2010.05.17/outbox.cif.g08.bks.cpg/sg38_11_cif.got.tgz:21009.got - 2010.06.03 18:07:57.
