data_PCOD9357046
_publ_section_title
;
Structure prediction by ZEFSAII (Michael W. Deem and Ramdas Pophale) SiO2 
 PCOD9357046
Probable space group: A M M 2
;
_chemical_formula_sum "Si O2"
_cell_formula_units_Z 64
_cell_length_a 8.104913
_cell_length_b 21.263880
_cell_length_c 20.361356
_cell_angle_alpha 90.000000
_cell_angle_beta 90.000000
_cell_angle_gamma 90.000000
_cell_volume 3509.114728
_symmetry_space_group_name_H-M "A M M 2"
_symmetry_group_IT_number 38
_symmetry_cell_setting 'orthorhombic'
loop_
_space_group_symop_operation_xyz
x,y,z
-x,-y,z
-x,y,z
x,-y,z
x,1/2+y,1/2+z
-x,1/2-y,1/2+z
-x,1/2+y,1/2+z
x,1/2-y,1/2+z
loop_
_atom_site_type_symbol
_atom_site_label
_atom_site_fract_x
_atom_site_fract_y
_atom_site_fract_z
Si Si1 0.194917 0.252792 0.934880
Si Si2 0.701723 0.118955 0.082984
Si Si3 0.306382 0.610251 0.439622
Si Si4 0.300180 0.430118 0.297871
Si Si5 0.695958 0.264868 0.075113
Si Si6 0.698931 0.069014 0.222479
Si Si7 0.198617 0.692637 0.797867
Si Si8 0.196791 0.688656 0.212100
O O1 0.286671 0.185699 0.934269
O O2 0.250023 0.293558 0.872645
O O3 0.000000 0.239524 0.927741
O O4 0.225953 0.283553 0.005624
O O5 0.500000 0.117193 0.081721
O O6 0.750272 0.192474 0.088676
O O7 0.756912 0.083344 0.148065
O O8 0.760733 0.093885 0.012092
O O9 0.500000 0.593761 0.440832
O O10 0.237557 0.581603 0.372490
O O11 0.500000 0.428005 0.299838
O O12 0.250100 0.500000 0.276296
O O13 0.244201 0.374237 0.250708
O O14 0.500000 0.263772 0.066554
O O15 0.739520 0.306258 0.137937
O O16 0.500000 0.068092 0.220270
O O17 0.747879 0.126362 0.268752
O O18 0.757108 0.000000 0.243603
O O19 0.260321 0.750419 0.752604
O O20 0.000000 0.694287 0.796326
O O21 0.000000 0.692736 0.210226
#
# Coordination Sequence:
#
# PCOD9357046 Si02
#       8
#     8   8   8   8   8   8   8   8
#     4  10  19  33  52  78 108 138 174 220 267 318
#     4   8  15  28  46  72 104 137 172 210 255 304
#     4   9  17  30  49  74 105 143 182 218 258 309
#     4  10  21  35  52  77 109 146 185 226 272 319
#     4  10  19  33  54  81 107 137 173 219 272 317
#     4  10  20  33  51  76 106 141 180 221 264 310
#     4  10  21  35  53  77 106 141 179 218 264 312
#     4  11  21  35  55  80 106 141 182 222 268 318
#
# _framework density 18.238216999999999
#
# number of rings (size 3 to 8) (size 9 to 14) (size 15 to 20)
#    0.000    2.250    2.500    1.875    0.000    2.500 
#    0.000    2.500    0.000    0.750    0.000    5.250 
#    0.000    0.000    0.000    0.000    0.000    0.000 
#
# Total GULP energy -178506.657891 kJ/mol
# GULP energy per Si atom -5578.333059 kJ/mol
# Density = 1.819671 g / cm^3
# Si number density = 18.238217 Si / 1000 Ang^3
#
#
#
# Elastic Constant Matrix: (Units=GPa)
#
#
# Indices 1 2 3 4 5 6 
#
# 1 13.9056 -1.7999 2.1927 0.0000 0.0000 0.0000
# 2 -1.7999 94.7382 53.6563 0.0000 0.0000 0.0000
# 3 2.1927 53.6563 118.2422 0.0000 0.0000 0.0000
# 4 0.0000 0.0000 0.0000 21.0309 0.0000 0.0000
# 5 0.0000 0.0000 0.0000 0.0000 17.3969 0.0000
# 6 0.0000 0.0000 0.0000 0.0000 0.0000 9.7744
#
#
#
# Elastic Compliance Matrix: (Units=1/GPa)
#
#
# Indices 1 2 3 4 5 6 
#
# 1 0.072706 0.002887 -0.002658 0.000000 0.000000 0.000000
# 2 0.002887 0.014321 -0.006552 0.000000 0.000000 0.000000
# 3 -0.002658 -0.006552 0.011480 0.000000 0.000000 0.000000
# 4 0.000000 0.000000 0.000000 0.047549 0.000000 0.000000
# 5 0.000000 0.000000 0.000000 0.000000 0.057481 0.000000
# 6 0.000000 0.000000 0.000000 0.000000 0.000000 0.102308
#
#
# Mechanical properties :
#
#
# Convention : Reuss Voigt Hill
#
# Bulk Modulus (GPa) = 11.64689 37.22046 24.43368
# Shear Modulus (GPa) = 14.40455 21.16292 17.78373
#
# Velocity S-wave (km/s) = 2.81339 3.41010 3.12602
# Velocity P-wave (km/s) = 4.11745 5.99644 5.14348
#
# Compressibility (1/GPa) = 0.08585980
#
# Stress axis : x y z
#
# Youngs Moduli (GPa) = 13.75401 69.82651 87.10947
#
# Poissons Ratio (x) = -0.20158 0.23156
# Poissons Ratio (y) = -0.03971 0.57076
# Poissons Ratio (z) = 0.03656 0.45752
#
# Static dielectric constant tensor:
#      x y z
#    x 1.656030 0.000000 0.000000 
#    y 0.000000 1.607940 0.000000 
#    z 0.000000 0.000000 1.643010 
# 
# From -- ./inp_files/20046.got.cif
#   From: 2010.05.17/outbox.cif.g08.bks.cpg/sg38_11_cif.got.tgz:20046.got - 2010.06.03 18:07:57.
