data_PCOD9357394
_publ_section_title
;
Structure prediction by ZEFSAII (Michael W. Deem and Ramdas Pophale) SiO2 
 PCOD9357394
Probable space group: A M M 2
;
_chemical_formula_sum "Si O2"
_cell_formula_units_Z 42
_cell_length_a 7.745313
_cell_length_b 10.415809
_cell_length_c 26.194972
_cell_angle_alpha 90.000000
_cell_angle_beta 90.000000
_cell_angle_gamma 90.000000
_cell_volume 2113.245335
_symmetry_space_group_name_H-M "A M M 2"
_symmetry_group_IT_number 38
_symmetry_cell_setting 'orthorhombic'
loop_
_space_group_symop_operation_xyz
x,y,z
-x,-y,z
-x,y,z
x,-y,z
x,1/2+y,1/2+z
-x,1/2-y,1/2+z
-x,1/2+y,1/2+z
x,1/2-y,1/2+z
loop_
_atom_site_type_symbol
_atom_site_label
_atom_site_fract_x
_atom_site_fract_y
_atom_site_fract_z
Si Si1 0.203469 0.851276 0.143890
Si Si2 0.209755 0.143225 0.947879
Si Si3 0.293757 0.352558 0.754949
Si Si4 0.000000 0.500000 0.033472
Si Si5 0.793877 0.146924 0.366923
Si Si6 0.307482 0.290370 0.044146
O O1 0.229062 0.798155 0.201329
O O2 0.291690 0.766351 0.101022
O O3 0.000000 0.852973 0.132751
O O4 0.266263 0.000000 0.143205
O O5 0.270866 0.254813 0.909447
O O6 0.000000 0.147186 0.949171
O O7 0.260433 0.000000 0.931697
O O8 0.278900 0.176077 0.003713
O O9 0.500000 0.353865 0.753101
O O10 0.227566 0.500000 0.755878
O O11 0.239781 0.300172 0.809952
O O12 0.152854 0.389139 0.034319
O O13 0.000000 0.137825 0.373625
O O14 0.724887 0.000000 0.371111
O O15 0.500000 0.343561 0.036789
#
# Coordination Sequence:
#
# PCOD9357394 Si02
#       6
#     8   8   8   2   8   8
#     4  10  19  35  61  90 123 159 200 254 315 370
#     4  10  21  38  61  89 126 165 206 257 313 372
#     4   9  17  30  51  83 117 150 200 261 310 362
#     4  12  26  48  62  86 128 164 204 264 296 380
#     4   9  18  32  55  82 115 160 209 257 311 369
#     4  12  25  41  66  92 121 162 206 254 315 371
#
# _framework density 19.874644
#
# number of rings (size 3 to 8) (size 9 to 14) (size 15 to 20)
#    0.000    1.905    1.905    2.000    1.333    6.857 
#    0.000    0.000    2.095    0.000    0.000    0.000 
#    0.000    0.000    0.000    0.000    0.000    0.000 
#
# Total GULP energy -116919.182392 kJ/mol
# GULP energy per Si atom -5567.580114 kJ/mol
# Density = 1.982941 g / cm^3
# Si number density = 19.874644 Si / 1000 Ang^3
#
#
#
# Elastic Constant Matrix: (Units=GPa)
#
#
# Indices 1 2 3 4 5 6 
#
# 1 96.4773 28.1274 0.1669 0.0000 0.0000 0.0000
# 2 28.1274 81.6706 36.5520 0.0000 0.0000 0.0000
# 3 0.1669 36.5520 108.2632 0.0000 0.0000 0.0000
# 4 0.0000 0.0000 0.0000 -27.5948 0.0000 0.0000
# 5 0.0000 0.0000 0.0000 0.0000 68.6116 0.0000
# 6 0.0000 0.0000 0.0000 0.0000 0.0000 2.1416
#
#
#
# Elastic Compliance Matrix: (Units=1/GPa)
#
#
# Indices 1 2 3 4 5 6 
#
# 1 0.011749 -0.004757 0.001588 0.000000 0.000000 0.000000
# 2 -0.004757 0.016350 -0.005513 0.000000 0.000000 0.000000
# 3 0.001588 -0.005513 0.011096 0.000000 0.000000 0.000000
# 4 0.000000 0.000000 0.000000 -0.036239 0.000000 0.000000
# 5 0.000000 0.000000 0.000000 0.000000 0.014575 0.000000
# 6 0.000000 0.000000 0.000000 0.000000 0.000000 0.466939
#
#
# Mechanical properties :
#
#
# Convention : Reuss Voigt Hill
#
# Bulk Modulus (GPa) = 45.80660 46.23375 46.02017
# Shear Modulus (GPa) = 9.82104 23.40265 16.61185
#
# Velocity S-wave (km/s) = 2.22536 3.43521 2.89421
# Velocity P-wave (km/s) = 5.44984 6.24880 5.86294
#
# Compressibility (1/GPa) = 0.02183092
#
# Stress axis : x y z
#
# Youngs Moduli (GPa) = 85.11125 61.16225 90.12633
#
# Poissons Ratio (x) = 0.29096 -0.14312
# Poissons Ratio (y) = 0.40489 0.49685
# Poissons Ratio (z) = -0.13516 0.33717
#
# Static dielectric constant tensor:
#      x y z
#    x 1.708700 0.000000 0.000000 
#    y 0.000000 1.702640 0.000000 
#    z 0.000000 0.000000 1.713610 
# 
# From -- ./inp_files/21822.got.cif
#   From: 2010.05.17/outbox.cif.g08.bks.cpg/sg38_11_cif.got.tgz:21822.got - 2010.06.03 18:07:57.
