data_PCOD9357539
_publ_section_title
;
Structure prediction by ZEFSAII (Michael W. Deem and Ramdas Pophale) SiO2 
 PCOD9357539
Probable space group: A M M 2
;
_chemical_formula_sum "Si O2"
_cell_formula_units_Z 48
_cell_length_a 7.706605
_cell_length_b 9.685200
_cell_length_c 32.637599
_cell_angle_alpha 90.000000
_cell_angle_beta 90.000000
_cell_angle_gamma 90.000000
_cell_volume 2436.070740
_symmetry_space_group_name_H-M "A M M 2"
_symmetry_group_IT_number 38
_symmetry_cell_setting 'orthorhombic'
loop_
_space_group_symop_operation_xyz
x,y,z
-x,-y,z
-x,y,z
x,-y,z
x,1/2+y,1/2+z
-x,1/2-y,1/2+z
-x,1/2+y,1/2+z
x,1/2-y,1/2+z
loop_
_atom_site_type_symbol
_atom_site_label
_atom_site_fract_x
_atom_site_fract_y
_atom_site_fract_z
Si Si1 0.788309 0.840044 0.825450
Si Si2 0.295030 0.844381 0.493391
Si Si3 0.787293 0.159094 0.248648
Si Si4 0.211869 0.161224 0.671293
Si Si5 0.792227 0.655678 0.416793
Si Si6 0.207931 0.158883 0.581620
O O1 0.729779 0.739465 0.789462
O O2 0.730841 0.800209 0.871422
O O3 0.000000 0.837435 0.824824
O O4 0.738349 0.000000 0.818222
O O5 0.500000 0.857279 0.492506
O O6 0.245326 0.755720 0.454192
O O7 0.251562 0.778046 0.537615
O O8 0.217611 0.000000 0.491538
O O9 0.729905 0.243739 0.208577
O O10 0.000000 0.159963 0.248578
O O11 0.732564 0.000000 0.248013
O O12 0.267361 0.212440 0.625963
O O13 0.000000 0.161979 0.672013
O O14 0.262716 0.000000 0.676091
O O15 0.726599 0.500000 0.424552
O O16 0.000000 0.647512 0.413725
O O17 0.000000 0.155154 0.583576
O O18 0.272235 0.000000 0.579621
#
# Coordination Sequence:
#
# PCOD9357539 Si02
#       6
#     8   8   8   8   8   8
#     4   8  14  25  40  58  83 115 148 180 216 262
#     4  10  20  32  47  69  95 122 153 190 234 281
#     4   9  15  21  32  56  89 116 137 170 219 268
#     4   8  13  22  37  55  77 110 148 180 214 259
#     4   9  18  32  49  69  92 120 156 195 233 273
#     4   8  14  26  44  64  86 116 154 190 222 261
#
# _framework density 19.703859999999999
#
# number of rings (size 3 to 8) (size 9 to 14) (size 15 to 20)
#    0.000    3.333    0.000    3.000    0.000    4.000 
#    0.000    2.500    0.000    3.000    0.000    1.167 
#    0.000    6.667    0.000    0.000    0.000    0.000 
#
# Total GULP energy -133680.643830 kJ/mol
# GULP energy per Si atom -5570.026826 kJ/mol
# Density = 1.965901 g / cm^3
# Si number density = 19.703860 Si / 1000 Ang^3
#
#
#
# Elastic Constant Matrix: (Units=GPa)
#
#
# Indices 1 2 3 4 5 6 
#
# 1 29.1311 4.5653 10.1943 0.0000 0.0000 0.0000
# 2 4.5653 97.1628 120.5840 0.0000 0.0000 0.0000
# 3 10.1943 120.5840 252.7227 0.0000 0.0000 0.0000
# 4 0.0000 0.0000 0.0000 24.1368 0.0000 0.0000
# 5 0.0000 0.0000 0.0000 0.0000 -32.1687 0.0000
# 6 0.0000 0.0000 0.0000 0.0000 0.0000 1.1122
#
#
#
# Elastic Compliance Matrix: (Units=1/GPa)
#
#
# Indices 1 2 3 4 5 6 
#
# 1 0.034822 0.000263 -0.001530 0.000000 0.000000 0.000000
# 2 0.000263 0.025237 -0.012052 0.000000 0.000000 0.000000
# 3 -0.001530 -0.012052 0.009769 0.000000 0.000000 0.000000
# 4 0.000000 0.000000 0.000000 0.041431 0.000000 0.000000
# 5 0.000000 0.000000 0.000000 0.000000 -0.031086 0.000000
# 6 0.000000 0.000000 0.000000 0.000000 0.000000 0.899118
#
#
# Mechanical properties :
#
#
# Convention : Reuss Voigt Hill
#
# Bulk Modulus (GPa) = 23.15407 72.18932 47.67169
# Shear Modulus (GPa) = 4.90040 14.86091 9.88065
#
# Velocity S-wave (km/s) = 1.57874 2.74927 2.24175
# Velocity P-wave (km/s) = 3.88584 6.84066 5.56302
#
# Compressibility (1/GPa) = 0.04318896
#
# Stress axis : x y z
#
# Youngs Moduli (GPa) = 28.71762 39.62426 102.36258
#
# Poissons Ratio (x) = -0.01040 0.15660
# Poissons Ratio (y) = -0.00754 1.23369
# Poissons Ratio (z) = 0.04393 0.47756
#
# Static dielectric constant tensor:
#      x y z
#    x 1.716430 0.000000 0.000000 
#    y 0.000000 1.950690 0.000000 
#    z 0.000000 0.000000 1.721430 
# 
# From -- ./inp_files/24828.got.cif
#   From: 2010.05.17/outbox.cif.g08.bks.cpg/sg38_13_cif.got.tgz:24828.got - 2010.06.03 18:07:57.
