data_PCOD9357217
_publ_section_title
;
Structure prediction by ZEFSAII (Michael W. Deem and Ramdas Pophale) SiO2 
 PCOD9357217
Probable space group: A M M 2
;
_chemical_formula_sum "Si O2"
_cell_formula_units_Z 64
_cell_length_a 7.523706
_cell_length_b 24.541559
_cell_length_c 15.892195
_cell_angle_alpha 90.000000
_cell_angle_beta 90.000000
_cell_angle_gamma 90.000000
_cell_volume 2934.390105
_symmetry_space_group_name_H-M "A M M 2"
_symmetry_group_IT_number 38
_symmetry_cell_setting 'orthorhombic'
loop_
_space_group_symop_operation_xyz
x,y,z
-x,-y,z
-x,y,z
x,-y,z
x,1/2+y,1/2+z
-x,1/2-y,1/2+z
-x,1/2+y,1/2+z
x,1/2-y,1/2+z
loop_
_atom_site_type_symbol
_atom_site_label
_atom_site_fract_x
_atom_site_fract_y
_atom_site_fract_z
Si Si1 0.296362 0.380265 0.789190
Si Si2 0.713772 0.369763 0.604833
Si Si3 0.790385 0.356899 0.298469
Si Si4 0.207209 0.760845 0.341806
Si Si5 0.714262 0.861559 0.611131
Si Si6 0.282279 0.437200 0.957402
Si Si7 0.284316 0.752588 0.038373
Si Si8 0.786942 0.061468 0.940712
O O1 0.500000 0.399864 0.783535
O O2 0.216019 0.386428 0.696517
O O3 0.296763 0.316025 0.810637
O O4 0.218102 0.411155 0.869673
O O5 0.500000 0.365107 0.612411
O O6 0.778225 0.309975 0.575981
O O7 0.752555 0.412384 0.531476
O O8 0.716960 0.295436 0.304523
O O9 0.769088 0.378439 0.204374
O O10 0.716715 0.397450 0.369090
O O11 0.000000 0.350881 0.316780
O O12 0.224241 0.755138 0.442391
O O13 0.000000 0.766259 0.319023
O O14 0.500000 0.861416 0.609106
O O15 0.776308 0.901059 0.536626
O O16 0.774359 0.799935 0.591312
O O17 0.500000 0.434831 0.957159
O O18 0.230862 0.500000 0.965035
O O19 0.500000 0.753082 0.037247
O O20 0.000000 0.058752 0.929809
O O21 0.717550 0.000000 0.933869
#
# Coordination Sequence:
#
# PCOD9357217 Si02
#       8
#     8   8   8   8   8   8   8   8
#     4  10  20  37  59  84 115 148 181 225 281 336
#     4  10  21  35  58  87 112 142 185 236 283 331
#     4  10  22  38  55  81 112 145 185 227 277 331
#     4  11  21  34  56  84 112 147 185 225 273 331
#     4  10  20  35  57  84 111 145 185 225 275 331
#     4   9  18  34  56  81 110 145 184 225 272 325
#     4  10  19  34  55  82 113 146 181 224 283 337
#     4  10  22  41  60  77 109 155 193 230 280 333
#
# _framework density 21.810323
#
# number of rings (size 3 to 8) (size 9 to 14) (size 15 to 20)
#    0.000    2.000    2.500    1.125    0.000    4.750 
#    0.000    1.250    0.000    1.125    0.000    0.000 
#    0.000    0.000    0.000    0.000    0.000    0.000 
#
# Total GULP energy -178838.728429 kJ/mol
# GULP energy per Si atom -5588.710263 kJ/mol
# Density = 2.176068 g / cm^3
# Si number density = 21.810323 Si / 1000 Ang^3
#
#
#
# Elastic Constant Matrix: (Units=GPa)
#
#
# Indices 1 2 3 4 5 6 
#
# 1 56.5056 -4.2510 -15.8644 0.0000 0.0000 0.0000
# 2 -4.2510 112.6656 38.7711 0.0000 0.0000 0.0000
# 3 -15.8644 38.7711 140.1288 0.0000 0.0000 0.0000
# 4 0.0000 0.0000 0.0000 0.1721 0.0000 0.0000
# 5 0.0000 0.0000 0.0000 0.0000 27.9175 0.0000
# 6 0.0000 0.0000 0.0000 0.0000 0.0000 9.5480
#
#
#
# Elastic Compliance Matrix: (Units=1/GPa)
#
#
# Indices 1 2 3 4 5 6 
#
# 1 0.018278 -0.000025 0.002076 0.000000 0.000000 0.000000
# 2 -0.000025 0.009810 -0.002717 0.000000 0.000000 0.000000
# 3 0.002076 -0.002717 0.008123 0.000000 0.000000 0.000000
# 4 0.000000 0.000000 0.000000 5.812043 0.000000 0.000000
# 5 0.000000 0.000000 0.000000 0.000000 0.035820 0.000000
# 6 0.000000 0.000000 0.000000 0.000000 0.000000 0.104734
#
#
# Mechanical properties :
#
#
# Convention : Reuss Voigt Hill
#
# Bulk Modulus (GPa) = 28.66958 38.51236 33.59097
# Shear Modulus (GPa) = 0.83309 26.90380 13.86845
#
# Velocity S-wave (km/s) = 0.61871 3.51598 2.52437
# Velocity P-wave (km/s) = 3.69917 5.84628 4.89198
#
# Compressibility (1/GPa) = 0.03488018
#
# Stress axis : x y z
#
# Youngs Moduli (GPa) = 54.70930 101.93802 123.10574
#
# Poissons Ratio (x) = 0.00253 -0.25560
# Poissons Ratio (y) = 0.00136 0.33448
# Poissons Ratio (z) = -0.11359 0.27697
#
# Static dielectric constant tensor:
#      x y z
#    x 1.843640 0.000000 0.000000 
#    y 0.000000 1.765500 0.000000 
#    z 0.000000 0.000000 1.770770 
# 
# From -- ./inp_files/12771.got.cif
#   From: 2010.05.17/outbox.cif.g08.bks.cpg/sg38_7_cif.got.tgz:12771.got - 2010.06.03 18:07:57.
