data_PCOD9357076
_publ_section_title
;
Structure prediction by ZEFSAII (Michael W. Deem and Ramdas Pophale) SiO2 
 PCOD9357076
Probable space group: A M M 2
;
_chemical_formula_sum "Si O2"
_cell_formula_units_Z 48
_cell_length_a 8.585172
_cell_length_b 17.055122
_cell_length_c 18.970571
_cell_angle_alpha 90.000000
_cell_angle_beta 90.000000
_cell_angle_gamma 90.000000
_cell_volume 2777.692933
_symmetry_space_group_name_H-M "A M M 2"
_symmetry_group_IT_number 38
_symmetry_cell_setting 'orthorhombic'
loop_
_space_group_symop_operation_xyz
x,y,z
-x,-y,z
-x,y,z
x,-y,z
x,1/2+y,1/2+z
-x,1/2-y,1/2+z
-x,1/2+y,1/2+z
x,1/2-y,1/2+z
loop_
_atom_site_type_symbol
_atom_site_label
_atom_site_fract_x
_atom_site_fract_y
_atom_site_fract_z
Si Si1 0.812299 0.328280 0.868600
Si Si2 0.687347 0.181849 0.947373
Si Si3 0.189775 0.000000 0.342751
Si Si4 0.813756 0.763890 0.726027
Si Si5 0.686927 0.843261 0.106850
Si Si6 0.311423 0.590076 0.307959
Si Si7 0.813061 0.000000 0.178944
O O1 0.741247 0.267722 0.923559
O O2 0.758974 0.417886 0.875992
O O3 0.772210 0.295286 0.790580
O O4 0.000000 0.325762 0.873932
O O5 0.500000 0.179360 0.947963
O O6 0.738786 0.122607 0.885101
O O7 0.741963 0.162525 0.025913
O O8 0.235660 0.000000 0.260724
O O9 0.000000 0.000000 0.344268
O O10 0.742531 0.729202 0.654842
O O11 0.753497 0.848708 0.750844
O O12 0.000000 0.764993 0.720243
O O13 0.500000 0.845661 0.107275
O O14 0.751401 0.922370 0.141413
O O15 0.500000 0.592929 0.305684
O O16 0.262998 0.500000 0.297938
O O17 0.000000 0.000000 0.177449
#
# Coordination Sequence:
#
# PCOD9357076 Si02
#       7
#     8   8   4   8   8   8   4
#     4   9  17  32  53  75 102 137 173 210 257 309
#     4   9  20  35  52  75 107 139 171 213 259 310
#     4   9  16  31  53  77 105 132 163 210 259 305
#     4  10  19  33  54  77 105 139 176 218 261 309
#     4  11  22  35  53  78 110 143 177 212 258 317
#     4   9  18  34  56  78 103 137 175 217 266 313
#     4  11  21  35  53  79 113 140 169 212 265 311
#
# _framework density 17.280528
#
# number of rings (size 3 to 8) (size 9 to 14) (size 15 to 20)
#    0.000    2.333    1.667    1.250    1.167    2.333 
#    0.000    0.417    1.833    0.000    0.000    0.000 
#    0.000    0.000    0.000    0.000    0.000    0.000 
#
# Total GULP energy -133869.426915 kJ/mol
# GULP energy per Si atom -5577.892788 kJ/mol
# Density = 1.724120 g / cm^3
# Si number density = 17.280528 Si / 1000 Ang^3
#
#
#
# Elastic Constant Matrix: (Units=GPa)
#
#
# Indices 1 2 3 4 5 6 
#
# 1 18.6851 19.6822 16.6293 0.0000 0.0000 0.0000
# 2 19.6822 147.6463 42.2704 0.0000 0.0000 0.0000
# 3 16.6293 42.2704 73.5473 0.0000 0.0000 0.0000
# 4 0.0000 0.0000 0.0000 18.0525 0.0000 0.0000
# 5 0.0000 0.0000 0.0000 0.0000 18.9923 0.0000
# 6 0.0000 0.0000 0.0000 0.0000 0.0000 28.8647
#
#
#
# Elastic Compliance Matrix: (Units=1/GPa)
#
#
# Indices 1 2 3 4 5 6 
#
# 1 0.070952 -0.005824 -0.012695 0.000000 0.000000 0.000000
# 2 -0.005824 0.008585 -0.003617 0.000000 0.000000 0.000000
# 3 -0.012695 -0.003617 0.018546 0.000000 0.000000 0.000000
# 4 0.000000 0.000000 0.000000 0.055394 0.000000 0.000000
# 5 0.000000 0.000000 0.000000 0.000000 0.052653 0.000000
# 6 0.000000 0.000000 0.000000 0.000000 0.000000 0.034644
#
#
# Mechanical properties :
#
#
# Convention : Reuss Voigt Hill
#
# Bulk Modulus (GPa) = 18.58387 44.11583 31.34985
# Shear Modulus (GPa) = 16.50257 23.93504 20.21880
#
# Velocity S-wave (km/s) = 3.09363 3.72571 3.42429
# Velocity P-wave (km/s) = 4.85163 6.64022 5.81510
#
# Compressibility (1/GPa) = 0.05381011
#
# Stress axis : x y z
#
# Youngs Moduli (GPa) = 14.09410 116.48363 53.91955
#
# Poissons Ratio (x) = 0.67837 0.68452
# Poissons Ratio (y) = 0.08208 0.19504
# Poissons Ratio (z) = 0.17893 0.42136
#
# Static dielectric constant tensor:
#      x y z
#    x 1.585900 0.000000 0.000000 
#    y 0.000000 1.578930 0.000000 
#    z 0.000000 0.000000 1.574060 
# 
# From -- ./inp_files/12154.got.cif
#   From: 2010.05.17/outbox.cif.g08.bks.cpg/sg38_7_cif.got.tgz:12154.got - 2010.06.03 18:07:57.
