data_PCOD9357750
_publ_section_title
;
Structure prediction by ZEFSAII (Michael W. Deem and Ramdas Pophale) SiO2 
 PCOD9357750
Probable space group: A M M 2
;
_chemical_formula_sum "Si O2"
_cell_formula_units_Z 56
_cell_length_a 8.955755
_cell_length_b 20.734358
_cell_length_c 15.777001
_cell_angle_alpha 90.000000
_cell_angle_beta 90.000000
_cell_angle_gamma 90.000000
_cell_volume 2929.660193
_symmetry_space_group_name_H-M "A M M 2"
_symmetry_group_IT_number 38
_symmetry_cell_setting 'orthorhombic'
loop_
_space_group_symop_operation_xyz
x,y,z
-x,-y,z
-x,y,z
x,-y,z
x,1/2+y,1/2+z
-x,1/2-y,1/2+z
-x,1/2+y,1/2+z
x,1/2-y,1/2+z
loop_
_atom_site_type_symbol
_atom_site_label
_atom_site_fract_x
_atom_site_fract_y
_atom_site_fract_z
Si Si1 0.178669 0.751316 0.654250
Si Si2 0.820290 0.926552 0.903422
Si Si3 0.674560 0.802212 0.310501
Si Si4 0.836706 0.925603 0.577980
Si Si5 0.325456 0.619583 0.229897
Si Si6 0.819684 0.784114 0.961813
Si Si7 0.671507 0.074923 0.418301
O O1 0.242943 0.700120 0.720588
O O2 0.245799 0.815361 0.697647
O O3 0.223232 0.741579 0.555789
O O4 0.000000 0.751399 0.657112
O O5 0.749785 0.911408 0.811904
O O6 0.782984 0.861166 0.955971
O O7 0.000000 0.927219 0.896006
O O8 0.775937 0.000000 0.930723
O O9 0.500000 0.784306 0.301451
O O10 0.744930 0.754868 0.383241
O O11 0.682883 0.875447 0.342483
O O12 0.712843 0.923735 0.649530
O O13 0.777155 0.896408 0.491445
O O14 0.000000 0.899903 0.604201
O O15 0.854810 0.000000 0.557279
O O16 0.500000 0.628736 0.243687
O O17 0.000000 0.777774 0.953186
O O18 0.500000 0.076436 0.449722
O O19 0.704687 0.000000 0.397765
#
# Coordination Sequence:
#
# PCOD9357750 Si02
#       7
#     8   8   8   8   8   8   8
#     4  11  23  39  60  86 117 155 200 248 303 361
#     4  10  21  39  62  86 117 159 203 251 309 368
#     4  11  22  37  60  89 118 153 195 247 303 358
#     4  10  20  33  51  78 112 150 190 232 286 350
#     4  12  23  35  54  84 116 151 195 245 302 360
#     4  10  22  40  62  87 118 159 202 250 303 362
#     4   9  19  36  56  80 114 154 195 241 295 353
#
# _framework density 19.114844999999999
#
# number of rings (size 3 to 8) (size 9 to 14) (size 15 to 20)
#    0.000    1.571    1.429    3.857    0.000    7.429 
#    0.000    0.714    0.000    0.857    0.000    0.000 
#    0.000    0.000    0.000    0.000    0.000    0.000 
#
# Total GULP energy -156032.549019 kJ/mol
# GULP energy per Si atom -5572.591036 kJ/mol
# Density = 1.907134 g / cm^3
# Si number density = 19.114845 Si / 1000 Ang^3
#
#
#
# Elastic Constant Matrix: (Units=GPa)
#
#
# Indices 1 2 3 4 5 6 
#
# 1 33.0697 25.3654 21.7253 0.0000 0.0000 0.0000
# 2 25.3654 91.6988 21.3905 0.0000 0.0000 0.0000
# 3 21.7253 21.3905 77.3268 0.0000 0.0000 0.0000
# 4 0.0000 0.0000 0.0000 27.3241 0.0000 0.0000
# 5 0.0000 0.0000 0.0000 0.0000 17.9321 0.0000
# 6 0.0000 0.0000 0.0000 0.0000 0.0000 12.6627
#
#
#
# Elastic Compliance Matrix: (Units=1/GPa)
#
#
# Indices 1 2 3 4 5 6 
#
# 1 0.044251 -0.009985 -0.009670 0.000000 0.000000 0.000000
# 2 -0.009985 0.013910 -0.001043 0.000000 0.000000 0.000000
# 3 -0.009670 -0.001043 0.015938 0.000000 0.000000 0.000000
# 4 0.000000 0.000000 0.000000 0.036598 0.000000 0.000000
# 5 0.000000 0.000000 0.000000 0.000000 0.055766 0.000000
# 6 0.000000 0.000000 0.000000 0.000000 0.000000 0.078972
#
#
# Mechanical properties :
#
#
# Convention : Reuss Voigt Hill
#
# Bulk Modulus (GPa) = 30.57823 37.67309 34.12566
# Shear Modulus (GPa) = 16.79369 20.49138 18.64254
#
# Velocity S-wave (km/s) = 2.96728 3.27771 3.12635
# Velocity P-wave (km/s) = 5.26987 5.83748 5.56092
#
# Compressibility (1/GPa) = 0.03270300
#
# Stress axis : x y z
#
# Youngs Moduli (GPa) = 22.59852 71.88848 62.74504
#
# Poissons Ratio (x) = 0.71778 0.60677
# Poissons Ratio (y) = 0.22564 0.06543
# Poissons Ratio (z) = 0.21854 0.07496
#
# Static dielectric constant tensor:
#      x y z
#    x 1.693520 0.000000 0.000000 
#    y 0.000000 1.671930 0.000000 
#    z 0.000000 0.000000 1.665720 
# 
# From -- ./inp_files/12353.got.cif
#   From: 2010.05.17/outbox.cif.g08.bks.cpg/sg38_7_cif.got.tgz:12353.got - 2010.06.03 18:07:57.
