data_PCOD9357779
_publ_section_title
;
Structure prediction by ZEFSAII (Michael W. Deem and Ramdas Pophale) SiO2 
 PCOD9357779
Probable space group: A M M 2
;
_chemical_formula_sum "Si O2"
_cell_formula_units_Z 56
_cell_length_a 8.823566
_cell_length_b 14.570433
_cell_length_c 23.395999
_cell_angle_alpha 90.000000
_cell_angle_beta 90.000000
_cell_angle_gamma 90.000000
_cell_volume 3007.863966
_symmetry_space_group_name_H-M "A M M 2"
_symmetry_group_IT_number 38
_symmetry_cell_setting 'orthorhombic'
loop_
_space_group_symop_operation_xyz
x,y,z
-x,-y,z
-x,y,z
x,-y,z
x,1/2+y,1/2+z
-x,1/2-y,1/2+z
-x,1/2+y,1/2+z
x,1/2-y,1/2+z
loop_
_atom_site_type_symbol
_atom_site_label
_atom_site_fract_x
_atom_site_fract_y
_atom_site_fract_z
Si Si1 0.182843 0.392525 0.625000
Si Si2 0.681393 0.401606 0.271603
Si Si3 0.827803 0.357327 0.853051
Si Si4 0.183292 0.207634 0.007749
Si Si5 0.172012 0.143367 0.887934
Si Si6 0.317853 0.301769 0.737640
Si Si7 0.319049 0.600167 0.971212
O O1 0.222917 0.500000 0.621826
O O2 0.226222 0.339984 0.566858
O O3 0.258502 0.345174 0.679435
O O4 0.000000 0.386552 0.630464
O O5 0.500000 0.400707 0.267187
O O6 0.736768 0.500000 0.247624
O O7 0.727747 0.399132 0.338237
O O8 0.734209 0.305251 0.244204
O O9 0.836007 0.250365 0.870686
O O10 0.748026 0.357854 0.791703
O O11 0.735228 0.399639 0.905277
O O12 0.000000 0.392138 0.850128
O O13 0.000000 0.212704 0.004269
O O14 0.231040 0.146306 0.952801
O O15 0.246645 0.310518 0.000638
O O16 0.000000 0.106803 0.886517
O O17 0.500000 0.303553 0.740123
O O18 0.500000 0.609071 0.973148
O O19 0.276461 0.500000 0.995933
#
# Coordination Sequence:
#
# PCOD9357779 Si02
#       7
#     8   8   8   8   8   8   8
#     4  10  22  40  59  77 100 134 177 224 271 318
#     4   9  18  32  50  75 107 140 170 203 252 312
#     4   9  17  31  52  76 104 139 176 214 257 305
#     4   9  19  36  56  77 104 139 177 217 262 313
#     4   8  15  28  48  75 102 129 164 206 251 298
#     4  10  20  35  55  78 107 141 177 221 268 314
#     4  10  20  33  52  81 114 144 174 212 261 315
#
# _framework density 18.617864000000001
#
# number of rings (size 3 to 8) (size 9 to 14) (size 15 to 20)
#    0.000    2.714    0.000    2.143    0.000    7.429 
#    0.000    2.143    0.000    2.571    0.000    0.000 
#    0.000    0.000    0.000    0.000    0.000    0.000 
#
# Total GULP energy -156043.381685 kJ/mol
# GULP energy per Si atom -5572.977917 kJ/mol
# Density = 1.857549 g / cm^3
# Si number density = 18.617864 Si / 1000 Ang^3
#
#
#
# Elastic Constant Matrix: (Units=GPa)
#
#
# Indices 1 2 3 4 5 6 
#
# 1 23.1031 24.3521 27.0261 0.0000 0.0000 0.0000
# 2 24.3521 128.0714 57.3236 0.0000 0.0000 0.0000
# 3 27.0261 57.3236 136.0697 0.0000 0.0000 0.0000
# 4 0.0000 0.0000 0.0000 12.6821 0.0000 0.0000
# 5 0.0000 0.0000 0.0000 0.0000 14.3117 0.0000
# 6 0.0000 0.0000 0.0000 0.0000 0.0000 7.2664
#
#
#
# Elastic Compliance Matrix: (Units=1/GPa)
#
#
# Indices 1 2 3 4 5 6 
#
# 1 0.062045 -0.007741 -0.009062 0.000000 0.000000 0.000000
# 2 -0.007741 0.010589 -0.002923 0.000000 0.000000 0.000000
# 3 -0.009062 -0.002923 0.010381 0.000000 0.000000 0.000000
# 4 0.000000 0.000000 0.000000 0.078851 0.000000 0.000000
# 5 0.000000 0.000000 0.000000 0.000000 0.069873 0.000000
# 6 0.000000 0.000000 0.000000 0.000000 0.000000 0.137620
#
#
# Mechanical properties :
#
#
# Convention : Reuss Voigt Hill
#
# Bulk Modulus (GPa) = 22.95642 56.07199 39.51420
# Shear Modulus (GPa) = 11.81108 18.75487 15.28298
#
# Velocity S-wave (km/s) = 2.52145 3.17734 2.86820
# Velocity P-wave (km/s) = 4.56443 6.60631 5.67791
#
# Compressibility (1/GPa) = 0.04356081
#
# Stress axis : x y z
#
# Youngs Moduli (GPa) = 16.11735 94.44207 96.33410
#
# Poissons Ratio (x) = 0.73112 0.87298
# Poissons Ratio (y) = 0.12477 0.28160
# Poissons Ratio (z) = 0.14606 0.27607
#
# Static dielectric constant tensor:
#      x y z
#    x 1.633610 0.000000 0.000000 
#    y 0.000000 1.694170 0.000000 
#    z 0.000000 0.000000 1.621560 
# 
# From -- ./inp_files/19831.got.cif
#   From: 2010.05.17/outbox.cif.g08.bks.cpg/sg38_10_cif.got.tgz:19831.got - 2010.06.03 18:07:57.
