data_PCOD9357127
_publ_section_title
;
Structure prediction by ZEFSAII (Michael W. Deem and Ramdas Pophale) SiO2 
 PCOD9357127
Probable space group: A M M 2
;
_chemical_formula_sum "Si O2"
_cell_formula_units_Z 48
_cell_length_a 8.946974
_cell_length_b 7.996522
_cell_length_c 35.045507
_cell_angle_alpha 90.000000
_cell_angle_beta 90.000000
_cell_angle_gamma 90.000000
_cell_volume 2507.319388
_symmetry_space_group_name_H-M "A M M 2"
_symmetry_group_IT_number 38
_symmetry_cell_setting 'orthorhombic'
loop_
_space_group_symop_operation_xyz
x,y,z
-x,-y,z
-x,y,z
x,-y,z
x,1/2+y,1/2+z
-x,1/2-y,1/2+z
-x,1/2+y,1/2+z
x,1/2-y,1/2+z
loop_
_atom_site_type_symbol
_atom_site_label
_atom_site_fract_x
_atom_site_fract_y
_atom_site_fract_z
Si Si1 0.678798 0.803250 0.862880
Si Si2 0.182061 0.000000 0.227004
Si Si3 0.169849 0.799057 0.942766
Si Si4 0.182387 0.815832 0.677667
Si Si5 0.330784 0.301865 0.019927
Si Si6 0.171714 0.695972 0.596313
Si Si7 0.180134 0.000000 0.315836
O O1 0.500000 0.791155 0.859883
O O2 0.730835 0.759263 0.905888
O O3 0.755732 0.667512 0.835589
O O4 0.720616 0.000000 0.855848
O O5 0.233239 0.165359 0.204558
O O6 0.223341 0.000000 0.271242
O O7 0.000000 0.000000 0.225680
O O8 0.000000 0.739607 0.936910
O O9 0.167099 0.000000 0.945757
O O10 0.236000 0.733220 0.982161
O O11 0.230598 0.788936 0.633843
O O12 0.000000 0.808840 0.676744
O O13 0.226136 0.000000 0.691221
O O14 0.500000 0.241728 0.013753
O O15 0.332834 0.500000 0.026315
O O16 0.262009 0.221983 0.057764
O O17 0.169290 0.500000 0.606211
O O18 0.000000 0.750124 0.589339
O O19 0.000000 0.000000 0.318957
#
# Coordination Sequence:
#
# PCOD9357127 Si02
#       7
#     8   4   8   8   8   8   4
#     4  10  22  41  64  88 119 161 204 248 302 366
#     4   9  18  33  51  83 121 151 191 239 295 361
#     4  10  21  38  60  85 112 144 189 243 298 353
#     4   9  16  29  52  80 113 151 187 234 294 349
#     4  11  24  37  50  75 113 154 195 238 285 346
#     4  10  19  33  55  81 110 144 190 244 293 346
#     4  11  23  37  61  93 127 161 199 253 309 367
#
# _framework density 19.14395
#
# number of rings (size 3 to 8) (size 9 to 14) (size 15 to 20)
#    0.000    2.000    0.833    2.750    1.167    7.000 
#    0.000    1.667    0.000    2.000    0.000    2.333 
#    0.000    0.000    0.000    0.000    0.000    0.000 
#
# Total GULP energy -133994.237682 kJ/mol
# GULP energy per Si atom -5583.093237 kJ/mol
# Density = 1.910038 g / cm^3
# Si number density = 19.143950 Si / 1000 Ang^3
#
#
#
# Elastic Constant Matrix: (Units=GPa)
#
#
# Indices 1 2 3 4 5 6 
#
# 1 59.3271 28.6387 29.2801 0.0000 0.0000 0.0000
# 2 28.6387 109.0819 70.5329 0.0000 0.0000 0.0000
# 3 29.2801 70.5329 128.2176 0.0000 0.0000 0.0000
# 4 0.0000 0.0000 0.0000 10.4453 0.0000 0.0000
# 5 0.0000 0.0000 0.0000 0.0000 -16.3623 0.0000
# 6 0.0000 0.0000 0.0000 0.0000 0.0000 22.9465
#
#
#
# Elastic Compliance Matrix: (Units=1/GPa)
#
#
# Indices 1 2 3 4 5 6 
#
# 1 0.019839 -0.003537 -0.002585 0.000000 0.000000 0.000000
# 2 -0.003537 0.014859 -0.007366 0.000000 0.000000 0.000000
# 3 -0.002585 -0.007366 0.012442 0.000000 0.000000 0.000000
# 4 0.000000 0.000000 0.000000 0.095737 0.000000 0.000000
# 5 0.000000 0.000000 0.000000 0.000000 -0.061116 0.000000
# 6 0.000000 0.000000 0.000000 0.000000 0.000000 0.043580
#
#
# Mechanical properties :
#
#
# Convention : Reuss Voigt Hill
#
# Bulk Modulus (GPa) = 49.59499 61.50335 55.54917
# Shear Modulus (GPa) = 31.43915 14.61757 23.02836
#
# Velocity S-wave (km/s) = 4.05686 2.76626 3.47206
# Velocity P-wave (km/s) = 6.92147 6.51148 6.71961
#
# Compressibility (1/GPa) = 0.02016333
#
# Stress axis : x y z
#
# Youngs Moduli (GPa) = 50.40615 67.29827 80.37506
#
# Poissons Ratio (x) = 0.23806 0.20773
# Poissons Ratio (y) = 0.17831 0.59207
# Poissons Ratio (z) = 0.13028 0.49574
#
# Static dielectric constant tensor:
#      x y z
#    x 1.660750 0.000000 0.000000 
#    y 0.000000 1.686520 0.000000 
#    z 0.000000 0.000000 1.628600 
# 
# From -- ./inp_files/24333.got.cif
#   From: 2010.05.17/outbox.cif.g08.bks.cpg/sg38_13_cif.got.tgz:24333.got - 2010.06.03 18:07:57.
