data_PCOD9357988
_publ_section_title
;
Structure prediction by ZEFSAII (Michael W. Deem and Ramdas Pophale) SiO2 
 PCOD9357988
Probable space group: A M M 2
;
_chemical_formula_sum "Si O2"
_cell_formula_units_Z 64
_cell_length_a 25.133676
_cell_length_b 9.010448
_cell_length_c 15.077928
_cell_angle_alpha 90.000000
_cell_angle_beta 90.000000
_cell_angle_gamma 90.000000
_cell_volume 3414.633227
_symmetry_space_group_name_H-M "A M M 2"
_symmetry_group_IT_number 38
_symmetry_cell_setting 'orthorhombic'
loop_
_space_group_symop_operation_xyz
x,y,z
-x,-y,z
-x,y,z
x,-y,z
x,1/2+y,1/2+z
-x,1/2-y,1/2+z
-x,1/2+y,1/2+z
x,1/2-y,1/2+z
loop_
_atom_site_type_symbol
_atom_site_label
_atom_site_fract_x
_atom_site_fract_y
_atom_site_fract_z
Si Si1 0.833446 0.677845 0.715160
Si Si2 0.168002 0.177400 0.421205
Si Si3 0.438147 0.823395 0.410903
Si Si4 0.561754 0.823280 0.718468
Si Si5 0.369672 0.678339 0.564674
Si Si6 0.058733 0.173142 0.924873
Si Si7 0.058027 0.672956 0.209007
Si Si8 0.754677 0.821314 0.061394
O O1 0.836791 0.500000 0.714614
O O2 0.825745 0.723343 0.817744
O O3 0.889553 0.740868 0.680656
O O4 0.785515 0.723518 0.651258
O O5 0.110041 0.234410 0.452715
O O6 0.213786 0.247911 0.480637
O O7 0.169771 0.000000 0.426040
O O8 0.500000 0.801129 0.437885
O O9 0.431676 0.751339 0.314332
O O10 0.399244 0.745096 0.479549
O O11 0.428602 0.000000 0.407635
O O12 0.500000 0.800181 0.690954
O O13 0.601024 0.747994 0.649201
O O14 0.570611 0.000000 0.723482
O O15 0.374472 0.500000 0.566019
O O16 0.307312 0.717625 0.563735
O O17 0.057895 0.179038 0.816952
O O18 0.000000 0.224713 0.954649
O O19 0.065025 0.000000 0.949537
O O20 0.062018 0.500000 0.184278
O O21 0.000000 0.730565 0.179738
O O22 0.758585 0.000000 0.053538
#
# Coordination Sequence:
#
# PCOD9357988 Si02
#       8
#     8   8   8   8   8   8   8   8
#     4   9  19  36  55  75 103 138 176 220 270 322
#     4  10  20  34  55  81 106 136 177 229 281 323
#     4  10  21  38  61  89 120 153 188 229 280 336
#     4  10  21  38  61  90 122 153 187 229 278 335
#     4  11  23  38  58  84 115 153 195 239 284 330
#     4   8  14  27  49  75 103 137 173 211 266 335
#     4   8  14  26  47  76 105 131 165 212 266 323
#     4  10  23  41  56  75 107 147 189 227 267 324
#
# _framework density 18.742861999999999
#
# number of rings (size 3 to 8) (size 9 to 14) (size 15 to 20)
#    0.000    2.500    0.000    2.625    0.000    6.500 
#    0.000    4.375    0.000    0.750    0.000    0.000 
#    0.000    0.000    0.000    0.000    0.000    0.000 
#
# Total GULP energy -178624.780360 kJ/mol
# GULP energy per Si atom -5582.024386 kJ/mol
# Density = 1.870020 g / cm^3
# Si number density = 18.742862 Si / 1000 Ang^3
#
#
#
# Elastic Constant Matrix: (Units=GPa)
#
#
# Indices 1 2 3 4 5 6 
#
# 1 196.7600 81.9773 95.8811 0.0000 0.0000 0.0000
# 2 81.9773 56.2185 45.2319 0.0000 0.0000 0.0000
# 3 95.8811 45.2319 95.2782 0.0000 0.0000 0.0000
# 4 0.0000 0.0000 0.0000 26.6984 0.0000 0.0000
# 5 0.0000 0.0000 0.0000 0.0000 2231.5153 0.0000
# 6 0.0000 0.0000 0.0000 0.0000 0.0000 31.2122
#
#
#
# Elastic Compliance Matrix: (Units=1/GPa)
#
#
# Indices 1 2 3 4 5 6 
#
# 1 0.016125 -0.016921 -0.008194 0.000000 0.000000 0.000000
# 2 -0.016921 0.046536 -0.005065 0.000000 0.000000 0.000000
# 3 -0.008194 -0.005065 0.021146 0.000000 0.000000 0.000000
# 4 0.000000 0.000000 0.000000 0.037455 0.000000 0.000000
# 5 0.000000 0.000000 0.000000 0.000000 0.000448 0.000000
# 6 0.000000 0.000000 0.000000 0.000000 0.000000 0.032039
#
#
# Mechanical properties :
#
#
# Convention : Reuss Voigt Hill
#
# Bulk Modulus (GPa) = 42.64730 88.27082 65.45906
# Shear Modulus (GPa) = 22.53011 466.22961 244.37986
#
# Velocity S-wave (km/s) = 3.47084 15.78894 11.43104
# Velocity P-wave (km/s) = 6.23423 19.48295 14.46463
#
# Compressibility (1/GPa) = 0.02344814
#
# Stress axis : x y z
#
# Youngs Moduli (GPa) = 62.01466 21.48874 47.28966
#
# Poissons Ratio (x) = 0.36360 0.38751
# Poissons Ratio (y) = 1.04932 0.23950
# Poissons Ratio (z) = 0.50818 0.10883
#
# Static dielectric constant tensor:
#      x y z
#    x 1.629260 0.000000 0.000000 
#    y 0.000000 1.623310 0.000000 
#    z 0.000000 0.000000 1.668280 
# 
# From -- ./inp_files/15867.got.cif
#   From: 2010.05.17/outbox.cif.g08.bks.cpg/sg38_8_cif.got.tgz:15867.got - 2010.06.03 18:07:57.
