data_PCOD9357441
_publ_section_title
;
Structure prediction by ZEFSAII (Michael W. Deem and Ramdas Pophale) SiO2 
 PCOD9357441
Probable space group: A M M 2
;
_chemical_formula_sum "Si O2"
_cell_formula_units_Z 40
_cell_length_a 8.419169
_cell_length_b 11.923593
_cell_length_c 20.600409
_cell_angle_alpha 90.000000
_cell_angle_beta 90.000000
_cell_angle_gamma 90.000000
_cell_volume 2068.007996
_symmetry_space_group_name_H-M "A M M 2"
_symmetry_group_IT_number 38
_symmetry_cell_setting 'orthorhombic'
loop_
_space_group_symop_operation_xyz
x,y,z
-x,-y,z
-x,y,z
x,-y,z
x,1/2+y,1/2+z
-x,1/2-y,1/2+z
-x,1/2+y,1/2+z
x,1/2-y,1/2+z
loop_
_atom_site_type_symbol
_atom_site_label
_atom_site_fract_x
_atom_site_fract_y
_atom_site_fract_z
Si Si1 0.308535 0.127809 0.018930
Si Si2 0.193241 0.000000 0.556707
Si Si3 0.807967 0.370137 0.266641
Si Si4 0.191884 0.275620 0.131450
Si Si5 0.189803 0.500000 0.908013
Si Si6 0.689594 0.741921 0.891349
O O1 0.500000 0.128705 0.016995
O O2 0.254907 0.173710 0.088627
O O3 0.254970 0.000000 0.007967
O O4 0.250659 0.208703 0.960550
O O5 0.243597 0.888479 0.593833
O O6 0.248297 0.000000 0.482762
O O7 0.000000 0.000000 0.556600
O O8 0.761494 0.500000 0.255646
O O9 0.757101 0.293052 0.205799
O O10 0.742099 0.323680 0.333803
O O11 0.000000 0.367696 0.268819
O O12 0.000000 0.271470 0.130760
O O13 0.247787 0.383169 0.878612
O O14 0.000000 0.500000 0.907720
O O15 0.500000 0.738181 0.894230
#
# Coordination Sequence:
#
# PCOD9357441 Si02
#       6
#     8   4   8   8   4   8
#     4  10  22  39  57  81 116 155 191 234 286 341
#     4   9  16  31  59  89 115 138 173 234 291 335
#     4  10  21  38  61  87 116 151 194 242 292 345
#     4  10  19  36  61  88 114 144 187 239 289 339
#     4  11  21  37  63  89 115 148 191 240 291 345
#     4  11  23  39  59  85 119 155 194 238 290 349
#
# _framework density 19.342283999999999
#
# number of rings (size 3 to 8) (size 9 to 14) (size 15 to 20)
#    0.000    1.800    3.000    1.500    0.000    3.200 
#    1.800    0.500    0.000    0.000    0.000    0.000 
#    0.000    0.000    0.000    0.000    0.000    0.000 
#
# Total GULP energy -111662.058395 kJ/mol
# GULP energy per Si atom -5583.102920 kJ/mol
# Density = 1.929826 g / cm^3
# Si number density = 19.342284 Si / 1000 Ang^3
#
#
#
# Elastic Constant Matrix: (Units=GPa)
#
#
# Indices 1 2 3 4 5 6 
#
# 1 18.8629 21.2292 17.7592 0.0000 0.0000 0.0000
# 2 21.2292 108.8402 31.6661 0.0000 0.0000 0.0000
# 3 17.7592 31.6661 98.0624 0.0000 0.0000 0.0000
# 4 0.0000 0.0000 0.0000 35.9335 0.0000 0.0000
# 5 0.0000 0.0000 0.0000 0.0000 25.0953 0.0000
# 6 0.0000 0.0000 0.0000 0.0000 0.0000 12.8686
#
#
#
# Elastic Compliance Matrix: (Units=1/GPa)
#
#
# Indices 1 2 3 4 5 6 
#
# 1 0.075688 -0.011892 -0.009867 0.000000 0.000000 0.000000
# 2 -0.011892 0.012009 -0.001724 0.000000 0.000000 0.000000
# 3 -0.009867 -0.001724 0.012541 0.000000 0.000000 0.000000
# 4 0.000000 0.000000 0.000000 0.027829 0.000000 0.000000
# 5 0.000000 0.000000 0.000000 0.000000 0.039848 0.000000
# 6 0.000000 0.000000 0.000000 0.000000 0.000000 0.077708
#
#
# Mechanical properties :
#
#
# Convention : Reuss Voigt Hill
#
# Bulk Modulus (GPa) = 18.77177 40.78605 29.77891
# Shear Modulus (GPa) = 16.11094 25.12019 20.61557
#
# Velocity S-wave (km/s) = 2.88920 3.60768 3.26825
# Velocity P-wave (km/s) = 4.56685 6.20372 5.44712
#
# Compressibility (1/GPa) = 0.05327148
#
# Stress axis : x y z
#
# Youngs Moduli (GPa) = 13.21213 83.27088 79.73653
#
# Poissons Ratio (x) = 0.99027 0.78676
# Poissons Ratio (y) = 0.15712 0.13748
# Poissons Ratio (z) = 0.13036 0.14358
#
# Static dielectric constant tensor:
#      x y z
#    x 1.667990 0.000000 0.000000 
#    y 0.000000 1.659360 0.000000 
#    z 0.000000 0.000000 1.660890 
# 
# From -- ./inp_files/19508.got.cif
#   From: 2010.05.17/outbox.cif.g08.bks.cpg/sg38_10_cif.got.tgz:19508.got - 2010.06.03 18:07:57.
