data_PCOD9357825
_publ_section_title
;
Structure prediction by ZEFSAII (Michael W. Deem and Ramdas Pophale) SiO2 
 PCOD9357825
Probable space group: A M M 2
;
_chemical_formula_sum "Si O2"
_cell_formula_units_Z 52
_cell_length_a 14.097470
_cell_length_b 21.536531
_cell_length_c 9.089859
_cell_angle_alpha 90.000000
_cell_angle_beta 90.000000
_cell_angle_gamma 90.000000
_cell_volume 2759.777542
_symmetry_space_group_name_H-M "A M M 2"
_symmetry_group_IT_number 38
_symmetry_cell_setting 'orthorhombic'
loop_
_space_group_symop_operation_xyz
x,y,z
-x,-y,z
-x,y,z
x,-y,z
x,1/2+y,1/2+z
-x,1/2-y,1/2+z
-x,1/2+y,1/2+z
x,1/2-y,1/2+z
loop_
_atom_site_type_symbol
_atom_site_label
_atom_site_fract_x
_atom_site_fract_y
_atom_site_fract_z
Si Si1 0.779112 0.848677 0.964310
Si Si2 0.390171 0.200634 0.153190
Si Si3 0.887924 0.718619 0.950199
Si Si4 0.888042 0.893053 0.230882
Si Si5 0.609402 0.830993 0.493809
Si Si6 0.786671 0.883474 0.634287
Si Si7 0.839087 0.000000 0.459381
O O1 0.829455 0.781743 0.943295
O O2 0.765696 0.878267 0.805722
O O3 0.682022 0.837619 0.053423
O O4 0.845823 0.889175 0.069469
O O5 0.500000 0.183309 0.126378
O O6 0.371366 0.191336 0.326600
O O7 0.380443 0.272122 0.102728
O O8 0.873998 0.674617 0.807325
O O9 0.000000 0.730776 0.967682
O O10 0.848102 0.676009 0.082222
O O11 0.841558 0.945259 0.331919
O O12 0.000000 0.905590 0.231655
O O13 0.500000 0.852288 0.500146
O O14 0.687322 0.879896 0.544893
O O15 0.839410 0.945208 0.585429
#
# Coordination Sequence:
#
# PCOD9357825 Si02
#       7
#     8   8   8   8   8   8   4
#     4  12  22  34  60  93 124 150 195 249 309 365
#     4  10  20  33  55  88 127 162 194 237 296 366
#     4  10  21  37  57  85 121 155 188 237 307 369
#     4  10  22  40  61  83 116 162 202 245 297 358
#     4  10  20  36  57  86 123 163 201 240 294 359
#     4  11  23  38  60  87 119 158 201 251 299 357
#     4  10  23  44  61  76 112 160 209 246 291 346
#
# _framework density 18.842099000000001
#
# number of rings (size 3 to 8) (size 9 to 14) (size 15 to 20)
#    0.000    1.538    1.538    4.385    0.000    5.538 
#    0.000    0.385    0.000    0.923    0.000    1.077 
#    0.000    0.000    0.000    0.000    0.000    0.000 
#
# Total GULP energy -144752.826761 kJ/mol
# GULP energy per Si atom -5567.416414 kJ/mol
# Density = 1.879921 g / cm^3
# Si number density = 18.842099 Si / 1000 Ang^3
#
#
#
# Elastic Constant Matrix: (Units=GPa)
#
#
# Indices 1 2 3 4 5 6 
#
# 1 51.0174 14.4925 43.7572 0.0000 0.0000 0.0000
# 2 14.4925 76.4069 26.5949 0.0000 0.0000 0.0000
# 3 43.7572 26.5949 108.9276 0.0000 0.0000 0.0000
# 4 0.0000 0.0000 0.0000 5.9776 0.0000 0.0000
# 5 0.0000 0.0000 0.0000 0.0000 19.6090 0.0000
# 6 0.0000 0.0000 0.0000 0.0000 0.0000 -7.6687
#
#
#
# Elastic Compliance Matrix: (Units=1/GPa)
#
#
# Indices 1 2 3 4 5 6 
#
# 1 0.030091 -0.001639 -0.011688 0.000000 0.000000 0.000000
# 2 -0.001639 0.014393 -0.002855 0.000000 0.000000 0.000000
# 3 -0.011688 -0.002855 0.014573 0.000000 0.000000 0.000000
# 4 0.000000 0.000000 0.000000 0.167292 0.000000 0.000000
# 5 0.000000 0.000000 0.000000 0.000000 0.050997 0.000000
# 6 0.000000 0.000000 0.000000 0.000000 0.000000 -0.130400
#
#
# Mechanical properties :
#
#
# Convention : Reuss Voigt Hill
#
# Bulk Modulus (GPa) = 37.46513 45.11568 41.29040
# Shear Modulus (GPa) = 26.56633 13.68405 20.12519
#
# Velocity S-wave (km/s) = 3.75900 2.69782 3.27172
# Velocity P-wave (km/s) = 6.22631 5.80520 6.01944
#
# Compressibility (1/GPa) = 0.02669149
#
# Stress axis : x y z
#
# Youngs Moduli (GPa) = 33.23225 69.47979 68.62192
#
# Poissons Ratio (x) = 0.11391 0.80203
# Poissons Ratio (y) = 0.05448 0.19594
# Poissons Ratio (z) = 0.38841 0.19839
#
# Static dielectric constant tensor:
#      x y z
#    x 1.690190 0.000000 0.000000 
#    y 0.000000 1.621970 0.000000 
#    z 0.000000 0.000000 1.664560 
# 
# From -- ./inp_files/5630.got.cif
#   From: 2010.05.17/outbox.cif.g08.bks.cpg/sg38_3_cif.got.tgz:5630.got - 2010.06.03 18:07:57.
