data_PCOD9357305
_publ_section_title
;
Structure prediction by ZEFSAII (Michael W. Deem and Ramdas Pophale) SiO2 
 PCOD9357305
Probable space group: A M M 2
;
_chemical_formula_sum "Si O2"
_cell_formula_units_Z 24
_cell_length_a 8.447029
_cell_length_b 7.790350
_cell_length_c 19.570751
_cell_angle_alpha 90.000000
_cell_angle_beta 90.000000
_cell_angle_gamma 90.000000
_cell_volume 1287.859383
_symmetry_space_group_name_H-M "A M M 2"
_symmetry_group_IT_number 38
_symmetry_cell_setting 'orthorhombic'
loop_
_space_group_symop_operation_xyz
x,y,z
-x,-y,z
-x,y,z
x,-y,z
x,1/2+y,1/2+z
-x,1/2-y,1/2+z
-x,1/2+y,1/2+z
x,1/2-y,1/2+z
loop_
_atom_site_type_symbol
_atom_site_label
_atom_site_fract_x
_atom_site_fract_y
_atom_site_fract_z
Si Si1 0.310226 0.195465 0.297590
Si Si2 0.810247 0.000000 0.702899
Si Si3 0.806727 0.000000 0.546323
Si Si4 0.191564 0.304626 0.447165
O O1 0.500000 0.200848 0.297137
O O2 0.246913 0.332479 0.243524
O O3 0.251794 0.247948 0.372932
O O4 0.258413 0.000000 0.283107
O O5 0.753448 0.000000 0.624565
O O6 0.000000 0.000000 0.702912
O O7 0.756158 0.831945 0.504040
O O8 0.000000 0.000000 0.546954
O O9 0.241952 0.500000 0.461353
O O10 0.000000 0.301674 0.445260
#
# Coordination Sequence:
#
# PCOD9357305 Si02
#       4
#     8   4   4   8
#     4  11  23  38  58  86 120 157 198 242 290 349
#     4  11  23  39  61  89 120 157 196 243 295 344
#     4   9  20  37  57  87 122 149 190 245 295 346
#     4  10  19  34  60  89 114 147 192 241 294 349
#
# _framework density 18.635574999999999
#
# number of rings (size 3 to 8) (size 9 to 14) (size 15 to 20)
#    0.000    1.667    3.333    1.500    0.000    3.333 
#    0.000    6.667    0.000    0.000    0.000    0.000 
#    0.000    0.000    0.000    0.000    0.000    0.000 
#
# Total GULP energy -67034.940803 kJ/mol
# GULP energy per Si atom -5586.245067 kJ/mol
# Density = 1.859316 g / cm^3
# Si number density = 18.635575 Si / 1000 Ang^3
#
#
#
# Elastic Constant Matrix: (Units=GPa)
#
#
# Indices 1 2 3 4 5 6 
#
# 1 20.3041 35.8190 23.5260 0.0000 0.0000 0.0000
# 2 35.8190 233.7388 127.7964 0.0000 0.0000 0.0000
# 3 23.5260 127.7964 200.9563 0.0000 0.0000 0.0000
# 4 0.0000 0.0000 0.0000 29.3424 0.0000 0.0000
# 5 0.0000 0.0000 0.0000 0.0000 -30.1452 0.0000
# 6 0.0000 0.0000 0.0000 0.0000 0.0000 24.3782
#
#
#
# Elastic Compliance Matrix: (Units=1/GPa)
#
#
# Indices 1 2 3 4 5 6 
#
# 1 0.068043 -0.009308 -0.002046 0.000000 0.000000 0.000000
# 2 -0.009308 0.007832 -0.003891 0.000000 0.000000 0.000000
# 3 -0.002046 -0.003891 0.007690 0.000000 0.000000 0.000000
# 4 0.000000 0.000000 0.000000 0.034080 0.000000 0.000000
# 5 0.000000 0.000000 0.000000 0.000000 -0.033173 0.000000
# 6 0.000000 0.000000 0.000000 0.000000 0.000000 0.041020
#
#
# Mechanical properties :
#
#
# Convention : Reuss Voigt Hill
#
# Bulk Modulus (GPa) = 18.84153 92.14244 55.49199
# Shear Modulus (GPa) = 28.78916 22.57226 25.68071
#
# Velocity S-wave (km/s) = 3.93472 3.48407 3.71623
# Velocity P-wave (km/s) = 5.54754 8.10782 6.94665
#
# Compressibility (1/GPa) = 0.05307423
#
# Stress axis : x y z
#
# Youngs Moduli (GPa) = 14.69653 127.67846 130.03495
#
# Poissons Ratio (x) = 1.18849 0.26608
# Poissons Ratio (y) = 0.13680 0.50597
# Poissons Ratio (z) = 0.03007 0.49680
#
# Static dielectric constant tensor:
#      x y z
#    x 1.636710 0.000000 0.000000 
#    y 0.000000 1.652570 0.000000 
#    z 0.000000 0.000000 1.601580 
# 
# From -- ./inp_files/16065.got.cif
#   From: 2010.05.17/outbox.cif.g08.bks.cpg/sg38_9_cif.got.tgz:16065.got - 2010.06.03 18:07:57.
