data_PCOD9357079
_publ_section_title
;
Structure prediction by ZEFSAII (Michael W. Deem and Ramdas Pophale) SiO2 
 PCOD9357079
Probable space group: A M M 2
;
_chemical_formula_sum "Si O2"
_cell_formula_units_Z 32
_cell_length_a 12.339195
_cell_length_b 8.010470
_cell_length_c 14.558309
_cell_angle_alpha 90.000000
_cell_angle_beta 90.000000
_cell_angle_gamma 90.000000
_cell_volume 1438.983317
_symmetry_space_group_name_H-M "A M M 2"
_symmetry_group_IT_number 38
_symmetry_cell_setting 'orthorhombic'
loop_
_space_group_symop_operation_xyz
x,y,z
-x,-y,z
-x,y,z
x,-y,z
x,1/2+y,1/2+z
-x,1/2-y,1/2+z
-x,1/2+y,1/2+z
x,1/2-y,1/2+z
loop_
_atom_site_type_symbol
_atom_site_label
_atom_site_fract_x
_atom_site_fract_y
_atom_site_fract_z
Si Si1 0.624632 0.500000 0.336360
Si Si2 0.761907 0.190358 0.344267
Si Si3 0.373874 0.500000 0.562235
Si Si4 0.000000 0.809789 0.092297
Si Si5 0.000000 0.310612 0.811900
Si Si6 0.239438 0.182123 0.559536
O O1 0.500000 0.500000 0.309538
O O2 0.683561 0.330691 0.304726
O O3 0.629933 0.500000 0.449482
O O4 0.734333 0.173587 0.451407
O O5 0.884613 0.261292 0.339663
O O6 0.760200 0.000000 0.305161
O O7 0.500000 0.500000 0.588619
O O8 0.309110 0.336734 0.595672
O O9 0.000000 0.817293 0.202372
O O10 0.111392 0.720641 0.065729
O O11 0.000000 0.000000 0.056114
O O12 0.000000 0.500000 0.850602
O O13 0.261853 0.000000 0.600474
#
# Coordination Sequence:
#
# PCOD9357079 Si02
#       6
#     4   8   4   4   4   8
#     4   9  18  31  51  81 105 130 171 210 252 303
#     4   9  18  34  53  75 105 136 168 210 256 305
#     4   9  18  33  53  79 107 134 171 214 254 303
#     4  11  20  33  53  77 105 141 170 213 263 312
#     4   9  19  34  52  77 102 138 172 208 258 314
#     4  10  19  33  54  78 106 137 170 212 260 308
#
# _framework density 22.237922000000001
#
# number of rings (size 3 to 8) (size 9 to 14) (size 15 to 20)
#    0.000    2.500    1.250    1.125    0.000    3.500 
#    4.500    5.000    0.000    1.500    0.000    0.000 
#    0.000    0.000    0.000    0.000    0.000    0.000 
#
# Total GULP energy -89319.067601 kJ/mol
# GULP energy per Si atom -5582.441725 kJ/mol
# Density = 2.218731 g / cm^3
# Si number density = 22.237922 Si / 1000 Ang^3
#
#
#
# Elastic Constant Matrix: (Units=GPa)
#
#
# Indices 1 2 3 4 5 6 
#
# 1 180.1477 117.8974 -9.8566 0.0000 0.0000 0.0000
# 2 117.8974 199.2688 14.9093 0.0000 0.0000 0.0000
# 3 -9.8566 14.9093 40.4429 0.0000 0.0000 0.0000
# 4 0.0000 0.0000 0.0000 4.5191 0.0000 0.0000
# 5 0.0000 0.0000 0.0000 0.0000 -104.4547 0.0000
# 6 0.0000 0.0000 0.0000 0.0000 0.0000 11.2863
#
#
#
# Elastic Compliance Matrix: (Units=1/GPa)
#
#
# Indices 1 2 3 4 5 6 
#
# 1 0.009850 -0.006178 0.004678 0.000000 0.000000 0.000000
# 2 -0.006178 0.009035 -0.004836 0.000000 0.000000 0.000000
# 3 0.004678 -0.004836 0.027649 0.000000 0.000000 0.000000
# 4 0.000000 0.000000 0.000000 0.221283 0.000000 0.000000
# 5 0.000000 0.000000 0.000000 0.000000 -0.009574 0.000000
# 6 0.000000 0.000000 0.000000 0.000000 0.000000 0.088603
#
#
# Mechanical properties :
#
#
# Convention : Reuss Voigt Hill
#
# Bulk Modulus (GPa) = 29.53150 73.97330 51.75240
# Shear Modulus (GPa) = 13.48411 2.06408 7.77409
#
# Velocity S-wave (km/s) = 2.46510 0.96447 1.87175
# Velocity P-wave (km/s) = 4.62719 5.88022 5.29093
#
# Compressibility (1/GPa) = 0.03386215
#
# Stress axis : x y z
#
# Youngs Moduli (GPa) = 101.52309 110.67720 36.16730
#
# Poissons Ratio (x) = 0.68374 -0.16919
# Poissons Ratio (y) = 0.62718 0.17492
# Poissons Ratio (z) = -0.47493 0.53529
#
# Static dielectric constant tensor:
#      x y z
#    x 1.783310 0.000000 0.000000 
#    y 0.000000 1.848020 0.000000 
#    z 0.000000 0.000000 1.829070 
# 
# From -- ./inp_files/17437.got.cif
#   From: 2010.05.17/outbox.cif.g08.bks.cpg/sg38_9_cif.got.tgz:17437.got - 2010.06.03 18:07:57.
