data_PCOD9357957
_publ_section_title
;
Structure prediction by ZEFSAII (Michael W. Deem and Ramdas Pophale) SiO2 
 PCOD9357957
Probable space group: A M M 2
;
_chemical_formula_sum "Si O2"
_cell_formula_units_Z 64
_cell_length_a 9.182546
_cell_length_b 28.523132
_cell_length_c 12.824191
_cell_angle_alpha 90.000000
_cell_angle_beta 90.000000
_cell_angle_gamma 90.000000
_cell_volume 3358.847622
_symmetry_space_group_name_H-M "A M M 2"
_symmetry_group_IT_number 38
_symmetry_cell_setting 'orthorhombic'
loop_
_space_group_symop_operation_xyz
x,y,z
-x,-y,z
-x,y,z
x,-y,z
x,1/2+y,1/2+z
-x,1/2-y,1/2+z
-x,1/2+y,1/2+z
x,1/2-y,1/2+z
loop_
_atom_site_type_symbol
_atom_site_label
_atom_site_fract_x
_atom_site_fract_y
_atom_site_fract_z
Si Si1 0.833274 0.948083 0.581510
Si Si2 0.664352 0.680971 0.936133
Si Si3 0.335076 0.071697 0.374921
Si Si4 0.324964 0.555126 0.457042
Si Si5 0.173421 0.197182 0.230704
Si Si6 0.174892 0.384052 0.277479
Si Si7 0.825866 0.702535 0.147976
Si Si8 0.174930 0.909209 0.167824
O O1 0.735942 0.948435 0.479052
O O2 0.790749 0.911747 0.670340
O O3 0.000000 0.937287 0.549727
O O4 0.830662 0.000000 0.629090
O O5 0.500000 0.698791 0.945180
O O6 0.745769 0.685009 0.045146
O O7 0.659412 0.626901 0.901242
O O8 0.750663 0.704405 0.841765
O O9 0.500000 0.055417 0.356986
O O10 0.237108 0.066393 0.272267
O O11 0.500000 0.560027 0.462285
O O12 0.292734 0.500000 0.434207
O O13 0.259309 0.590083 0.369905
O O14 0.252048 0.569451 0.566752
O O15 0.208890 0.242851 0.163391
O O16 0.210903 0.146628 0.180544
O O17 0.000000 0.196219 0.247168
O O18 0.210693 0.330171 0.247965
O O19 0.000000 0.387641 0.296290
O O20 0.000000 0.697597 0.133588
O O21 0.000000 0.913890 0.161530
#
# Coordination Sequence:
#
# PCOD9357957 Si02
#       8
#     8   8   8   8   8   8   8   8
#     4  10  20  34  55  84 114 145 186 234 283 337
#     4  10  20  34  54  80 113 150 185 232 290 345
#     4  10  20  35  56  82 113 148 186 231 288 349
#     4  11  25  43  62  85 118 160 202 250 308 365
#     4   9  20  37  58  86 116 152 197 243 292 349
#     4  10  21  38  61  86 115 153 198 245 291 345
#     4  10  20  36  60  86 115 154 198 243 291 348
#     4  10  21  39  63  86 114 152 197 246 294 348
#
# _framework density 19.054154
#
# number of rings (size 3 to 8) (size 9 to 14) (size 15 to 20)
#    0.000    2.000    1.250    1.875    0.000    6.250 
#    0.000    5.000    0.000    0.000    0.000    0.000 
#    0.000    0.000    0.000    0.000    0.000    0.000 
#
# Total GULP energy -178547.082185 kJ/mol
# GULP energy per Si atom -5579.596318 kJ/mol
# Density = 1.901079 g / cm^3
# Si number density = 19.054154 Si / 1000 Ang^3
#
#
#
# Elastic Constant Matrix: (Units=GPa)
#
#
# Indices 1 2 3 4 5 6 
#
# 1 46.9874 23.5431 40.5657 0.0000 0.0000 0.0000
# 2 23.5431 48.9013 10.9871 0.0000 0.0000 0.0000
# 3 40.5657 10.9871 79.9230 0.0000 0.0000 0.0000
# 4 0.0000 0.0000 0.0000 22.5875 0.0000 0.0000
# 5 0.0000 0.0000 0.0000 0.0000 1571.9278 0.0000
# 6 0.0000 0.0000 0.0000 0.0000 0.0000 0.4181
#
#
#
# Elastic Compliance Matrix: (Units=1/GPa)
#
#
# Indices 1 2 3 4 5 6 
#
# 1 0.051056 -0.019356 -0.023253 0.000000 0.000000 0.000000
# 2 -0.019356 0.028439 0.005915 0.000000 0.000000 0.000000
# 3 -0.023253 0.005915 0.023501 0.000000 0.000000 0.000000
# 4 0.000000 0.000000 0.000000 0.044272 0.000000 0.000000
# 5 0.000000 0.000000 0.000000 0.000000 0.000636 0.000000
# 6 0.000000 0.000000 0.000000 0.000000 0.000000 2.391809
#
#
# Mechanical properties :
#
#
# Convention : Reuss Voigt Hill
#
# Bulk Modulus (GPa) = 33.77485 36.22261 34.99873
# Shear Modulus (GPa) = 1.90624 325.70107 163.80365
#
# Velocity S-wave (km/s) = 1.00130 13.08837 9.28192
# Velocity P-wave (km/s) = 4.37047 15.73083 11.54469
#
# Compressibility (1/GPa) = 0.02960783
#
# Stress axis : x y z
#
# Youngs Moduli (GPa) = 19.58648 35.16279 42.55101
#
# Poissons Ratio (x) = 0.68061 0.98944
# Poissons Ratio (y) = 0.37911 -0.25168
# Poissons Ratio (z) = 0.45544 -0.20798
#
# Static dielectric constant tensor:
#      x y z
#    x 1.580450 0.000000 0.000000 
#    y 0.000000 1.622650 0.000000 
#    z 0.000000 0.000000 1.618400 
# 
# From -- ./inp_files/8654.got.cif
#   From: 2010.05.17/outbox.cif.g08.bks.cpg/sg38_5_cif.got.tgz:8654.got - 2010.06.03 18:07:57.
