data_PCOD9357366
_publ_section_title
;
Structure prediction by ZEFSAII (Michael W. Deem and Ramdas Pophale) SiO2 
 PCOD9357366
Probable space group: A M M 2
;
_chemical_formula_sum "Si O2"
_cell_formula_units_Z 40
_cell_length_a 8.797454
_cell_length_b 26.561662
_cell_length_c 9.228161
_cell_angle_alpha 90.000000
_cell_angle_beta 90.000000
_cell_angle_gamma 90.000000
_cell_volume 2156.390518
_symmetry_space_group_name_H-M "A M M 2"
_symmetry_group_IT_number 38
_symmetry_cell_setting 'orthorhombic'
loop_
_space_group_symop_operation_xyz
x,y,z
-x,-y,z
-x,y,z
x,-y,z
x,1/2+y,1/2+z
-x,1/2-y,1/2+z
-x,1/2+y,1/2+z
x,1/2-y,1/2+z
loop_
_atom_site_type_symbol
_atom_site_label
_atom_site_fract_x
_atom_site_fract_y
_atom_site_fract_z
Si Si1 0.817520 0.393815 0.135720
Si Si2 0.674398 0.500000 0.486301
Si Si3 0.323226 0.000000 0.633958
Si Si4 0.818119 0.395092 0.475922
Si Si5 0.183663 0.794894 0.150314
Si Si6 0.682077 0.298512 0.971867
O O1 0.760171 0.448897 0.087835
O O2 0.776449 0.387982 0.306469
O O3 0.738269 0.350006 0.045865
O O4 0.000000 0.390422 0.122721
O O5 0.500000 0.500000 0.530648
O O6 0.682463 0.500000 0.310162
O O7 0.751223 0.447776 0.531630
O O8 0.500000 0.000000 0.591035
O O9 0.773027 0.346557 0.568241
O O10 0.000000 0.399156 0.480321
O O11 0.250978 0.747770 0.063824
O O12 0.249789 0.795347 0.311190
O O13 0.000000 0.791375 0.153823
O O14 0.500000 0.296290 0.968769
#
# Coordination Sequence:
#
# PCOD9357366 Si02
#       6
#     8   4   4   8   8   8
#     4  10  19  35  59  86 115 152 194 235 281 341
#     4   9  17  29  52  83 116 149 182 224 278 333
#     4   9  17  31  52  83 118 151 188 234 284 335
#     4   9  19  35  58  84 112 147 190 233 274 327
#     4  11  23  41  62  84 112 151 194 236 284 346
#     4  12  25  40  59  86 117 149 187 239 294 343
#
# _framework density 18.549516000000001
#
# number of rings (size 3 to 8) (size 9 to 14) (size 15 to 20)
#    0.000    1.800    0.000    4.800    0.000    6.400 
#    0.000    1.000    0.000    3.600    0.000    0.000 
#    0.000    0.000    0.000    0.000    0.000    0.000 
#
# Total GULP energy -111737.501221 kJ/mol
# GULP energy per Si atom -5586.875061 kJ/mol
# Density = 1.850730 g / cm^3
# Si number density = 18.549516 Si / 1000 Ang^3
#
#
#
# Elastic Constant Matrix: (Units=GPa)
#
#
# Indices 1 2 3 4 5 6 
#
# 1 99.0014 80.8725 56.4832 0.0000 0.0000 0.0000
# 2 80.8725 213.7627 96.9912 0.0000 0.0000 0.0000
# 3 56.4832 96.9912 106.7605 0.0000 0.0000 0.0000
# 4 0.0000 0.0000 0.0000 29.3393 0.0000 0.0000
# 5 0.0000 0.0000 0.0000 0.0000 23.0555 0.0000
# 6 0.0000 0.0000 0.0000 0.0000 0.0000 17.1735
#
#
#
# Elastic Compliance Matrix: (Units=1/GPa)
#
#
# Indices 1 2 3 4 5 6 
#
# 1 0.016086 -0.003784 -0.005073 0.000000 0.000000 0.000000
# 2 -0.003784 0.008849 -0.006037 0.000000 0.000000 0.000000
# 3 -0.005073 -0.006037 0.017535 0.000000 0.000000 0.000000
# 4 0.000000 0.000000 0.000000 0.034084 0.000000 0.000000
# 5 0.000000 0.000000 0.000000 0.000000 0.043374 0.000000
# 6 0.000000 0.000000 0.000000 0.000000 0.000000 0.058229
#
#
# Mechanical properties :
#
#
# Convention : Reuss Voigt Hill
#
# Bulk Modulus (GPa) = 78.84992 98.69093 88.77043
# Shear Modulus (GPa) = 23.56566 26.25884 24.91225
#
# Velocity S-wave (km/s) = 3.56816 3.76654 3.66869
# Velocity P-wave (km/s) = 7.71853 8.49914 8.11822
#
# Compressibility (1/GPa) = 0.01268232
#
# Stress axis : x y z
#
# Youngs Moduli (GPa) = 62.16480 113.00666 57.02786
#
# Poissons Ratio (x) = 0.42764 0.28929
# Poissons Ratio (y) = 0.23525 0.34429
# Poissons Ratio (z) = 0.31534 0.68224
#
# Static dielectric constant tensor:
#      x y z
#    x 1.618600 0.000000 0.000000 
#    y 0.000000 1.623060 0.000000 
#    z 0.000000 0.000000 1.628000 
# 
# From -- ./inp_files/3536.got.cif
#   From: 2010.05.17/outbox.cif.g08.bks.cpg/sg38_2_cif.got.tgz:3536.got - 2010.06.03 18:07:57.
