data_PCOD9357191
_publ_section_title
;
Structure prediction by ZEFSAII (Michael W. Deem and Ramdas Pophale) SiO2 
 PCOD9357191
Probable space group: A M M 2
;
_chemical_formula_sum "Si O2"
_cell_formula_units_Z 64
_cell_length_a 8.591859
_cell_length_b 30.801298
_cell_length_c 15.098935
_cell_angle_alpha 90.000000
_cell_angle_beta 90.000000
_cell_angle_gamma 90.000000
_cell_volume 3995.788340
_symmetry_space_group_name_H-M "A M M 2"
_symmetry_group_IT_number 38
_symmetry_cell_setting 'orthorhombic'
loop_
_space_group_symop_operation_xyz
x,y,z
-x,-y,z
-x,y,z
x,-y,z
x,1/2+y,1/2+z
-x,1/2-y,1/2+z
-x,1/2+y,1/2+z
x,1/2-y,1/2+z
loop_
_atom_site_type_symbol
_atom_site_label
_atom_site_fract_x
_atom_site_fract_y
_atom_site_fract_z
Si Si1 0.310548 0.297264 0.668290
Si Si2 0.320572 0.174186 0.483411
Si Si3 0.184781 0.864985 0.304022
Si Si4 0.312516 0.950503 0.583309
Si Si5 0.312794 0.449765 0.877148
Si Si6 0.681833 0.721937 0.474118
Si Si7 0.181671 0.365220 0.157383
Si Si8 0.687871 0.210386 0.776459
O O1 0.500000 0.297243 0.668323
O O2 0.249536 0.339112 0.719938
O O3 0.253560 0.295958 0.566643
O O4 0.261465 0.253285 0.721125
O O5 0.500000 0.160511 0.499304
O O6 0.264706 0.157258 0.389182
O O7 0.315439 0.226050 0.483036
O O8 0.216037 0.155887 0.561604
O O9 0.232615 0.915232 0.313425
O O10 0.000000 0.860393 0.308874
O O11 0.500000 0.949115 0.586297
O O12 0.268308 0.941278 0.480340
O O13 0.245702 0.913983 0.647470
O O14 0.263813 0.000000 0.603296
O O15 0.500000 0.444838 0.871781
O O16 0.275299 0.500000 0.858278
O O17 0.500000 0.708527 0.471578
O O18 0.748816 0.710960 0.377532
O O19 0.264776 0.333387 0.226581
O O20 0.000000 0.365926 0.176107
O O21 0.500000 0.213053 0.779378
#
# Coordination Sequence:
#
# PCOD9357191 Si02
#       8
#     8   8   8   8   8   8   8   8
#     4  10  19  34  54  73  97 134 178 215 246 291
#     4  11  19  33  52  70  97 136 178 214 246 289
#     4  12  23  32  46  76 108 137 168 204 257 309
#     4   9  18  33  53  74  97 131 172 208 245 296
#     4   9  18  33  53  74  97 131 172 208 245 296
#     4   9  18  33  53  74  93 128 181 221 246 280
#     4  12  23  32  46  76 108 137 168 204 257 309
#     4  10  19  34  54  73  97 134 178 215 246 291
#
# _framework density 16.016864000000002
#
# number of rings (size 3 to 8) (size 9 to 14) (size 15 to 20)
#    0.000    1.750    3.750    3.375    0.000    1.000 
#    0.000    1.875    0.000    0.000    0.000    0.875 
#    0.000    7.000    0.000    0.000    0.000    0.000 
#
# Total GULP energy -178521.172269 kJ/mol
# GULP energy per Si atom -5578.786633 kJ/mol
# Density = 1.598041 g / cm^3
# Si number density = 16.016864 Si / 1000 Ang^3
#
#
#
# Elastic Constant Matrix: (Units=GPa)
#
#
# Indices 1 2 3 4 5 6 
#
# 1 16.5156 9.6833 1.1498 0.0000 0.0000 0.0000
# 2 9.6833 89.9351 40.4870 0.0000 0.0000 0.0000
# 3 1.1498 40.4870 82.8238 0.0000 0.0000 0.0000
# 4 0.0000 0.0000 0.0000 22.0578 0.0000 0.0000
# 5 0.0000 0.0000 0.0000 0.0000 9.9170 0.0000
# 6 0.0000 0.0000 0.0000 0.0000 0.0000 -66.0596
#
#
#
# Elastic Compliance Matrix: (Units=1/GPa)
#
#
# Indices 1 2 3 4 5 6 
#
# 1 0.065301 -0.008492 0.003244 0.000000 0.000000 0.000000
# 2 -0.008492 0.015361 -0.007391 0.000000 0.000000 0.000000
# 3 0.003244 -0.007391 0.015642 0.000000 0.000000 0.000000
# 4 0.000000 0.000000 0.000000 0.045335 0.000000 0.000000
# 5 0.000000 0.000000 0.000000 0.000000 0.100837 0.000000
# 6 0.000000 0.000000 0.000000 0.000000 0.000000 -0.015138
#
#
# Mechanical properties :
#
#
# Convention : Reuss Voigt Hill
#
# Bulk Modulus (GPa) = 14.07903 32.43497 23.25700
# Shear Modulus (GPa) = 18.09687 2.37998 10.23842
#
# Velocity S-wave (km/s) = 3.36499 1.22031 2.53104
# Velocity P-wave (km/s) = 4.88945 4.72017 4.80556
#
# Compressibility (1/GPa) = 0.07102762
#
# Stress axis : x y z
#
# Youngs Moduli (GPa) = 15.31360 65.10137 63.93165
#
# Poissons Ratio (x) = 0.55281 -0.20742
# Poissons Ratio (y) = 0.13004 0.47251
# Poissons Ratio (z) = -0.04968 0.48116
#
# Static dielectric constant tensor:
#      x y z
#    x 1.535170 0.000000 0.000000 
#    y 0.000000 1.543060 0.000000 
#    z 0.000000 0.000000 1.534900 
# 
# From -- ./inp_files/13105.got.cif
#   From: 2010.05.17/outbox.cif.g08.bks.cpg/sg38_7_cif.got.tgz:13105.got - 2010.06.03 18:07:57.
