data_PCOD9357503
_publ_section_title
;
Structure prediction by ZEFSAII (Michael W. Deem and Ramdas Pophale) SiO2 
 PCOD9357503
Probable space group: A M M 2
;
_chemical_formula_sum "Si O2"
_cell_formula_units_Z 48
_cell_length_a 7.556620
_cell_length_b 9.754313
_cell_length_c 32.419387
_cell_angle_alpha 90.000000
_cell_angle_beta 90.000000
_cell_angle_gamma 90.000000
_cell_volume 2389.621238
_symmetry_space_group_name_H-M "A M M 2"
_symmetry_group_IT_number 38
_symmetry_cell_setting 'orthorhombic'
loop_
_space_group_symop_operation_xyz
x,y,z
-x,-y,z
-x,y,z
x,-y,z
x,1/2+y,1/2+z
-x,1/2-y,1/2+z
-x,1/2+y,1/2+z
x,1/2-y,1/2+z
loop_
_atom_site_type_symbol
_atom_site_label
_atom_site_fract_x
_atom_site_fract_y
_atom_site_fract_z
Si Si1 0.210695 0.654810 0.892880
Si Si2 0.713344 0.841688 0.814579
Si Si3 0.789617 0.344308 0.134614
Si Si4 0.783887 0.157601 0.060318
Si Si5 0.712473 0.158970 0.724324
Si Si6 0.216112 0.342025 0.467409
O O1 0.281413 0.500000 0.889818
O O2 0.236535 0.742690 0.851568
O O3 0.280560 0.740814 0.931887
O O4 0.000000 0.644292 0.899032
O O5 0.500000 0.847043 0.813666
O O6 0.773079 0.789778 0.769184
O O7 0.774259 0.000000 0.820624
O O8 0.716961 0.500000 0.134431
O O9 0.719595 0.254279 0.096983
O O10 0.764377 0.280622 0.180198
O O11 0.000000 0.354527 0.128711
O O12 0.000000 0.159550 0.060764
O O13 0.730672 0.000000 0.066886
O O14 0.730454 0.197941 0.013879
O O15 0.500000 0.159870 0.724955
O O16 0.772492 0.000000 0.723101
O O17 0.270020 0.500000 0.459859
O O18 0.000000 0.341902 0.466736
#
# Coordination Sequence:
#
# PCOD9357503 Si02
#       6
#     8   8   8   8   8   8
#     4  10  20  31  45  70 100 124 149 187 235 280
#     4   9  18  33  52  70  88 118 160 197 230 273
#     4   9  16  25  41  67  92 112 141 182 222 258
#     4   8  14  25  41  62  89 119 148 179 218 262
#     4   8  15  29  47  65  86 114 148 183 219 264
#     4   8  14  26  44  64  87 118 154 187 220 263
#
# _framework density 20.086867000000002
#
# number of rings (size 3 to 8) (size 9 to 14) (size 15 to 20)
#    0.000    3.333    0.000    2.500    0.000    2.667 
#    0.000    5.833    0.000    4.500    0.000    4.667 
#    0.000    0.000    0.000    0.000    0.000    0.000 
#
# Total GULP energy -133719.455468 kJ/mol
# GULP energy per Si atom -5571.643978 kJ/mol
# Density = 2.004115 g / cm^3
# Si number density = 20.086867 Si / 1000 Ang^3
#
#
#
# Elastic Constant Matrix: (Units=GPa)
#
#
# Indices 1 2 3 4 5 6 
#
# 1 44.7460 5.1932 2.5808 0.0000 0.0000 0.0000
# 2 5.1932 103.0124 119.8833 0.0000 0.0000 0.0000
# 3 2.5808 119.8833 235.1651 0.0000 0.0000 0.0000
# 4 0.0000 0.0000 0.0000 31.7384 0.0000 0.0000
# 5 0.0000 0.0000 0.0000 0.0000 41.0854 0.0000
# 6 0.0000 0.0000 0.0000 0.0000 0.0000 4.5192
#
#
#
# Elastic Compliance Matrix: (Units=1/GPa)
#
#
# Indices 1 2 3 4 5 6 
#
# 1 0.022543 -0.002086 0.000816 0.000000 0.000000 0.000000
# 2 -0.002086 0.024061 -0.012243 0.000000 0.000000 0.000000
# 3 0.000816 -0.012243 0.010485 0.000000 0.000000 0.000000
# 4 0.000000 0.000000 0.000000 0.031508 0.000000 0.000000
# 5 0.000000 0.000000 0.000000 0.000000 0.024340 0.000000
# 6 0.000000 0.000000 0.000000 0.000000 0.000000 0.221278
#
#
# Mechanical properties :
#
#
# Convention : Reuss Voigt Hill
#
# Bulk Modulus (GPa) = 33.26386 70.91534 52.08960
# Shear Modulus (GPa) = 13.46761 32.48635 22.97698
#
# Velocity S-wave (km/s) = 2.59215 4.02592 3.38580
# Velocity P-wave (km/s) = 5.05519 7.54928 6.42443
#
# Compressibility (1/GPa) = 0.03006265
#
# Stress axis : x y z
#
# Youngs Moduli (GPa) = 44.35884 41.56163 95.37833
#
# Poissons Ratio (x) = 0.08671 -0.07785
# Poissons Ratio (y) = 0.09255 1.16770
# Poissons Ratio (z) = -0.03621 0.50883
#
# Static dielectric constant tensor:
#      x y z
#    x 1.764370 0.000000 0.000000 
#    y 0.000000 1.692290 0.000000 
#    z 0.000000 0.000000 1.728850 
# 
# From -- ./inp_files/22434.got.cif
#   From: 2010.05.17/outbox.cif.g08.bks.cpg/sg38_12_cif.got.tgz:22434.got - 2010.06.03 18:07:57.
