data_PCOD9357254
_publ_section_title
;
Structure prediction by ZEFSAII (Michael W. Deem and Ramdas Pophale) SiO2 
 PCOD9357254
Probable space group: A M M 2
;
_chemical_formula_sum "Si O2"
_cell_formula_units_Z 64
_cell_length_a 8.898801
_cell_length_b 25.233712
_cell_length_c 15.429895
_cell_angle_alpha 90.000000
_cell_angle_beta 90.000000
_cell_angle_gamma 90.000000
_cell_volume 3464.779552
_symmetry_space_group_name_H-M "A M M 2"
_symmetry_group_IT_number 38
_symmetry_cell_setting 'orthorhombic'
loop_
_space_group_symop_operation_xyz
x,y,z
-x,-y,z
-x,y,z
x,-y,z
x,1/2+y,1/2+z
-x,1/2-y,1/2+z
-x,1/2+y,1/2+z
x,1/2-y,1/2+z
loop_
_atom_site_type_symbol
_atom_site_label
_atom_site_fract_x
_atom_site_fract_y
_atom_site_fract_z
Si Si1 0.321196 0.782819 0.332110
Si Si2 0.319847 0.638428 0.543520
Si Si3 0.180864 0.937790 0.186349
Si Si4 0.678856 0.939402 0.540946
Si Si5 0.820034 0.389597 0.873906
Si Si6 0.678880 0.160629 0.853931
Si Si7 0.820020 0.766663 0.143914
Si Si8 0.821006 0.354647 0.168574
O O1 0.500000 0.791011 0.326130
O O2 0.246391 0.830649 0.383931
O O3 0.294286 0.723664 0.367471
O O4 0.247603 0.783289 0.236786
O O5 0.500000 0.640588 0.549887
O O6 0.256509 0.594180 0.608263
O O7 0.280191 0.630902 0.442471
O O8 0.251946 0.694365 0.574508
O O9 0.222717 0.912105 0.279057
O O10 0.000000 0.932980 0.178387
O O11 0.219382 0.000000 0.185441
O O12 0.500000 0.933309 0.532705
O O13 0.755036 0.925932 0.449402
O O14 0.741171 0.898728 0.611497
O O15 0.712029 0.000000 0.565428
O O16 0.000000 0.387963 0.878924
O O17 0.500000 0.154411 0.838257
O O18 0.766572 0.143818 0.768071
O O19 0.784430 0.704511 0.133458
O O20 0.000000 0.773027 0.145550
O O21 0.000000 0.361031 0.164283
#
# Coordination Sequence:
#
# PCOD9357254 Si02
#       8
#     8   8   8   8   8   8   8   8
#     4  10  19  34  56  85 119 158 197 237 288 349
#     4  11  22  36  58  88 119 157 201 244 293 349
#     4  10  22  40  60  83 117 159 198 242 297 352
#     4  11  25  43  63  87 117 156 202 251 302 358
#     4  11  22  37  59  88 121 158 197 243 296 354
#     4   9  21  39  58  85 122 160 198 243 296 352
#     4  10  20  35  55  85 120 155 193 237 292 353
#     4  10  22  40  63  90 117 153 199 248 302 354
#
# _framework density 18.471595000000001
#
# number of rings (size 3 to 8) (size 9 to 14) (size 15 to 20)
#    0.000    1.750    1.250    2.625    1.750    5.250 
#    0.000    0.625    0.000    0.750    0.000    0.000 
#    0.000    0.000    0.000    0.000    0.000    0.000 
#
# Total GULP energy -178792.490771 kJ/mol
# GULP energy per Si atom -5587.265337 kJ/mol
# Density = 1.842955 g / cm^3
# Si number density = 18.471595 Si / 1000 Ang^3
#
#
#
# Elastic Constant Matrix: (Units=GPa)
#
#
# Indices 1 2 3 4 5 6 
#
# 1 52.3143 54.1388 40.3632 0.0000 0.0000 0.0000
# 2 54.1388 105.3519 59.3183 0.0000 0.0000 0.0000
# 3 40.3632 59.3183 92.0452 0.0000 0.0000 0.0000
# 4 0.0000 0.0000 0.0000 26.3474 0.0000 0.0000
# 5 0.0000 0.0000 0.0000 0.0000 41.5066 0.0000
# 6 0.0000 0.0000 0.0000 0.0000 0.0000 28.4723
#
#
#
# Elastic Compliance Matrix: (Units=1/GPa)
#
#
# Indices 1 2 3 4 5 6 
#
# 1 0.043805 -0.018355 -0.007380 0.000000 0.000000 0.000000
# 2 -0.018355 0.022589 -0.006508 0.000000 0.000000 0.000000
# 3 -0.007380 -0.006508 0.018295 0.000000 0.000000 0.000000
# 4 0.000000 0.000000 0.000000 0.037954 0.000000 0.000000
# 5 0.000000 0.000000 0.000000 0.000000 0.024093 0.000000
# 6 0.000000 0.000000 0.000000 0.000000 0.000000 0.035122
#
#
# Mechanical properties :
#
#
# Convention : Reuss Voigt Hill
#
# Bulk Modulus (GPa) = 49.50204 61.92800 55.71502
# Shear Modulus (GPa) = 19.75670 25.65801 22.70736
#
# Velocity S-wave (km/s) = 3.27398 3.73104 3.50996
# Velocity P-wave (km/s) = 6.41476 7.22217 6.83041
#
# Compressibility (1/GPa) = 0.02020119
#
# Stress axis : x y z
#
# Youngs Moduli (GPa) = 22.82852 44.26917 54.66040
#
# Poissons Ratio (x) = 0.81258 0.40340
# Poissons Ratio (y) = 0.41903 0.35575
# Poissons Ratio (z) = 0.16848 0.28812
#
# Static dielectric constant tensor:
#      x y z
#    x 1.612370 0.000000 0.000000 
#    y 0.000000 1.628840 0.000000 
#    z 0.000000 0.000000 1.627600 
# 
# From -- ./inp_files/12834.got.cif
#   From: 2010.05.17/outbox.cif.g08.bks.cpg/sg38_7_cif.got.tgz:12834.got - 2010.06.03 18:07:57.
