data_PCOD9357453
_publ_section_title
;
Structure prediction by ZEFSAII (Michael W. Deem and Ramdas Pophale) SiO2 
 PCOD9357453
Probable space group: A M M 2
;
_chemical_formula_sum "Si O2"
_cell_formula_units_Z 58
_cell_length_a 12.202915
_cell_length_b 25.868152
_cell_length_c 7.519142
_cell_angle_alpha 90.000000
_cell_angle_beta 90.000000
_cell_angle_gamma 90.000000
_cell_volume 2373.543946
_symmetry_space_group_name_H-M "A M M 2"
_symmetry_group_IT_number 38
_symmetry_cell_setting 'orthorhombic'
loop_
_space_group_symop_operation_xyz
x,y,z
-x,-y,z
-x,y,z
x,-y,z
x,1/2+y,1/2+z
-x,1/2-y,1/2+z
-x,1/2+y,1/2+z
x,1/2-y,1/2+z
loop_
_atom_site_type_symbol
_atom_site_label
_atom_site_fract_x
_atom_site_fract_y
_atom_site_fract_z
Si Si1 0.000000 0.500000 0.895601
Si Si2 0.250327 0.216751 0.014606
Si Si3 0.624534 0.060391 0.075836
Si Si4 0.846790 0.424744 0.089689
Si Si5 0.878226 0.440191 0.498564
Si Si6 0.622196 0.805901 0.346744
Si Si7 0.124802 0.311153 0.180028
Si Si8 0.616260 0.084048 0.493627
O O1 0.905751 0.455267 0.934706
O O2 0.348928 0.251941 0.938884
O O3 0.163617 0.260437 0.075824
O O4 0.199690 0.184562 0.854965
O O5 0.292529 0.187232 0.186902
O O6 0.500000 0.081421 0.018579
O O7 0.751575 0.078426 0.032813
O O8 0.624041 0.000000 0.026037
O O9 0.619939 0.066369 0.289418
O O10 0.864325 0.363458 0.068618
O O11 0.719287 0.437121 0.092786
O O12 0.887686 0.439449 0.284705
O O13 0.882749 0.500000 0.563847
O O14 0.000000 0.417714 0.558501
O O15 0.500000 0.805209 0.272774
O O16 0.626164 0.853506 0.482493
O O17 0.000000 0.305392 0.236268
O O18 0.500000 0.069551 0.572386
#
# Coordination Sequence:
#
# PCOD9357453 Si02
#       8
#     2   8   8   8   8   8   8   8
#     4  12  24  44  66  90 128 168 216 260 332 374
#     4  10  22  38  63  93 122 166 208 253 307 385
#     4   9  20  38  59  83 118 158 201 256 316 374
#     4  12  22  41  64  91 124 171 208 265 316 382
#     4  10  19  37  59  87 117 153 202 258 311 373
#     4  10  20  39  61  90 127 163 203 257 311 370
#     4  11  22  40  62  90 128 162 213 255 317 368
#     4  10  23  41  60  89 126 163 209 260 314 383
#
# _framework density 24.436033999999999
#
# number of rings (size 3 to 8) (size 9 to 14) (size 15 to 20)
#    0.000    1.655    3.448    0.828    2.897    0.552 
#    1.241    0.690    1.517    0.000    0.000    0.000 
#    0.000    0.000    0.000    0.000    0.000    0.000 
#
# Total GULP energy -161653.190438 kJ/mol
# GULP energy per Si atom -5574.247946 kJ/mol
# Density = 2.438042 g / cm^3
# Si number density = 24.436034 Si / 1000 Ang^3
#
#
#
# Elastic Constant Matrix: (Units=GPa)
#
#
# Indices 1 2 3 4 5 6 
#
# 1 217.7432 35.4669 20.0376 0.0000 0.0000 0.0000
# 2 35.4669 70.3622 -5.0636 0.0000 0.0000 0.0000
# 3 20.0376 -5.0636 47.9187 0.0000 0.0000 0.0000
# 4 0.0000 0.0000 0.0000 18.3385 0.0000 0.0000
# 5 0.0000 0.0000 0.0000 0.0000 29.7826 0.0000
# 6 0.0000 0.0000 0.0000 0.0000 0.0000 27.0273
#
#
#
# Elastic Compliance Matrix: (Units=1/GPa)
#
#
# Indices 1 2 3 4 5 6 
#
# 1 0.005287 -0.002846 -0.002512 0.000000 0.000000 0.000000
# 2 -0.002846 0.015853 0.002865 0.000000 0.000000 0.000000
# 3 -0.002512 0.002865 0.022222 0.000000 0.000000 0.000000
# 4 0.000000 0.000000 0.000000 0.054530 0.000000 0.000000
# 5 0.000000 0.000000 0.000000 0.000000 0.033577 0.000000
# 6 0.000000 0.000000 0.000000 0.000000 0.000000 0.037000
#
#
# Mechanical properties :
#
#
# Convention : Reuss Voigt Hill
#
# Bulk Modulus (GPa) = 26.05713 48.54510 37.30111
# Shear Modulus (GPa) = 26.84637 34.06858 30.45748
#
# Velocity S-wave (km/s) = 3.31817 3.73794 3.53429
# Velocity P-wave (km/s) = 5.03655 6.20797 5.65269
#
# Compressibility (1/GPa) = 0.03837722
#
# Stress axis : x y z
#
# Youngs Moduli (GPa) = 189.13464 63.08015 45.00109
#
# Poissons Ratio (x) = 0.17952 0.11303
# Poissons Ratio (y) = 0.53825 -0.12894
# Poissons Ratio (z) = 0.47503 -0.18074
#
# Static dielectric constant tensor:
#      x y z
#    x 1.938160 0.000000 0.000000 
#    y 0.000000 1.949100 0.000000 
#    z 0.000000 0.000000 1.943170 
# 
# From -- ./inp_files/4829.got.cif
#   From: 2010.05.17/outbox.cif.g08.bks.cpg/sg38_3_cif.got.tgz:4829.got - 2010.06.03 18:07:57.
