data_PCOD9357479
_publ_section_title
;
Structure prediction by ZEFSAII (Michael W. Deem and Ramdas Pophale) SiO2 
 PCOD9357479
Probable space group: A M M 2
;
_chemical_formula_sum "Si O2"
_cell_formula_units_Z 40
_cell_length_a 10.926757
_cell_length_b 17.261475
_cell_length_c 9.974094
_cell_angle_alpha 90.000000
_cell_angle_beta 90.000000
_cell_angle_gamma 90.000000
_cell_volume 1881.233247
_symmetry_space_group_name_H-M "A M M 2"
_symmetry_group_IT_number 38
_symmetry_cell_setting 'orthorhombic'
loop_
_space_group_symop_operation_xyz
x,y,z
-x,-y,z
-x,y,z
x,-y,z
x,1/2+y,1/2+z
-x,1/2-y,1/2+z
-x,1/2+y,1/2+z
x,1/2-y,1/2+z
loop_
_atom_site_type_symbol
_atom_site_label
_atom_site_fract_x
_atom_site_fract_y
_atom_site_fract_z
Si Si1 0.500000 0.219931 0.994040
Si Si2 0.000000 0.710117 0.484819
Si Si3 0.748838 0.808825 0.118322
Si Si4 0.741524 0.122438 0.641979
Si Si5 0.000000 0.648876 0.187634
Si Si6 0.500000 0.344662 0.223442
Si Si7 0.352527 0.587712 0.846231
O O1 0.500000 0.222540 0.834433
O O2 0.374509 0.177912 0.033219
O O3 0.500000 0.298789 0.080879
O O4 0.125189 0.672797 0.542283
O O5 0.000000 0.796364 0.552935
O O6 0.000000 0.702051 0.323289
O O7 0.751373 0.716569 0.145198
O O8 0.723570 0.853650 0.254857
O O9 0.876300 0.098952 0.685162
O O10 0.622948 0.105904 0.731635
O O11 0.702627 0.095101 0.494965
O O12 0.500000 0.601279 0.844068
O O13 0.334742 0.500000 0.797966
#
# Coordination Sequence:
#
# PCOD9357479 Si02
#       7
#     4   4   8   8   4   4   8
#     4  10  20  30  54  87 121 159 209 261 315 369
#     4  10  22  36  58  95 137 167 211 273 329 373
#     4  10  22  34  63  90 131 161 220 261 321 369
#     4  10  22  34  63  90 131 161 220 261 321 369
#     4  10  22  36  58  95 137 167 211 273 329 373
#     4  10  20  30  54  87 121 159 209 261 315 369
#     4  11  24  43  65  99 134 172 217 274 329 394
#
# _framework density 21.262647999999999
#
# number of rings (size 3 to 8) (size 9 to 14) (size 15 to 20)
#    0.000    1.800    2.000    1.200   22.400    0.000 
#    0.000    2.000    0.000    7.200    0.000    0.000 
#    0.000    0.000    0.000    0.000    0.000    0.000 
#
# Total GULP energy -111526.869024 kJ/mol
# GULP energy per Si atom -5576.343451 kJ/mol
# Density = 2.121425 g / cm^3
# Si number density = 21.262648 Si / 1000 Ang^3
#
#
#
# Elastic Constant Matrix: (Units=GPa)
#
#
# Indices 1 2 3 4 5 6 
#
# 1 210.8658 2.8118 8.9321 0.0000 0.0000 0.0000
# 2 2.8118 44.7048 7.9188 0.0000 0.0000 0.0000
# 3 8.9321 7.9188 49.7983 0.0000 0.0000 0.0000
# 4 0.0000 0.0000 0.0000 7.9225 0.0000 0.0000
# 5 0.0000 0.0000 0.0000 0.0000 32.8802 0.0000
# 6 0.0000 0.0000 0.0000 0.0000 0.0000 -9.5446
#
#
#
# Elastic Compliance Matrix: (Units=1/GPa)
#
#
# Indices 1 2 3 4 5 6 
#
# 1 0.004780 -0.000153 -0.000833 0.000000 0.000000 0.000000
# 2 -0.000153 0.023022 -0.003633 0.000000 0.000000 0.000000
# 3 -0.000833 -0.003633 0.020808 0.000000 0.000000 0.000000
# 4 0.000000 0.000000 0.000000 0.126222 0.000000 0.000000
# 5 0.000000 0.000000 0.000000 0.000000 0.030413 0.000000
# 6 0.000000 0.000000 0.000000 0.000000 0.000000 -0.104771
#
#
# Mechanical properties :
#
#
# Convention : Reuss Voigt Hill
#
# Bulk Modulus (GPa) = 25.39940 38.29939 31.84939
# Shear Modulus (GPa) = 40.70425 25.29871 33.00148
#
# Velocity S-wave (km/s) = 4.38008 3.45312 3.94393
# Velocity P-wave (km/s) = 6.12794 5.82669 5.97921
#
# Compressibility (1/GPa) = 0.03937101
#
# Stress axis : x y z
#
# Youngs Moduli (GPa) = 209.21912 43.43637 48.05803
#
# Poissons Ratio (x) = 0.00665 0.04003
# Poissons Ratio (y) = 0.03203 0.17462
# Poissons Ratio (z) = 0.17427 0.15782
#
# Static dielectric constant tensor:
#      x y z
#    x 1.891750 0.000000 0.000000 
#    y 0.000000 1.774650 0.000000 
#    z 0.000000 0.000000 1.780250 
# 
# From -- ./inp_files/4515.got.cif
#   From: 2010.05.17/outbox.cif.g08.bks.cpg/sg38_3_cif.got.tgz:4515.got - 2010.06.03 18:07:57.
