data_PCOD9357282
_publ_section_title
;
Structure prediction by ZEFSAII (Michael W. Deem and Ramdas Pophale) SiO2 
 PCOD9357282
Probable space group: A M M 2
;
_chemical_formula_sum "Si O2"
_cell_formula_units_Z 58
_cell_length_a 7.458258
_cell_length_b 22.844484
_cell_length_c 15.740286
_cell_angle_alpha 90.000000
_cell_angle_beta 90.000000
_cell_angle_gamma 90.000000
_cell_volume 2681.830803
_symmetry_space_group_name_H-M "A M M 2"
_symmetry_group_IT_number 38
_symmetry_cell_setting 'orthorhombic'
loop_
_space_group_symop_operation_xyz
x,y,z
-x,-y,z
-x,y,z
x,-y,z
x,1/2+y,1/2+z
-x,1/2-y,1/2+z
-x,1/2+y,1/2+z
x,1/2-y,1/2+z
loop_
_atom_site_type_symbol
_atom_site_label
_atom_site_fract_x
_atom_site_fract_y
_atom_site_fract_z
Si Si1 0.000000 0.500000 0.092641
Si Si2 0.279932 0.681653 0.437009
Si Si3 0.707067 0.749619 0.781473
Si Si4 0.280883 0.433360 0.526194
Si Si5 0.704545 0.398823 0.059945
Si Si6 0.703899 0.569952 0.712137
Si Si7 0.717498 0.263450 0.093777
Si Si8 0.798514 0.867436 0.376184
O O1 0.157254 0.551762 0.088184
O O2 0.500000 0.683820 0.435804
O O3 0.214425 0.702203 0.345002
O O4 0.227440 0.615775 0.460021
O O5 0.220832 0.725341 0.512958
O O6 0.500000 0.765566 0.767658
O O7 0.781688 0.741970 0.686658
O O8 0.714480 0.691093 0.837764
O O9 0.500000 0.434663 0.529859
O O10 0.222315 0.500000 0.510196
O O11 0.222358 0.412757 0.620266
O O12 0.500000 0.409388 0.089355
O O13 0.758190 0.332443 0.086059
O O14 0.704237 0.395550 0.956853
O O15 0.500000 0.593154 0.718768
O O16 0.696541 0.500000 0.708994
O O17 0.801429 0.589533 0.796143
O O18 0.500000 0.258219 0.090424
O O19 0.000000 0.853721 0.403574
#
# Coordination Sequence:
#
# PCOD9357282 Si02
#       8
#     2   8   8   8   8   8   8   8
#     4  12  26  44  64  94 116 164 218 256 316 394
#     4   9  15  26  50  81 111 147 188 238 297 356
#     4  10  19  34  58  84 112 152 200 252 312 370
#     4   8  14  26  46  77 113 146 184 233 295 360
#     4  11  23  42  64  88 124 164 207 265 319 370
#     4   9  18  31  50  74 104 147 191 235 292 357
#     4   9  18  34  59  87 115 154 203 254 311 372
#     4  12  23  35  50  83 121 156 201 248 304 375
#
# _framework density 21.627018
#
# number of rings (size 3 to 8) (size 9 to 14) (size 15 to 20)
#    0.000    2.207    2.069    3.103    0.966    2.483 
#    1.241    0.000    1.517    0.000    0.000    0.000 
#    0.000    0.000    0.000    0.000    0.000    0.000 
#
# Total GULP energy -161604.043968 kJ/mol
# GULP energy per Si atom -5572.553240 kJ/mol
# Density = 2.157779 g / cm^3
# Si number density = 21.627018 Si / 1000 Ang^3
#
#
#
# Elastic Constant Matrix: (Units=GPa)
#
#
# Indices 1 2 3 4 5 6 
#
# 1 84.0082 13.4903 2.0952 0.0000 0.0000 0.0000
# 2 13.4903 67.0336 1.7450 0.0000 0.0000 0.0000
# 3 2.0952 1.7450 55.2281 0.0000 0.0000 0.0000
# 4 0.0000 0.0000 0.0000 30.1268 0.0000 0.0000
# 5 0.0000 0.0000 0.0000 0.0000 -25.6540 0.0000
# 6 0.0000 0.0000 0.0000 0.0000 0.0000 -15.6148
#
#
#
# Elastic Compliance Matrix: (Units=1/GPa)
#
#
# Indices 1 2 3 4 5 6 
#
# 1 0.012309 -0.002467 -0.000389 0.000000 0.000000 0.000000
# 2 -0.002467 0.015425 -0.000394 0.000000 0.000000 0.000000
# 3 -0.000389 -0.000394 0.018134 0.000000 0.000000 0.000000
# 4 0.000000 0.000000 0.000000 0.033193 0.000000 0.000000
# 5 0.000000 0.000000 0.000000 0.000000 -0.038980 0.000000
# 6 0.000000 0.000000 0.000000 0.000000 0.000000 -0.064042
#
#
# Mechanical properties :
#
#
# Convention : Reuss Voigt Hill
#
# Bulk Modulus (GPa) = 25.40120 26.77009 26.08564
# Shear Modulus (GPa) = -1152.48967 10.36756 -571.06105
#
# Velocity S-wave (km/s) = -23.10953 2.19185 -16.26724
# Velocity P-wave (km/s) = 26.46312 4.33711 18.45922
#
# Compressibility (1/GPa) = 0.03936823
#
# Stress axis : x y z
#
# Youngs Moduli (GPa) = 81.23819 64.83139 55.14524
#
# Poissons Ratio (x) = 0.15995 0.02145
# Poissons Ratio (y) = 0.20042 0.02171
# Poissons Ratio (z) = 0.03160 0.02553
#
# Static dielectric constant tensor:
#      x y z
#    x 1.866470 0.000000 0.000000 
#    y 0.000000 1.830380 0.000000 
#    z 0.000000 0.000000 1.791220 
# 
# From -- ./inp_files/12633.got.cif
#   From: 2010.05.17/outbox.cif.g08.bks.cpg/sg38_7_cif.got.tgz:12633.got - 2010.06.03 18:07:57.
