data_PCOD9357056
_publ_section_title
;
Structure prediction by ZEFSAII (Michael W. Deem and Ramdas Pophale) SiO2 
 PCOD9357056
Probable space group: A M M 2
;
_chemical_formula_sum "Si O2"
_cell_formula_units_Z 64
_cell_length_a 7.948408
_cell_length_b 20.353551
_cell_length_c 21.253329
_cell_angle_alpha 90.000000
_cell_angle_beta 90.000000
_cell_angle_gamma 90.000000
_cell_volume 3438.328021
_symmetry_space_group_name_H-M "A M M 2"
_symmetry_group_IT_number 38
_symmetry_cell_setting 'orthorhombic'
loop_
_space_group_symop_operation_xyz
x,y,z
-x,-y,z
-x,y,z
x,-y,z
x,1/2+y,1/2+z
-x,1/2-y,1/2+z
-x,1/2+y,1/2+z
x,1/2-y,1/2+z
loop_
_atom_site_type_symbol
_atom_site_label
_atom_site_fract_x
_atom_site_fract_y
_atom_site_fract_z
Si Si1 0.702845 0.572693 0.604520
Si Si2 0.201948 0.711470 0.552417
Si Si3 0.302227 0.212442 0.290135
Si Si4 0.803324 0.213931 0.914656
Si Si5 0.699056 0.426668 0.373616
Si Si6 0.795727 0.073174 0.727736
Si Si7 0.704724 0.072311 0.251663
Si Si8 0.198533 0.205609 0.669806
O O1 0.500000 0.572960 0.602390
O O2 0.759704 0.500000 0.583452
O O3 0.764227 0.635071 0.566350
O O4 0.751541 0.580570 0.678074
O O5 0.267115 0.730655 0.483534
O O6 0.270151 0.754783 0.610374
O O7 0.000000 0.718920 0.550631
O O8 0.500000 0.211564 0.275197
O O9 0.278166 0.248873 0.356037
O O10 0.240102 0.137022 0.288853
O O11 0.218079 0.252360 0.233416
O O12 0.783840 0.135602 0.905530
O O13 0.000000 0.230333 0.912370
O O14 0.500000 0.423615 0.386559
O O15 0.759966 0.500000 0.391311
O O16 0.727548 0.419626 0.298597
O O17 0.733483 0.133096 0.685098
O O18 0.000000 0.076852 0.732078
O O19 0.751236 0.000000 0.705231
O O20 0.500000 0.070577 0.253748
O O21 0.764072 0.000000 0.272555
O O22 0.000000 0.197780 0.657808
#
# Coordination Sequence:
#
# PCOD9357056 Si02
#       8
#     8   8   8   8   8   8   8   8
#     4   9  17  31  51  74 102 135 169 208 254 302
#     4  10  22  36  50  71 103 141 176 209 255 304
#     4  11  20  32  55  81 101 130 172 215 258 303
#     4  11  23  37  50  69 104 146 178 211 253 306
#     4  10  20  33  50  74 103 133 171 217 257 300
#     4   9  17  30  51  77 102 130 164 203 255 314
#     4   8  15  29  50  77 105 130 160 203 256 308
#     4  10  19  33  53  76 102 132 167 211 257 303
#
# _framework density 18.613697999999999
#
# number of rings (size 3 to 8) (size 9 to 14) (size 15 to 20)
#    0.000    2.250    2.500    1.875    0.000    2.500 
#    0.000    2.500    0.000    2.250    0.000    1.750 
#    0.000    0.000    0.000    0.000    0.000    0.000 
#
# Total GULP energy -178499.176578 kJ/mol
# GULP energy per Si atom -5578.099268 kJ/mol
# Density = 1.857133 g / cm^3
# Si number density = 18.613698 Si / 1000 Ang^3
#
#
#
# Elastic Constant Matrix: (Units=GPa)
#
#
# Indices 1 2 3 4 5 6 
#
# 1 14.2788 -5.2100 -8.5620 0.0000 0.0000 0.0000
# 2 -5.2100 113.1231 45.7381 0.0000 0.0000 0.0000
# 3 -8.5620 45.7381 85.8353 0.0000 0.0000 0.0000
# 4 0.0000 0.0000 0.0000 17.2234 0.0000 0.0000
# 5 0.0000 0.0000 0.0000 0.0000 -12.5522 0.0000
# 6 0.0000 0.0000 0.0000 0.0000 0.0000 14.6034
#
#
#
# Elastic Compliance Matrix: (Units=1/GPa)
#
#
# Indices 1 2 3 4 5 6 
#
# 1 0.074515 0.000544 0.007143 0.000000 0.000000 0.000000
# 2 0.000544 0.011271 -0.005952 0.000000 0.000000 0.000000
# 3 0.007143 -0.005952 0.015534 0.000000 0.000000 0.000000
# 4 0.000000 0.000000 0.000000 0.058060 0.000000 0.000000
# 5 0.000000 0.000000 0.000000 0.000000 -0.079667 0.000000
# 6 0.000000 0.000000 0.000000 0.000000 0.000000 0.068477
#
#
# Mechanical properties :
#
#
# Convention : Reuss Voigt Hill
#
# Bulk Modulus (GPa) = 9.54279 30.79660 20.16970
# Shear Modulus (GPa) = 27.83164 15.93967 21.88566
#
# Velocity S-wave (km/s) = 3.87101 2.92951 3.43269
# Velocity P-wave (km/s) = 5.01173 5.29374 5.15467
#
# Compressibility (1/GPa) = 0.10479117
#
# Stress axis : x y z
#
# Youngs Moduli (GPa) = 13.42003 88.71994 64.37404
#
# Poissons Ratio (x) = -0.04824 -0.45983
# Poissons Ratio (y) = -0.00730 0.38314
# Poissons Ratio (z) = -0.09586 0.52805
#
# Static dielectric constant tensor:
#      x y z
#    x 1.663100 0.000000 0.000000 
#    y 0.000000 1.671840 0.000000 
#    z 0.000000 0.000000 1.635730 
# 
# From -- ./inp_files/17195.got.cif
#   From: 2010.05.17/outbox.cif.g08.bks.cpg/sg38_9_cif.got.tgz:17195.got - 2010.06.03 18:07:57.
