data_PCOD9357826
_publ_section_title
;
Structure prediction by ZEFSAII (Michael W. Deem and Ramdas Pophale) SiO2 
 PCOD9357826
Probable space group: A M M 2
;
_chemical_formula_sum "Si O2"
_cell_formula_units_Z 48
_cell_length_a 7.588232
_cell_length_b 23.922798
_cell_length_c 12.133365
_cell_angle_alpha 90.000000
_cell_angle_beta 90.000000
_cell_angle_gamma 90.000000
_cell_volume 2202.590876
_symmetry_space_group_name_H-M "A M M 2"
_symmetry_group_IT_number 38
_symmetry_cell_setting 'orthorhombic'
loop_
_space_group_symop_operation_xyz
x,y,z
-x,-y,z
-x,y,z
x,-y,z
x,1/2+y,1/2+z
-x,1/2-y,1/2+z
-x,1/2+y,1/2+z
x,1/2-y,1/2+z
loop_
_atom_site_type_symbol
_atom_site_label
_atom_site_fract_x
_atom_site_fract_y
_atom_site_fract_z
Si Si1 0.715683 0.264980 0.177880
Si Si2 0.284985 0.062305 0.653679
Si Si3 0.714471 0.347158 0.983755
Si Si4 0.794207 0.936675 0.045600
Si Si5 0.289951 0.143364 0.846215
Si Si6 0.286996 0.143647 0.233444
O O1 0.500000 0.265139 0.177500
O O2 0.772140 0.298016 0.290306
O O3 0.772573 0.200975 0.175056
O O4 0.771911 0.298670 0.068591
O O5 0.500000 0.061450 0.658205
O O6 0.237275 0.095640 0.544685
O O7 0.225658 0.097518 0.758419
O O8 0.219479 0.000000 0.656556
O O9 0.500000 0.343061 0.980512
O O10 0.775695 0.349507 0.858912
O O11 0.738645 0.886210 0.963531
O O12 0.000000 0.942280 0.026725
O O13 0.717076 0.000000 0.029796
O O14 0.765411 0.911674 0.167504
O O15 0.500000 0.148398 0.839024
O O16 0.500000 0.143618 0.234770
#
# Coordination Sequence:
#
# PCOD9357826 Si02
#       6
#     8   8   8   8   8   8
#     4   8  16  30  53  86 116 136 166 221 283 327
#     4   8  13  23  43  73 106 133 161 209 264 307
#     4   8  15  27  44  75 110 134 164 211 268 322
#     4  11  25  41  53  72 110 154 191 231 277 319
#     4   9  17  32  57  85 107 134 177 225 272 328
#     4  10  20  33  56  82 106 142 183 223 268 330
#
# _framework density 21.792517
#
# number of rings (size 3 to 8) (size 9 to 14) (size 15 to 20)
#    0.000    3.000    0.000    3.000    2.333    2.667 
#    0.000    2.500    0.000    4.000    0.000    9.333 
#    0.000    0.000    0.000    0.000    0.000    0.000 
#
# Total GULP energy -133716.375013 kJ/mol
# GULP energy per Si atom -5571.515626 kJ/mol
# Density = 2.174292 g / cm^3
# Si number density = 21.792517 Si / 1000 Ang^3
#
#
#
# Elastic Constant Matrix: (Units=GPa)
#
#
# Indices 1 2 3 4 5 6 
#
# 1 42.5391 -1.6147 -6.8074 0.0000 0.0000 0.0000
# 2 -1.6147 85.0877 16.5251 0.0000 0.0000 0.0000
# 3 -6.8074 16.5251 92.2759 0.0000 0.0000 0.0000
# 4 0.0000 0.0000 0.0000 12.7846 0.0000 0.0000
# 5 0.0000 0.0000 0.0000 0.0000 -91.5958 0.0000
# 6 0.0000 0.0000 0.0000 0.0000 0.0000 -15.2672
#
#
#
# Elastic Compliance Matrix: (Units=1/GPa)
#
#
# Indices 1 2 3 4 5 6 
#
# 1 0.023790 0.000115 0.001735 0.000000 0.000000 0.000000
# 2 0.000115 0.012177 -0.002172 0.000000 0.000000 0.000000
# 3 0.001735 -0.002172 0.011354 0.000000 0.000000 0.000000
# 4 0.000000 0.000000 0.000000 0.078219 0.000000 0.000000
# 5 0.000000 0.000000 0.000000 0.000000 -0.010918 0.000000
# 6 0.000000 0.000000 0.000000 0.000000 0.000000 -0.065500
#
#
# Mechanical properties :
#
#
# Convention : Reuss Voigt Hill
#
# Bulk Modulus (GPa) = 21.42510 26.23427 23.82969
# Shear Modulus (GPa) = 76.53905 -4.69569 35.92168
#
# Velocity S-wave (km/s) = 5.93279 -1.46949 4.06439
# Velocity P-wave (km/s) = 7.53547 3.03070 5.74319
#
# Compressibility (1/GPa) = 0.04667423
#
# Stress axis : x y z
#
# Youngs Moduli (GPa) = 42.03498 82.12463 88.07447
#
# Poissons Ratio (x) = -0.00941 -0.15277
# Poissons Ratio (y) = -0.00482 0.19131
# Poissons Ratio (z) = -0.07291 0.17839
#
# Static dielectric constant tensor:
#      x y z
#    x 1.850570 0.000000 0.000000 
#    y 0.000000 1.801190 0.000000 
#    z 0.000000 0.000000 1.810200 
# 
# From -- ./inp_files/8150.got.cif
#   From: 2010.05.17/outbox.cif.g08.bks.cpg/sg38_5_cif.got.tgz:8150.got - 2010.06.03 18:07:57.
