data_PCOD9357571
_publ_section_title
;
Structure prediction by ZEFSAII (Michael W. Deem and Ramdas Pophale) SiO2 
 PCOD9357571
Probable space group: A M M 2
;
_chemical_formula_sum "Si O2"
_cell_formula_units_Z 64
_cell_length_a 17.528149
_cell_length_b 7.540032
_cell_length_c 23.202224
_cell_angle_alpha 90.000000
_cell_angle_beta 90.000000
_cell_angle_gamma 90.000000
_cell_volume 3066.470991
_symmetry_space_group_name_H-M "A M M 2"
_symmetry_group_IT_number 38
_symmetry_cell_setting 'orthorhombic'
loop_
_space_group_symop_operation_xyz
x,y,z
-x,-y,z
-x,y,z
x,-y,z
x,1/2+y,1/2+z
-x,1/2-y,1/2+z
-x,1/2+y,1/2+z
x,1/2-y,1/2+z
loop_
_atom_site_type_symbol
_atom_site_label
_atom_site_fract_x
_atom_site_fract_y
_atom_site_fract_z
Si Si1 0.086227 0.784448 0.357620
Si Si2 0.772729 0.204735 0.654584
Si Si3 0.736734 0.700577 0.033493
Si Si4 0.082878 0.213558 0.223740
Si Si5 0.254207 0.717605 0.903604
Si Si6 0.585724 0.205096 0.344840
Si Si7 0.626781 0.710167 0.216801
Si Si8 0.418229 0.711731 0.588082
O O1 0.089370 0.734487 0.290328
O O2 0.169074 0.727329 0.382278
O O3 0.000000 0.728220 0.378827
O O4 0.085434 0.000000 0.361759
O O5 0.773802 0.285996 0.590690
O O6 0.852712 0.209672 0.684353
O O7 0.711097 0.279973 0.699579
O O8 0.748042 0.000000 0.646042
O O9 0.767575 0.500000 0.027770
O O10 0.649005 0.699261 0.053174
O O11 0.741665 0.777771 0.970082
O O12 0.000000 0.265567 0.202392
O O13 0.088940 0.000000 0.222443
O O14 0.255129 0.500000 0.900211
O O15 0.332986 0.776241 0.870873
O O16 0.500000 0.280597 0.358546
O O17 0.594603 0.209742 0.275266
O O18 0.583246 0.000000 0.363448
O O19 0.628014 0.500000 0.228013
O O20 0.585004 0.743078 0.156070
O O21 0.500000 0.764499 0.564836
O O22 0.409115 0.500000 0.583505
#
# Coordination Sequence:
#
# PCOD9357571 Si02
#       8
#     8   8   8   8   8   8   8   8
#     4   8  14  26  47  75 100 121 154 202 249 290
#     4   9  18  31  46  68  97 126 158 197 243 294
#     4   9  19  34  50  70  96 127 166 206 244 292
#     4   9  17  29  48  75 101 124 155 195 241 297
#     4   9  17  31  50  70  96 131 169 208 245 287
#     4  10  20  32  48  73 102 132 167 204 245 296
#     4  10  20  33  50  73 100 129 162 202 250 302
#     4  10  20  33  50  72  96 124 162 207 251 295
#
# _framework density 20.870896999999999
#
# number of rings (size 3 to 8) (size 9 to 14) (size 15 to 20)
#    0.000    2.750    0.000    3.375    0.000    7.000 
#    0.000    2.500    0.000    3.000    0.000    0.000 
#    0.000    0.000    0.000    0.000    0.000    0.000 
#
# Total GULP energy -178163.533231 kJ/mol
# GULP energy per Si atom -5567.610413 kJ/mol
# Density = 2.082339 g / cm^3
# Si number density = 20.870897 Si / 1000 Ang^3
#
#
#
# Elastic Constant Matrix: (Units=GPa)
#
#
# Indices 1 2 3 4 5 6 
#
# 1 191.9617 7.1332 71.0440 0.0000 0.0000 0.0000
# 2 7.1332 51.1999 0.5732 0.0000 0.0000 0.0000
# 3 71.0440 0.5732 75.6896 0.0000 0.0000 0.0000
# 4 0.0000 0.0000 0.0000 4.9484 0.0000 0.0000
# 5 0.0000 0.0000 0.0000 0.0000 -12.2865 0.0000
# 6 0.0000 0.0000 0.0000 0.0000 0.0000 11.6778
#
#
#
# Elastic Compliance Matrix: (Units=1/GPa)
#
#
# Indices 1 2 3 4 5 6 
#
# 1 0.008037 -0.001035 -0.007536 0.000000 0.000000 0.000000
# 2 -0.001035 0.019666 0.000823 0.000000 0.000000 0.000000
# 3 -0.007536 0.000823 0.020279 0.000000 0.000000 0.000000
# 4 0.000000 0.000000 0.000000 0.202086 0.000000 0.000000
# 5 0.000000 0.000000 0.000000 0.000000 -0.081390 0.000000
# 6 0.000000 0.000000 0.000000 0.000000 0.000000 0.085632
#
#
# Mechanical properties :
#
#
# Convention : Reuss Voigt Hill
#
# Bulk Modulus (GPa) = 30.78286 52.92799 41.85543
# Shear Modulus (GPa) = 17.81677 16.87467 17.34572
#
# Velocity S-wave (km/s) = 2.92493 2.84654 2.88600
# Velocity P-wave (km/s) = 5.11743 6.01818 5.58599
#
# Compressibility (1/GPa) = 0.03248561
#
# Stress axis : x y z
#
# Youngs Moduli (GPa) = 124.42853 50.84835 49.31269
#
# Poissons Ratio (x) = 0.05264 0.37160
# Poissons Ratio (y) = 0.12882 -0.04058
# Poissons Ratio (z) = 0.93765 -0.04184
#
# Static dielectric constant tensor:
#      x y z
#    x 1.789080 0.000000 0.000000 
#    y 0.000000 1.831770 0.000000 
#    z 0.000000 0.000000 1.726450 
# 
# From -- ./inp_files/21452.got.cif
#   From: 2010.05.17/outbox.cif.g08.bks.cpg/sg38_11_cif.got.tgz:21452.got - 2010.06.03 18:07:57.
