data_PCOD9357406
_publ_section_title
;
Structure prediction by ZEFSAII (Michael W. Deem and Ramdas Pophale) SiO2 
 PCOD9357406
Probable space group: A M M 2
;
_chemical_formula_sum "Si O2"
_cell_formula_units_Z 58
_cell_length_a 15.558568
_cell_length_b 7.773701
_cell_length_c 25.866774
_cell_angle_alpha 90.000000
_cell_angle_beta 90.000000
_cell_angle_gamma 90.000000
_cell_volume 3128.525674
_symmetry_space_group_name_H-M "A M M 2"
_symmetry_group_IT_number 38
_symmetry_cell_setting 'orthorhombic'
loop_
_space_group_symop_operation_xyz
x,y,z
-x,-y,z
-x,y,z
x,-y,z
x,1/2+y,1/2+z
-x,1/2-y,1/2+z
-x,1/2+y,1/2+z
x,1/2-y,1/2+z
loop_
_atom_site_type_symbol
_atom_site_label
_atom_site_fract_x
_atom_site_fract_y
_atom_site_fract_z
Si Si1 0.273023 0.699174 0.975390
Si Si2 0.000000 0.000000 0.279631
Si Si3 0.123580 0.305771 0.312327
Si Si4 0.095833 0.709753 0.931697
Si Si5 0.685557 0.706587 0.784820
Si Si6 0.403175 0.705152 0.565033
Si Si7 0.400642 0.290483 0.680517
Si Si8 0.595737 0.294804 0.387684
O O1 0.259437 0.500000 0.986213
O O2 0.177854 0.772714 0.964478
O O3 0.329968 0.718826 0.923670
O O4 0.331879 0.764862 0.021897
O O5 0.926113 0.153036 0.283615
O O6 0.098126 0.500000 0.298245
O O7 0.105549 0.276847 0.373279
O O8 0.224558 0.285212 0.302267
O O9 0.099377 0.500000 0.928329
O O10 0.000000 0.755428 0.950809
O O11 0.693867 0.500000 0.784122
O O12 0.656874 0.768236 0.728202
O O13 0.615849 0.752977 0.828356
O O14 0.500000 0.770288 0.551796
O O15 0.411014 0.500000 0.569361
O O16 0.378526 0.769047 0.622462
O O17 0.500000 0.243688 0.689745
O O18 0.396665 0.500000 0.680776
O O19 0.500000 0.233536 0.402023
O O20 0.598063 0.500000 0.395129
#
# Coordination Sequence:
#
# PCOD9357406 Si02
#       8
#     8   2   8   8   8   8   8   8
#     4  11  22  33  52  78 107 142 183 230 286 342
#     4  12  22  40  56  82 114 152 194 236 292 342
#     4  12  22  35  57  83 115 150 189 237 285 344
#     4  10  19  36  54  76 107 144 187 233 284 344
#     4  11  20  34  54  82 114 146 187 233 283 345
#     4   9  18  35  56  78 106 143 188 235 281 335
#     4   8  16  32  56  81 106 145 193 234 279 335
#     4  11  23  35  48  72 111 154 188 223 275 345
#
# _framework density 18.539083000000002
#
# number of rings (size 3 to 8) (size 9 to 14) (size 15 to 20)
#    0.000    1.655    3.448    3.103    0.000    4.138 
#    0.000    1.379    0.000    1.655    1.793    0.000 
#    0.000    0.000    0.000    0.000    0.000    0.138 
#
# Total GULP energy -161563.636910 kJ/mol
# GULP energy per Si atom -5571.159893 kJ/mol
# Density = 1.849689 g / cm^3
# Si number density = 18.539083 Si / 1000 Ang^3
#
#
#
# Elastic Constant Matrix: (Units=GPa)
#
#
# Indices 1 2 3 4 5 6 
#
# 1 137.2834 7.2238 52.3740 0.0000 0.0000 0.0000
# 2 7.2238 61.8988 -4.1257 0.0000 0.0000 0.0000
# 3 52.3740 -4.1257 85.1978 0.0000 0.0000 0.0000
# 4 0.0000 0.0000 0.0000 11.3908 0.0000 0.0000
# 5 0.0000 0.0000 0.0000 0.0000 8.0510 0.0000
# 6 0.0000 0.0000 0.0000 0.0000 0.0000 74.1495
#
#
#
# Elastic Compliance Matrix: (Units=1/GPa)
#
#
# Indices 1 2 3 4 5 6 
#
# 1 0.009658 -0.001528 -0.006011 0.000000 0.000000 0.000000
# 2 -0.001528 0.016449 0.001736 0.000000 0.000000 0.000000
# 3 -0.006011 0.001736 0.015517 0.000000 0.000000 0.000000
# 4 0.000000 0.000000 0.000000 0.087790 0.000000 0.000000
# 5 0.000000 0.000000 0.000000 0.000000 0.124208 0.000000
# 6 0.000000 0.000000 0.000000 0.000000 0.000000 0.013486
#
#
# Mechanical properties :
#
#
# Convention : Reuss Voigt Hill
#
# Bulk Modulus (GPa) = 33.31359 43.92492 38.61926
# Shear Modulus (GPa) = 17.31779 33.97880 25.64829
#
# Velocity S-wave (km/s) = 3.05966 4.28579 3.72354
# Velocity P-wave (km/s) = 5.52181 6.94516 6.27398
#
# Compressibility (1/GPa) = 0.03001778
#
# Stress axis : x y z
#
# Youngs Moduli (GPa) = 103.54351 60.79259 64.44725
#
# Poissons Ratio (x) = 0.09288 0.38739
# Poissons Ratio (y) = 0.15819 -0.11186
# Poissons Ratio (z) = 0.62239 -0.10552
#
# Static dielectric constant tensor:
#      x y z
#    x 1.666570 0.000000 0.000000 
#    y 0.000000 1.680910 0.000000 
#    z 0.000000 0.000000 1.627170 
# 
# From -- ./inp_files/23980.got.cif
#   From: 2010.05.17/outbox.cif.g08.bks.cpg/sg38_12_cif.got.tgz:23980.got - 2010.06.03 18:07:57.
