data_PCOD9357347
_publ_section_title
;
Structure prediction by ZEFSAII (Michael W. Deem and Ramdas Pophale) SiO2 
 PCOD9357347
Probable space group: A M M 2
;
_chemical_formula_sum "Si O2"
_cell_formula_units_Z 40
_cell_length_a 7.740758
_cell_length_b 26.731212
_cell_length_c 9.188840
_cell_angle_alpha 90.000000
_cell_angle_beta 90.000000
_cell_angle_gamma 90.000000
_cell_volume 1901.353331
_symmetry_space_group_name_H-M "A M M 2"
_symmetry_group_IT_number 38
_symmetry_cell_setting 'orthorhombic'
loop_
_space_group_symop_operation_xyz
x,y,z
-x,-y,z
-x,y,z
x,-y,z
x,1/2+y,1/2+z
-x,1/2-y,1/2+z
-x,1/2+y,1/2+z
x,1/2-y,1/2+z
loop_
_atom_site_type_symbol
_atom_site_label
_atom_site_fract_x
_atom_site_fract_y
_atom_site_fract_z
Si Si1 0.206030 0.900353 0.746330
Si Si2 0.287501 0.300144 0.742811
Si Si3 0.791705 0.000000 0.907705
Si Si4 0.291898 0.500000 0.748141
Si Si5 0.294286 0.201458 0.910608
Si Si6 0.707289 0.099947 0.406441
O O1 0.264782 0.849721 0.824475
O O2 0.254817 0.900740 0.577231
O O3 0.000000 0.901462 0.755614
O O4 0.273786 0.949821 0.828515
O O5 0.500000 0.300181 0.742572
O O6 0.228581 0.249628 0.822755
O O7 0.228297 0.301433 0.575672
O O8 0.229879 0.349382 0.829611
O O9 0.000000 0.000000 0.895092
O O10 0.748327 0.000000 0.077662
O O11 0.500000 0.500000 0.762980
O O12 0.225849 0.449883 0.826832
O O13 0.500000 0.208488 0.922238
O O14 0.500000 0.099989 0.389903
#
# Coordination Sequence:
#
# PCOD9357347 Si02
#       6
#     8   8   4   4   8   8
#     4  11  23  38  55  79 109 146 187 224 265 321
#     4   9  18  33  57  84 110 142 180 219 273 335
#     4  10  23  40  56  76 110 150 183 216 270 334
#     4  10  21  36  60  90 112 134 179 232 272 314
#     4  10  19  35  58  82 108 142 181 225 272 323
#     4  10  20  36  57  84 113 142 178 224 273 323
#
# _framework density 21.037648999999998
#
# number of rings (size 3 to 8) (size 9 to 14) (size 15 to 20)
#    0.000    2.000    0.000    3.600    0.000    7.200 
#    0.000    5.000    0.000    0.000    0.000    0.000 
#    0.000    0.000    0.000    0.000    0.000    0.000 
#
# Total GULP energy -111796.637259 kJ/mol
# GULP energy per Si atom -5589.831863 kJ/mol
# Density = 2.098977 g / cm^3
# Si number density = 21.037649 Si / 1000 Ang^3
#
#
#
# Elastic Constant Matrix: (Units=GPa)
#
#
# Indices 1 2 3 4 5 6 
#
# 1 26.7204 7.3529 -6.5268 0.0000 0.0000 0.0000
# 2 7.3529 281.8429 160.7502 0.0000 0.0000 0.0000
# 3 -6.5268 160.7502 243.5903 0.0000 0.0000 0.0000
# 4 0.0000 0.0000 0.0000 69.2671 0.0000 0.0000
# 5 0.0000 0.0000 0.0000 0.0000 -64.5626 0.0000
# 6 0.0000 0.0000 0.0000 0.0000 0.0000 9.0666
#
#
#
# Elastic Compliance Matrix: (Units=1/GPa)
#
#
# Indices 1 2 3 4 5 6 
#
# 1 0.038802 -0.002574 0.002738 0.000000 0.000000 0.000000
# 2 -0.002574 0.005860 -0.003936 0.000000 0.000000 0.000000
# 3 0.002738 -0.003936 0.006776 0.000000 0.000000 0.000000
# 4 0.000000 0.000000 0.000000 0.014437 0.000000 0.000000
# 5 0.000000 0.000000 0.000000 0.000000 -0.015489 0.000000
# 6 0.000000 0.000000 0.000000 0.000000 0.000000 0.110295
#
#
# Mechanical properties :
#
#
# Convention : Reuss Voigt Hill
#
# Bulk Modulus (GPa) = 22.78203 97.25624 60.01913
# Shear Modulus (GPa) = 27.34370 28.79270 28.06820
#
# Velocity S-wave (km/s) = 3.60912 3.70351 3.65662
# Velocity P-wave (km/s) = 5.31228 8.03853 6.81316
#
# Compressibility (1/GPa) = 0.04389424
#
# Stress axis : x y z
#
# Youngs Moduli (GPa) = 25.77202 170.63895 147.57348
#
# Poissons Ratio (x) = 0.43925 -0.40411
# Poissons Ratio (y) = 0.06634 0.58090
# Poissons Ratio (z) = -0.07057 0.67169
#
# Static dielectric constant tensor:
#      x y z
#    x 1.783420 0.000000 0.000000 
#    y 0.000000 1.674660 0.000000 
#    z 0.000000 0.000000 1.681970 
# 
# From -- ./inp_files/3334.got.cif
#   From: 2010.05.17/outbox.cif.g08.bks.cpg/sg38_2_cif.got.tgz:3334.got - 2010.06.03 18:07:57.
