data_PCOD9357255
_publ_section_title
;
Structure prediction by ZEFSAII (Michael W. Deem and Ramdas Pophale) SiO2 
 PCOD9357255
Probable space group: A M M 2
;
_chemical_formula_sum "Si O2"
_cell_formula_units_Z 56
_cell_length_a 8.627534
_cell_length_b 21.735139
_cell_length_c 14.271771
_cell_angle_alpha 90.000000
_cell_angle_beta 90.000000
_cell_angle_gamma 90.000000
_cell_volume 2676.251785
_symmetry_space_group_name_H-M "A M M 2"
_symmetry_group_IT_number 38
_symmetry_cell_setting 'orthorhombic'
loop_
_space_group_symop_operation_xyz
x,y,z
-x,-y,z
-x,y,z
x,-y,z
x,1/2+y,1/2+z
-x,1/2-y,1/2+z
-x,1/2+y,1/2+z
x,1/2-y,1/2+z
loop_
_atom_site_type_symbol
_atom_site_label
_atom_site_fract_x
_atom_site_fract_y
_atom_site_fract_z
Si Si1 0.681370 0.571453 0.543460
Si Si2 0.677846 0.318782 0.823112
Si Si3 0.179041 0.000000 0.752426
Si Si4 0.313391 0.787202 0.694942
Si Si5 0.185019 0.642040 0.012251
Si Si6 0.314449 0.618261 0.351424
Si Si7 0.180366 0.000000 0.527445
Si Si8 0.174391 0.429022 0.743606
O O1 0.500000 0.585269 0.566822
O O2 0.683344 0.500000 0.510477
O O3 0.738408 0.613496 0.458413
O O4 0.788159 0.574969 0.633776
O O5 0.500000 0.300739 0.839933
O O6 0.731940 0.281062 0.730365
O O7 0.697613 0.389225 0.794082
O O8 0.766670 0.317643 0.921778
O O9 0.259091 0.940576 0.794530
O O10 0.186377 0.000000 0.640513
O O11 0.000000 0.000000 0.780673
O O12 0.500000 0.788514 0.681838
O O13 0.243989 0.822223 0.605290
O O14 0.268890 0.824420 0.788911
O O15 0.241694 0.569710 0.003271
O O16 0.000000 0.637934 0.018616
O O17 0.500000 0.617040 0.356628
O O18 0.000000 0.000000 0.495753
O O19 0.182751 0.500000 0.771670
O O20 0.000000 0.406559 0.764812
#
# Coordination Sequence:
#
# PCOD9357255 Si02
#       8
#     8   8   4   8   8   8   4   8
#     4   9  17  31  53  83 118 155 195 240 297 361
#     4  11  25  44  64  91 125 164 211 258 314 379
#     4  11  19  31  53  86 123 160 197 249 316 370
#     4  10  23  42  63  88 124 164 208 260 308 367
#     4  11  23  42  67  96 131 168 211 260 320 382
#     4  10  19  34  56  85 119 161 205 250 305 367
#     4   9  20  37  59  92 131 166 199 257 324 372
#     4  10  22  40  61  87 118 154 203 262 320 376
#
# _framework density 20.924786999999998
#
# number of rings (size 3 to 8) (size 9 to 14) (size 15 to 20)
#    0.000    1.857    2.143    1.500    1.000    3.714 
#    0.000    3.929    0.000    0.000    0.000    0.000 
#    0.000    0.000    0.000    0.000    0.000    0.000 
#
# Total GULP energy -156102.301782 kJ/mol
# GULP energy per Si atom -5575.082206 kJ/mol
# Density = 2.087716 g / cm^3
# Si number density = 20.924787 Si / 1000 Ang^3
#
#
#
# Elastic Constant Matrix: (Units=GPa)
#
#
# Indices 1 2 3 4 5 6 
#
# 1 18.5666 23.5909 19.3423 0.0000 0.0000 0.0000
# 2 23.5909 69.2287 33.3247 0.0000 0.0000 0.0000
# 3 19.3423 33.3247 83.9090 0.0000 0.0000 0.0000
# 4 0.0000 0.0000 0.0000 21.5955 0.0000 0.0000
# 5 0.0000 0.0000 0.0000 0.0000 15.3835 0.0000
# 6 0.0000 0.0000 0.0000 0.0000 0.0000 25.4548
#
#
#
# Elastic Compliance Matrix: (Units=1/GPa)
#
#
# Indices 1 2 3 4 5 6 
#
# 1 0.104299 -0.029634 -0.012273 0.000000 0.000000 0.000000
# 2 -0.029634 0.026279 -0.003606 0.000000 0.000000 0.000000
# 3 -0.012273 -0.003606 0.016179 0.000000 0.000000 0.000000
# 4 0.000000 0.000000 0.000000 0.046306 0.000000 0.000000
# 5 0.000000 0.000000 0.000000 0.000000 0.065005 0.000000
# 6 0.000000 0.000000 0.000000 0.000000 0.000000 0.039285
#
#
# Mechanical properties :
#
#
# Convention : Reuss Voigt Hill
#
# Bulk Modulus (GPa) = 17.94328 36.02447 26.98387
# Shear Modulus (GPa) = 12.28634 18.84984 15.56809
#
# Velocity S-wave (km/s) = 2.42578 3.00465 2.73060
# Velocity P-wave (km/s) = 4.05458 5.41210 4.78176
#
# Compressibility (1/GPa) = 0.05573117
#
# Stress axis : x y z
#
# Youngs Moduli (GPa) = 9.58779 38.05352 61.80892
#
# Poissons Ratio (x) = 1.12767 0.75861
# Poissons Ratio (y) = 0.28412 0.22286
# Poissons Ratio (z) = 0.11768 0.13721
#
# Static dielectric constant tensor:
#      x y z
#    x 1.732900 0.000000 0.000000 
#    y 0.000000 1.850650 0.000000 
#    z 0.000000 0.000000 1.768750 
# 
# From -- ./inp_files/12463.got.cif
#   From: 2010.05.17/outbox.cif.g08.bks.cpg/sg38_7_cif.got.tgz:12463.got - 2010.06.03 18:07:57.
