data_PCOD9357877
_publ_section_title
;
Structure prediction by ZEFSAII (Michael W. Deem and Ramdas Pophale) SiO2 
 PCOD9357877
Probable space group: A M M 2
;
_chemical_formula_sum "Si O2"
_cell_formula_units_Z 64
_cell_length_a 9.447563
_cell_length_b 7.535144
_cell_length_c 42.780989
_cell_angle_alpha 90.000000
_cell_angle_beta 90.000000
_cell_angle_gamma 90.000000
_cell_volume 3045.525030
_symmetry_space_group_name_H-M "A M M 2"
_symmetry_group_IT_number 38
_symmetry_cell_setting 'orthorhombic'
loop_
_space_group_symop_operation_xyz
x,y,z
-x,-y,z
-x,y,z
x,-y,z
x,1/2+y,1/2+z
-x,1/2-y,1/2+z
-x,1/2+y,1/2+z
x,1/2-y,1/2+z
loop_
_atom_site_type_symbol
_atom_site_label
_atom_site_fract_x
_atom_site_fract_y
_atom_site_fract_z
Si Si1 0.661185 0.287231 0.423670
Si Si2 0.839224 0.786972 0.175508
Si Si3 0.836976 0.717476 0.363372
Si Si4 0.660776 0.713028 0.734050
Si Si5 0.663024 0.717476 0.046186
Si Si6 0.337997 0.712255 0.303535
Si Si7 0.837997 0.287745 0.106022
Si Si8 0.838815 0.787231 0.485887
O O1 0.500000 0.219114 0.425452
O O2 0.652346 0.500000 0.420669
O O3 0.746115 0.223124 0.393247
O O4 0.750000 0.250001 0.454779
O O5 0.750000 0.719038 0.204779
O O6 0.782089 0.748719 0.140866
O O7 0.000000 0.718099 0.176523
O O8 0.845318 0.000000 0.178302
O O9 0.837495 0.500000 0.363468
O O10 0.760639 0.776774 0.331524
O O11 0.000000 0.773950 0.365279
O O12 0.500000 0.781901 0.733034
O O13 0.654682 0.500000 0.731256
O O14 0.717911 0.751281 0.768692
O O15 0.500000 0.773950 0.044279
O O16 0.662505 0.500000 0.046090
O O17 0.739361 0.776774 0.078034
O O18 0.753884 0.776875 0.016311
O O19 0.500000 0.781356 0.305662
O O20 0.346214 0.500000 0.306863
O O21 0.846213 0.500000 0.102694
O O22 0.000000 0.218644 0.103895
O O23 0.000000 0.719115 0.484105
O O24 0.847654 0.000000 0.488888
#
# Coordination Sequence:
#
# PCOD9357877 Si02
#       8
#     8   8   8   8   8   8   8   8
#     4  10  20  34  53  76 102 133 168 205 246 293
#     4   9  18  32  48  66  91 123 155 187 229 281
#     4   9  17  30  49  72  97 126 160 198 241 288
#     4   9  18  32  48  66  91 123 155 187 229 281
#     4   9  17  30  49  72  97 126 160 198 241 288
#     4   9  17  30  48  69  92 119 154 195 236 279
#     4   9  17  30  48  69  92 119 154 195 236 279
#     4  10  20  34  53  76 102 133 168 205 246 293
#
# _framework density 21.014437000000001
#
# number of rings (size 3 to 8) (size 9 to 14) (size 15 to 20)
#    0.000    2.750    0.000    1.500    0.000    6.000 
#    0.000    1.250    0.000    4.500    0.000    0.000 
#    0.000    0.000    0.000    0.000    0.000    0.000 
#
# Total GULP energy -178648.980239 kJ/mol
# GULP energy per Si atom -5582.780632 kJ/mol
# Density = 2.096661 g / cm^3
# Si number density = 21.014437 Si / 1000 Ang^3
#
#
#
# Elastic Constant Matrix: (Units=GPa)
#
#
# Indices 1 2 3 4 5 6 
#
# 1 167.9156 6.0757 139.4715 0.0000 0.0000 0.0000
# 2 6.0757 52.0732 -1.0272 0.0000 0.0000 0.0000
# 3 139.4715 -1.0272 248.9527 0.0000 0.0000 0.0000
# 4 0.0000 0.0000 0.0000 18.1863 0.0000 0.0000
# 5 0.0000 0.0000 0.0000 0.0000 40.2886 0.0000
# 6 0.0000 0.0000 0.0000 0.0000 0.0000 5.3168
#
#
#
# Elastic Compliance Matrix: (Units=1/GPa)
#
#
# Indices 1 2 3 4 5 6 
#
# 1 0.011245 -0.001436 -0.006306 0.000000 0.000000 0.000000
# 2 -0.001436 0.019389 0.000885 0.000000 0.000000 0.000000
# 3 -0.006306 0.000885 0.007553 0.000000 0.000000 0.000000
# 4 0.000000 0.000000 0.000000 0.054986 0.000000 0.000000
# 5 0.000000 0.000000 0.000000 0.000000 0.024821 0.000000
# 6 0.000000 0.000000 0.000000 0.000000 0.000000 0.188083
#
#
# Mechanical properties :
#
#
# Convention : Reuss Voigt Hill
#
# Bulk Modulus (GPa) = 40.86290 84.22014 62.54152
# Shear Modulus (GPa) = 15.24628 34.38645 24.81637
#
# Velocity S-wave (km/s) = 2.69646 4.04954 3.44018
# Velocity P-wave (km/s) = 5.40203 7.87587 6.75319
#
# Compressibility (1/GPa) = 0.02447208
#
# Stress axis : x y z
#
# Youngs Moduli (GPa) = 88.92952 51.57621 132.39562
#
# Poissons Ratio (x) = 0.07408 0.83484
# Poissons Ratio (y) = 0.12774 -0.11713
# Poissons Ratio (z) = 0.56076 -0.04563
#
# Static dielectric constant tensor:
#      x y z
#    x 1.733680 0.000000 0.000000 
#    y 0.000000 1.810790 0.000000 
#    z 0.000000 0.000000 1.722660 
# 
# From -- ./inp_files/24619.got.cif
#   From: 2010.05.17/outbox.cif.g08.bks.cpg/sg38_13_cif.got.tgz:24619.got - 2010.06.03 18:07:57.
