data_PCOD9357041
_publ_section_title
;
Structure prediction by ZEFSAII (Michael W. Deem and Ramdas Pophale) SiO2 
 PCOD9357041
Probable space group: A M M 2
;
_chemical_formula_sum "Si O2"
_cell_formula_units_Z 64
_cell_length_a 21.185137
_cell_length_b 26.662051
_cell_length_c 5.532181
_cell_angle_alpha 90.000000
_cell_angle_beta 90.000000
_cell_angle_gamma 90.000000
_cell_volume 3124.792708
_symmetry_space_group_name_H-M "A M M 2"
_symmetry_group_IT_number 38
_symmetry_cell_setting 'orthorhombic'
loop_
_space_group_symop_operation_xyz
x,y,z
-x,-y,z
-x,y,z
x,-y,z
x,1/2+y,1/2+z
-x,1/2-y,1/2+z
-x,1/2+y,1/2+z
x,1/2-y,1/2+z
loop_
_atom_site_type_symbol
_atom_site_label
_atom_site_fract_x
_atom_site_fract_y
_atom_site_fract_z
Si Si1 0.758791 0.372169 0.114580
Si Si2 0.359906 0.625036 0.823997
Si Si3 0.336355 0.724984 0.591341
Si Si4 0.928087 0.060564 0.876894
Si Si5 0.143536 0.439484 0.872532
Si Si6 0.191901 0.263044 0.130528
Si Si7 0.568960 0.556163 0.126127
Si Si8 0.306130 0.443954 0.459776
O O1 0.794985 0.405999 0.919657
O O2 0.795265 0.321634 0.167446
O O3 0.744369 0.407118 0.341826
O O4 0.690452 0.354618 0.017249
O O5 0.359542 0.667803 0.621956
O O6 0.328039 0.575155 0.717255
O O7 0.421850 0.603053 0.946648
O O8 0.358527 0.747124 0.336164
O O9 0.259572 0.732792 0.602404
O O10 0.889673 0.074740 0.119421
O O11 0.000000 0.079356 0.888971
O O12 0.930372 0.000000 0.886581
O O13 0.897505 0.071900 0.615478
O O14 0.155622 0.500000 0.870835
O O15 0.159731 0.243180 0.371585
O O16 0.500000 0.559944 0.246249
O O17 0.570848 0.500000 0.011465
O O18 0.629358 0.557811 0.301459
O O19 0.281058 0.500000 0.460685
#
# Coordination Sequence:
#
# PCOD9357041 Si02
#       8
#     8   8   8   8   8   8   8   8
#     4  11  22  33  51  78 118 146 180 224 289 344
#     4  11  21  33  58  79 106 148 184 227 283 347
#     4  10  19  34  55  81 105 141 182 225 273 332
#     4   9  18  35  55  74 104 151 200 235 268 314
#     4  10  21  33  50  80 114 151 186 230 278 325
#     4  10  19  33  52  75 105 146 182 227 269 333
#     4   9  20  38  55  77 106 137 186 239 277 328
#     4  10  21  34  51  77 109 149 183 220 278 346
#
# _framework density 20.481356999999999
#
# number of rings (size 3 to 8) (size 9 to 14) (size 15 to 20)
#    0.000    2.000    2.500    2.625    3.500    3.500 
#    0.000    1.250    0.000    0.750    0.000    0.000 
#    0.000   10.000    0.000    0.000    0.000    0.000 
#
# Total GULP energy -178426.213998 kJ/mol
# GULP energy per Si atom -5575.819187 kJ/mol
# Density = 2.043474 g / cm^3
# Si number density = 20.481357 Si / 1000 Ang^3
#
#
#
# Elastic Constant Matrix: (Units=GPa)
#
#
# Indices 1 2 3 4 5 6 
#
# 1 63.5922 12.2112 22.0116 0.0000 0.0000 0.0000
# 2 12.2112 68.4878 16.5589 0.0000 0.0000 0.0000
# 3 22.0116 16.5589 112.5568 0.0000 0.0000 0.0000
# 4 0.0000 0.0000 0.0000 20.2099 0.0000 0.0000
# 5 0.0000 0.0000 0.0000 0.0000 13.8333 0.0000
# 6 0.0000 0.0000 0.0000 0.0000 0.0000 7.0001
#
#
#
# Elastic Compliance Matrix: (Units=1/GPa)
#
#
# Indices 1 2 3 4 5 6 
#
# 1 0.017221 -0.002339 -0.003024 0.000000 0.000000 0.000000
# 2 -0.002339 0.015457 -0.001817 0.000000 0.000000 0.000000
# 3 -0.003024 -0.001817 0.009743 0.000000 0.000000 0.000000
# 4 0.000000 0.000000 0.000000 0.049481 0.000000 0.000000
# 5 0.000000 0.000000 0.000000 0.000000 0.072290 0.000000
# 6 0.000000 0.000000 0.000000 0.000000 0.000000 0.142855
#
#
# Mechanical properties :
#
#
# Convention : Reuss Voigt Hill
#
# Bulk Modulus (GPa) = 35.63499 38.46669 37.05084
# Shear Modulus (GPa) = 15.11670 21.13232 18.12451
#
# Velocity S-wave (km/s) = 2.71969 3.21562 2.97800
# Velocity P-wave (km/s) = 5.22483 5.71043 5.47302
#
# Compressibility (1/GPa) = 0.02806231
#
# Stress axis : x y z
#
# Youngs Moduli (GPa) = 58.06869 64.69367 102.63851
#
# Poissons Ratio (x) = 0.15135 0.31033
# Poissons Ratio (y) = 0.13585 0.18645
# Poissons Ratio (z) = 0.17557 0.11752
#
# Static dielectric constant tensor:
#      x y z
#    x 1.746200 0.000000 0.000000 
#    y 0.000000 1.744720 0.000000 
#    z 0.000000 0.000000 1.797240 
# 
# From -- ./inp_files/1979.got.cif
#   From: 2010.05.17/outbox.cif.g08.bks.cpg/sg38_1_cif.got.tgz:1979.got - 2010.06.03 18:07:57.
