data_PCOD9357837
_publ_section_title
;
Structure prediction by ZEFSAII (Michael W. Deem and Ramdas Pophale) SiO2 
 PCOD9357837
Probable space group: A M M 2
;
_chemical_formula_sum "Si O2"
_cell_formula_units_Z 48
_cell_length_a 19.983462
_cell_length_b 9.187078
_cell_length_c 14.614469
_cell_angle_alpha 90.000000
_cell_angle_beta 90.000000
_cell_angle_gamma 90.000000
_cell_volume 2683.064870
_symmetry_space_group_name_H-M "A M M 2"
_symmetry_group_IT_number 38
_symmetry_cell_setting 'orthorhombic'
loop_
_space_group_symop_operation_xyz
x,y,z
-x,-y,z
-x,y,z
x,-y,z
x,1/2+y,1/2+z
-x,1/2-y,1/2+z
-x,1/2+y,1/2+z
x,1/2-y,1/2+z
loop_
_atom_site_type_symbol
_atom_site_label
_atom_site_fract_x
_atom_site_fract_y
_atom_site_fract_z
Si Si1 0.000000 0.664755 0.333280
Si Si2 0.393374 0.176408 0.473653
Si Si3 0.500000 0.823730 0.322318
Si Si4 0.863086 0.326987 0.611727
Si Si5 0.239839 0.324482 0.980104
Si Si6 0.500000 0.676018 0.125504
Si Si7 0.866143 0.171238 0.328270
Si Si8 0.000000 0.332690 0.110060
O O1 0.931815 0.743722 0.360479
O O2 0.000000 0.500000 0.365874
O O3 0.000000 0.665642 0.221625
O O4 0.435702 0.219443 0.383982
O O5 0.316720 0.224487 0.475107
O O6 0.435785 0.218149 0.563489
O O7 0.393043 0.000000 0.472626
O O8 0.500000 0.750573 0.223697
O O9 0.500000 0.000000 0.313558
O O10 0.866219 0.500000 0.595673
O O11 0.801819 0.254059 0.559127
O O12 0.855585 0.302028 0.720663
O O13 0.932632 0.250896 0.582872
O O14 0.238592 0.500000 0.993778
O O15 0.198926 0.292423 0.887329
O O16 0.500000 0.500000 0.134981
O O17 0.879819 0.000000 0.339396
O O18 0.000000 0.500000 0.078307
#
# Coordination Sequence:
#
# PCOD9357837 Si02
#       8
#     4   8   4   8   8   4   8   4
#     4   9  17  30  51  74  96 124 166 216 257 295
#     4   8  17  34  53  74 105 139 170 203 246 304
#     4   9  17  33  58  82 102 133 173 209 246 298
#     4  10  20  34  51  75 104 132 166 218 271 303
#     4  10  20  35  53  73 100 139 177 205 243 309
#     4   9  17  33  56  80 104 133 167 207 254 300
#     4   9  19  34  51  70  97 132 169 208 254 303
#     4   9  17  32  53  74  96 132 178 216 251 307
#
# _framework density 17.889987000000001
#
# number of rings (size 3 to 8) (size 9 to 14) (size 15 to 20)
#    0.000    2.833    0.000    2.000    0.000    5.333 
#    0.000    5.833    0.000    0.000    0.000    0.000 
#    0.000    0.000    0.000    0.000    0.000    0.000 
#
# Total GULP energy -133876.682971 kJ/mol
# GULP energy per Si atom -5578.195124 kJ/mol
# Density = 1.784927 g / cm^3
# Si number density = 17.889987 Si / 1000 Ang^3
#
#
#
# Elastic Constant Matrix: (Units=GPa)
#
#
# Indices 1 2 3 4 5 6 
#
# 1 212.8244 67.4276 89.4457 0.0000 0.0000 0.0000
# 2 67.4276 46.7988 56.5973 0.0000 0.0000 0.0000
# 3 89.4457 56.5973 118.4926 0.0000 0.0000 0.0000
# 4 0.0000 0.0000 0.0000 27.7457 0.0000 0.0000
# 5 0.0000 0.0000 0.0000 0.0000 15.7762 0.0000
# 6 0.0000 0.0000 0.0000 0.0000 0.0000 20.6731
#
#
#
# Elastic Compliance Matrix: (Units=1/GPa)
#
#
# Indices 1 2 3 4 5 6 
#
# 1 0.008739 -0.010923 -0.001380 0.000000 0.000000 0.000000
# 2 -0.010923 0.064246 -0.022441 0.000000 0.000000 0.000000
# 3 -0.001380 -0.022441 0.020200 0.000000 0.000000 0.000000
# 4 0.000000 0.000000 0.000000 0.036042 0.000000 0.000000
# 5 0.000000 0.000000 0.000000 0.000000 0.063387 0.000000
# 6 0.000000 0.000000 0.000000 0.000000 0.000000 0.048372
#
#
# Mechanical properties :
#
#
# Convention : Reuss Voigt Hill
#
# Bulk Modulus (GPa) = 42.19949 89.45075 65.82512
# Shear Modulus (GPa) = 15.70493 23.81534 19.76013
#
# Velocity S-wave (km/s) = 2.96609 3.65253 3.32706
# Velocity P-wave (km/s) = 5.94725 8.23996 7.18564
#
# Compressibility (1/GPa) = 0.02369697
#
# Stress axis : x y z
#
# Youngs Moduli (GPa) = 114.42773 15.56526 49.50565
#
# Poissons Ratio (x) = 0.17002 0.06830
# Poissons Ratio (y) = 1.24988 1.11097
# Poissons Ratio (z) = 0.15787 0.34930
#
# Static dielectric constant tensor:
#      x y z
#    x 1.592570 0.000000 0.000000 
#    y 0.000000 1.597630 0.000000 
#    z 0.000000 0.000000 1.624350 
# 
# From -- ./inp_files/15117.got.cif
#   From: 2010.05.17/outbox.cif.g08.bks.cpg/sg38_8_cif.got.tgz:15117.got - 2010.06.03 18:07:57.
