data_PCOD9357536
_publ_section_title
;
Structure prediction by ZEFSAII (Michael W. Deem and Ramdas Pophale) SiO2 
 PCOD9357536
Probable space group: A M M 2
;
_chemical_formula_sum "Si O2"
_cell_formula_units_Z 64
_cell_length_a 21.694702
_cell_length_b 7.576420
_cell_length_c 19.262192
_cell_angle_alpha 90.000000
_cell_angle_beta 90.000000
_cell_angle_gamma 90.000000
_cell_volume 3166.091329
_symmetry_space_group_name_H-M "A M M 2"
_symmetry_group_IT_number 38
_symmetry_cell_setting 'orthorhombic'
loop_
_space_group_symop_operation_xyz
x,y,z
-x,-y,z
-x,y,z
x,-y,z
x,1/2+y,1/2+z
-x,1/2-y,1/2+z
-x,1/2+y,1/2+z
x,1/2-y,1/2+z
loop_
_atom_site_type_symbol
_atom_site_label
_atom_site_fract_x
_atom_site_fract_y
_atom_site_fract_z
Si Si1 0.433556 0.789117 0.346250
Si Si2 0.301391 0.713062 0.495318
Si Si3 0.930518 0.712579 0.991691
Si Si4 0.181196 0.288903 0.085033
Si Si5 0.930779 0.288984 0.331190
Si Si6 0.814211 0.217093 0.743014
Si Si7 0.701218 0.209981 0.836616
Si Si8 0.433547 0.204500 0.008303
O O1 0.500000 0.736893 0.314667
O O2 0.368892 0.740629 0.311597
O O3 0.432118 0.709820 0.423975
O O4 0.433711 0.000000 0.353893
O O5 0.306876 0.500000 0.491603
O O6 0.242734 0.755260 0.541386
O O7 0.293633 0.778915 0.415902
O O8 0.366543 0.780530 0.526569
O O9 0.931951 0.500000 0.997168
O O10 0.915500 0.755215 0.911771
O O11 0.000000 0.777649 0.006003
O O12 0.878069 0.780585 0.043147
O O13 0.173548 0.500000 0.089586
O O14 0.186475 0.223096 0.163542
O O15 0.933465 0.500000 0.322009
O O16 0.876387 0.224215 0.281930
O O17 0.000000 0.218927 0.318033
O O18 0.754374 0.277214 0.786081
O O19 0.813725 0.000000 0.743262
O O20 0.709892 0.000000 0.841162
O O21 0.500000 0.284071 0.028881
O O22 0.434653 0.000000 0.030525
#
# Coordination Sequence:
#
# PCOD9357536 Si02
#       8
#     8   8   8   8   8   8   8   8
#     4   9  16  25  40  66  96 118 142 186 236 274
#     4   9  17  29  47  70  93 118 151 191 230 269
#     4   9  18  32  49  70  96 123 150 183 226 275
#     4  10  20  32  47  67  93 125 155 186 227 272
#     4   9  17  31  53  75  92 116 152 192 229 265
#     4   9  18  32  48  68  93 120 155 194 226 262
#     4   9  17  30  48  66  88 122 157 189 225 268
#     4   8  14  26  44  65  89 118 152 187 225 271
#
# _framework density 20.214200999999999
#
# number of rings (size 3 to 8) (size 9 to 14) (size 15 to 20)
#    0.000    3.000    0.000    1.875    0.000    4.750 
#    0.000    4.375    0.000    0.750    0.000    7.000 
#    0.000    0.000    0.000    0.000    0.000    0.000 
#
# Total GULP energy -178338.381030 kJ/mol
# GULP energy per Si atom -5573.074407 kJ/mol
# Density = 2.016819 g / cm^3
# Si number density = 20.214201 Si / 1000 Ang^3
#
#
#
# Elastic Constant Matrix: (Units=GPa)
#
#
# Indices 1 2 3 4 5 6 
#
# 1 213.6379 -0.0841 118.5781 0.0000 0.0000 0.0000
# 2 -0.0841 44.8179 2.0528 0.0000 0.0000 0.0000
# 3 118.5781 2.0528 103.5157 0.0000 0.0000 0.0000
# 4 0.0000 0.0000 0.0000 18.0073 0.0000 0.0000
# 5 0.0000 0.0000 0.0000 0.0000 -8.4073 0.0000
# 6 0.0000 0.0000 0.0000 0.0000 0.0000 16.0622
#
#
#
# Elastic Compliance Matrix: (Units=1/GPa)
#
#
# Indices 1 2 3 4 5 6 
#
# 1 0.012874 0.000700 -0.014762 0.000000 0.000000 0.000000
# 2 0.000700 0.022371 -0.001246 0.000000 0.000000 0.000000
# 3 -0.014762 -0.001246 0.026595 0.000000 0.000000 0.000000
# 4 0.000000 0.000000 0.000000 0.055533 0.000000 0.000000
# 5 0.000000 0.000000 0.000000 0.000000 -0.118945 0.000000
# 6 0.000000 0.000000 0.000000 0.000000 0.000000 0.062258
#
#
# Mechanical properties :
#
#
# Convention : Reuss Voigt Hill
#
# Bulk Modulus (GPa) = 32.02499 67.00721 49.51610
# Shear Modulus (GPa) = 49.15964 21.22743 35.19353
#
# Velocity S-wave (km/s) = 4.93682 3.24408 4.17709
# Velocity P-wave (km/s) = 6.95510 6.87405 6.91470
#
# Compressibility (1/GPa) = 0.03122561
#
# Stress axis : x y z
#
# Youngs Moduli (GPa) = 77.67319 44.70100 37.60145
#
# Poissons Ratio (x) = -0.03130 0.55506
# Poissons Ratio (y) = -0.05439 0.04684
# Poissons Ratio (z) = 1.14659 0.05569
#
# Static dielectric constant tensor:
#      x y z
#    x 1.763960 0.000000 0.000000 
#    y 0.000000 1.774560 0.000000 
#    z 0.000000 0.000000 1.662830 
# 
# From -- ./inp_files/21525.got.cif
#   From: 2010.05.17/outbox.cif.g08.bks.cpg/sg38_11_cif.got.tgz:21525.got - 2010.06.03 18:07:57.
