data_PCOD9357776
_publ_section_title
;
Structure prediction by ZEFSAII (Michael W. Deem and Ramdas Pophale) SiO2 
 PCOD9357776
Probable space group: A M M 2
;
_chemical_formula_sum "Si O2"
_cell_formula_units_Z 64
_cell_length_a 9.084619
_cell_length_b 15.306764
_cell_length_c 23.456630
_cell_angle_alpha 90.000000
_cell_angle_beta 90.000000
_cell_angle_gamma 90.000000
_cell_volume 3261.787934
_symmetry_space_group_name_H-M "A M M 2"
_symmetry_group_IT_number 38
_symmetry_cell_setting 'orthorhombic'
loop_
_space_group_symop_operation_xyz
x,y,z
-x,-y,z
-x,y,z
x,-y,z
x,1/2+y,1/2+z
-x,1/2-y,1/2+z
-x,1/2+y,1/2+z
x,1/2-y,1/2+z
loop_
_atom_site_type_symbol
_atom_site_label
_atom_site_fract_x
_atom_site_fract_y
_atom_site_fract_z
Si Si1 0.334073 0.337412 0.571880
Si Si2 0.675754 0.729424 0.694515
Si Si3 0.325968 0.603370 0.356269
Si Si4 0.824092 0.770237 0.309491
Si Si5 0.175219 0.601120 0.913416
Si Si6 0.839137 0.602608 0.468471
Si Si7 0.331365 0.863989 0.533247
Si Si8 0.175279 0.096629 0.649222
O O1 0.500000 0.373619 0.566336
O O2 0.295172 0.328577 0.638231
O O3 0.218865 0.384774 0.531882
O O4 0.335908 0.239033 0.547064
O O5 0.500000 0.735868 0.700791
O O6 0.751249 0.695492 0.751523
O O7 0.741068 0.825226 0.680582
O O8 0.500000 0.614736 0.348552
O O9 0.292531 0.500000 0.346692
O O10 0.236664 0.672075 0.318596
O O11 0.278487 0.629333 0.420835
O O12 0.784362 0.831504 0.363255
O O13 0.000000 0.768436 0.304641
O O14 0.200684 0.500000 0.896433
O O15 0.000000 0.611068 0.924296
O O16 0.262260 0.619296 0.971670
O O17 0.854351 0.500000 0.459251
O O18 0.000000 0.644879 0.459446
O O19 0.500000 0.895763 0.536322
O O20 0.232615 0.902390 0.584037
O O21 0.000000 0.111807 0.650585
O O22 0.205480 0.000000 0.673427
#
# Coordination Sequence:
#
# PCOD9357776 Si02
#       8
#     8   8   8   8   8   8   8   8
#     4   9  19  35  54  77 106 141 177 216 268 327
#     4  10  22  39  57  77 104 139 181 227 270 319
#     4  10  21  37  58  84 115 150 184 222 272 330
#     4  11  23  39  60  82 108 146 188 233 279 323
#     4  10  22  39  57  80 111 147 187 229 276 330
#     4  10  20  33  52  81 112 139 173 220 271 324
#     4  10  20  33  53  83 114 142 176 220 270 324
#     4  10  20  34  54  81 112 144 177 215 262 320
#
# _framework density 19.621141000000001
#
# number of rings (size 3 to 8) (size 9 to 14) (size 15 to 20)
#    0.000    2.000    0.000    4.125    0.000   10.750 
#    0.000    0.625    0.000    2.250    0.000    0.000 
#    0.000    0.000    0.000    0.000    0.000    0.000 
#
# Total GULP energy -178632.936682 kJ/mol
# GULP energy per Si atom -5582.279271 kJ/mol
# Density = 1.957648 g / cm^3
# Si number density = 19.621141 Si / 1000 Ang^3
#
#
#
# Elastic Constant Matrix: (Units=GPa)
#
#
# Indices 1 2 3 4 5 6 
#
# 1 49.3251 13.0084 20.7351 0.0000 0.0000 0.0000
# 2 13.0084 26.9969 16.3182 0.0000 0.0000 0.0000
# 3 20.7351 16.3182 86.6444 0.0000 0.0000 0.0000
# 4 0.0000 0.0000 0.0000 12.3530 0.0000 0.0000
# 5 0.0000 0.0000 0.0000 0.0000 34.0448 0.0000
# 6 0.0000 0.0000 0.0000 0.0000 0.0000 12.0286
#
#
#
# Elastic Compliance Matrix: (Units=1/GPa)
#
#
# Indices 1 2 3 4 5 6 
#
# 1 0.024450 -0.009304 -0.004099 0.000000 0.000000 0.000000
# 2 -0.009304 0.045340 -0.006313 0.000000 0.000000 0.000000
# 3 -0.004099 -0.006313 0.013711 0.000000 0.000000 0.000000
# 4 0.000000 0.000000 0.000000 0.080952 0.000000 0.000000
# 5 0.000000 0.000000 0.000000 0.000000 0.029373 0.000000
# 6 0.000000 0.000000 0.000000 0.000000 0.000000 0.083135
#
#
# Mechanical properties :
#
#
# Convention : Reuss Voigt Hill
#
# Bulk Modulus (GPa) = 22.69076 29.23221 25.96149
# Shear Modulus (GPa) = 15.10194 19.21225 17.15710
#
# Velocity S-wave (km/s) = 2.77731 3.13255 2.96027
# Velocity P-wave (km/s) = 4.67699 5.29287 4.99443
#
# Compressibility (1/GPa) = 0.04407079
#
# Stress axis : x y z
#
# Youngs Moduli (GPa) = 40.89903 22.05566 72.93270
#
# Poissons Ratio (x) = 0.20520 0.29896
# Poissons Ratio (y) = 0.38051 0.46040
# Poissons Ratio (z) = 0.16765 0.13923
#
# Static dielectric constant tensor:
#      x y z
#    x 1.677100 0.000000 0.000000 
#    y 0.000000 1.717850 0.000000 
#    z 0.000000 0.000000 1.688560 
# 
# From -- ./inp_files/22195.got.cif
#   From: 2010.05.17/outbox.cif.g08.bks.cpg/sg38_12_cif.got.tgz:22195.got - 2010.06.03 18:07:57.
