data_PCOD9357016
_publ_section_title
;
Structure prediction by ZEFSAII (Michael W. Deem and Ramdas Pophale) SiO2 
 PCOD9357016
Probable space group: A M M 2
;
_chemical_formula_sum "Si O2"
_cell_formula_units_Z 64
_cell_length_a 9.771970
_cell_length_b 31.047218
_cell_length_c 11.412506
_cell_angle_alpha 90.000000
_cell_angle_beta 90.000000
_cell_angle_gamma 90.000000
_cell_volume 3462.468531
_symmetry_space_group_name_H-M "A M M 2"
_symmetry_group_IT_number 38
_symmetry_cell_setting 'orthorhombic'
loop_
_space_group_symop_operation_xyz
x,y,z
-x,-y,z
-x,y,z
x,-y,z
x,1/2+y,1/2+z
-x,1/2-y,1/2+z
-x,1/2+y,1/2+z
x,1/2-y,1/2+z
loop_
_atom_site_type_symbol
_atom_site_label
_atom_site_fract_x
_atom_site_fract_y
_atom_site_fract_z
Si Si1 0.659234 0.115549 0.047720
Si Si2 0.356720 0.711115 0.435853
Si Si3 0.160289 0.590701 0.331472
Si Si4 0.657357 0.868684 0.478138
Si Si5 0.758254 0.678154 0.207758
Si Si6 0.165331 0.651586 0.754170
Si Si7 0.147727 0.763450 0.111401
Si Si8 0.341712 0.950057 0.630878
O O1 0.500000 0.100952 0.064112
O O2 0.751621 0.120594 0.164094
O O3 0.648064 0.164220 0.996958
O O4 0.747171 0.090438 0.949080
O O5 0.500000 0.732826 0.461320
O O6 0.340149 0.701354 0.300271
O O7 0.240362 0.737801 0.497278
O O8 0.170235 0.639097 0.277150
O O9 0.236118 0.561729 0.233968
O O10 0.000000 0.580289 0.350277
O O11 0.500000 0.863958 0.437577
O O12 0.681345 0.841593 0.596683
O O13 0.765341 0.854994 0.379976
O O14 0.680032 0.917807 0.522225
O O15 0.854011 0.716511 0.166043
O O16 0.190813 0.700198 0.705389
O O17 0.000000 0.644590 0.755288
O O18 0.000000 0.778220 0.070281
O O19 0.500000 0.942204 0.670992
O O20 0.329253 0.000000 0.599143
#
# Coordination Sequence:
#
# PCOD9357016 Si02
#       8
#     8   8   8   8   8   8   8   8
#     4   9  17  33  55  76 103 139 180 222 268 323
#     4   9  19  34  51  71  94 127 174 226 274 316
#     4  10  19  32  55  84 112 141 177 224 277 330
#     4  10  21  37  57  81 109 143 184 230 281 335
#     4  10  21  35  51  75 103 142 181 228 273 330
#     4  10  21  36  53  77 109 147 190 232 276 327
#     4  10  22  36  50  70 100 141 185 228 273 325
#     4   9  19  37  60  85 114 147 183 224 276 340
#
# _framework density 18.483922
#
# number of rings (size 3 to 8) (size 9 to 14) (size 15 to 20)
#    0.000    2.375    0.000    1.875    1.750   10.750 
#    0.000    0.000    0.000    0.750    0.000    1.750 
#    0.000    0.000    0.000    0.000    0.000    0.000 
#
# Total GULP energy -178311.235513 kJ/mol
# GULP energy per Si atom -5572.226110 kJ/mol
# Density = 1.844185 g / cm^3
# Si number density = 18.483922 Si / 1000 Ang^3
#
#
#
# Elastic Constant Matrix: (Units=GPa)
#
#
# Indices 1 2 3 4 5 6 
#
# 1 127.8938 33.0547 58.6470 0.0000 0.0000 0.0000
# 2 33.0547 63.7777 24.1869 0.0000 0.0000 0.0000
# 3 58.6470 24.1869 102.1252 0.0000 0.0000 0.0000
# 4 0.0000 0.0000 0.0000 11.6802 0.0000 0.0000
# 5 0.0000 0.0000 0.0000 0.0000 35.7629 0.0000
# 6 0.0000 0.0000 0.0000 0.0000 0.0000 13.1728
#
#
#
# Elastic Compliance Matrix: (Units=1/GPa)
#
#
# Indices 1 2 3 4 5 6 
#
# 1 0.011378 -0.003757 -0.005644 0.000000 0.000000 0.000000
# 2 -0.003757 0.018467 -0.002216 0.000000 0.000000 0.000000
# 3 -0.005644 -0.002216 0.013558 0.000000 0.000000 0.000000
# 4 0.000000 0.000000 0.000000 0.085615 0.000000 0.000000
# 5 0.000000 0.000000 0.000000 0.000000 0.027962 0.000000
# 6 0.000000 0.000000 0.000000 0.000000 0.000000 0.075914
#
#
# Mechanical properties :
#
#
# Convention : Reuss Voigt Hill
#
# Bulk Modulus (GPa) = 49.58180 58.39708 53.98944
# Shear Modulus (GPa) = 19.02212 23.98372 21.50292
#
# Velocity S-wave (km/s) = 3.21147 3.60605 3.41446
# Velocity P-wave (km/s) = 6.37447 7.00001 6.69455
#
# Compressibility (1/GPa) = 0.02016869
#
# Stress axis : x y z
#
# Youngs Moduli (GPa) = 87.88747 54.15083 73.75602
#
# Poissons Ratio (x) = 0.20342 0.41631
# Poissons Ratio (y) = 0.33015 0.16347
# Poissons Ratio (z) = 0.49607 0.12002
#
# Static dielectric constant tensor:
#      x y z
#    x 1.658690 0.000000 0.000000 
#    y 0.000000 1.631240 0.000000 
#    z 0.000000 0.000000 1.637110 
# 
# From -- ./inp_files/8666.got.cif
#   From: 2010.05.17/outbox.cif.g08.bks.cpg/sg38_5_cif.got.tgz:8666.got - 2010.06.03 18:07:57.
