data_PCOD9357214
_publ_section_title
;
Structure prediction by ZEFSAII (Michael W. Deem and Ramdas Pophale) SiO2 
 PCOD9357214
Probable space group: A M M 2
;
_chemical_formula_sum "Si O2"
_cell_formula_units_Z 48
_cell_length_a 17.548095
_cell_length_b 7.631455
_cell_length_c 16.188758
_cell_angle_alpha 90.000000
_cell_angle_beta 90.000000
_cell_angle_gamma 90.000000
_cell_volume 2167.957956
_symmetry_space_group_name_H-M "A M M 2"
_symmetry_group_IT_number 38
_symmetry_cell_setting 'orthorhombic'
loop_
_space_group_symop_operation_xyz
x,y,z
-x,-y,z
-x,y,z
x,-y,z
x,1/2+y,1/2+z
-x,1/2-y,1/2+z
-x,1/2+y,1/2+z
x,1/2-y,1/2+z
loop_
_atom_site_type_symbol
_atom_site_label
_atom_site_fract_x
_atom_site_fract_y
_atom_site_fract_z
Si Si1 0.812733 0.292257 0.036190
Si Si2 0.178520 0.210994 0.219012
Si Si3 0.663578 0.201378 0.280588
Si Si4 0.500000 0.286451 0.730540
Si Si5 0.912401 0.785539 0.380545
Si Si6 0.658522 0.295634 0.462343
Si Si7 0.500000 0.786735 0.038153
O O1 0.806985 0.500000 0.027525
O O2 0.846123 0.252806 0.126252
O O3 0.863444 0.226158 0.959658
O O4 0.726969 0.220404 0.027192
O O5 0.264434 0.281264 0.233684
O O6 0.125783 0.272078 0.294400
O O7 0.181693 0.000000 0.226102
O O8 0.579332 0.278756 0.268871
O O9 0.682184 0.203864 0.377559
O O10 0.658019 0.000000 0.251447
O O11 0.500000 0.500000 0.739969
O O12 0.500000 0.240965 0.634218
O O13 0.000000 0.730282 0.386214
O O14 0.911673 0.000000 0.381148
O O15 0.648614 0.500000 0.442803
O O16 0.577854 0.226298 0.495329
O O17 0.500000 0.000000 0.035261
#
# Coordination Sequence:
#
# PCOD9357214 Si02
#       7
#     8   8   8   4   8   8   4
#     4  11  22  38  60  88 119 153 195 240 289 345
#     4  10  20  37  60  85 115 153 195 236 285 346
#     4  10  19  34  55  80 110 149 191 235 286 344
#     4   9  17  30  51  75 106 145 190 232 281 343
#     4   9  19  38  62  85 115 155 193 234 289 351
#     4  11  21  35  57  82 113 152 195 240 288 340
#     4   9  19  34  51  77 110 149 194 240 285 337
#
# _framework density 22.140650000000001
#
# number of rings (size 3 to 8) (size 9 to 14) (size 15 to 20)
#    0.000    2.000    1.667    2.500    0.000    4.000 
#    0.000    1.250    0.000    5.500    0.000    0.000 
#    0.000    0.000    0.000    0.000    0.000    0.000 
#
# Total GULP energy -134092.947619 kJ/mol
# GULP energy per Si atom -5587.206151 kJ/mol
# Density = 2.209026 g / cm^3
# Si number density = 22.140650 Si / 1000 Ang^3
#
#
#
# Elastic Constant Matrix: (Units=GPa)
#
#
# Indices 1 2 3 4 5 6 
#
# 1 142.7146 10.1736 62.1220 0.0000 0.0000 0.0000
# 2 10.1736 49.5206 -5.5795 0.0000 0.0000 0.0000
# 3 62.1220 -5.5795 149.0352 0.0000 0.0000 0.0000
# 4 0.0000 0.0000 0.0000 19.3785 0.0000 0.0000
# 5 0.0000 0.0000 0.0000 0.0000 14.6680 0.0000
# 6 0.0000 0.0000 0.0000 0.0000 0.0000 -22.5634
#
#
#
# Elastic Compliance Matrix: (Units=1/GPa)
#
#
# Indices 1 2 3 4 5 6 
#
# 1 0.008799 -0.002230 -0.003751 0.000000 0.000000 0.000000
# 2 -0.002230 0.020844 0.001710 0.000000 0.000000 0.000000
# 3 -0.003751 0.001710 0.008337 0.000000 0.000000 0.000000
# 4 0.000000 0.000000 0.000000 0.051603 0.000000 0.000000
# 5 0.000000 0.000000 0.000000 0.000000 0.068175 0.000000
# 6 0.000000 0.000000 0.000000 0.000000 0.000000 -0.044320
#
#
# Mechanical properties :
#
#
# Convention : Reuss Voigt Hill
#
# Bulk Modulus (GPa) = 33.96975 52.74475 43.35725
# Shear Modulus (GPa) = 37.93760 20.60025 29.26892
#
# Velocity S-wave (km/s) = 4.14391 3.05360 3.63981
# Velocity P-wave (km/s) = 6.18644 6.02552 6.10651
#
# Compressibility (1/GPa) = 0.02943796
#
# Stress axis : x y z
#
# Youngs Moduli (GPa) = 113.65211 47.97435 119.94156
#
# Poissons Ratio (x) = 0.10700 0.44991
# Poissons Ratio (y) = 0.25348 -0.20510
# Poissons Ratio (z) = 0.42632 -0.08204
#
# Static dielectric constant tensor:
#      x y z
#    x 1.812770 0.000000 0.000000 
#    y 0.000000 1.837680 0.000000 
#    z 0.000000 0.000000 1.791570 
# 
# From -- ./inp_files/15028.got.cif
#   From: 2010.05.17/outbox.cif.g08.bks.cpg/sg38_8_cif.got.tgz:15028.got - 2010.06.03 18:07:57.
