data_PCOD9357687
_publ_section_title
;
Structure prediction by ZEFSAII (Michael W. Deem and Ramdas Pophale) SiO2 
 PCOD9357687
Probable space group: A M M 2
;
_chemical_formula_sum "Si O2"
_cell_formula_units_Z 64
_cell_length_a 14.462882
_cell_length_b 8.950270
_cell_length_c 31.757543
_cell_angle_alpha 90.000000
_cell_angle_beta 90.000000
_cell_angle_gamma 90.000000
_cell_volume 4110.909106
_symmetry_space_group_name_H-M "A M M 2"
_symmetry_group_IT_number 38
_symmetry_cell_setting 'orthorhombic'
loop_
_space_group_symop_operation_xyz
x,y,z
-x,-y,z
-x,y,z
x,-y,z
x,1/2+y,1/2+z
-x,1/2-y,1/2+z
-x,1/2+y,1/2+z
x,1/2-y,1/2+z
loop_
_atom_site_type_symbol
_atom_site_label
_atom_site_fract_x
_atom_site_fract_y
_atom_site_fract_z
Si Si1 0.704931 0.678644 0.954220
Si Si2 0.712715 0.822223 0.615831
Si Si3 0.610756 0.675756 0.693823
Si Si4 0.608516 0.319452 0.374264
Si Si5 0.106422 0.677774 0.586275
Si Si6 0.387798 0.827809 0.780245
Si Si7 0.389743 0.677560 0.535813
Si Si8 0.104461 0.677656 0.994827
O O1 0.692903 0.500000 0.954422
O O2 0.667338 0.746369 0.911057
O O3 0.812985 0.712305 0.962949
O O4 0.649141 0.749258 0.993291
O O5 0.662590 0.767663 0.658009
O O6 0.817204 0.761568 0.613544
O O7 0.659613 0.751094 0.575902
O O8 0.711080 0.000000 0.612389
O O9 0.500000 0.700181 0.689961
O O10 0.628074 0.500000 0.688189
O O11 0.639495 0.728934 0.740463
O O12 0.500000 0.278845 0.379415
O O13 0.613461 0.500000 0.376693
O O14 0.640039 0.276545 0.327013
O O15 0.120459 0.500000 0.588391
O O16 0.118654 0.732944 0.538126
O O17 0.000000 0.710989 0.597954
O O18 0.500000 0.828762 0.781390
O O19 0.358431 0.000000 0.773976
O O20 0.500000 0.699235 0.538480
O O21 0.371164 0.500000 0.535485
O O22 0.110483 0.500000 0.004607
O O23 0.000000 0.707781 0.979568
#
# Coordination Sequence:
#
# PCOD9357687 Si02
#       8
#     8   8   8   8   8   8   8   8
#     4  11  21  31  47  72  97 127 164 203 245 290
#     4  12  23  34  50  72  98 131 166 201 242 289
#     4  10  20  33  50  73 101 131 163 202 247 292
#     4   9  18  32  49  69  97 133 166 198 240 290
#     4  10  20  34  53  74  95 123 161 205 249 292
#     4   8  15  30  50  70  93 124 163 203 244 290
#     4  11  23  36  48  64  94 134 169 202 241 285
#     4   9  18  33  50  68  93 125 161 203 250 294
#
# _framework density 15.568332
#
# number of rings (size 3 to 8) (size 9 to 14) (size 15 to 20)
#    0.000    2.000    1.250    4.125    0.000    6.750 
#    0.000    1.250    0.000    0.000    0.000    0.875 
#    0.000    3.000    0.000    0.000    0.000    0.000 
#
# Total GULP energy -178564.194770 kJ/mol
# GULP energy per Si atom -5580.131087 kJ/mol
# Density = 1.553290 g / cm^3
# Si number density = 15.568332 Si / 1000 Ang^3
#
#
#
# Elastic Constant Matrix: (Units=GPa)
#
#
# Indices 1 2 3 4 5 6 
#
# 1 79.8899 54.0120 50.4585 0.0000 0.0000 0.0000
# 2 54.0120 71.6033 51.5003 0.0000 0.0000 0.0000
# 3 50.4585 51.5003 110.2324 0.0000 0.0000 0.0000
# 4 0.0000 0.0000 0.0000 29.5150 0.0000 0.0000
# 5 0.0000 0.0000 0.0000 0.0000 5.8108 0.0000
# 6 0.0000 0.0000 0.0000 0.0000 0.0000 22.7210
#
#
#
# Elastic Compliance Matrix: (Units=1/GPa)
#
#
# Indices 1 2 3 4 5 6 
#
# 1 0.026806 -0.017162 -0.004252 0.000000 0.000000 0.000000
# 2 -0.017162 0.032021 -0.007105 0.000000 0.000000 0.000000
# 3 -0.004252 -0.007105 0.014337 0.000000 0.000000 0.000000
# 4 0.000000 0.000000 0.000000 0.033881 0.000000 0.000000
# 5 0.000000 0.000000 0.000000 0.000000 0.172093 0.000000
# 6 0.000000 0.000000 0.000000 0.000000 0.000000 0.044012
#
#
# Mechanical properties :
#
#
# Convention : Reuss Voigt Hill
#
# Bulk Modulus (GPa) = 62.00674 63.74078 62.87376
# Shear Modulus (GPa) = 12.96805 18.65969 15.81387
#
# Velocity S-wave (km/s) = 2.88926 3.46579 3.19058
# Velocity P-wave (km/s) = 7.14463 7.55295 7.35162
#
# Compressibility (1/GPa) = 0.01612728
#
# Stress axis : x y z
#
# Youngs Moduli (GPa) = 37.30563 31.22934 69.74753
#
# Poissons Ratio (x) = 0.53595 0.29659
# Poissons Ratio (y) = 0.64023 0.49552
# Poissons Ratio (z) = 0.15863 0.22187
#
# Static dielectric constant tensor:
#      x y z
#    x 1.520420 0.000000 0.000000 
#    y 0.000000 1.519270 0.000000 
#    z 0.000000 0.000000 1.498990 
# 
# From -- ./inp_files/25103.got.cif
#   From: 2010.05.17/outbox.cif.g08.bks.cpg/sg38_13_cif.got.tgz:25103.got - 2010.06.03 18:07:57.
