data_PCOD9357514
_publ_section_title
;
Structure prediction by ZEFSAII (Michael W. Deem and Ramdas Pophale) SiO2 
 PCOD9357514
Probable space group: A M M 2
;
_chemical_formula_sum "Si O2"
_cell_formula_units_Z 64
_cell_length_a 8.031099
_cell_length_b 14.229127
_cell_length_c 25.239586
_cell_angle_alpha 90.000000
_cell_angle_beta 90.000000
_cell_angle_gamma 90.000000
_cell_volume 2884.267007
_symmetry_space_group_name_H-M "A M M 2"
_symmetry_group_IT_number 38
_symmetry_cell_setting 'orthorhombic'
loop_
_space_group_symop_operation_xyz
x,y,z
-x,-y,z
-x,y,z
x,-y,z
x,1/2+y,1/2+z
-x,1/2-y,1/2+z
-x,1/2+y,1/2+z
x,1/2-y,1/2+z
loop_
_atom_site_type_symbol
_atom_site_label
_atom_site_fract_x
_atom_site_fract_y
_atom_site_fract_z
Si Si1 0.699541 0.103340 0.920850
Si Si2 0.312555 0.612542 0.691772
Si Si3 0.184976 0.611793 0.581173
Si Si4 0.299115 0.608040 0.087963
Si Si5 0.198650 0.694038 0.316592
Si Si6 0.313006 0.752144 0.002898
Si Si7 0.200673 0.109361 0.706025
Si Si8 0.701169 0.604840 0.810034
O O1 0.500000 0.103291 0.929286
O O2 0.734622 0.120486 0.859319
O O3 0.763356 0.000000 0.937435
O O4 0.767798 0.192768 0.953695
O O5 0.500000 0.652580 0.689438
O O6 0.329617 0.500000 0.686272
O O7 0.205479 0.642125 0.642011
O O8 0.236941 0.622154 0.749846
O O9 0.204243 0.500000 0.577816
O O10 0.317971 0.664443 0.546108
O O11 0.000000 0.636423 0.562409
O O12 0.500000 0.610714 0.084784
O O13 0.242776 0.500000 0.084010
O O14 0.235008 0.668847 0.038128
O O15 0.254514 0.641326 0.147351
O O16 0.260700 0.668150 0.257161
O O17 0.248939 0.798153 0.336822
O O18 0.000000 0.688623 0.315527
O O19 0.500000 0.721871 0.987045
O O20 0.000000 0.111234 0.706737
O O21 0.253998 0.000000 0.711903
O O22 0.500000 0.601345 0.807815
O O23 0.756142 0.500000 0.827745
#
# Coordination Sequence:
#
# PCOD9357514 Si02
#       8
#     8   8   8   8   8   8   8   8
#     4  10  22  41  63  86 114 150 195 246 295 351
#     4   8  15  29  48  70 101 142 183 223 269 322
#     4  10  20  31  46  74 110 145 183 227 277 338
#     4   9  19  36  58  85 115 146 185 235 288 343
#     4  11  23  37  58  87 119 156 196 243 299 356
#     4  10  21  37  58  82 110 147 191 238 291 344
#     4   9  19  36  56  81 116 155 191 231 286 349
#     4   9  19  36  56  79 111 152 197 241 284 337
#
# _framework density 22.189346
#
# number of rings (size 3 to 8) (size 9 to 14) (size 15 to 20)
#    0.000    2.500    0.000    2.250    1.750    4.750 
#    0.000    3.125    0.000    2.250    0.000    0.000 
#    0.000    0.000    0.000    0.000    0.000    0.000 
#
# Total GULP energy -178399.929962 kJ/mol
# GULP energy per Si atom -5574.997811 kJ/mol
# Density = 2.213884 g / cm^3
# Si number density = 22.189346 Si / 1000 Ang^3
#
#
#
# Elastic Constant Matrix: (Units=GPa)
#
#
# Indices 1 2 3 4 5 6 
#
# 1 18.4379 6.4077 -0.3854 0.0000 0.0000 0.0000
# 2 6.4077 128.6951 50.8373 0.0000 0.0000 0.0000
# 3 -0.3854 50.8373 84.5008 0.0000 0.0000 0.0000
# 4 0.0000 0.0000 0.0000 29.7488 0.0000 0.0000
# 5 0.0000 0.0000 0.0000 0.0000 51.8406 0.0000
# 6 0.0000 0.0000 0.0000 0.0000 0.0000 2.9561
#
#
#
# Elastic Compliance Matrix: (Units=1/GPa)
#
#
# Indices 1 2 3 4 5 6 
#
# 1 0.055596 -0.003762 0.002517 0.000000 0.000000 0.000000
# 2 -0.003762 0.010447 -0.006302 0.000000 0.000000 0.000000
# 3 0.002517 -0.006302 0.015637 0.000000 0.000000 0.000000
# 4 0.000000 0.000000 0.000000 0.033615 0.000000 0.000000
# 5 0.000000 0.000000 0.000000 0.000000 0.019290 0.000000
# 6 0.000000 0.000000 0.000000 0.000000 0.000000 0.338278
#
#
# Mechanical properties :
#
#
# Convention : Reuss Voigt Hill
#
# Bulk Modulus (GPa) = 15.01827 38.37253 26.69540
# Shear Modulus (GPa) = 9.80096 28.56073 19.18085
#
# Velocity S-wave (km/s) = 2.10394 3.59156 2.94329
# Velocity P-wave (km/s) = 3.56160 5.87621 4.85875
#
# Compressibility (1/GPa) = 0.06658555
#
# Stress axis : x y z
#
# Youngs Moduli (GPa) = 17.98677 95.71933 63.94953
#
# Poissons Ratio (x) = 0.36014 -0.16097
# Poissons Ratio (y) = 0.06767 0.40304
# Poissons Ratio (z) = -0.04528 0.60326
#
# Static dielectric constant tensor:
#      x y z
#    x 1.781260 0.000000 0.000000 
#    y 0.000000 2.568710 0.000000 
#    z 0.000000 0.000000 1.838290 
# 
# From -- ./inp_files/22211.got.cif
#   From: 2010.05.17/outbox.cif.g08.bks.cpg/sg38_12_cif.got.tgz:22211.got - 2010.06.03 18:07:57.
