data_PCOD9357078
_publ_section_title
;
Structure prediction by ZEFSAII (Michael W. Deem and Ramdas Pophale) SiO2 
 PCOD9357078
Probable space group: A M M 2
;
_chemical_formula_sum "Si O2"
_cell_formula_units_Z 64
_cell_length_a 8.887849
_cell_length_b 21.043406
_cell_length_c 20.142345
_cell_angle_alpha 90.000000
_cell_angle_beta 90.000000
_cell_angle_gamma 90.000000
_cell_volume 3767.235172
_symmetry_space_group_name_H-M "A M M 2"
_symmetry_group_IT_number 38
_symmetry_cell_setting 'orthorhombic'
loop_
_space_group_symop_operation_xyz
x,y,z
-x,-y,z
-x,y,z
x,-y,z
x,1/2+y,1/2+z
-x,1/2-y,1/2+z
-x,1/2+y,1/2+z
x,1/2-y,1/2+z
loop_
_atom_site_type_symbol
_atom_site_label
_atom_site_fract_x
_atom_site_fract_y
_atom_site_fract_z
Si Si1 0.818921 0.570868 0.988200
Si Si2 0.678498 0.767732 0.118244
Si Si3 0.679621 0.572540 0.400210
Si Si4 0.822218 0.116326 0.763600
Si Si5 0.320858 0.883375 0.623307
Si Si6 0.183099 0.689898 0.900783
Si Si7 0.178775 0.768720 0.257710
Si Si8 0.180578 0.814548 0.984507
O O1 0.784405 0.500000 0.963657
O O2 0.767397 0.626652 0.938889
O O3 0.000000 0.576341 0.995026
O O4 0.746630 0.581223 0.060142
O O5 0.500000 0.776024 0.112654
O O6 0.711788 0.691988 0.113108
O O7 0.735940 0.787388 0.190892
O O8 0.760746 0.803726 0.058787
O O9 0.500000 0.580791 0.400024
O O10 0.714432 0.500000 0.419427
O O11 0.742064 0.585090 0.326308
O O12 0.753343 0.623499 0.449289
O O13 0.753365 0.096755 0.692873
O O14 0.801414 0.192873 0.768790
O O15 0.000000 0.103248 0.765337
O O16 0.500000 0.891495 0.627025
O O17 0.231599 0.696589 0.824563
O O18 0.228457 0.752443 0.941894
O O19 0.000000 0.689898 0.899738
O O20 0.000000 0.779270 0.248717
O O21 0.000000 0.817313 0.983632
#
# Coordination Sequence:
#
# PCOD9357078 Si02
#       8
#     8   8   8   8   8   8   8   8
#     4  10  20  34  53  77 107 144 182 222 268 319
#     4  10  20  33  51  81 111 138 175 221 272 323
#     4  11  24  39  54  77 112 147 177 219 273 326
#     4  10  19  33  54  78 104 140 185 225 262 315
#     4  10  20  33  50  75 109 147 182 221 268 319
#     4   9  17  32  54  80 106 134 176 225 271 311
#     4   9  17  32  53  78 105 137 175 220 270 316
#     4  11  20  35  59  82 105 140 182 228 269 314
#
# _framework density 16.988586000000002
#
# number of rings (size 3 to 8) (size 9 to 14) (size 15 to 20)
#    0.000    2.000    2.500    1.875    0.000    3.250 
#    0.000    0.625    0.000    0.750    0.000    1.750 
#    0.000    0.000    0.000    0.000    0.000    0.000 
#
# Total GULP energy -178647.294555 kJ/mol
# GULP energy per Si atom -5582.727955 kJ/mol
# Density = 1.694992 g / cm^3
# Si number density = 16.988586 Si / 1000 Ang^3
#
#
#
# Elastic Constant Matrix: (Units=GPa)
#
#
# Indices 1 2 3 4 5 6 
#
# 1 43.6738 51.0087 42.0495 0.0000 0.0000 0.0000
# 2 51.0087 105.1283 72.1144 0.0000 0.0000 0.0000
# 3 42.0495 72.1144 131.4826 0.0000 0.0000 0.0000
# 4 0.0000 0.0000 0.0000 18.7812 0.0000 0.0000
# 5 0.0000 0.0000 0.0000 0.0000 15.1080 0.0000
# 6 0.0000 0.0000 0.0000 0.0000 0.0000 18.8278
#
#
#
# Elastic Compliance Matrix: (Units=1/GPa)
#
#
# Indices 1 2 3 4 5 6 
#
# 1 0.054595 -0.023266 -0.004699 0.000000 0.000000 0.000000
# 2 -0.023266 0.025165 -0.006361 0.000000 0.000000 0.000000
# 3 -0.004699 -0.006361 0.012597 0.000000 0.000000 0.000000
# 4 0.000000 0.000000 0.000000 0.053245 0.000000 0.000000
# 5 0.000000 0.000000 0.000000 0.000000 0.066190 0.000000
# 6 0.000000 0.000000 0.000000 0.000000 0.000000 0.053113
#
#
# Mechanical properties :
#
#
# Convention : Reuss Voigt Hill
#
# Bulk Modulus (GPa) = 42.18753 67.84779 55.01766
# Shear Modulus (GPa) = 14.64300 18.21755 16.43027
#
# Velocity S-wave (km/s) = 2.93905 3.27821 3.11325
# Velocity P-wave (km/s) = 6.03358 7.37244 6.73636
#
# Compressibility (1/GPa) = 0.02370369
#
# Stress axis : x y z
#
# Youngs Moduli (GPa) = 18.31660 39.73815 79.38124
#
# Poissons Ratio (x) = 0.92456 0.37303
# Poissons Ratio (y) = 0.42616 0.50497
# Poissons Ratio (z) = 0.08607 0.25279
#
# Static dielectric constant tensor:
#      x y z
#    x 1.564510 0.000000 0.000000 
#    y 0.000000 1.575080 0.000000 
#    z 0.000000 0.000000 1.553880 
# 
# From -- ./inp_files/17197.got.cif
#   From: 2010.05.17/outbox.cif.g08.bks.cpg/sg38_9_cif.got.tgz:17197.got - 2010.06.03 18:07:57.
