data_PCOD9357860
_publ_section_title
;
Structure prediction by ZEFSAII (Michael W. Deem and Ramdas Pophale) SiO2 
 PCOD9357860
Probable space group: A M M 2
;
_chemical_formula_sum "Si O2"
_cell_formula_units_Z 64
_cell_length_a 8.676403
_cell_length_b 20.161755
_cell_length_c 21.297145
_cell_angle_alpha 90.000000
_cell_angle_beta 90.000000
_cell_angle_gamma 90.000000
_cell_volume 3725.541767
_symmetry_space_group_name_H-M "A M M 2"
_symmetry_group_IT_number 38
_symmetry_cell_setting 'orthorhombic'
loop_
_space_group_symop_operation_xyz
x,y,z
-x,-y,z
-x,y,z
x,-y,z
x,1/2+y,1/2+z
-x,1/2-y,1/2+z
-x,1/2+y,1/2+z
x,1/2-y,1/2+z
loop_
_atom_site_type_symbol
_atom_site_label
_atom_site_fract_x
_atom_site_fract_y
_atom_site_fract_z
Si Si1 0.185788 0.713067 0.839710
Si Si2 0.316266 0.924405 0.910132
Si Si3 0.313559 0.213861 0.581727
Si Si4 0.184711 0.794825 0.964828
Si Si5 0.815525 0.074944 0.769807
Si Si6 0.314099 0.426911 0.030800
Si Si7 0.186022 0.426333 0.889877
Si Si8 0.684151 0.291168 0.221173
O O1 0.232167 0.752638 0.902907
O O2 0.234251 0.636543 0.848605
O O3 0.251296 0.747990 0.778294
O O4 0.000000 0.715703 0.836373
O O5 0.500000 0.916939 0.902797
O O6 0.251998 0.868136 0.955548
O O7 0.238058 0.915803 0.841946
O O8 0.284590 0.000000 0.930864
O O9 0.500000 0.216508 0.577697
O O10 0.245064 0.258889 0.526939
O O11 0.264718 0.137481 0.569365
O O12 0.267219 0.233287 0.652182
O O13 0.000000 0.797101 0.965803
O O14 0.740350 0.133413 0.730352
O O15 0.000000 0.080263 0.767266
O O16 0.770231 0.000000 0.750930
O O17 0.500000 0.427031 0.029746
O O18 0.262737 0.500000 0.053613
O O19 0.254087 0.419119 0.959694
O O20 0.229006 0.500000 0.866493
O O21 0.000000 0.423919 0.895059
O O22 0.500000 0.290506 0.224014
#
# Coordination Sequence:
#
# PCOD9357860 Si02
#       8
#     8   8   8   8   8   8   8   8
#     4  10  20  34  53  79 107 137 175 221 271 319
#     4  10  20  34  55  82 109 139 176 220 269 319
#     4  10  22  37  52  75 108 144 183 223 265 318
#     4  11  21  34  56  83 108 140 179 222 271 318
#     4  10  20  34  52  76 108 144 181 222 267 318
#     4   9  17  30  49  73 102 136 171 209 254 303
#     4   9  17  31  52  77 104 132 167 212 259 310
#     4  11  23  36  53  77 106 146 186 223 270 319
#
# _framework density 17.178709000000001
#
# number of rings (size 3 to 8) (size 9 to 14) (size 15 to 20)
#    0.000    2.000    2.500    1.500    0.000    4.000 
#    0.000    1.250    0.000    2.250    0.000    3.500 
#    0.000    0.000    0.000    0.000    0.000    0.000 
#
# Total GULP energy -178566.502353 kJ/mol
# GULP energy per Si atom -5580.203199 kJ/mol
# Density = 1.713961 g / cm^3
# Si number density = 17.178709 Si / 1000 Ang^3
#
#
#
# Elastic Constant Matrix: (Units=GPa)
#
#
# Indices 1 2 3 4 5 6 
#
# 1 18.3695 27.2737 26.7312 0.0000 0.0000 0.0000
# 2 27.2737 111.6697 65.8277 0.0000 0.0000 0.0000
# 3 26.7312 65.8277 115.2941 0.0000 0.0000 0.0000
# 4 0.0000 0.0000 0.0000 20.9910 0.0000 0.0000
# 5 0.0000 0.0000 0.0000 0.0000 45.0676 0.0000
# 6 0.0000 0.0000 0.0000 0.0000 0.0000 24.3797
#
#
#
# Elastic Compliance Matrix: (Units=1/GPa)
#
#
# Indices 1 2 3 4 5 6 
#
# 1 0.097805 -0.015857 -0.013623 0.000000 0.000000 0.000000
# 2 -0.015857 0.016069 -0.005498 0.000000 0.000000 0.000000
# 3 -0.013623 -0.005498 0.014971 0.000000 0.000000 0.000000
# 4 0.000000 0.000000 0.000000 0.047639 0.000000 0.000000
# 5 0.000000 0.000000 0.000000 0.000000 0.022189 0.000000
# 6 0.000000 0.000000 0.000000 0.000000 0.000000 0.041018
#
#
# Mechanical properties :
#
#
# Convention : Reuss Voigt Hill
#
# Bulk Modulus (GPa) = 16.98096 53.88875 35.43485
# Shear Modulus (GPa) = 15.18477 26.45436 20.81956
#
# Velocity S-wave (km/s) = 2.97632 3.92848 3.48507
# Velocity P-wave (km/s) = 4.66022 7.21213 6.07176
#
# Compressibility (1/GPa) = 0.05888950
#
# Stress axis : x y z
#
# Youngs Moduli (GPa) = 10.22438 62.23190 66.79543
#
# Poissons Ratio (x) = 0.98682 0.90993
# Poissons Ratio (y) = 0.16213 0.36725
# Poissons Ratio (z) = 0.13928 0.34216
#
# Static dielectric constant tensor:
#      x y z
#    x 1.577800 0.000000 0.000000 
#    y 0.000000 1.605190 0.000000 
#    z 0.000000 0.000000 1.554740 
# 
# From -- ./inp_files/17161.got.cif
#   From: 2010.05.17/outbox.cif.g08.bks.cpg/sg38_9_cif.got.tgz:17161.got - 2010.06.03 18:07:57.
