data_PCOD9357550
_publ_section_title
;
Structure prediction by ZEFSAII (Michael W. Deem and Ramdas Pophale) SiO2 
 PCOD9357550
Probable space group: A M M 2
;
_chemical_formula_sum "Si O2"
_cell_formula_units_Z 48
_cell_length_a 7.548860
_cell_length_b 9.769027
_cell_length_c 32.375049
_cell_angle_alpha 90.000000
_cell_angle_beta 90.000000
_cell_angle_gamma 90.000000
_cell_volume 2387.498544
_symmetry_space_group_name_H-M "A M M 2"
_symmetry_group_IT_number 38
_symmetry_cell_setting 'orthorhombic'
loop_
_space_group_symop_operation_xyz
x,y,z
-x,-y,z
-x,y,z
x,-y,z
x,1/2+y,1/2+z
-x,1/2-y,1/2+z
-x,1/2+y,1/2+z
x,1/2-y,1/2+z
loop_
_atom_site_type_symbol
_atom_site_label
_atom_site_fract_x
_atom_site_fract_y
_atom_site_fract_z
Si Si1 0.786657 0.344078 0.344170
Si Si2 0.789185 0.344479 0.011379
Si Si3 0.783623 0.342685 0.437140
Si Si4 0.289285 0.654676 0.766856
Si Si5 0.287389 0.341979 0.101189
Si Si6 0.716578 0.159504 0.691775
O O1 0.724926 0.500000 0.335180
O O2 0.727728 0.305345 0.390531
O O3 0.735789 0.237755 0.309099
O O4 0.000000 0.348796 0.345004
O O5 0.716814 0.500000 0.011134
O O6 0.762452 0.280852 0.056966
O O7 0.000000 0.354295 0.005745
O O8 0.719355 0.255018 0.973567
O O9 0.731968 0.500000 0.444399
O O10 0.000000 0.339449 0.437408
O O11 0.500000 0.644406 0.760299
O O12 0.218146 0.500000 0.768631
O O13 0.218980 0.745378 0.728804
O O14 0.500000 0.343711 0.102169
O O15 0.224153 0.500000 0.099828
O O16 0.228845 0.289106 0.146026
O O17 0.500000 0.158898 0.692567
O O18 0.769675 0.000000 0.696747
#
# Coordination Sequence:
#
# PCOD9357550 Si02
#       6
#     8   8   8   8   8   8
#     4   9  18  33  52  71  90 118 158 197 231 271
#     4   9  16  26  43  67  90 112 143 182 220 259
#     4   8  15  29  47  65  87 116 148 180 217 266
#     4  10  20  32  47  70  98 124 151 187 233 281
#     4   8  14  26  44  64  86 115 150 184 218 258
#     4   8  14  27  47  65  83 116 158 189 217 263
#
# _framework density 20.104725999999999
#
# number of rings (size 3 to 8) (size 9 to 14) (size 15 to 20)
#    0.000    3.333    0.000    2.500    0.000    2.000 
#    0.000    4.167    0.000    7.500    0.000    0.000 
#    0.000    0.000    0.000    0.000    0.000    0.000 
#
# Total GULP energy -133723.016609 kJ/mol
# GULP energy per Si atom -5571.792359 kJ/mol
# Density = 2.005897 g / cm^3
# Si number density = 20.104726 Si / 1000 Ang^3
#
#
#
# Elastic Constant Matrix: (Units=GPa)
#
#
# Indices 1 2 3 4 5 6 
#
# 1 45.6129 5.0806 2.5900 0.0000 0.0000 0.0000
# 2 5.0806 107.2606 121.4652 0.0000 0.0000 0.0000
# 3 2.5900 121.4652 225.0649 0.0000 0.0000 0.0000
# 4 0.0000 0.0000 0.0000 33.2285 0.0000 0.0000
# 5 0.0000 0.0000 0.0000 0.0000 23.0842 0.0000
# 6 0.0000 0.0000 0.0000 0.0000 0.0000 8.0837
#
#
#
# Elastic Compliance Matrix: (Units=1/GPa)
#
#
# Indices 1 2 3 4 5 6 
#
# 1 0.022096 -0.001951 0.000799 0.000000 0.000000 0.000000
# 2 -0.001951 0.024149 -0.013011 0.000000 0.000000 0.000000
# 3 0.000799 -0.013011 0.011456 0.000000 0.000000 0.000000
# 4 0.000000 0.000000 0.000000 0.030095 0.000000 0.000000
# 5 0.000000 0.000000 0.000000 0.000000 0.043320 0.000000
# 6 0.000000 0.000000 0.000000 0.000000 0.000000 0.123706
#
#
# Mechanical properties :
#
#
# Convention : Reuss Voigt Hill
#
# Bulk Modulus (GPa) = 34.04321 70.68999 52.36660
# Shear Modulus (GPa) = 17.06845 29.46612 23.26729
#
# Velocity S-wave (km/s) = 2.91688 3.83251 3.40561
# Velocity P-wave (km/s) = 5.32109 7.40415 6.44730
#
# Compressibility (1/GPa) = 0.02937444
#
# Stress axis : x y z
#
# Youngs Moduli (GPa) = 45.25791 41.40956 87.29347
#
# Poissons Ratio (x) = 0.08079 -0.06972
# Poissons Ratio (y) = 0.08830 1.13573
# Poissons Ratio (z) = -0.03615 0.53876
#
# Static dielectric constant tensor:
#      x y z
#    x 1.770620 0.000000 0.000000 
#    y 0.000000 1.694380 0.000000 
#    z 0.000000 0.000000 1.728640 
# 
# From -- ./inp_files/22435.got.cif
#   From: 2010.05.17/outbox.cif.g08.bks.cpg/sg38_12_cif.got.tgz:22435.got - 2010.06.03 18:07:57.
