data_PCOD9357238
_publ_section_title
;
Structure prediction by ZEFSAII (Michael W. Deem and Ramdas Pophale) SiO2 
 PCOD9357238
Probable space group: A M M 2
;
_chemical_formula_sum "Si O2"
_cell_formula_units_Z 64
_cell_length_a 7.551490
_cell_length_b 19.499080
_cell_length_c 19.427147
_cell_angle_alpha 90.000000
_cell_angle_beta 90.000000
_cell_angle_gamma 90.000000
_cell_volume 2860.591205
_symmetry_space_group_name_H-M "A M M 2"
_symmetry_group_IT_number 38
_symmetry_cell_setting 'orthorhombic'
loop_
_space_group_symop_operation_xyz
x,y,z
-x,-y,z
-x,y,z
x,-y,z
x,1/2+y,1/2+z
-x,1/2-y,1/2+z
-x,1/2+y,1/2+z
x,1/2-y,1/2+z
loop_
_atom_site_type_symbol
_atom_site_label
_atom_site_fract_x
_atom_site_fract_y
_atom_site_fract_z
Si Si1 0.788869 0.074418 0.220440
Si Si2 0.200060 0.286878 0.505299
Si Si3 0.217075 0.079937 0.729965
Si Si4 0.701889 0.574469 0.564506
Si Si5 0.215133 0.824936 0.854203
Si Si6 0.212767 0.672732 0.834968
Si Si7 0.202918 0.839182 0.594538
Si Si8 0.290483 0.577265 0.964522
O O1 0.701489 0.073851 0.146708
O O2 0.716176 0.129634 0.271846
O O3 0.000000 0.084082 0.209144
O O4 0.766087 0.000000 0.253754
O O5 0.193847 0.358335 0.544716
O O6 0.280178 0.311569 0.432398
O O7 0.281374 0.227858 0.554515
O O8 0.000000 0.261374 0.489074
O O9 0.273115 0.115028 0.802478
O O10 0.275985 0.127006 0.664801
O O11 0.000000 0.080157 0.728527
O O12 0.271421 0.000000 0.724172
O O13 0.500000 0.580341 0.539502
O O14 0.773344 0.500000 0.541477
O O15 0.261337 0.751111 0.823328
O O16 0.000000 0.832420 0.858832
O O17 0.260806 0.634696 0.905906
O O18 0.000000 0.670001 0.833085
O O19 0.205691 0.897291 0.535587
O O20 0.000000 0.819300 0.611547
O O21 0.500000 0.574576 0.976404
O O22 0.230449 0.500000 0.945071
#
# Coordination Sequence:
#
# PCOD9357238 Si02
#       8
#     8   8   8   8   8   8   8   8
#     4   9  18  32  53  81 109 141 182 227 277 330
#     4  10  20  35  57  85 112 143 188 241 292 340
#     4   9  18  32  54  85 116 146 184 234 288 339
#     4  10  22  38  55  78 111 150 188 228 280 344
#     4   9  18  33  53  81 113 143 181 230 284 334
#     4  10  19  34  56  81 110 147 189 236 283 334
#     4  10  20  36  59  86 113 146 190 238 289 344
#     4  11  23  36  53  80 116 155 189 228 282 345
#
# _framework density 22.372997000000002
#
# number of rings (size 3 to 8) (size 9 to 14) (size 15 to 20)
#    0.000    2.250    1.250    1.500    1.750    4.250 
#    0.000    2.500    0.000    0.750    0.000    1.750 
#    0.000    0.000    0.000    0.000    0.000    0.000 
#
# Total GULP energy -178393.845394 kJ/mol
# GULP energy per Si atom -5574.807669 kJ/mol
# Density = 2.232208 g / cm^3
# Si number density = 22.372997 Si / 1000 Ang^3
#
#
#
# Elastic Constant Matrix: (Units=GPa)
#
#
# Indices 1 2 3 4 5 6 
#
# 1 51.6768 16.8525 1.4533 0.0000 0.0000 0.0000
# 2 16.8525 145.3463 77.0927 0.0000 0.0000 0.0000
# 3 1.4533 77.0927 110.8599 0.0000 0.0000 0.0000
# 4 0.0000 0.0000 0.0000 44.3216 0.0000 0.0000
# 5 0.0000 0.0000 0.0000 0.0000 18.9540 0.0000
# 6 0.0000 0.0000 0.0000 0.0000 0.0000 -16.7218
#
#
#
# Elastic Compliance Matrix: (Units=1/GPa)
#
#
# Indices 1 2 3 4 5 6 
#
# 1 0.020441 -0.003530 0.002187 0.000000 0.000000 0.000000
# 2 -0.003530 0.011510 -0.007958 0.000000 0.000000 0.000000
# 3 0.002187 -0.007958 0.014526 0.000000 0.000000 0.000000
# 4 0.000000 0.000000 0.000000 0.022562 0.000000 0.000000
# 5 0.000000 0.000000 0.000000 0.000000 0.052759 0.000000
# 6 0.000000 0.000000 0.000000 0.000000 0.000000 -0.059802
#
#
# Mechanical properties :
#
#
# Convention : Reuss Voigt Hill
#
# Bulk Modulus (GPa) = 35.87521 55.40889 45.64205
# Shear Modulus (GPa) = 55.62317 23.47641 39.54979
#
# Velocity S-wave (km/s) = 4.99156 3.24283 4.20902
# Velocity P-wave (km/s) = 7.02074 6.23226 6.63822
#
# Compressibility (1/GPa) = 0.02787440
#
# Stress axis : x y z
#
# Youngs Moduli (GPa) = 48.92199 86.87729 68.84252
#
# Poissons Ratio (x) = 0.30667 -0.15054
# Poissons Ratio (y) = 0.17269 0.54786
# Poissons Ratio (z) = -0.10698 0.69139
#
# Static dielectric constant tensor:
#      x y z
#    x 1.819420 0.000000 0.000000 
#    y 0.000000 1.798430 0.000000 
#    z 0.000000 0.000000 1.831640 
# 
# From -- ./inp_files/20114.got.cif
#   From: 2010.05.17/outbox.cif.g08.bks.cpg/sg38_11_cif.got.tgz:20114.got - 2010.06.03 18:07:57.
