data_PCOD9357949
_publ_section_title
;
Structure prediction by ZEFSAII (Michael W. Deem and Ramdas Pophale) SiO2 
 PCOD9357949
Probable space group: A M M 2
;
_chemical_formula_sum "Si O2"
_cell_formula_units_Z 48
_cell_length_a 8.868188
_cell_length_b 16.853374
_cell_length_c 18.689884
_cell_angle_alpha 90.000000
_cell_angle_beta 90.000000
_cell_angle_gamma 90.000000
_cell_volume 2793.369299
_symmetry_space_group_name_H-M "A M M 2"
_symmetry_group_IT_number 38
_symmetry_cell_setting 'orthorhombic'
loop_
_space_group_symop_operation_xyz
x,y,z
-x,-y,z
-x,y,z
x,-y,z
x,1/2+y,1/2+z
-x,1/2-y,1/2+z
-x,1/2+y,1/2+z
x,1/2-y,1/2+z
loop_
_atom_site_type_symbol
_atom_site_label
_atom_site_fract_x
_atom_site_fract_y
_atom_site_fract_z
Si Si1 0.320674 0.836170 0.371950
Si Si2 0.681715 0.091457 0.814566
Si Si3 0.320562 0.319928 0.460720
Si Si4 0.679434 0.000000 0.192241
Si Si5 0.820550 0.260843 0.241656
Si Si6 0.178956 0.649955 0.613325
Si Si7 0.179685 0.000000 0.350910
O O1 0.500000 0.846690 0.363957
O O2 0.293911 0.769164 0.431839
O O3 0.255080 0.798926 0.298768
O O4 0.242568 0.919822 0.386065
O O5 0.500000 0.097885 0.808614
O O6 0.720774 0.122575 0.894384
O O7 0.755758 0.152622 0.759324
O O8 0.725010 0.000000 0.804897
O O9 0.500000 0.329235 0.473560
O O10 0.231461 0.337690 0.532482
O O11 0.733123 0.076914 0.148753
O O12 0.500000 0.000000 0.201589
O O13 0.758218 0.000000 0.269613
O O14 0.790020 0.226820 0.162862
O O15 0.000000 0.260245 0.253294
O O16 0.000000 0.634085 0.616781
O O17 0.000000 0.000000 0.350078
#
# Coordination Sequence:
#
# PCOD9357949 Si02
#       7
#     8   8   8   4   8   8   4
#     4  10  20  36  57  81 108 146 188 226 268 325
#     4   9  19  36  57  81 108 139 182 230 271 323
#     4   9  20  36  56  81 110 145 184 222 269 329
#     4  12  24  36  56  82 112 149 184 223 272 326
#     4  10  20  34  54  79 110 144 180 228 275 325
#     4  11  23  37  54  81 116 146 180 225 275 330
#     4  12  22  34  56  86 116 141 178 231 278 326
#
# _framework density 17.183547999999998
#
# number of rings (size 3 to 8) (size 9 to 14) (size 15 to 20)
#    0.000    1.833    1.667    4.000    1.167    5.667 
#    0.000    0.000    1.833    0.000    0.000    0.000 
#    0.000    0.000    0.000    0.000    0.000    0.000 
#
# Total GULP energy -134012.647496 kJ/mol
# GULP energy per Si atom -5583.860312 kJ/mol
# Density = 1.714444 g / cm^3
# Si number density = 17.183548 Si / 1000 Ang^3
#
#
#
# Elastic Constant Matrix: (Units=GPa)
#
#
# Indices 1 2 3 4 5 6 
#
# 1 73.0080 56.0913 29.9223 0.0000 0.0000 0.0000
# 2 56.0913 138.0838 28.8797 0.0000 0.0000 0.0000
# 3 29.9223 28.8797 53.2506 0.0000 0.0000 0.0000
# 4 0.0000 0.0000 0.0000 12.3381 0.0000 0.0000
# 5 0.0000 0.0000 0.0000 0.0000 30.5728 0.0000
# 6 0.0000 0.0000 0.0000 0.0000 0.0000 24.9591
#
#
#
# Elastic Compliance Matrix: (Units=1/GPa)
#
#
# Indices 1 2 3 4 5 6 
#
# 1 0.023141 -0.007535 -0.008917 0.000000 0.000000 0.000000
# 2 -0.007535 0.010622 -0.001527 0.000000 0.000000 0.000000
# 3 -0.008917 -0.001527 0.024617 0.000000 0.000000 0.000000
# 4 0.000000 0.000000 0.000000 0.081050 0.000000 0.000000
# 5 0.000000 0.000000 0.000000 0.000000 0.032709 0.000000
# 6 0.000000 0.000000 0.000000 0.000000 0.000000 0.040066
#
#
# Mechanical properties :
#
#
# Convention : Reuss Voigt Hill
#
# Bulk Modulus (GPa) = 44.59587 54.90321 49.74954
# Shear Modulus (GPa) = 19.55908 23.53727 21.54817
#
# Velocity S-wave (km/s) = 3.37745 3.70504 3.54503
# Velocity P-wave (km/s) = 6.42017 7.09390 6.76543
#
# Compressibility (1/GPa) = 0.02242360
#
# Stress axis : x y z
#
# Youngs Moduli (GPa) = 43.21365 94.14279 40.62161
#
# Poissons Ratio (x) = 0.70939 0.36221
# Poissons Ratio (y) = 0.32562 0.06201
# Poissons Ratio (z) = 0.38532 0.14372
#
# Static dielectric constant tensor:
#      x y z
#    x 1.574380 0.000000 0.000000 
#    y 0.000000 1.586570 0.000000 
#    z 0.000000 0.000000 1.551680 
# 
# From -- ./inp_files/16674.got.cif
#   From: 2010.05.17/outbox.cif.g08.bks.cpg/sg38_9_cif.got.tgz:16674.got - 2010.06.03 18:07:57.
