data_PCOD9357190
_publ_section_title
;
Structure prediction by ZEFSAII (Michael W. Deem and Ramdas Pophale) SiO2 
 PCOD9357190
Probable space group: A M M 2
;
_chemical_formula_sum "Si O2"
_cell_formula_units_Z 56
_cell_length_a 18.433755
_cell_length_b 13.468254
_cell_length_c 12.753733
_cell_angle_alpha 90.000000
_cell_angle_beta 90.000000
_cell_angle_gamma 90.000000
_cell_volume 3166.375599
_symmetry_space_group_name_H-M "A M M 2"
_symmetry_group_IT_number 38
_symmetry_cell_setting 'orthorhombic'
loop_
_space_group_symop_operation_xyz
x,y,z
-x,-y,z
-x,y,z
x,-y,z
x,1/2+y,1/2+z
-x,1/2-y,1/2+z
-x,1/2+y,1/2+z
x,1/2-y,1/2+z
loop_
_atom_site_type_symbol
_atom_site_label
_atom_site_fract_x
_atom_site_fract_y
_atom_site_fract_z
Si Si1 0.670530 0.884371 0.976830
Si Si2 0.584735 0.689465 0.047791
Si Si3 0.083622 0.881868 0.227048
Si Si4 0.675072 0.305280 0.241693
Si Si5 0.203019 0.223070 0.097177
Si Si6 0.812510 0.887549 0.421987
Si Si7 0.647202 0.891854 0.338921
O O1 0.680478 0.862387 0.851879
O O2 0.651491 0.000000 0.992060
O O3 0.614413 0.800140 0.017943
O O4 0.743524 0.856272 0.041021
O O5 0.500000 0.691040 0.068761
O O6 0.629765 0.647885 0.146713
O O7 0.603688 0.624086 0.946040
O O8 0.130870 0.826663 0.140172
O O9 0.126172 0.866424 0.336124
O O10 0.000000 0.850298 0.231622
O O11 0.085675 0.000000 0.207134
O O12 0.751942 0.273896 0.191990
O O13 0.633303 0.201875 0.266137
O O14 0.187392 0.307583 0.012744
O O15 0.732738 0.884919 0.368526
O O16 0.822575 0.000000 0.461475
O O17 0.633169 0.000000 0.292469
#
# Coordination Sequence:
#
# PCOD9357190 Si02
#       7
#     8   8   8   8   8   8   8
#     4  10  21  35  54  78 105 141 179 223 268 320
#     4  10  22  38  53  75 109 141 176 226 276 328
#     4  10  21  35  55  84 115 145 177 218 268 319
#     4  10  19  34  53  81 103 137 176 222 266 324
#     4  11  18  35  56  83 108 141 180 221 266 317
#     4  10  19  34  57  83 111 139 180 227 265 313
#     4  10  19  35  57  80 103 136 180 227 269 315
#
# _framework density 17.685835999999998
#
# number of rings (size 3 to 8) (size 9 to 14) (size 15 to 20)
#    0.000    1.857    5.714    0.429    0.000    6.857 
#    0.000    0.000    0.000    0.000    0.000    0.000 
#    0.000    0.000    0.000    0.000    0.000    0.000 
#
# Total GULP energy -156172.403423 kJ/mol
# GULP energy per Si atom -5577.585837 kJ/mol
# Density = 1.764558 g / cm^3
# Si number density = 17.685836 Si / 1000 Ang^3
#
#
#
# Elastic Constant Matrix: (Units=GPa)
#
#
# Indices 1 2 3 4 5 6 
#
# 1 76.8359 1.0411 4.7289 0.0000 0.0000 0.0000
# 2 1.0411 42.9089 -8.8482 0.0000 0.0000 0.0000
# 3 4.7289 -8.8482 36.5889 0.0000 0.0000 0.0000
# 4 0.0000 0.0000 0.0000 9.9135 0.0000 0.0000
# 5 0.0000 0.0000 0.0000 0.0000 14.9501 0.0000
# 6 0.0000 0.0000 0.0000 0.0000 0.0000 -15.2259
#
#
#
# Elastic Compliance Matrix: (Units=1/GPa)
#
#
# Indices 1 2 3 4 5 6 
#
# 1 0.013139 -0.000704 -0.001868 0.000000 0.000000 0.000000
# 2 -0.000704 0.024566 0.006032 0.000000 0.000000 0.000000
# 3 -0.001868 0.006032 0.029031 0.000000 0.000000 0.000000
# 4 0.000000 0.000000 0.000000 0.100873 0.000000 0.000000
# 5 0.000000 0.000000 0.000000 0.000000 0.066889 0.000000
# 6 0.000000 0.000000 0.000000 0.000000 0.000000 -0.065677
#
#
# Mechanical properties :
#
#
# Convention : Reuss Voigt Hill
#
# Bulk Modulus (GPa) = 13.57690 16.68639 15.13164
# Shear Modulus (GPa) = 26.81626 12.55498 19.68562
#
# Velocity S-wave (km/s) = 3.89814 2.66727 3.33989
# Velocity P-wave (km/s) = 5.28716 4.35214 4.84227
#
# Compressibility (1/GPa) = 0.07365454
#
# Stress axis : x y z
#
# Youngs Moduli (GPa) = 76.10768 40.70657 34.44613
#
# Poissons Ratio (x) = 0.02866 0.06436
# Poissons Ratio (y) = 0.05359 -0.20777
# Poissons Ratio (z) = 0.14220 -0.24553
#
# Static dielectric constant tensor:
#      x y z
#    x 1.588160 0.000000 0.000000 
#    y 0.000000 1.618630 0.000000 
#    z 0.000000 0.000000 1.609660 
# 
# From -- ./inp_files/15290.got.cif
#   From: 2010.05.17/outbox.cif.g08.bks.cpg/sg38_8_cif.got.tgz:15290.got - 2010.06.03 18:07:57.
