data_PCOD9357450
_publ_section_title
;
Structure prediction by ZEFSAII (Michael W. Deem and Ramdas Pophale) SiO2 
 PCOD9357450
Probable space group: A M M 2
;
_chemical_formula_sum "Si O2"
_cell_formula_units_Z 58
_cell_length_a 7.829861
_cell_length_b 17.992614
_cell_length_c 17.518644
_cell_angle_alpha 90.000000
_cell_angle_beta 90.000000
_cell_angle_gamma 90.000000
_cell_volume 2468.020727
_symmetry_space_group_name_H-M "A M M 2"
_symmetry_group_IT_number 38
_symmetry_cell_setting 'orthorhombic'
loop_
_space_group_symop_operation_xyz
x,y,z
-x,-y,z
-x,y,z
x,-y,z
x,1/2+y,1/2+z
-x,1/2-y,1/2+z
-x,1/2+y,1/2+z
x,1/2-y,1/2+z
loop_
_atom_site_type_symbol
_atom_site_label
_atom_site_fract_x
_atom_site_fract_y
_atom_site_fract_z
Si Si1 0.803696 0.131715 0.877060
Si Si2 0.793925 0.084838 0.324556
Si Si3 0.500000 0.000000 0.523368
Si Si4 0.813702 0.890570 0.554477
Si Si5 0.301407 0.713584 0.939618
Si Si6 0.308383 0.849465 0.709143
Si Si7 0.208750 0.917495 0.039916
Si Si8 0.206262 0.181515 0.177694
O O1 0.792309 0.218668 0.898763
O O2 0.717970 0.123377 0.795150
O O3 0.000000 0.108793 0.868138
O O4 0.731706 0.092795 0.952821
O O5 0.719517 0.141414 0.386145
O O6 0.754538 0.119949 0.242177
O O7 0.000000 0.084848 0.332157
O O8 0.733219 0.000000 0.333493
O O9 0.347843 0.063076 0.527404
O O10 0.784134 0.808612 0.519501
O O11 0.809072 0.886987 0.645774
O O12 0.000000 0.916362 0.528074
O O13 0.500000 0.732212 0.948329
O O14 0.500000 0.867201 0.685039
O O15 0.280774 0.760700 0.702810
O O16 0.266161 0.853289 0.097531
O O17 0.000000 0.913464 0.038212
O O18 0.254067 0.000000 0.067712
O O19 0.000000 0.190515 0.175349
#
# Coordination Sequence:
#
# PCOD9357450 Si02
#       8
#     8   8   2   8   8   8   8   8
#     4  11  22  39  65  97 132 177 231 281 344 416
#     4  10  21  35  57  92 131 174 222 274 336 408
#     4  12  26  52  68 106 136 172 230 284 348 414
#     4  12  26  47  73  99 135 181 228 283 345 414
#     4  12  24  41  63  96 135 178 228 281 340 406
#     4  12  24  43  65  96 133 173 230 289 343 399
#     4   9  19  37  63  96 130 164 212 276 342 413
#     4  10  19  36  65  95 128 171 219 272 337 413
#
# _framework density 23.500613000000001
#
# number of rings (size 3 to 8) (size 9 to 14) (size 15 to 20)
#    0.000    1.103    2.759    4.345    0.966    3.034 
#    1.241    0.690    0.000    4.138    0.000    0.000 
#    0.000    0.000    0.000    0.000    0.000    0.000 
#
# Total GULP energy -162026.408890 kJ/mol
# GULP energy per Si atom -5587.117548 kJ/mol
# Density = 2.344712 g / cm^3
# Si number density = 23.500613 Si / 1000 Ang^3
#
#
#
# Elastic Constant Matrix: (Units=GPa)
#
#
# Indices 1 2 3 4 5 6 
#
# 1 100.8987 4.0901 7.3177 0.0000 0.0000 0.0000
# 2 4.0901 42.7719 -3.6482 0.0000 0.0000 0.0000
# 3 7.3177 -3.6482 111.5085 0.0000 0.0000 0.0000
# 4 0.0000 0.0000 0.0000 7.3274 0.0000 0.0000
# 5 0.0000 0.0000 0.0000 0.0000 13.5549 0.0000
# 6 0.0000 0.0000 0.0000 0.0000 0.0000 9.9864
#
#
#
# Elastic Compliance Matrix: (Units=1/GPa)
#
#
# Indices 1 2 3 4 5 6 
#
# 1 0.010002 -0.001015 -0.000690 0.000000 0.000000 0.000000
# 2 -0.001015 0.023548 0.000837 0.000000 0.000000 0.000000
# 3 -0.000690 0.000837 0.009041 0.000000 0.000000 0.000000
# 4 0.000000 0.000000 0.000000 0.136474 0.000000 0.000000
# 5 0.000000 0.000000 0.000000 0.000000 0.073774 0.000000
# 6 0.000000 0.000000 0.000000 0.000000 0.000000 0.100136
#
#
# Mechanical properties :
#
#
# Convention : Reuss Voigt Hill
#
# Bulk Modulus (GPa) = 24.47662 30.07760 27.27711
# Shear Modulus (GPa) = 13.57481 22.66839 18.12160
#
# Velocity S-wave (km/s) = 2.40601 3.10915 2.77990
# Velocity P-wave (km/s) = 4.26104 5.07105 4.68359
#
# Compressibility (1/GPa) = 0.04085532
#
# Stress axis : x y z
#
# Youngs Moduli (GPa) = 99.97901 42.46587 110.61256
#
# Poissons Ratio (x) = 0.04311 0.07628
# Poissons Ratio (y) = 0.10151 -0.09259
# Poissons Ratio (z) = 0.06895 -0.03555
#
# Static dielectric constant tensor:
#      x y z
#    x 1.865140 0.000000 0.000000 
#    y 0.000000 1.883460 0.000000 
#    z 0.000000 0.000000 1.904900 
# 
# From -- ./inp_files/16968.got.cif
#   From: 2010.05.17/outbox.cif.g08.bks.cpg/sg38_9_cif.got.tgz:16968.got - 2010.06.03 18:07:57.
