data_PCOD9357964
_publ_section_title
;
Structure prediction by ZEFSAII (Michael W. Deem and Ramdas Pophale) SiO2 
 PCOD9357964
Probable space group: A M M 2
;
_chemical_formula_sum "Si O2"
_cell_formula_units_Z 64
_cell_length_a 8.666631
_cell_length_b 29.011002
_cell_length_c 13.002209
_cell_angle_alpha 90.000000
_cell_angle_beta 90.000000
_cell_angle_gamma 90.000000
_cell_volume 3269.114844
_symmetry_space_group_name_H-M "A M M 2"
_symmetry_group_IT_number 38
_symmetry_cell_setting 'orthorhombic'
loop_
_space_group_symop_operation_xyz
x,y,z
-x,-y,z
-x,y,z
x,-y,z
x,1/2+y,1/2+z
-x,1/2-y,1/2+z
-x,1/2+y,1/2+z
x,1/2-y,1/2+z
loop_
_atom_site_type_symbol
_atom_site_label
_atom_site_fract_x
_atom_site_fract_y
_atom_site_fract_z
Si Si1 0.314562 0.381116 0.165240
Si Si2 0.684004 0.596742 0.567627
Si Si3 0.823321 0.072863 0.277579
Si Si4 0.177372 0.179888 0.344145
Si Si5 0.682906 0.708524 0.055570
Si Si6 0.311488 0.446852 0.350899
Si Si7 0.184468 0.196706 0.120771
Si Si8 0.185486 0.449560 0.999594
O O1 0.500000 0.379334 0.171218
O O2 0.261522 0.328903 0.140901
O O3 0.259157 0.409930 0.264611
O O4 0.265354 0.411053 0.066903
O O5 0.500000 0.599480 0.565453
O O6 0.786186 0.500000 0.045607
O O7 0.735130 0.569863 0.670566
O O8 0.735850 0.571337 0.463514
O O9 0.748251 0.148878 0.077395
O O10 0.760937 0.050134 0.381248
O O11 0.000000 0.057786 0.261342
O O12 0.278983 0.187910 0.443711
O O13 0.234306 0.203984 0.239880
O O14 0.174637 0.126589 0.310373
O O15 0.000000 0.193466 0.367336
O O16 0.500000 0.714463 0.067412
O O17 0.763367 0.757858 0.062356
O O18 0.500000 0.447198 0.348314
O O19 0.261993 0.500000 0.332928
O O20 0.000000 0.192023 0.121665
O O21 0.000000 0.441448 0.997369
#
# Coordination Sequence:
#
# PCOD9357964 Si02
#       8
#     8   8   8   8   8   8   8   8
#     4  10  21  37  57  82 113 150 192 238 290 347
#     4  10  20  35  58  85 113 148 195 245 290 338
#     4   9  18  34  54  77 109 147 182 225 286 345
#     4   9  18  35  56  75 104 148 185 224 280 344
#     4  11  22  34  55  87 116 146 190 244 296 347
#     4   9  19  37  59  83 117 159 196 237 295 356
#     4  10  22  39  58  82 113 154 197 236 292 355
#     4  10  20  34  54  81 112 145 183 229 282 340
#
# _framework density 19.577165999999998
#
# number of rings (size 3 to 8) (size 9 to 14) (size 15 to 20)
#    0.000    2.250    1.250    2.250    0.000    5.750 
#    0.000    2.500    0.000    2.625    0.000    0.000 
#    0.000    0.000    0.000    0.000    0.000    0.000 
#
# Total GULP energy -178459.888038 kJ/mol
# GULP energy per Si atom -5576.871501 kJ/mol
# Density = 1.953261 g / cm^3
# Si number density = 19.577166 Si / 1000 Ang^3
#
#
#
# Elastic Constant Matrix: (Units=GPa)
#
#
# Indices 1 2 3 4 5 6 
#
# 1 17.6419 6.0576 12.4937 0.0000 0.0000 0.0000
# 2 6.0576 50.3513 21.0786 0.0000 0.0000 0.0000
# 3 12.4937 21.0786 96.3946 0.0000 0.0000 0.0000
# 4 0.0000 0.0000 0.0000 23.4568 0.0000 0.0000
# 5 0.0000 0.0000 0.0000 0.0000 25.8240 0.0000
# 6 0.0000 0.0000 0.0000 0.0000 0.0000 -22.7595
#
#
#
# Elastic Compliance Matrix: (Units=1/GPa)
#
#
# Indices 1 2 3 4 5 6 
#
# 1 0.063368 -0.004607 -0.007206 0.000000 0.000000 0.000000
# 2 -0.004607 0.022197 -0.004257 0.000000 0.000000 0.000000
# 3 -0.007206 -0.004257 0.012239 0.000000 0.000000 0.000000
# 4 0.000000 0.000000 0.000000 0.042632 0.000000 0.000000
# 5 0.000000 0.000000 0.000000 0.000000 0.038724 0.000000
# 6 0.000000 0.000000 0.000000 0.000000 0.000000 -0.043938
#
#
# Mechanical properties :
#
#
# Convention : Reuss Voigt Hill
#
# Bulk Modulus (GPa) = 15.22887 27.07196 21.15042
# Shear Modulus (GPa) = 26.42031 13.62145 20.02088
#
# Velocity S-wave (km/s) = 3.67760 2.64063 3.20138
# Velocity P-wave (km/s) = 5.08220 4.81203 4.94896
#
# Compressibility (1/GPa) = 0.06566476
#
# Stress axis : x y z
#
# Youngs Moduli (GPa) = 15.78078 45.05178 81.70760
#
# Poissons Ratio (x) = 0.20756 0.58876
# Poissons Ratio (y) = 0.07270 0.34780
# Poissons Ratio (z) = 0.11371 0.19177
#
# Static dielectric constant tensor:
#      x y z
#    x 1.669940 0.000000 0.000000 
#    y 0.000000 1.710360 0.000000 
#    z 0.000000 0.000000 1.697360 
# 
# From -- ./inp_files/8688.got.cif
#   From: 2010.05.17/outbox.cif.g08.bks.cpg/sg38_5_cif.got.tgz:8688.got - 2010.06.03 18:07:57.
