data_PCOD9357410
_publ_section_title
;
Structure prediction by ZEFSAII (Michael W. Deem and Ramdas Pophale) SiO2 
 PCOD9357410
Probable space group: A M M 2
;
_chemical_formula_sum "Si O2"
_cell_formula_units_Z 48
_cell_length_a 8.920210
_cell_length_b 16.889425
_cell_length_c 18.850968
_cell_angle_alpha 90.000000
_cell_angle_beta 90.000000
_cell_angle_gamma 90.000000
_cell_volume 2840.034391
_symmetry_space_group_name_H-M "A M M 2"
_symmetry_group_IT_number 38
_symmetry_cell_setting 'orthorhombic'
loop_
_space_group_symop_operation_xyz
x,y,z
-x,-y,z
-x,y,z
x,-y,z
x,1/2+y,1/2+z
-x,1/2-y,1/2+z
-x,1/2+y,1/2+z
x,1/2-y,1/2+z
loop_
_atom_site_type_symbol
_atom_site_label
_atom_site_fract_x
_atom_site_fract_y
_atom_site_fract_z
Si Si1 0.321818 0.500000 0.552210
Si Si2 0.179731 0.232839 0.441169
Si Si3 0.680463 0.090612 0.522128
Si Si4 0.679412 0.190545 0.660569
Si Si5 0.820483 0.839294 0.811619
Si Si6 0.179302 0.165235 0.080803
Si Si7 0.177721 0.000000 0.898051
O O1 0.500000 0.500000 0.558181
O O2 0.252830 0.579464 0.585388
O O3 0.271613 0.500000 0.469843
O O4 0.253496 0.150623 0.464197
O O5 0.225878 0.269792 0.366098
O O6 0.214681 0.296311 0.503508
O O7 0.000000 0.223818 0.440714
O O8 0.500000 0.091870 0.517224
O O9 0.720718 0.127064 0.599195
O O10 0.731448 0.000000 0.515053
O O11 0.500000 0.198537 0.660373
O O12 0.737558 0.165247 0.737167
O O13 0.754957 0.272849 0.637050
O O14 0.000000 0.833204 0.800264
O O15 0.793052 0.921997 0.851824
O O16 0.000000 0.159814 0.086799
O O17 0.000000 0.000000 0.917624
#
# Coordination Sequence:
#
# PCOD9357410 Si02
#       7
#     4   8   8   8   8   8   4
#     4  12  22  32  54  86 114 137 176 225 272 322
#     4   9  18  33  55  78 102 135 180 224 260 309
#     4   9  19  35  53  75 106 139 172 214 266 319
#     4  10  21  35  53  79 111 142 177 219 269 325
#     4  10  20  35  54  78 109 143 179 217 264 320
#     4  10  19  36  57  77 106 145 183 220 267 317
#     4  10  20  36  54  78 112 147 182 219 262 322
#
# _framework density 16.901205000000001
#
# number of rings (size 3 to 8) (size 9 to 14) (size 15 to 20)
#    0.000    2.167    1.667    1.750    1.167    3.000 
#    0.000    0.000    1.833    0.000    0.000    0.000 
#    0.000    0.000    0.000    0.000    0.000    0.000 
#
# Total GULP energy -133944.390629 kJ/mol
# GULP energy per Si atom -5581.016276 kJ/mol
# Density = 1.686274 g / cm^3
# Si number density = 16.901205 Si / 1000 Ang^3
#
#
#
# Elastic Constant Matrix: (Units=GPa)
#
#
# Indices 1 2 3 4 5 6 
#
# 1 42.0833 43.9151 20.7599 0.0000 0.0000 0.0000
# 2 43.9151 149.3221 34.4470 0.0000 0.0000 0.0000
# 3 20.7599 34.4470 58.5625 0.0000 0.0000 0.0000
# 4 0.0000 0.0000 0.0000 12.3936 0.0000 0.0000
# 5 0.0000 0.0000 0.0000 0.0000 29.7729 0.0000
# 6 0.0000 0.0000 0.0000 0.0000 0.0000 28.0162
#
#
#
# Elastic Compliance Matrix: (Units=1/GPa)
#
#
# Indices 1 2 3 4 5 6 
#
# 1 0.037125 -0.009120 -0.007796 0.000000 0.000000 0.000000
# 2 -0.009120 0.009989 -0.002642 0.000000 0.000000 0.000000
# 3 -0.007796 -0.002642 0.021394 0.000000 0.000000 0.000000
# 4 0.000000 0.000000 0.000000 0.080687 0.000000 0.000000
# 5 0.000000 0.000000 0.000000 0.000000 0.033588 0.000000
# 6 0.000000 0.000000 0.000000 0.000000 0.000000 0.035694
#
#
# Mechanical properties :
#
#
# Convention : Reuss Voigt Hill
#
# Bulk Modulus (GPa) = 34.02461 49.80133 41.91297
# Shear Modulus (GPa) = 18.69934 24.09295 21.39614
#
# Velocity S-wave (km/s) = 3.32985 3.77970 3.56188
# Velocity P-wave (km/s) = 5.91262 6.96981 6.46287
#
# Compressibility (1/GPa) = 0.02939049
#
# Stress axis : x y z
#
# Youngs Moduli (GPa) = 26.93599 100.11376 46.74258
#
# Poissons Ratio (x) = 0.91302 0.36441
# Poissons Ratio (y) = 0.24565 0.12352
# Poissons Ratio (z) = 0.21000 0.26455
#
# Static dielectric constant tensor:
#      x y z
#    x 1.565260 0.000000 0.000000 
#    y 0.000000 1.562720 0.000000 
#    z 0.000000 0.000000 1.548870 
# 
# From -- ./inp_files/16669.got.cif
#   From: 2010.05.17/outbox.cif.g08.bks.cpg/sg38_9_cif.got.tgz:16669.got - 2010.06.03 18:07:57.
