data_PCOD9357275
_publ_section_title
;
Structure prediction by ZEFSAII (Michael W. Deem and Ramdas Pophale) SiO2 
 PCOD9357275
Probable space group: A M M 2
;
_chemical_formula_sum "Si O2"
_cell_formula_units_Z 64
_cell_length_a 24.734567
_cell_length_b 7.882388
_cell_length_c 15.786919
_cell_angle_alpha 90.000000
_cell_angle_beta 90.000000
_cell_angle_gamma 90.000000
_cell_volume 3077.935406
_symmetry_space_group_name_H-M "A M M 2"
_symmetry_group_IT_number 38
_symmetry_cell_setting 'orthorhombic'
loop_
_space_group_symop_operation_xyz
x,y,z
-x,-y,z
-x,y,z
x,-y,z
x,1/2+y,1/2+z
-x,1/2-y,1/2+z
-x,1/2+y,1/2+z
x,1/2-y,1/2+z
loop_
_atom_site_type_symbol
_atom_site_label
_atom_site_fract_x
_atom_site_fract_y
_atom_site_fract_z
Si Si1 0.939164 0.701362 0.997030
Si Si2 0.751281 0.695048 0.859294
Si Si3 0.362969 0.203535 0.410754
Si Si4 0.860751 0.792877 0.644527
Si Si5 0.871547 0.802612 0.837098
Si Si6 0.259000 0.800141 0.670695
Si Si7 0.628672 0.797377 0.095088
Si Si8 0.438194 0.207701 0.257291
O O1 0.943003 0.500000 0.012028
O O2 0.910535 0.723539 0.906595
O O3 0.000000 0.771782 0.997975
O O4 0.900869 0.770489 0.072011
O O5 0.759299 0.500000 0.886090
O O6 0.698765 0.769514 0.905578
O O7 0.809225 0.782748 0.866336
O O8 0.735888 0.703050 0.759653
O O9 0.387740 0.243815 0.501408
O O10 0.399862 0.266005 0.333842
O O11 0.358534 0.000000 0.401380
O O12 0.874478 0.734960 0.740453
O O13 0.797897 0.748540 0.628734
O O14 0.863002 0.000000 0.645009
O O15 0.885019 0.000000 0.832982
O O16 0.311575 0.771547 0.615035
O O17 0.254709 0.000000 0.691699
O O18 0.588389 0.738363 0.168766
O O19 0.631218 0.000000 0.099173
O O20 0.500000 0.263235 0.266233
O O21 0.438305 0.000000 0.258568
#
# Coordination Sequence:
#
# PCOD9357275 Si02
#       8
#     8   8   8   8   8   8   8   8
#     4  10  21  38  59  82 110 150 197 237 279 342
#     4  10  19  35  58  84 117 153 192 236 292 352
#     4  10  21  37  57  84 114 152 193 235 288 346
#     4   8  18  36  56  79 109 148 188 225 278 343
#     4  10  21  37  57  85 116 150 189 236 292 344
#     4  10  19  34  57  84 117 153 192 238 289 347
#     4  11  22  36  56  87 118 151 193 238 291 346
#     4   9  19  39  62  81 112 157 197 235 287 351
#
# _framework density 20.793158999999999
#
# number of rings (size 3 to 8) (size 9 to 14) (size 15 to 20)
#    0.000    2.250    1.250    2.250    1.750    2.250 
#    0.000    4.375    0.000    2.625    0.000    0.000 
#    0.000    0.000    0.000    0.000    0.000    0.000 
#
# Total GULP energy -178670.445369 kJ/mol
# GULP energy per Si atom -5583.451418 kJ/mol
# Density = 2.074583 g / cm^3
# Si number density = 20.793159 Si / 1000 Ang^3
#
#
#
# Elastic Constant Matrix: (Units=GPa)
#
#
# Indices 1 2 3 4 5 6 
#
# 1 98.4162 -5.5759 35.7295 0.0000 0.0000 0.0000
# 2 -5.5759 20.8306 -15.2130 0.0000 0.0000 0.0000
# 3 35.7295 -15.2130 63.7424 0.0000 0.0000 0.0000
# 4 0.0000 0.0000 0.0000 24.3630 0.0000 0.0000
# 5 0.0000 0.0000 0.0000 0.0000 8.4578 0.0000
# 6 0.0000 0.0000 0.0000 0.0000 0.0000 8.7723
#
#
#
# Elastic Compliance Matrix: (Units=1/GPa)
#
#
# Indices 1 2 3 4 5 6 
#
# 1 0.012840 -0.002203 -0.007723 0.000000 0.000000 0.000000
# 2 -0.002203 0.058518 0.015201 0.000000 0.000000 0.000000
# 3 -0.007723 0.015201 0.023645 0.000000 0.000000 0.000000
# 4 0.000000 0.000000 0.000000 0.041046 0.000000 0.000000
# 5 0.000000 0.000000 0.000000 0.000000 0.118235 0.000000
# 6 0.000000 0.000000 0.000000 0.000000 0.000000 0.113995
#
#
# Mechanical properties :
#
#
# Convention : Reuss Voigt Hill
#
# Bulk Modulus (GPa) = 9.47391 23.65226 16.56309
# Shear Modulus (GPa) = 12.72546 19.52185 16.12366
#
# Velocity S-wave (km/s) = 2.47655 3.06741 2.78768
# Velocity P-wave (km/s) = 3.56986 4.89336 4.28304
#
# Compressibility (1/GPa) = 0.10555303
#
# Stress axis : x y z
#
# Youngs Moduli (GPa) = 77.88240 17.08868 42.29222
#
# Poissons Ratio (x) = 0.03765 0.32662
# Poissons Ratio (y) = 0.17159 -0.64289
# Poissons Ratio (z) = 0.60148 -0.25977
#
# Static dielectric constant tensor:
#      x y z
#    x 1.735570 0.000000 0.000000 
#    y 0.000000 1.770210 0.000000 
#    z 0.000000 0.000000 1.736950 
# 
# From -- ./inp_files/15735.got.cif
#   From: 2010.05.17/outbox.cif.g08.bks.cpg/sg38_8_cif.got.tgz:15735.got - 2010.06.03 18:07:57.
