data_PCOD9357186
_publ_section_title
;
Structure prediction by ZEFSAII (Michael W. Deem and Ramdas Pophale) SiO2 
 PCOD9357186
Probable space group: A M M 2
;
_chemical_formula_sum "Si O2"
_cell_formula_units_Z 42
_cell_length_a 7.844604
_cell_length_b 24.858064
_cell_length_c 12.877283
_cell_angle_alpha 90.000000
_cell_angle_beta 90.000000
_cell_angle_gamma 90.000000
_cell_volume 2511.091668
_symmetry_space_group_name_H-M "A M M 2"
_symmetry_group_IT_number 38
_symmetry_cell_setting 'orthorhombic'
loop_
_space_group_symop_operation_xyz
x,y,z
-x,-y,z
-x,y,z
x,-y,z
x,1/2+y,1/2+z
-x,1/2-y,1/2+z
-x,1/2+y,1/2+z
x,1/2-y,1/2+z
loop_
_atom_site_type_symbol
_atom_site_label
_atom_site_fract_x
_atom_site_fract_y
_atom_site_fract_z
Si Si1 0.799019 0.672320 0.593160
Si Si2 0.700653 0.709299 0.375820
Si Si3 0.309827 0.412503 0.756600
Si Si4 0.206005 0.793086 0.648133
Si Si5 0.000000 0.000000 0.260220
Si Si6 0.200236 0.170168 0.428012
O O1 0.773074 0.673566 0.469419
O O2 0.709236 0.624836 0.654354
O O3 0.736798 0.731148 0.631505
O O4 0.000000 0.668958 0.616776
O O5 0.500000 0.715193 0.391720
O O6 0.735787 0.687973 0.260592
O O7 0.781765 0.768813 0.385664
O O8 0.500000 0.436252 0.758092
O O9 0.152413 0.453401 0.759783
O O10 0.292265 0.371535 0.853754
O O11 0.262692 0.826468 0.547236
O O12 0.000000 0.792468 0.645496
O O13 0.000000 0.156619 0.427934
#
# Coordination Sequence:
#
# PCOD9357186 Si02
#       6
#     8   8   8   8   2   8
#     4  10  19  34  53  74 112 152 183 221 271 327
#     4  11  20  28  46  80 116 151 187 217 254 329
#     4  12  23  39  61  85 109 144 187 235 285 330
#     4   9  18  30  49  75 110 155 185 207 256 332
#     4  12  26  44  60  78 110 140 190 244 296 326
#     4  10  19  34  52  74 112 152 183 220 272 327
#
# _framework density 16.725795000000002
#
# number of rings (size 3 to 8) (size 9 to 14) (size 15 to 20)
#    0.000    1.524    3.810    4.286    0.000    3.810 
#    0.000    0.000    0.000    0.000    0.000    2.667 
#    0.000    3.048    0.000    0.000    0.000    0.000 
#
# Total GULP energy -116920.546549 kJ/mol
# GULP energy per Si atom -5567.645074 kJ/mol
# Density = 1.668773 g / cm^3
# Si number density = 16.725795 Si / 1000 Ang^3
#
#
#
# Elastic Constant Matrix: (Units=GPa)
#
#
# Indices 1 2 3 4 5 6 
#
# 1 101.0636 34.7878 16.1649 0.0000 0.0000 0.0000
# 2 34.7878 74.8183 40.1281 0.0000 0.0000 0.0000
# 3 16.1649 40.1281 121.7354 0.0000 0.0000 0.0000
# 4 0.0000 0.0000 0.0000 -2.0307 0.0000 0.0000
# 5 0.0000 0.0000 0.0000 0.0000 -56.9018 0.0000
# 6 0.0000 0.0000 0.0000 0.0000 0.0000 -22.6598
#
#
#
# Elastic Compliance Matrix: (Units=1/GPa)
#
#
# Indices 1 2 3 4 5 6 
#
# 1 0.011789 -0.005639 0.000293 0.000000 0.000000 0.000000
# 2 -0.005639 0.018933 -0.005492 0.000000 0.000000 0.000000
# 3 0.000293 -0.005492 0.009986 0.000000 0.000000 0.000000
# 4 0.000000 0.000000 0.000000 -0.492431 0.000000 0.000000
# 5 0.000000 0.000000 0.000000 0.000000 -0.017574 0.000000
# 6 0.000000 0.000000 0.000000 0.000000 0.000000 -0.044131
#
#
# Mechanical properties :
#
#
# Convention : Reuss Voigt Hill
#
# Bulk Modulus (GPa) = 52.54107 53.30875 52.92491
# Shear Modulus (GPa) = -10.30059 -2.54935 -6.42497
#
# Velocity S-wave (km/s) = -2.48433 -1.23592 -1.96206
# Velocity P-wave (km/s) = 4.82206 5.46852 5.15543
#
# Compressibility (1/GPa) = 0.01903273
#
# Stress axis : x y z
#
# Youngs Moduli (GPa) = 84.82648 52.81721 100.13988
#
# Poissons Ratio (x) = 0.29782 -0.02937
# Poissons Ratio (y) = 0.47831 0.55000
# Poissons Ratio (z) = -0.02488 0.29009
#
# Static dielectric constant tensor:
#      x y z
#    x 1.594330 0.000000 0.000000 
#    y 0.000000 1.522170 0.000000 
#    z 0.000000 0.000000 1.599270 
# 
# From -- ./inp_files/8068.got.cif
#   From: 2010.05.17/outbox.cif.g08.bks.cpg/sg38_5_cif.got.tgz:8068.got - 2010.06.03 18:07:57.
