data_PCOD9357586
_publ_section_title
;
Structure prediction by ZEFSAII (Michael W. Deem and Ramdas Pophale) SiO2 
 PCOD9357586
Probable space group: A M M 2
;
_chemical_formula_sum "Si O2"
_cell_formula_units_Z 56
_cell_length_a 9.039834
_cell_length_b 20.794114
_cell_length_c 15.685481
_cell_angle_alpha 90.000000
_cell_angle_beta 90.000000
_cell_angle_gamma 90.000000
_cell_volume 2948.483604
_symmetry_space_group_name_H-M "A M M 2"
_symmetry_group_IT_number 38
_symmetry_cell_setting 'orthorhombic'
loop_
_space_group_symop_operation_xyz
x,y,z
-x,-y,z
-x,y,z
x,-y,z
x,1/2+y,1/2+z
-x,1/2-y,1/2+z
-x,1/2+y,1/2+z
x,1/2-y,1/2+z
loop_
_atom_site_type_symbol
_atom_site_label
_atom_site_fract_x
_atom_site_fract_y
_atom_site_fract_z
Si Si1 0.169303 0.425255 0.593430
Si Si2 0.827801 0.197053 0.203159
Si Si3 0.675658 0.251555 0.358034
Si Si4 0.825750 0.621581 0.282639
Si Si5 0.662359 0.574189 0.433894
Si Si6 0.179333 0.927037 0.595891
Si Si7 0.179131 0.214598 0.537151
O O1 0.201037 0.500000 0.614625
O O2 0.178463 0.375651 0.669798
O O3 0.273877 0.396826 0.519986
O O4 0.000000 0.423490 0.560825
O O5 0.731953 0.200690 0.288316
O O6 0.000000 0.212866 0.222627
O O7 0.784183 0.245475 0.124497
O O8 0.500000 0.251128 0.365997
O O9 0.736527 0.315527 0.311147
O O10 0.748645 0.242457 0.451072
O O11 0.782561 0.576472 0.360336
O O12 0.780472 0.589347 0.193889
O O13 0.000000 0.635091 0.278061
O O14 0.500000 0.599565 0.409562
O O15 0.645514 0.500000 0.455289
O O16 0.222295 0.861231 0.546608
O O17 0.000000 0.929006 0.591678
O O18 0.230916 0.000000 0.573054
O O19 0.000000 0.218573 0.529777
#
# Coordination Sequence:
#
# PCOD9357586 Si02
#       7
#     8   8   8   8   8   8   8
#     4   9  18  33  55  82 111 148 196 245 291 342
#     4  10  20  38  61  85 112 149 195 246 299 350
#     4  12  25  38  57  86 118 152 195 245 303 364
#     4  11  20  35  57  83 113 149 196 244 296 354
#     4  10  20  32  48  78 119 155 186 225 284 352
#     4   9  18  34  59  89 117 149 196 251 301 350
#     4  10  20  38  62  87 117 156 201 247 297 356
#
# _framework density 18.992813000000002
#
# number of rings (size 3 to 8) (size 9 to 14) (size 15 to 20)
#    0.000    1.857    1.429    3.429    0.000    3.714 
#    0.000    0.714    0.000    6.429    0.000    0.000 
#    0.000    0.000    0.000    0.000    0.000    0.000 
#
# Total GULP energy -155960.301998 kJ/mol
# GULP energy per Si atom -5570.010786 kJ/mol
# Density = 1.894958 g / cm^3
# Si number density = 18.992813 Si / 1000 Ang^3
#
#
#
# Elastic Constant Matrix: (Units=GPa)
#
#
# Indices 1 2 3 4 5 6 
#
# 1 48.0453 19.0371 32.2694 0.0000 0.0000 0.0000
# 2 19.0371 92.6739 18.7977 0.0000 0.0000 0.0000
# 3 32.2694 18.7977 72.9020 0.0000 0.0000 0.0000
# 4 0.0000 0.0000 0.0000 26.5942 0.0000 0.0000
# 5 0.0000 0.0000 0.0000 0.0000 -0.0680 0.0000
# 6 0.0000 0.0000 0.0000 0.0000 0.0000 5.8941
#
#
#
# Elastic Compliance Matrix: (Units=1/GPa)
#
#
# Indices 1 2 3 4 5 6 
#
# 1 0.030813 -0.003760 -0.012670 0.000000 0.000000 0.000000
# 2 -0.003760 0.011845 -0.001390 0.000000 0.000000 0.000000
# 3 -0.012670 -0.001390 0.019684 0.000000 0.000000 0.000000
# 4 0.000000 0.000000 0.000000 0.037602 0.000000 0.000000
# 5 0.000000 0.000000 0.000000 0.000000-14.709964 0.000000
# 6 0.000000 0.000000 0.000000 0.000000 0.000000 0.169662
#
#
# Mechanical properties :
#
#
# Convention : Reuss Voigt Hill
#
# Bulk Modulus (GPa) = 37.44950 39.31440 38.38195
# Shear Modulus (GPa) = -0.34732 16.05186 7.85227
#
# Velocity S-wave (km/s) = -0.42810 2.91031 2.03551
# Velocity P-wave (km/s) = 4.41771 5.66019 5.07710
#
# Compressibility (1/GPa) = 0.02670262
#
# Stress axis : x y z
#
# Youngs Moduli (GPa) = 32.45399 84.42532 50.80397
#
# Poissons Ratio (x) = 0.31742 0.64366
# Poissons Ratio (y) = 0.12202 0.07061
# Poissons Ratio (z) = 0.41118 0.11735
#
# Static dielectric constant tensor:
#      x y z
#    x 1.699230 0.000000 0.000000 
#    y 0.000000 1.646780 0.000000 
#    z 0.000000 0.000000 1.660400 
# 
# From -- ./inp_files/12359.got.cif
#   From: 2010.05.17/outbox.cif.g08.bks.cpg/sg38_7_cif.got.tgz:12359.got - 2010.06.03 18:07:57.
