data_PCOD9357714
_publ_section_title
;
Structure prediction by ZEFSAII (Michael W. Deem and Ramdas Pophale) SiO2 
 PCOD9357714
Probable space group: A M M 2
;
_chemical_formula_sum "Si O2"
_cell_formula_units_Z 58
_cell_length_a 15.500478
_cell_length_b 7.911948
_cell_length_c 25.691611
_cell_angle_alpha 90.000000
_cell_angle_beta 90.000000
_cell_angle_gamma 90.000000
_cell_volume 3150.792863
_symmetry_space_group_name_H-M "A M M 2"
_symmetry_group_IT_number 38
_symmetry_cell_setting 'orthorhombic'
loop_
_space_group_symop_operation_xyz
x,y,z
-x,-y,z
-x,y,z
x,-y,z
x,1/2+y,1/2+z
-x,1/2-y,1/2+z
-x,1/2+y,1/2+z
x,1/2-y,1/2+z
loop_
_atom_site_type_symbol
_atom_site_label
_atom_site_fract_x
_atom_site_fract_y
_atom_site_fract_z
Si Si1 0.500000 0.000000 0.884080
Si Si2 0.624206 0.687998 0.910663
Si Si3 0.403196 0.199992 0.027689
Si Si4 0.901224 0.298333 0.779883
Si Si5 0.904758 0.203368 0.481515
Si Si6 0.225168 0.795235 0.570349
Si Si7 0.809429 0.694646 0.382245
Si Si8 0.901333 0.796028 0.661813
O O1 0.573890 0.847846 0.887063
O O2 0.594663 0.500000 0.895359
O O3 0.724206 0.702210 0.895869
O O4 0.613429 0.706697 0.973099
O O5 0.500000 0.244289 0.046479
O O6 0.323596 0.236007 0.065698
O O7 0.403795 0.000000 0.015640
O O8 0.899678 0.500000 0.786194
O O9 0.840706 0.220529 0.823571
O O10 0.878261 0.255197 0.720492
O O11 0.000000 0.238696 0.787613
O O12 0.828823 0.263293 0.519636
O O13 0.883492 0.251139 0.422584
O O14 0.000000 0.264325 0.497093
O O15 0.905539 0.000000 0.485441
O O16 0.169305 0.738255 0.620022
O O17 0.226771 0.000000 0.570346
O O18 0.789815 0.500000 0.392012
O O19 0.000000 0.736693 0.651002
O O20 0.903536 0.000000 0.659055
#
# Coordination Sequence:
#
# PCOD9357714 Si02
#       8
#     2   8   8   8   8   8   8   8
#     4  12  22  40  56  90 114 152 202 244 292 358
#     4  12  22  37  59  83 119 156 191 243 298 351
#     4  11  21  36  53  80 114 150 195 243 290 347
#     4  10  21  37  57  81 110 149 198 245 292 349
#     4  10  20  33  50  76 114 157 193 228 281 352
#     4  10  20  33  54  82 112 150 191 233 294 355
#     4  12  23  36  53  82 117 151 196 240 288 354
#     4   9  18  35  57  82 112 147 190 240 293 351
#
# _framework density 18.408065000000001
#
# number of rings (size 3 to 8) (size 9 to 14) (size 15 to 20)
#    0.000    1.379    3.448    3.103    0.000    5.793 
#    0.000    0.000    0.000    2.483    1.793    0.000 
#    0.000    0.000    0.000    0.000    0.000    0.000 
#
# Total GULP energy -161661.421101 kJ/mol
# GULP energy per Si atom -5574.531762 kJ/mol
# Density = 1.836617 g / cm^3
# Si number density = 18.408065 Si / 1000 Ang^3
#
#
#
# Elastic Constant Matrix: (Units=GPa)
#
#
# Indices 1 2 3 4 5 6 
#
# 1 138.6798 24.8420 56.6446 0.0000 0.0000 0.0000
# 2 24.8420 79.8500 5.0368 0.0000 0.0000 0.0000
# 3 56.6446 5.0368 71.2738 0.0000 0.0000 0.0000
# 4 0.0000 0.0000 0.0000 19.7503 0.0000 0.0000
# 5 0.0000 0.0000 0.0000 0.0000 34.6199 0.0000
# 6 0.0000 0.0000 0.0000 0.0000 0.0000 24.3978
#
#
#
# Elastic Compliance Matrix: (Units=1/GPa)
#
#
# Indices 1 2 3 4 5 6 
#
# 1 0.011338 -0.002972 -0.008801 0.000000 0.000000 0.000000
# 2 -0.002972 0.013359 0.001418 0.000000 0.000000 0.000000
# 3 -0.008801 0.001418 0.020925 0.000000 0.000000 0.000000
# 4 0.000000 0.000000 0.000000 0.050632 0.000000 0.000000
# 5 0.000000 0.000000 0.000000 0.000000 0.028885 0.000000
# 6 0.000000 0.000000 0.000000 0.000000 0.000000 0.040987
#
#
# Mechanical properties :
#
#
# Convention : Reuss Voigt Hill
#
# Bulk Modulus (GPa) = 40.14208 51.42782 45.78495
# Shear Modulus (GPa) = 25.62268 29.30560 27.46414
#
# Velocity S-wave (km/s) = 3.73490 3.99431 3.86678
# Velocity P-wave (km/s) = 6.36030 7.01933 6.69793
#
# Compressibility (1/GPa) = 0.02491152
#
# Stress axis : x y z
#
# Youngs Moduli (GPa) = 88.19889 74.85753 47.79070
#
# Poissons Ratio (x) = 0.22249 0.42060
# Poissons Ratio (y) = 0.26215 -0.06777
# Poissons Ratio (z) = 0.77622 -0.10616
#
# Static dielectric constant tensor:
#      x y z
#    x 1.643950 0.000000 0.000000 
#    y 0.000000 1.665460 0.000000 
#    z 0.000000 0.000000 1.604270 
# 
# From -- ./inp_files/22831.got.cif
#   From: 2010.05.17/outbox.cif.g08.bks.cpg/sg38_12_cif.got.tgz:22831.got - 2010.06.03 18:07:57.
