data_PCOD9357389
_publ_section_title
;
Structure prediction by ZEFSAII (Michael W. Deem and Ramdas Pophale) SiO2 
 PCOD9357389
Probable space group: A M M 2
;
_chemical_formula_sum "Si O2"
_cell_formula_units_Z 48
_cell_length_a 8.976073
_cell_length_b 20.694874
_cell_length_c 14.656270
_cell_angle_alpha 90.000000
_cell_angle_beta 90.000000
_cell_angle_gamma 90.000000
_cell_volume 2722.529658
_symmetry_space_group_name_H-M "A M M 2"
_symmetry_group_IT_number 38
_symmetry_cell_setting 'orthorhombic'
loop_
_space_group_symop_operation_xyz
x,y,z
-x,-y,z
-x,y,z
x,-y,z
x,1/2+y,1/2+z
-x,1/2-y,1/2+z
-x,1/2+y,1/2+z
x,1/2-y,1/2+z
loop_
_atom_site_type_symbol
_atom_site_label
_atom_site_fract_x
_atom_site_fract_y
_atom_site_fract_z
Si Si1 0.177418 0.925836 0.000000
Si Si2 0.323452 0.773646 0.687617
Si Si3 0.322777 0.119469 0.184870
Si Si4 0.321682 0.075009 0.389202
Si Si5 0.678189 0.307984 0.395782
Si Si6 0.822897 0.811970 0.503721
O O1 0.259060 0.874396 0.935806
O O2 0.000000 0.916103 0.995106
O O3 0.211161 0.000000 0.975750
O O4 0.233060 0.912301 0.102747
O O5 0.500000 0.783265 0.670788
O O6 0.296288 0.696499 0.685204
O O7 0.289024 0.798961 0.788756
O O8 0.231245 0.807045 0.607877
O O9 0.500000 0.108911 0.170291
O O10 0.284084 0.091454 0.284032
O O11 0.500000 0.085736 0.398577
O O12 0.236841 0.123662 0.455203
O O13 0.290249 0.000000 0.407663
O O14 0.500000 0.304971 0.408198
O O15 0.750786 0.248928 0.451062
O O16 0.000000 0.808151 0.498068
#
# Coordination Sequence:
#
# PCOD9357389 Si02
#       6
#     8   8   8   8   8   8
#     4  11  24  39  56  86 126 159 190 236 296 354
#     4  10  21  38  62  89 116 149 197 248 286 335
#     4  10  19  35  61  89 118 153 195 242 289 342
#     4  10  21  39  62  87 118 156 199 244 289 341
#     4  11  22  40  64  86 113 152 201 247 285 339
#     4  12  24  37  59  88 122 157 191 237 293 353
#
# _framework density 17.630662999999998
#
# number of rings (size 3 to 8) (size 9 to 14) (size 15 to 20)
#    0.000    1.333    3.333    3.000    0.000    4.333 
#    0.000    0.833    0.000    1.000    0.000    0.000 
#    0.000    0.000    0.000    0.000    0.000    0.000 
#
# Total GULP energy -134165.036995 kJ/mol
# GULP energy per Si atom -5590.209875 kJ/mol
# Density = 1.759053 g / cm^3
# Si number density = 17.630663 Si / 1000 Ang^3
#
#
#
# Elastic Constant Matrix: (Units=GPa)
#
#
# Indices 1 2 3 4 5 6 
#
# 1 81.6544 74.8355 77.4732 0.0000 0.0000 0.0000
# 2 74.8355 122.3744 75.6891 0.0000 0.0000 0.0000
# 3 77.4732 75.6891 120.1786 0.0000 0.0000 0.0000
# 4 0.0000 0.0000 0.0000 16.5292 0.0000 0.0000
# 5 0.0000 0.0000 0.0000 0.0000 -47.0791 0.0000
# 6 0.0000 0.0000 0.0000 0.0000 0.0000 25.5607
#
#
#
# Elastic Compliance Matrix: (Units=1/GPa)
#
#
# Indices 1 2 3 4 5 6 
#
# 1 0.044184 -0.015403 -0.018782 0.000000 0.000000 0.000000
# 2 -0.015403 0.018755 -0.001883 0.000000 0.000000 0.000000
# 3 -0.018782 -0.001883 0.021615 0.000000 0.000000 0.000000
# 4 0.000000 0.000000 0.000000 0.060499 0.000000 0.000000
# 5 0.000000 0.000000 0.000000 0.000000 -0.021241 0.000000
# 6 0.000000 0.000000 0.000000 0.000000 0.000000 0.039123
#
#
# Mechanical properties :
#
#
# Convention : Reuss Voigt Hill
#
# Bulk Modulus (GPa) = 80.52755 86.68922 83.60839
# Shear Modulus (GPa) = 20.90210 5.41613 13.15911
#
# Velocity S-wave (km/s) = 3.44692 1.75461 2.73495
# Velocity P-wave (km/s) = 7.84956 7.30624 7.58277
#
# Compressibility (1/GPa) = 0.01241811
#
# Stress axis : x y z
#
# Youngs Moduli (GPa) = 22.63270 53.31796 46.26430
#
# Poissons Ratio (x) = 0.82124 0.86896
# Poissons Ratio (y) = 0.34860 0.08711
# Poissons Ratio (z) = 0.42510 0.10039
#
# Static dielectric constant tensor:
#      x y z
#    x 1.589360 0.000000 0.000000 
#    y 0.000000 1.580490 0.000000 
#    z 0.000000 0.000000 1.578730 
# 
# From -- ./inp_files/12013.got.cif
#   From: 2010.05.17/outbox.cif.g08.bks.cpg/sg38_7_cif.got.tgz:12013.got - 2010.06.03 18:07:57.
