data_PCOD9357391
_publ_section_title
;
Structure prediction by ZEFSAII (Michael W. Deem and Ramdas Pophale) SiO2 
 PCOD9357391
Probable space group: A M M 2
;
_chemical_formula_sum "Si O2"
_cell_formula_units_Z 64
_cell_length_a 8.475647
_cell_length_b 24.439836
_cell_length_c 15.896201
_cell_angle_alpha 90.000000
_cell_angle_beta 90.000000
_cell_angle_gamma 90.000000
_cell_volume 3292.793483
_symmetry_space_group_name_H-M "A M M 2"
_symmetry_group_IT_number 38
_symmetry_cell_setting 'orthorhombic'
loop_
_space_group_symop_operation_xyz
x,y,z
-x,-y,z
-x,y,z
x,-y,z
x,1/2+y,1/2+z
-x,1/2-y,1/2+z
-x,1/2+y,1/2+z
x,1/2-y,1/2+z
loop_
_atom_site_type_symbol
_atom_site_label
_atom_site_fract_x
_atom_site_fract_y
_atom_site_fract_z
Si Si1 0.311788 0.632287 0.513620
Si Si2 0.688234 0.869906 0.698112
Si Si3 0.307849 0.367639 0.010870
Si Si4 0.811233 0.746678 0.252271
Si Si5 0.690654 0.937312 0.350434
Si Si6 0.308755 0.249662 0.942982
Si Si7 0.811910 0.633427 0.695077
Si Si8 0.188434 0.563172 0.356757
O O1 0.500000 0.631835 0.521124
O O2 0.261487 0.694392 0.490852
O O3 0.239065 0.615364 0.602432
O O4 0.261779 0.594049 0.436536
O O5 0.500000 0.876775 0.703195
O O6 0.743368 0.884785 0.604017
O O7 0.729280 0.806370 0.713326
O O8 0.764366 0.905292 0.771937
O O9 0.500000 0.368654 0.011320
O O10 0.254156 0.406130 0.934683
O O11 0.261924 0.305125 0.990552
O O12 0.765172 0.749417 0.350374
O O13 0.759286 0.803712 0.210262
O O14 0.000000 0.741120 0.244051
O O15 0.500000 0.937438 0.352440
O O16 0.742824 0.904102 0.268523
O O17 0.745290 0.000000 0.348159
O O18 0.500000 0.249421 0.934419
O O19 0.000000 0.632465 0.701877
O O20 0.240030 0.500000 0.353352
O O21 0.000000 0.564790 0.365345
#
# Coordination Sequence:
#
# PCOD9357391 Si02
#       8
#     8   8   8   8   8   8   8   8
#     4  11  23  39  64  94 119 154 202 250 300 358
#     4  11  22  38  63  93 122 158 200 247 301 357
#     4   9  19  36  60  90 122 154 194 244 299 356
#     4  11  22  36  58  89 124 162 197 239 298 362
#     4  10  21  39  63  88 116 155 203 255 303 349
#     4  10  19  35  61  90 119 154 193 243 302 356
#     4  11  24  40  60  89 124 164 200 242 303 362
#     4  11  25  44  63  86 121 162 202 250 305 359
#
# _framework density 19.436384
#
# number of rings (size 3 to 8) (size 9 to 14) (size 15 to 20)
#    0.000    1.500    2.500    2.625    0.000    5.250 
#    0.000    3.750    0.000    0.000    0.000    0.000 
#    0.000    0.000    0.000    0.000    0.000    0.000 
#
# Total GULP energy -178874.059164 kJ/mol
# GULP energy per Si atom -5589.814349 kJ/mol
# Density = 1.939215 g / cm^3
# Si number density = 19.436384 Si / 1000 Ang^3
#
#
#
# Elastic Constant Matrix: (Units=GPa)
#
#
# Indices 1 2 3 4 5 6 
#
# 1 11.1794 8.7377 -2.5044 0.0000 0.0000 0.0000
# 2 8.7377 135.0485 56.1704 0.0000 0.0000 0.0000
# 3 -2.5044 56.1704 148.0727 0.0000 0.0000 0.0000
# 4 0.0000 0.0000 0.0000 -2.9685 0.0000 0.0000
# 5 0.0000 0.0000 0.0000 0.0000 -7.6403 0.0000
# 6 0.0000 0.0000 0.0000 0.0000 0.0000 23.4797
#
#
#
# Elastic Compliance Matrix: (Units=1/GPa)
#
#
# Indices 1 2 3 4 5 6 
#
# 1 0.096975 -0.008260 0.004773 0.000000 0.000000 0.000000
# 2 -0.008260 0.009495 -0.003742 0.000000 0.000000 0.000000
# 3 0.004773 -0.003742 0.008254 0.000000 0.000000 0.000000
# 4 0.000000 0.000000 0.000000 -0.336874 0.000000 0.000000
# 5 0.000000 0.000000 0.000000 0.000000 -0.130885 0.000000
# 6 0.000000 0.000000 0.000000 0.000000 0.000000 0.042590
#
#
# Mechanical properties :
#
#
# Convention : Reuss Voigt Hill
#
# Bulk Modulus (GPa) = 9.97327 46.56757 28.27042
# Shear Modulus (GPa) = -19.04282 18.03399 -0.50442
#
# Velocity S-wave (km/s) = -3.13349 3.04936 -0.50999
# Velocity P-wave (km/s) = 2.81946 6.03400 3.77225
#
# Compressibility (1/GPa) = 0.10026801
#
# Stress axis : x y z
#
# Youngs Moduli (GPa) = 10.31193 105.31360 121.15955
#
# Poissons Ratio (x) = 0.86987 -0.57835
# Poissons Ratio (y) = 0.08517 0.45335
# Poissons Ratio (z) = -0.04922 0.39406
#
# Static dielectric constant tensor:
#      x y z
#    x 1.664680 0.000000 0.000000 
#    y 0.000000 1.668920 0.000000 
#    z 0.000000 0.000000 1.655820 
# 
# From -- ./inp_files/12857.got.cif
#   From: 2010.05.17/outbox.cif.g08.bks.cpg/sg38_7_cif.got.tgz:12857.got - 2010.06.03 18:07:57.
