data_PCOD9357142
_publ_section_title
;
Structure prediction by ZEFSAII (Michael W. Deem and Ramdas Pophale) SiO2 
 PCOD9357142
Probable space group: A M M 2
;
_chemical_formula_sum "Si O2"
_cell_formula_units_Z 56
_cell_length_a 9.063855
_cell_length_b 20.078722
_cell_length_c 15.554519
_cell_angle_alpha 90.000000
_cell_angle_beta 90.000000
_cell_angle_gamma 90.000000
_cell_volume 2830.776631
_symmetry_space_group_name_H-M "A M M 2"
_symmetry_group_IT_number 38
_symmetry_cell_setting 'orthorhombic'
loop_
_space_group_symop_operation_xyz
x,y,z
-x,-y,z
-x,y,z
x,-y,z
x,1/2+y,1/2+z
-x,1/2-y,1/2+z
-x,1/2+y,1/2+z
x,1/2-y,1/2+z
loop_
_atom_site_type_symbol
_atom_site_label
_atom_site_fract_x
_atom_site_fract_y
_atom_site_fract_z
Si Si1 0.825596 0.750748 0.398520
Si Si2 0.672712 0.192274 0.741359
Si Si3 0.676946 0.424024 0.636519
Si Si4 0.162028 0.579467 0.163854
Si Si5 0.177797 0.215391 0.093479
Si Si6 0.342549 0.076130 0.513293
Si Si7 0.669329 0.121629 0.327774
O O1 0.738006 0.701267 0.336426
O O2 0.783961 0.745209 0.499080
O O3 0.780120 0.820405 0.354773
O O4 0.000000 0.739839 0.392473
O O5 0.500000 0.205066 0.739243
O O6 0.712304 0.117317 0.714620
O O7 0.750242 0.241939 0.671558
O O8 0.500000 0.417535 0.621725
O O9 0.719764 0.500000 0.611697
O O10 0.761417 0.360699 0.596565
O O11 0.701690 0.414771 0.739163
O O12 0.160713 0.500000 0.175438
O O13 0.000000 0.605127 0.187077
O O14 0.200523 0.599325 0.065300
O O15 0.000000 0.215894 0.103150
O O16 0.500000 0.110784 0.533998
O O17 0.327725 0.076311 0.411776
O O18 0.355580 0.000000 0.541542
O O19 0.500000 0.147917 0.320614
#
# Coordination Sequence:
#
# PCOD9357142 Si02
#       7
#     8   8   8   8   8   8   8
#     4  11  24  40  60  87 120 158 204 257 312 370
#     4  12  24  40  64  91 120 157 203 256 309 368
#     4  10  21  38  61  90 126 168 213 262 317 376
#     4  10  21  37  57  83 118 158 198 245 304 365
#     4  11  24  42  64  92 127 166 210 260 315 377
#     4   9  17  30  50  79 116 155 194 235 285 351
#     4  10  19  33  55  86 119 155 198 249 309 368
#
# _framework density 19.782558000000002
#
# number of rings (size 3 to 8) (size 9 to 14) (size 15 to 20)
#    0.000    1.571    1.429    3.857    0.000    8.000 
#    0.000    0.714    0.000    3.429    0.000    0.000 
#    0.000    0.000    0.000    0.000    0.000    0.000 
#
# Total GULP energy -156084.035805 kJ/mol
# GULP energy per Si atom -5574.429850 kJ/mol
# Density = 1.973753 g / cm^3
# Si number density = 19.782558 Si / 1000 Ang^3
#
#
#
# Elastic Constant Matrix: (Units=GPa)
#
#
# Indices 1 2 3 4 5 6 
#
# 1 82.2798 27.3258 36.2291 0.0000 0.0000 0.0000
# 2 27.3258 78.1143 13.2635 0.0000 0.0000 0.0000
# 3 36.2291 13.2635 73.6968 0.0000 0.0000 0.0000
# 4 0.0000 0.0000 0.0000 13.8714 0.0000 0.0000
# 5 0.0000 0.0000 0.0000 0.0000 26.7850 0.0000
# 6 0.0000 0.0000 0.0000 0.0000 0.0000 31.4219
#
#
#
# Elastic Compliance Matrix: (Units=1/GPa)
#
#
# Indices 1 2 3 4 5 6 
#
# 1 0.017020 -0.004676 -0.007526 0.000000 0.000000 0.000000
# 2 -0.004676 0.014490 -0.000309 0.000000 0.000000 0.000000
# 3 -0.007526 -0.000309 0.017324 0.000000 0.000000 0.000000
# 4 0.000000 0.000000 0.000000 0.072091 0.000000 0.000000
# 5 0.000000 0.000000 0.000000 0.000000 0.037334 0.000000
# 6 0.000000 0.000000 0.000000 0.000000 0.000000 0.031825
#
#
# Mechanical properties :
#
#
# Convention : Reuss Voigt Hill
#
# Bulk Modulus (GPa) = 41.99372 43.08085 42.53728
# Shear Modulus (GPa) = 22.41711 24.90048 23.65880
#
# Velocity S-wave (km/s) = 3.36992 3.55168 3.46199
# Velocity P-wave (km/s) = 6.03453 6.21640 6.12614
#
# Compressibility (1/GPa) = 0.02381308
#
# Stress axis : x y z
#
# Youngs Moduli (GPa) = 58.75358 69.01296 57.72260
#
# Poissons Ratio (x) = 0.32272 0.43439
# Poissons Ratio (y) = 0.27474 0.01784
# Poissons Ratio (z) = 0.44215 0.02133
#
# Static dielectric constant tensor:
#      x y z
#    x 1.725420 0.000000 0.000000 
#    y 0.000000 1.857820 0.000000 
#    z 0.000000 0.000000 1.704640 
# 
# From -- ./inp_files/12401.got.cif
#   From: 2010.05.17/outbox.cif.g08.bks.cpg/sg38_7_cif.got.tgz:12401.got - 2010.06.03 18:07:57.
