data_PCOD9357379
_publ_section_title
;
Structure prediction by ZEFSAII (Michael W. Deem and Ramdas Pophale) SiO2 
 PCOD9357379
Probable space group: A M M 2
;
_chemical_formula_sum "Si O2"
_cell_formula_units_Z 48
_cell_length_a 7.572707
_cell_length_b 14.396463
_cell_length_c 18.950557
_cell_angle_alpha 90.000000
_cell_angle_beta 90.000000
_cell_angle_gamma 90.000000
_cell_volume 2065.993441
_symmetry_space_group_name_H-M "A M M 2"
_symmetry_group_IT_number 38
_symmetry_cell_setting 'orthorhombic'
loop_
_space_group_symop_operation_xyz
x,y,z
-x,-y,z
-x,y,z
x,-y,z
x,1/2+y,1/2+z
-x,1/2-y,1/2+z
-x,1/2+y,1/2+z
x,1/2-y,1/2+z
loop_
_atom_site_type_symbol
_atom_site_label
_atom_site_fract_x
_atom_site_fract_y
_atom_site_fract_z
Si Si1 0.790530 0.600867 0.714330
Si Si2 0.304523 0.255596 0.486768
Si Si3 0.209000 0.604607 0.372269
Si Si4 0.787353 0.198107 0.728860
Si Si5 0.208922 0.101339 0.383683
Si Si6 0.711422 0.397727 0.089508
O O1 0.718534 0.500000 0.690037
O O2 0.717757 0.703222 0.698000
O O3 0.775165 0.602101 0.799546
O O4 0.000000 0.599581 0.696520
O O5 0.500000 0.281020 0.511370
O O6 0.228397 0.345472 0.447946
O O7 0.308824 0.181628 0.422850
O O8 0.215581 0.191526 0.546778
O O9 0.281745 0.500000 0.371802
O O10 0.277713 0.666133 0.306149
O O11 0.000000 0.598335 0.359531
O O12 0.745576 0.120298 0.671585
O O13 0.000000 0.209559 0.734256
O O14 0.000000 0.113018 0.398424
O O15 0.267412 0.000000 0.408393
O O16 0.500000 0.398308 0.076959
O O17 0.780456 0.500000 0.069704
#
# Coordination Sequence:
#
# PCOD9357379 Si02
#       6
#     8   8   8   8   8   8
#     4   8  14  27  50  80 111 140 172 217 274 328
#     4  11  22  36  55  80 113 151 189 232 284 341
#     4  10  21  38  60  86 115 146 187 241 293 341
#     4  10  19  35  60  87 115 146 187 236 282 334
#     4   9  16  29  52  79 108 142 179 224 278 330
#     4  10  23  41  57  78 114 155 190 230 283 339
#
# _framework density 23.233376
#
# number of rings (size 3 to 8) (size 9 to 14) (size 15 to 20)
#    0.000    2.333    1.667    2.500    0.000    4.333 
#    0.000    0.833    0.000    3.500    0.000    0.000 
#    0.000    0.000    0.000    0.000    0.000    0.000 
#
# Total GULP energy -133796.559707 kJ/mol
# GULP energy per Si atom -5574.856654 kJ/mol
# Density = 2.318050 g / cm^3
# Si number density = 23.233376 Si / 1000 Ang^3
#
#
#
# Elastic Constant Matrix: (Units=GPa)
#
#
# Indices 1 2 3 4 5 6 
#
# 1 47.9361 6.2595 -4.3846 0.0000 0.0000 0.0000
# 2 6.2595 155.5300 32.4575 0.0000 0.0000 0.0000
# 3 -4.3846 32.4575 71.5681 0.0000 0.0000 0.0000
# 4 0.0000 0.0000 0.0000 20.5647 0.0000 0.0000
# 5 0.0000 0.0000 0.0000 0.0000 15.8644 0.0000
# 6 0.0000 0.0000 0.0000 0.0000 0.0000 -3.1348
#
#
#
# Elastic Compliance Matrix: (Units=1/GPa)
#
#
# Indices 1 2 3 4 5 6 
#
# 1 0.021193 -0.001241 0.001861 0.000000 0.000000 0.000000
# 2 -0.001241 0.007174 -0.003330 0.000000 0.000000 0.000000
# 3 0.001861 -0.003330 0.015597 0.000000 0.000000 0.000000
# 4 0.000000 0.000000 0.000000 0.048627 0.000000 0.000000
# 5 0.000000 0.000000 0.000000 0.000000 0.063034 0.000000
# 6 0.000000 0.000000 0.000000 0.000000 0.000000 -0.319004
#
#
# Mechanical properties :
#
#
# Convention : Reuss Voigt Hill
#
# Bulk Modulus (GPa) = 25.94358 38.18879 32.06618
# Shear Modulus (GPa) = -34.45664 22.70566 -5.87549
#
# Velocity S-wave (km/s) = -3.85524 3.12955 -1.59198
# Velocity P-wave (km/s) = 2.93707 5.43429 3.23304
#
# Compressibility (1/GPa) = 0.03854518
#
# Stress axis : x y z
#
# Youngs Moduli (GPa) = 47.18435 139.38270 64.11536
#
# Poissons Ratio (x) = 0.17303 -0.11935
# Poissons Ratio (y) = 0.05858 0.21349
# Poissons Ratio (z) = -0.08783 0.46412
#
# Static dielectric constant tensor:
#      x y z
#    x 1.867560 0.000000 0.000000 
#    y 0.000000 1.950280 0.000000 
#    z 0.000000 0.000000 1.852770 
# 
# From -- ./inp_files/16649.got.cif
#   From: 2010.05.17/outbox.cif.g08.bks.cpg/sg38_9_cif.got.tgz:16649.got - 2010.06.03 18:07:57.
