data_PCOD9357680
_publ_section_title
;
Structure prediction by ZEFSAII (Michael W. Deem and Ramdas Pophale) SiO2 
 PCOD9357680
Probable space group: A M M 2
;
_chemical_formula_sum "Si O2"
_cell_formula_units_Z 40
_cell_length_a 7.854662
_cell_length_b 9.504861
_cell_length_c 26.877632
_cell_angle_alpha 90.000000
_cell_angle_beta 90.000000
_cell_angle_gamma 90.000000
_cell_volume 2006.616018
_symmetry_space_group_name_H-M "A M M 2"
_symmetry_group_IT_number 38
_symmetry_cell_setting 'orthorhombic'
loop_
_space_group_symop_operation_xyz
x,y,z
-x,-y,z
-x,y,z
x,-y,z
x,1/2+y,1/2+z
-x,1/2-y,1/2+z
-x,1/2+y,1/2+z
x,1/2-y,1/2+z
loop_
_atom_site_type_symbol
_atom_site_label
_atom_site_fract_x
_atom_site_fract_y
_atom_site_fract_z
Si Si1 0.291530 0.336876 0.283270
Si Si2 0.801011 0.339844 0.500771
Si Si3 0.697412 0.829384 0.891767
Si Si4 0.291250 0.838388 0.187062
Si Si5 0.701758 0.341937 0.093460
O O1 0.500000 0.336923 0.284945
O O2 0.240500 0.500000 0.275909
O O3 0.233366 0.284813 0.337854
O O4 0.238440 0.241045 0.237364
O O5 0.729483 0.500000 0.504152
O O6 0.780434 0.289144 0.443888
O O7 0.723299 0.237312 0.541351
O O8 0.000000 0.347785 0.511699
O O9 0.500000 0.787527 0.894924
O O10 0.704517 0.000000 0.889685
O O11 0.500000 0.838920 0.186758
O O12 0.230897 0.752696 0.138757
O O13 0.236017 0.000000 0.185612
O O14 0.500000 0.353777 0.102435
O O15 0.773344 0.500000 0.092618
#
# Coordination Sequence:
#
# PCOD9357680 Si02
#       5
#     8   8   8   8   8
#     4   8  13  23  41  65  92 122 156 193 234 281
#     4  10  20  33  50  72  98 129 164 202 244 289
#     4   8  14  26  46  70  95 125 160 196 234 280
#     4   9  16  26  43  69  98 124 152 193 244 291
#     4  10  20  33  50  72  97 127 164 204 244 287
#
# _framework density 19.934056000000002
#
# number of rings (size 3 to 8) (size 9 to 14) (size 15 to 20)
#    0.000    3.000    0.000    3.000    0.000    4.800 
#    0.000    1.000    0.000    4.800    0.000    2.800 
#    0.000    0.000    0.000    0.000    0.000    0.000 
#
# Total GULP energy -111488.747393 kJ/mol
# GULP energy per Si atom -5574.437370 kJ/mol
# Density = 1.988869 g / cm^3
# Si number density = 19.934056 Si / 1000 Ang^3
#
#
#
# Elastic Constant Matrix: (Units=GPa)
#
#
# Indices 1 2 3 4 5 6 
#
# 1 17.3180 6.0755 1.2717 0.0000 0.0000 0.0000
# 2 6.0755 128.6714 103.4461 0.0000 0.0000 0.0000
# 3 1.2717 103.4461 182.2424 0.0000 0.0000 0.0000
# 4 0.0000 0.0000 0.0000 28.2079 0.0000 0.0000
# 5 0.0000 0.0000 0.0000 0.0000 -27.4399 0.0000
# 6 0.0000 0.0000 0.0000 0.0000 0.0000 3.8879
#
#
#
# Elastic Compliance Matrix: (Units=1/GPa)
#
#
# Indices 1 2 3 4 5 6 
#
# 1 0.059174 -0.004529 0.002158 0.000000 0.000000 0.000000
# 2 -0.004529 0.014642 -0.008280 0.000000 0.000000 0.000000
# 3 0.002158 -0.008280 0.010172 0.000000 0.000000 0.000000
# 4 0.000000 0.000000 0.000000 0.035451 0.000000 0.000000
# 5 0.000000 0.000000 0.000000 0.000000 -0.036443 0.000000
# 6 0.000000 0.000000 0.000000 0.000000 0.000000 0.257209
#
#
# Mechanical properties :
#
#
# Convention : Reuss Voigt Hill
#
# Bulk Modulus (GPa) = 15.95243 61.09091 38.52167
# Shear Modulus (GPa) = 13.07528 15.42709 14.25118
#
# Velocity S-wave (km/s) = 2.56388 2.78493 2.67669
# Velocity P-wave (km/s) = 4.09691 6.40735 5.37768
#
# Compressibility (1/GPa) = 0.06268637
#
# Stress axis : x y z
#
# Youngs Moduli (GPa) = 16.89939 68.29651 98.30997
#
# Poissons Ratio (x) = 0.30930 -0.21213
# Poissons Ratio (y) = 0.07653 0.81397
# Poissons Ratio (z) = -0.03646 0.56547
#
# Static dielectric constant tensor:
#      x y z
#    x 1.714300 0.000000 0.000000 
#    y 0.000000 1.690010 0.000000 
#    z 0.000000 0.000000 1.701790 
# 
# From -- ./inp_files/21671.got.cif
#   From: 2010.05.17/outbox.cif.g08.bks.cpg/sg38_11_cif.got.tgz:21671.got - 2010.06.03 18:07:57.
