data_PCOD9357491
_publ_section_title
;
Structure prediction by ZEFSAII (Michael W. Deem and Ramdas Pophale) SiO2 
 PCOD9357491
Probable space group: A M M 2
;
_chemical_formula_sum "Si O2"
_cell_formula_units_Z 64
_cell_length_a 21.808834
_cell_length_b 7.397597
_cell_length_c 19.203124
_cell_angle_alpha 90.000000
_cell_angle_beta 90.000000
_cell_angle_gamma 90.000000
_cell_volume 3098.096932
_symmetry_space_group_name_H-M "A M M 2"
_symmetry_group_IT_number 38
_symmetry_cell_setting 'orthorhombic'
loop_
_space_group_symop_operation_xyz
x,y,z
-x,-y,z
-x,y,z
x,-y,z
x,1/2+y,1/2+z
-x,1/2-y,1/2+z
-x,1/2+y,1/2+z
x,1/2-y,1/2+z
loop_
_atom_site_type_symbol
_atom_site_label
_atom_site_fract_x
_atom_site_fract_y
_atom_site_fract_z
Si Si1 0.434257 0.717096 0.337270
Si Si2 0.300595 0.717667 0.499395
Si Si3 0.930882 0.717399 0.995429
Si Si4 0.180258 0.286283 0.089026
Si Si5 0.931466 0.285193 0.333363
Si Si6 0.814952 0.221819 0.746935
Si Si7 0.699580 0.220975 0.838408
Si Si8 0.433986 0.217137 0.004438
O O1 0.500000 0.786576 0.310417
O O2 0.434973 0.500000 0.327576
O O3 0.367805 0.781351 0.312435
O O4 0.433717 0.747203 0.420831
O O5 0.304072 0.500000 0.496878
O O6 0.242760 0.764840 0.546069
O O7 0.292243 0.777625 0.419072
O O8 0.366966 0.782968 0.527725
O O9 0.932351 0.500000 0.001223
O O10 0.916953 0.758553 0.914820
O O11 0.000000 0.783387 0.010682
O O12 0.877488 0.787276 0.045509
O O13 0.169132 0.500000 0.096006
O O14 0.186263 0.216287 0.167297
O O15 0.934466 0.500000 0.321500
O O16 0.876797 0.216764 0.285431
O O17 0.000000 0.211712 0.320529
O O18 0.755421 0.279367 0.790381
O O19 0.814405 0.000000 0.747913
O O20 0.699036 0.000000 0.838808
O O21 0.500000 0.286395 0.031146
O O22 0.434872 0.000000 0.014715
#
# Coordination Sequence:
#
# PCOD9357491 Si02
#       8
#     8   8   8   8   8   8   8   8
#     4   7   9  14  27  51  80 102 124 163 211 248
#     4   9  16  27  46  68  87 110 143 184 223 256
#     4   9  18  32  48  65  86 113 144 177 215 260
#     4  10  20  31  43  61  88 121 149 174 209 256
#     4   9  17  30  50  72  88 105 136 179 220 255
#     4   9  17  28  41  59  85 115 143 170 204 249
#     4   8  13  22  39  61  81 104 136 174 212 245
#     4   7  10  18  35  61  87 106 131 173 220 258
#
# _framework density 20.657844999999998
#
# number of rings (size 3 to 8) (size 9 to 14) (size 15 to 20)
#    0.000    3.500    0.000    3.000    0.000    2.000 
#    0.000    3.125    0.000    1.875    0.000    5.250 
#    0.000    0.000    0.000    0.000    0.000    0.000 
#
# Total GULP energy -178311.870243 kJ/mol
# GULP energy per Si atom -5572.245945 kJ/mol
# Density = 2.061083 g / cm^3
# Si number density = 20.657845 Si / 1000 Ang^3
#
#
#
# Elastic Constant Matrix: (Units=GPa)
#
#
# Indices 1 2 3 4 5 6 
#
# 1 234.6426 2.6960 123.2276 0.0000 0.0000 0.0000
# 2 2.6960 66.3055 -0.4413 0.0000 0.0000 0.0000
# 3 123.2276 -0.4413 102.0961 0.0000 0.0000 0.0000
# 4 0.0000 0.0000 0.0000 15.3474 0.0000 0.0000
# 5 0.0000 0.0000 0.0000 0.0000 -11.1429 0.0000
# 6 0.0000 0.0000 0.0000 0.0000 0.0000 137.0121
#
#
#
# Elastic Compliance Matrix: (Units=1/GPa)
#
#
# Indices 1 2 3 4 5 6 
#
# 1 0.011661 -0.000568 -0.014078 0.000000 0.000000 0.000000
# 2 -0.000568 0.015110 0.000751 0.000000 0.000000 0.000000
# 3 -0.014078 0.000751 0.026789 0.000000 0.000000 0.000000
# 4 0.000000 0.000000 0.000000 0.065158 0.000000 0.000000
# 5 0.000000 0.000000 0.000000 0.000000 -0.089743 0.000000
# 6 0.000000 0.000000 0.000000 0.000000 0.000000 0.007299
#
#
# Mechanical properties :
#
#
# Convention : Reuss Voigt Hill
#
# Bulk Modulus (GPa) = 38.80327 72.66764 55.73546
# Shear Modulus (GPa) = 68.81983 46.74745 57.78364
#
# Velocity S-wave (km/s) = 5.77810 4.76220 5.29457
# Velocity P-wave (km/s) = 7.95863 8.09266 8.02593
#
# Compressibility (1/GPa) = 0.02577102
#
# Stress axis : x y z
#
# Youngs Moduli (GPa) = 85.75250 66.18230 37.32841
#
# Poissons Ratio (x) = 0.03758 0.52549
# Poissons Ratio (y) = 0.04869 -0.02802
# Poissons Ratio (z) = 1.20719 -0.04968
#
# Static dielectric constant tensor:
#      x y z
#    x 1.781490 0.000000 0.000000 
#    y 0.000000 1.812220 0.000000 
#    z 0.000000 0.000000 1.675560 
# 
# From -- ./inp_files/21524.got.cif
#   From: 2010.05.17/outbox.cif.g08.bks.cpg/sg38_11_cif.got.tgz:21524.got - 2010.06.03 18:07:57.
