data_PCOD9357420
_publ_section_title
;
Structure prediction by ZEFSAII (Michael W. Deem and Ramdas Pophale) SiO2 
 PCOD9357420
Probable space group: A M M 2
;
_chemical_formula_sum "Si O2"
_cell_formula_units_Z 40
_cell_length_a 8.072573
_cell_length_b 29.816434
_cell_length_c 8.534472
_cell_angle_alpha 90.000000
_cell_angle_beta 90.000000
_cell_angle_gamma 90.000000
_cell_volume 2054.207640
_symmetry_space_group_name_H-M "A M M 2"
_symmetry_group_IT_number 38
_symmetry_cell_setting 'orthorhombic'
loop_
_space_group_symop_operation_xyz
x,y,z
-x,-y,z
-x,y,z
x,-y,z
x,1/2+y,1/2+z
-x,1/2-y,1/2+z
-x,1/2+y,1/2+z
x,1/2-y,1/2+z
loop_
_atom_site_type_symbol
_atom_site_label
_atom_site_fract_x
_atom_site_fract_y
_atom_site_fract_z
Si Si1 0.500000 0.551684 0.643281
Si Si2 0.689965 0.202395 0.643100
Si Si3 0.812254 0.389448 0.639911
Si Si4 0.500000 0.051690 0.759973
Si Si5 0.182956 0.608843 0.262003
Si Si6 0.194554 0.794249 0.297168
O O1 0.500000 0.500000 0.692963
O O2 0.334085 0.577782 0.694496
O O3 0.500000 0.552116 0.451561
O O4 0.500000 0.197752 0.694807
O O5 0.788550 0.159405 0.704750
O O6 0.703123 0.203006 0.456222
O O7 0.760602 0.249098 0.706234
O O8 0.812769 0.390622 0.451116
O O9 0.776956 0.338853 0.695499
O O10 0.000000 0.401360 0.692348
O O11 0.335038 0.077923 0.707861
O O12 0.500000 0.000000 0.710453
O O13 0.000000 0.593155 0.212471
O O14 0.000000 0.792989 0.338519
#
# Coordination Sequence:
#
# PCOD9357420 Si02
#       6
#     4   8   8   4   8   8
#     4   9  18  32  56  83 114 145 178 231 286 329
#     4  12  24  37  57  85 114 150 189 232 278 332
#     4   9  20  35  57  83 112 148 188 228 275 331
#     4   9  18  34  54  85 116 143 184 235 284 335
#     4  10  19  36  58  83 114 151 188 230 279 333
#     4  11  23  39  57  81 113 152 189 229 276 333
#
# _framework density 19.472228000000001
#
# number of rings (size 3 to 8) (size 9 to 14) (size 15 to 20)
#    0.000    1.800    1.000    3.600    2.800    2.400 
#    0.000    4.000    0.000    2.400    0.000    2.800 
#    0.000    0.000    0.000    0.000    0.000    0.000 
#
# Total GULP energy -111706.447785 kJ/mol
# GULP energy per Si atom -5585.322389 kJ/mol
# Density = 1.942791 g / cm^3
# Si number density = 19.472228 Si / 1000 Ang^3
#
#
#
# Elastic Constant Matrix: (Units=GPa)
#
#
# Indices 1 2 3 4 5 6 
#
# 1 158.4747 99.2961 20.1233 0.0000 0.0000 0.0000
# 2 99.2961 151.1715 10.4861 0.0000 0.0000 0.0000
# 3 20.1233 10.4861 6.0467 0.0000 0.0000 0.0000
# 4 0.0000 0.0000 0.0000 18.6485 0.0000 0.0000
# 5 0.0000 0.0000 0.0000 0.0000 11.8168 0.0000
# 6 0.0000 0.0000 0.0000 0.0000 0.0000 16.9136
#
#
#
# Elastic Compliance Matrix: (Units=1/GPa)
#
#
# Indices 1 2 3 4 5 6 
#
# 1 0.016578 -0.008028 -0.041250 0.000000 0.000000 0.000000
# 2 -0.008028 0.011407 0.006935 0.000000 0.000000 0.000000
# 3 -0.041250 0.006935 0.290631 0.000000 0.000000 0.000000
# 4 0.000000 0.000000 0.000000 0.053623 0.000000 0.000000
# 5 0.000000 0.000000 0.000000 0.000000 0.084625 0.000000
# 6 0.000000 0.000000 0.000000 0.000000 0.000000 0.059124
#
#
# Mechanical properties :
#
#
# Convention : Reuss Voigt Hill
#
# Bulk Modulus (GPa) = 4.27478 63.94488 34.10983
# Shear Modulus (GPa) = 7.36755 21.86162 14.61459
#
# Velocity S-wave (km/s) = 1.94726 3.35432 2.74256
# Velocity P-wave (km/s) = 2.69367 6.92187 5.25205
#
# Compressibility (1/GPa) = 0.23393040
#
# Stress axis : x y z
#
# Youngs Moduli (GPa) = 60.31997 87.66466 3.44079
#
# Poissons Ratio (x) = 0.70377 0.14193
# Poissons Ratio (y) = 0.48425 -0.02386
# Poissons Ratio (z) = 2.48819 -0.60796
#
# Static dielectric constant tensor:
#      x y z
#    x 1.698370 0.000000 0.000000 
#    y 0.000000 1.638930 0.000000 
#    z 0.000000 0.000000 1.667540 
# 
# From -- ./inp_files/3477.got.cif
#   From: 2010.05.17/outbox.cif.g08.bks.cpg/sg38_2_cif.got.tgz:3477.got - 2010.06.03 18:07:57.
