data_PCOD9357721
_publ_section_title
;
Structure prediction by ZEFSAII (Michael W. Deem and Ramdas Pophale) SiO2 
 PCOD9357721
Probable space group: A M M 2
;
_chemical_formula_sum "Si O2"
_cell_formula_units_Z 40
_cell_length_a 7.724212
_cell_length_b 9.471399
_cell_length_c 27.085671
_cell_angle_alpha 90.000000
_cell_angle_beta 90.000000
_cell_angle_gamma 90.000000
_cell_volume 1981.563146
_symmetry_space_group_name_H-M "A M M 2"
_symmetry_group_IT_number 38
_symmetry_cell_setting 'orthorhombic'
loop_
_space_group_symop_operation_xyz
x,y,z
-x,-y,z
-x,y,z
x,-y,z
x,1/2+y,1/2+z
-x,1/2-y,1/2+z
-x,1/2+y,1/2+z
x,1/2-y,1/2+z
loop_
_atom_site_type_symbol
_atom_site_label
_atom_site_fract_x
_atom_site_fract_y
_atom_site_fract_z
Si Si1 0.299445 0.671879 0.620020
Si Si2 0.205778 0.159319 0.823290
Si Si3 0.293430 0.158897 0.418899
Si Si4 0.290963 0.161658 0.227213
Si Si5 0.287351 0.163743 0.012288
O O1 0.500000 0.719023 0.619890
O O2 0.300047 0.500000 0.620022
O O3 0.223966 0.711384 0.673358
O O4 0.225749 0.712438 0.566656
O O5 0.265899 0.251586 0.869565
O O6 0.247745 0.237620 0.772277
O O7 0.000000 0.150583 0.826966
O O8 0.277635 0.000000 0.824698
O O9 0.500000 0.148633 0.425590
O O10 0.226642 0.241125 0.467043
O O11 0.223872 0.000000 0.414232
O O12 0.500000 0.155660 0.223404
O O13 0.231410 0.000000 0.236350
O O14 0.500000 0.165436 0.013518
O O15 0.237913 0.000000 0.004769
#
# Coordination Sequence:
#
# PCOD9357721 Si02
#       5
#     8   8   8   8   8
#     4   7  11  22  43  72 102 128 155 189 230 278
#     4  11  24  38  50  67  94 129 168 208 248 290
#     4  10  20  33  51  76 102 127 159 200 244 291
#     4   9  17  31  53  79 103 127 159 199 240 285
#     4   8  13  24  45  72 101 131 159 190 232 280
#
# _framework density 20.186084999999999
#
# number of rings (size 3 to 8) (size 9 to 14) (size 15 to 20)
#    0.000    3.000    0.000    4.200    0.000    5.600 
#    0.000    1.000    0.000    4.800    0.000    2.800 
#    0.000    0.000    0.000    0.000    0.000    0.000 
#
# Total GULP energy -111484.617960 kJ/mol
# GULP energy per Si atom -5574.230898 kJ/mol
# Density = 2.014014 g / cm^3
# Si number density = 20.186085 Si / 1000 Ang^3
#
#
#
# Elastic Constant Matrix: (Units=GPa)
#
#
# Indices 1 2 3 4 5 6 
#
# 1 31.5866 5.2619 0.5673 0.0000 0.0000 0.0000
# 2 5.2619 132.9066 114.6713 0.0000 0.0000 0.0000
# 3 0.5673 114.6713 231.9424 0.0000 0.0000 0.0000
# 4 0.0000 0.0000 0.0000 36.2519 0.0000 0.0000
# 5 0.0000 0.0000 0.0000 0.0000 -52.7736 0.0000
# 6 0.0000 0.0000 0.0000 0.0000 0.0000 -89.4619
#
#
#
# Elastic Compliance Matrix: (Units=1/GPa)
#
#
# Indices 1 2 3 4 5 6 
#
# 1 0.031990 -0.002091 0.000955 0.000000 0.000000 0.000000
# 2 -0.002091 0.013258 -0.006549 0.000000 0.000000 0.000000
# 3 0.000955 -0.006549 0.007547 0.000000 0.000000 0.000000
# 4 0.000000 0.000000 0.000000 0.027585 0.000000 0.000000
# 5 0.000000 0.000000 0.000000 0.000000 -0.018949 0.000000
# 6 0.000000 0.000000 0.000000 0.000000 0.000000 -0.011178
#
#
# Mechanical properties :
#
#
# Convention : Reuss Voigt Hill
#
# Bulk Modulus (GPa) = 26.71992 70.82631 48.77312
# Shear Modulus (GPa) = 64.02234 -2.80106 30.61064
#
# Velocity S-wave (km/s) = 5.63781 -1.17925 3.89835
# Velocity P-wave (km/s) = 7.45959 5.77137 6.66911
#
# Compressibility (1/GPa) = 0.03742526
#
# Stress axis : x y z
#
# Youngs Moduli (GPa) = 31.25957 75.42799 132.50152
#
# Poissons Ratio (x) = 0.15771 -0.12660
# Poissons Ratio (y) = 0.06536 0.86781
# Poissons Ratio (z) = -0.02987 0.49401
#
# Static dielectric constant tensor:
#      x y z
#    x 1.746260 0.000000 0.000000 
#    y 0.000000 1.699230 0.000000 
#    z 0.000000 0.000000 1.738280 
# 
# From -- ./inp_files/21668.got.cif
#   From: 2010.05.17/outbox.cif.g08.bks.cpg/sg38_11_cif.got.tgz:21668.got - 2010.06.03 18:07:57.
