data_PCOD9357869
_publ_section_title
;
Structure prediction by ZEFSAII (Michael W. Deem and Ramdas Pophale) SiO2 
 PCOD9357869
Probable space group: A M M 2
;
_chemical_formula_sum "Si O2"
_cell_formula_units_Z 64
_cell_length_a 20.959797
_cell_length_b 7.510506
_cell_length_c 19.255434
_cell_angle_alpha 90.000000
_cell_angle_beta 90.000000
_cell_angle_gamma 90.000000
_cell_volume 3031.165025
_symmetry_space_group_name_H-M "A M M 2"
_symmetry_group_IT_number 38
_symmetry_cell_setting 'orthorhombic'
loop_
_space_group_symop_operation_xyz
x,y,z
-x,-y,z
-x,y,z
x,-y,z
x,1/2+y,1/2+z
-x,1/2-y,1/2+z
-x,1/2+y,1/2+z
x,1/2-y,1/2+z
loop_
_atom_site_type_symbol
_atom_site_label
_atom_site_fract_x
_atom_site_fract_y
_atom_site_fract_z
Si Si1 0.695520 0.292862 0.907330
Si Si2 0.427424 0.215170 0.818391
Si Si3 0.072421 0.785348 0.910341
Si Si4 0.814689 0.792964 0.814028
Si Si5 0.928504 0.212250 0.570504
Si Si6 0.808510 0.218404 0.657588
Si Si7 0.427730 0.217058 0.659550
Si Si8 0.688360 0.218045 0.564884
O O1 0.712151 0.500000 0.912680
O O2 0.626985 0.275948 0.870656
O O3 0.750435 0.213092 0.859054
O O4 0.693294 0.220184 0.985550
O O5 0.500000 0.272499 0.835064
O O6 0.412844 0.271140 0.738946
O O7 0.427054 0.000000 0.819039
O O8 0.126247 0.716279 0.858003
O O9 0.000000 0.721329 0.896940
O O10 0.071142 0.000000 0.905737
O O11 0.089034 0.742002 0.990039
O O12 0.804248 0.719185 0.736974
O O13 0.830938 0.000000 0.803162
O O14 0.873937 0.278834 0.621562
O O15 0.000000 0.284666 0.581425
O O16 0.931687 0.000000 0.580802
O O17 0.748830 0.273252 0.610651
O O18 0.807293 0.000000 0.657032
O O19 0.500000 0.272856 0.643390
O O20 0.375576 0.276520 0.604413
O O21 0.427196 0.000000 0.659666
O O22 0.687053 0.000000 0.563559
#
# Coordination Sequence:
#
# PCOD9357869 Si02
#       8
#     8   8   8   8   8   8   8   8
#     4  11  22  33  49  75 105 133 162 203 252 299
#     4   9  18  34  56  78 100 130 167 204 243 292
#     4   9  18  32  50  74 103 132 162 199 247 303
#     4  10  20  34  53  73  96 131 170 208 250 295
#     4   9  17  30  50  74  98 126 161 202 247 293
#     4   9  17  30  49  71  93 121 163 210 246 280
#     4   8  14  27  49  73  93 118 157 199 234 276
#     4   9  17  28  44  68  96 124 156 198 243 284
#
# _framework density 21.113994000000002
#
# number of rings (size 3 to 8) (size 9 to 14) (size 15 to 20)
#    0.000    2.750    0.000    2.625    0.000    4.750 
#    0.000    4.375    0.000    7.500    0.000    3.500 
#    0.000    0.000    0.000    0.000    0.000    0.000 
#
# Total GULP energy -178664.385266 kJ/mol
# GULP energy per Si atom -5583.262040 kJ/mol
# Density = 2.106594 g / cm^3
# Si number density = 21.113994 Si / 1000 Ang^3
#
#
#
# Elastic Constant Matrix: (Units=GPa)
#
#
# Indices 1 2 3 4 5 6 
#
# 1 146.4394 -4.1049 135.4837 0.0000 0.0000 0.0000
# 2 -4.1049 52.9433 -1.9681 0.0000 0.0000 0.0000
# 3 135.4837 -1.9681 202.6842 0.0000 0.0000 0.0000
# 4 0.0000 0.0000 0.0000 29.2508 0.0000 0.0000
# 5 0.0000 0.0000 0.0000 0.0000 44.9462 0.0000
# 6 0.0000 0.0000 0.0000 0.0000 0.0000 -12.9796
#
#
#
# Elastic Compliance Matrix: (Units=1/GPa)
#
#
# Indices 1 2 3 4 5 6 
#
# 1 0.017944 0.000946 -0.011986 0.000000 0.000000 0.000000
# 2 0.000946 0.018945 -0.000448 0.000000 0.000000 0.000000
# 3 -0.011986 -0.000448 0.012941 0.000000 0.000000 0.000000
# 4 0.000000 0.000000 0.000000 0.034187 0.000000 0.000000
# 5 0.000000 0.000000 0.000000 0.000000 0.022249 0.000000
# 6 0.000000 0.000000 0.000000 0.000000 0.000000 -0.077044
#
#
# Mechanical properties :
#
#
# Convention : Reuss Voigt Hill
#
# Bulk Modulus (GPa) = 37.23833 73.43202 55.33518
# Shear Modulus (GPa) = 81.76743 30.42056 56.09399
#
# Velocity S-wave (km/s) = 6.22983 3.79987 5.15993
# Velocity P-wave (km/s) = 8.33203 7.35571 7.85904
#
# Compressibility (1/GPa) = 0.02685405
#
# Stress axis : x y z
#
# Youngs Moduli (GPa) = 55.72863 52.78493 77.27311
#
# Poissons Ratio (x) = -0.04992 0.92616
# Poissons Ratio (y) = -0.05270 0.03463
# Poissons Ratio (z) = 0.66794 0.02366
#
# Static dielectric constant tensor:
#      x y z
#    x 1.729870 0.000000 0.000000 
#    y 0.000000 1.808300 0.000000 
#    z 0.000000 0.000000 1.723600 
# 
# From -- ./inp_files/18876.got.cif
#   From: 2010.05.17/outbox.cif.g08.bks.cpg/sg38_10_cif.got.tgz:18876.got - 2010.06.03 18:07:57.
