data_PCOD9357791
_publ_section_title
;
Structure prediction by ZEFSAII (Michael W. Deem and Ramdas Pophale) SiO2 
 PCOD9357791
Probable space group: A M M 2
;
_chemical_formula_sum "Si O2"
_cell_formula_units_Z 32
_cell_length_a 7.595772
_cell_length_b 8.112032
_cell_length_c 24.316765
_cell_angle_alpha 90.000000
_cell_angle_beta 90.000000
_cell_angle_gamma 90.000000
_cell_volume 1498.329648
_symmetry_space_group_name_H-M "A M M 2"
_symmetry_group_IT_number 38
_symmetry_cell_setting 'orthorhombic'
loop_
_space_group_symop_operation_xyz
x,y,z
-x,-y,z
-x,y,z
x,-y,z
x,1/2+y,1/2+z
-x,1/2-y,1/2+z
-x,1/2+y,1/2+z
x,1/2-y,1/2+z
loop_
_atom_site_type_symbol
_atom_site_label
_atom_site_fract_x
_atom_site_fract_y
_atom_site_fract_z
Si Si1 0.706959 0.177412 0.977660
Si Si2 0.715784 0.500000 0.788005
Si Si3 0.291003 0.687752 0.218562
Si Si4 0.210651 0.188760 0.593498
Si Si5 0.284056 0.000000 0.415472
O O1 0.500000 0.172630 0.964098
O O2 0.780154 0.336728 0.946745
O O3 0.784325 0.000000 0.962553
O O4 0.722512 0.204676 0.042962
O O5 0.500000 0.500000 0.785439
O O6 0.777166 0.666515 0.757397
O O7 0.765273 0.500000 0.851769
O O8 0.500000 0.677117 0.228373
O O9 0.219667 0.500000 0.225524
O O10 0.264611 0.737442 0.154896
O O11 0.000000 0.189855 0.591350
O O12 0.273251 0.000000 0.585213
O O13 0.500000 0.000000 0.418167
#
# Coordination Sequence:
#
# PCOD9357791 Si02
#       5
#     8   4   8   8   4
#     4  10  20  33  53  79 105 139 177 214 262 316
#     4   9  18  32  53  79 105 137 176 215 258 311
#     4   9  18  32  51  76 105 137 172 214 261 310
#     4  10  20  34  53  77 108 141 174 217 266 314
#     4   9  18  34  53  77 109 137 172 223 264 305
#
# _framework density 21.357116999999999
#
# number of rings (size 3 to 8) (size 9 to 14) (size 15 to 20)
#    0.000    2.500    1.250    0.750    1.750    2.500 
#    0.000    5.000    0.000    3.000    0.000    3.500 
#    0.000    0.000    0.000    0.000    0.000    0.000 
#
# Total GULP energy -89323.019986 kJ/mol
# GULP energy per Si atom -5582.688749 kJ/mol
# Density = 2.130851 g / cm^3
# Si number density = 21.357117 Si / 1000 Ang^3
#
#
#
# Elastic Constant Matrix: (Units=GPa)
#
#
# Indices 1 2 3 4 5 6 
#
# 1 47.4211 9.2805 -9.1216 0.0000 0.0000 0.0000
# 2 9.2805 200.5884 121.9837 0.0000 0.0000 0.0000
# 3 -9.1216 121.9837 137.7225 0.0000 0.0000 0.0000
# 4 0.0000 0.0000 0.0000 29.5959 0.0000 0.0000
# 5 0.0000 0.0000 0.0000 0.0000 -72.6005 0.0000
# 6 0.0000 0.0000 0.0000 0.0000 0.0000 -4.6260
#
#
#
# Elastic Compliance Matrix: (Units=1/GPa)
#
#
# Indices 1 2 3 4 5 6 
#
# 1 0.022957 -0.004306 0.005335 0.000000 0.000000 0.000000
# 2 -0.004306 0.011613 -0.010571 0.000000 0.000000 0.000000
# 3 0.005335 -0.010571 0.016978 0.000000 0.000000 0.000000
# 4 0.000000 0.000000 0.000000 0.033789 0.000000 0.000000
# 5 0.000000 0.000000 0.000000 0.000000 -0.013774 0.000000
# 6 0.000000 0.000000 0.000000 0.000000 0.000000 -0.216171
#
#
# Mechanical properties :
#
#
# Convention : Reuss Voigt Hill
#
# Bulk Modulus (GPa) = 30.80583 70.00188 50.40385
# Shear Modulus (GPa) = -43.59092 8.04650 -17.77221
#
# Velocity S-wave (km/s) = -4.52270 1.94314 -2.88782
# Velocity P-wave (km/s) = 3.58017 6.15487 3.54011
#
# Compressibility (1/GPa) = 0.03246139
#
# Stress axis : x y z
#
# Youngs Moduli (GPa) = 43.56058 86.10799 58.90121
#
# Poissons Ratio (x) = 0.37080 -0.31421
# Poissons Ratio (y) = 0.18758 0.62267
# Poissons Ratio (z) = -0.23238 0.91028
#
# Static dielectric constant tensor:
#      x y z
#    x 1.771590 0.000000 0.000000 
#    y 0.000000 1.799900 0.000000 
#    z 0.000000 0.000000 1.716210 
# 
# From -- ./inp_files/20353.got.cif
#   From: 2010.05.17/outbox.cif.g08.bks.cpg/sg38_11_cif.got.tgz:20353.got - 2010.06.03 18:07:57.
