data_PCOD9357469
_publ_section_title
;
Structure prediction by ZEFSAII (Michael W. Deem and Ramdas Pophale) SiO2 
 PCOD9357469
Probable space group: A M M 2
;
_chemical_formula_sum "Si O2"
_cell_formula_units_Z 56
_cell_length_a 21.811527
_cell_length_b 8.649930
_cell_length_c 15.884304
_cell_angle_alpha 90.000000
_cell_angle_beta 90.000000
_cell_angle_gamma 90.000000
_cell_volume 2996.862754
_symmetry_space_group_name_H-M "A M M 2"
_symmetry_group_IT_number 38
_symmetry_cell_setting 'orthorhombic'
loop_
_space_group_symop_operation_xyz
x,y,z
-x,-y,z
-x,y,z
x,-y,z
x,1/2+y,1/2+z
-x,1/2-y,1/2+z
-x,1/2+y,1/2+z
x,1/2-y,1/2+z
loop_
_atom_site_type_symbol
_atom_site_label
_atom_site_fract_x
_atom_site_fract_y
_atom_site_fract_z
Si Si1 0.848385 0.312833 0.105590
Si Si2 0.070889 0.186500 0.764481
Si Si3 0.628582 0.815000 0.948909
Si Si4 0.929111 0.313493 0.946725
Si Si5 0.632218 0.186351 0.269442
Si Si6 0.711441 0.813258 0.107096
Si Si7 0.500000 0.183922 0.509122
Si Si8 0.500000 0.813289 0.198186
O O1 0.847520 0.500000 0.105572
O O2 0.885497 0.262290 0.188735
O O3 0.779615 0.251744 0.105801
O O4 0.885460 0.262266 0.022432
O O5 0.089486 0.250060 0.855589
O O6 0.000000 0.233458 0.749097
O O7 0.072071 0.000000 0.767206
O O8 0.650683 0.759183 0.857916
O O9 0.561204 0.747606 0.965813
O O10 0.625047 0.000000 0.950993
O O11 0.672935 0.764064 0.024926
O O12 0.927949 0.500000 0.944045
O O13 0.000000 0.266486 0.962108
O O14 0.674962 0.233670 0.191405
O O15 0.562084 0.229587 0.246694
O O16 0.634351 0.000000 0.276346
O O17 0.713667 0.000000 0.106619
O O18 0.500000 0.239899 0.605818
O O19 0.500000 0.000000 0.504560
O O20 0.500000 0.000000 0.187790
#
# Coordination Sequence:
#
# PCOD9357469 Si02
#       8
#     8   8   8   8   8   8   4   4
#     4  10  21  36  56  80 110 148 189 230 275 331
#     4   9  18  34  56  82 111 143 181 228 281 333
#     4  11  23  41  62  85 114 150 190 233 284 337
#     4   9  18  34  56  82 111 144 184 230 279 331
#     4  10  21  39  62  86 113 148 188 233 286 337
#     4  10  23  41  58  79 114 155 189 230 281 331
#     4  12  23  36  61  92 118 146 185 233 284 337
#     4  10  19  38  63  84 116 150 181 229 288 337
#
# _framework density 18.686205999999999
#
# number of rings (size 3 to 8) (size 9 to 14) (size 15 to 20)
#    0.000    2.000    1.429    1.929    0.000    6.857 
#    0.000    5.714    0.000    4.286    0.000    0.000 
#    0.000    0.000    0.000    0.000    0.000    0.000 
#
# Total GULP energy -156400.748918 kJ/mol
# GULP energy per Si atom -5585.741033 kJ/mol
# Density = 1.864368 g / cm^3
# Si number density = 18.686206 Si / 1000 Ang^3
#
#
#
# Elastic Constant Matrix: (Units=GPa)
#
#
# Indices 1 2 3 4 5 6 
#
# 1 145.4971 27.5185 114.4692 0.0000 0.0000 0.0000
# 2 27.5185 15.3800 39.0960 0.0000 0.0000 0.0000
# 3 114.4692 39.0960 201.7629 0.0000 0.0000 0.0000
# 4 0.0000 0.0000 0.0000 32.9046 0.0000 0.0000
# 5 0.0000 0.0000 0.0000 0.0000 0.4394 0.0000
# 6 0.0000 0.0000 0.0000 0.0000 0.0000 31.3803
#
#
#
# Elastic Compliance Matrix: (Units=1/GPa)
#
#
# Indices 1 2 3 4 5 6 
#
# 1 0.013003 -0.008893 -0.005654 0.000000 0.000000 0.000000
# 2 -0.008893 0.134217 -0.020962 0.000000 0.000000 0.000000
# 3 -0.005654 -0.020962 0.012226 0.000000 0.000000 0.000000
# 4 0.000000 0.000000 0.000000 0.030391 0.000000 0.000000
# 5 0.000000 0.000000 0.000000 0.000000 2.275665 0.000000
# 6 0.000000 0.000000 0.000000 0.000000 0.000000 0.031867
#
#
# Mechanical properties :
#
#
# Convention : Reuss Voigt Hill
#
# Bulk Modulus (GPa) = 11.30868 80.53414 45.92141
# Shear Modulus (GPa) = 1.92466 25.04861 13.48663
#
# Velocity S-wave (km/s) = 1.01598 3.66524 2.68944
# Velocity P-wave (km/s) = 2.72788 7.81689 5.85427
#
# Compressibility (1/GPa) = 0.08842761
#
# Stress axis : x y z
#
# Youngs Moduli (GPa) = 76.90305 7.45062 81.79303
#
# Poissons Ratio (x) = 0.06626 0.46247
# Poissons Ratio (y) = 0.68393 1.71454
# Poissons Ratio (z) = 0.43482 0.15618
#
# Static dielectric constant tensor:
#      x y z
#    x 1.619730 0.000000 0.000000 
#    y 0.000000 1.637490 0.000000 
#    z 0.000000 0.000000 1.636230 
# 
# From -- ./inp_files/15519.got.cif
#   From: 2010.05.17/outbox.cif.g08.bks.cpg/sg38_8_cif.got.tgz:15519.got - 2010.06.03 18:07:57.
