data_PCOD9357234
_publ_section_title
;
Structure prediction by ZEFSAII (Michael W. Deem and Ramdas Pophale) SiO2 
 PCOD9357234
Probable space group: A M M 2
;
_chemical_formula_sum "Si O2"
_cell_formula_units_Z 64
_cell_length_a 9.402250
_cell_length_b 28.689024
_cell_length_c 12.769444
_cell_angle_alpha 90.000000
_cell_angle_beta 90.000000
_cell_angle_gamma 90.000000
_cell_volume 3444.447394
_symmetry_space_group_name_H-M "A M M 2"
_symmetry_group_IT_number 38
_symmetry_cell_setting 'orthorhombic'
loop_
_space_group_symop_operation_xyz
x,y,z
-x,-y,z
-x,y,z
x,-y,z
x,1/2+y,1/2+z
-x,1/2-y,1/2+z
-x,1/2+y,1/2+z
x,1/2-y,1/2+z
loop_
_atom_site_type_symbol
_atom_site_label
_atom_site_fract_x
_atom_site_fract_y
_atom_site_fract_z
Si Si1 0.330852 0.198318 0.402380
Si Si2 0.335563 0.416630 0.740259
Si Si3 0.833295 0.786236 0.969411
Si Si4 0.165261 0.175674 0.204107
Si Si5 0.665822 0.949416 0.013809
Si Si6 0.828609 0.445844 0.172802
Si Si7 0.828936 0.619199 0.368965
Si Si8 0.667743 0.408419 0.970795
O O1 0.500000 0.202595 0.398318
O O2 0.260049 0.240066 0.465650
O O3 0.261773 0.202738 0.287321
O O4 0.298751 0.146416 0.447820
O O5 0.500000 0.397998 0.742790
O O6 0.223910 0.376371 0.715461
O O7 0.327643 0.449155 0.639762
O O8 0.309219 0.433611 0.858235
O O9 0.789768 0.826524 0.886064
O O10 0.000000 0.775094 0.951209
O O11 0.820629 0.807896 0.085178
O O12 0.000000 0.178964 0.233944
O O13 0.500000 0.942288 0.986134
O O14 0.712521 0.000000 0.974280
O O15 0.759224 0.909479 0.963333
O O16 0.789751 0.500000 0.196650
O O17 0.787327 0.408771 0.263681
O O18 0.758118 0.429756 0.064301
O O19 0.000000 0.444189 0.164243
O O20 0.000000 0.617284 0.377270
O O21 0.500000 0.411653 0.996137
#
# Coordination Sequence:
#
# PCOD9357234 Si02
#       8
#     8   8   8   8   8   8   8   8
#     4  10  22  38  57  84 116 152 193 238 294 352
#     4   9  18  34  55  79 109 144 182 227 284 342
#     4  10  21  36  57  85 113 148 195 241 291 349
#     4  10  19  34  56  80 110 144 183 232 284 340
#     4  10  20  33  53  83 114 143 181 230 283 341
#     4  10  22  39  59  83 114 155 198 244 296 347
#     4  10  21  39  58  80 113 151 193 238 288 349
#     4   9  20  38  58  81 111 149 192 236 285 344
#
# _framework density 18.580628999999998
#
# number of rings (size 3 to 8) (size 9 to 14) (size 15 to 20)
#    0.000    2.250    1.250    1.875    0.000    7.000 
#    0.000    5.000    0.000    0.000    0.000    0.000 
#    0.000    0.000    0.000    0.000    0.000    0.000 
#
# Total GULP energy -178356.884457 kJ/mol
# GULP energy per Si atom -5573.652639 kJ/mol
# Density = 1.853834 g / cm^3
# Si number density = 18.580629 Si / 1000 Ang^3
#
#
#
# Elastic Constant Matrix: (Units=GPa)
#
#
# Indices 1 2 3 4 5 6 
#
# 1 33.2794 22.5598 26.4170 0.0000 0.0000 0.0000
# 2 22.5598 46.3890 12.9812 0.0000 0.0000 0.0000
# 3 26.4170 12.9812 81.0655 0.0000 0.0000 0.0000
# 4 0.0000 0.0000 0.0000 12.3079 0.0000 0.0000
# 5 0.0000 0.0000 0.0000 0.0000 33.1606 0.0000
# 6 0.0000 0.0000 0.0000 0.0000 0.0000 22.3131
#
#
#
# Elastic Compliance Matrix: (Units=1/GPa)
#
#
# Indices 1 2 3 4 5 6 
#
# 1 0.058518 -0.024207 -0.015193 0.000000 0.000000 0.000000
# 2 -0.024207 0.032582 0.002671 0.000000 0.000000 0.000000
# 3 -0.015193 0.002671 0.016859 0.000000 0.000000 0.000000
# 4 0.000000 0.000000 0.000000 0.081249 0.000000 0.000000
# 5 0.000000 0.000000 0.000000 0.000000 0.030156 0.000000
# 6 0.000000 0.000000 0.000000 0.000000 0.000000 0.044817
#
#
# Mechanical properties :
#
#
# Convention : Reuss Voigt Hill
#
# Bulk Modulus (GPa) = 28.98484 31.62776 30.30630
# Shear Modulus (GPa) = 14.32092 20.14138 17.23115
#
# Velocity S-wave (km/s) = 2.77924 3.29599 3.04858
# Velocity P-wave (km/s) = 5.09237 5.61636 5.36077
#
# Compressibility (1/GPa) = 0.03450080
#
# Stress axis : x y z
#
# Youngs Moduli (GPa) = 17.08862 30.69213 59.31541
#
# Poissons Ratio (x) = 0.74296 0.90119
# Poissons Ratio (y) = 0.41366 -0.15843
# Poissons Ratio (z) = 0.25963 -0.08198
#
# Static dielectric constant tensor:
#      x y z
#    x 1.614430 0.000000 0.000000 
#    y 0.000000 1.668480 0.000000 
#    z 0.000000 0.000000 1.653960 
# 
# From -- ./inp_files/8683.got.cif
#   From: 2010.05.17/outbox.cif.g08.bks.cpg/sg38_5_cif.got.tgz:8683.got - 2010.06.03 18:07:57.
