data_PCOD9357715
_publ_section_title
;
Structure prediction by ZEFSAII (Michael W. Deem and Ramdas Pophale) SiO2 
 PCOD9357715
Probable space group: A M M 2
;
_chemical_formula_sum "Si O2"
_cell_formula_units_Z 56
_cell_length_a 8.552381
_cell_length_b 17.231278
_cell_length_c 20.211816
_cell_angle_alpha 90.000000
_cell_angle_beta 90.000000
_cell_angle_gamma 90.000000
_cell_volume 2978.584088
_symmetry_space_group_name_H-M "A M M 2"
_symmetry_group_IT_number 38
_symmetry_cell_setting 'orthorhombic'
loop_
_space_group_symop_operation_xyz
x,y,z
-x,-y,z
-x,y,z
x,-y,z
x,1/2+y,1/2+z
-x,1/2-y,1/2+z
-x,1/2+y,1/2+z
x,1/2-y,1/2+z
loop_
_atom_site_type_symbol
_atom_site_label
_atom_site_fract_x
_atom_site_fract_y
_atom_site_fract_z
Si Si1 0.684281 0.084912 0.414910
Si Si2 0.687454 0.000000 0.880978
Si Si3 0.186814 0.341057 0.318310
Si Si4 0.309744 0.000000 0.036574
Si Si5 0.310716 0.168975 0.069095
Si Si6 0.813259 0.742229 0.944690
Si Si7 0.315125 0.760019 0.203377
Si Si8 0.184907 0.413201 0.768359
O O1 0.500000 0.091100 0.399637
O O2 0.738027 0.158462 0.456055
O O3 0.779915 0.087970 0.346575
O O4 0.711098 0.000000 0.445546
O O5 0.744739 0.077066 0.842894
O O6 0.500000 0.000000 0.881972
O O7 0.740003 0.000000 0.958685
O O8 0.234273 0.276822 0.373320
O O9 0.239142 0.307330 0.247591
O O10 0.000000 0.347097 0.319382
O O11 0.259811 0.921033 0.072963
O O12 0.500000 0.000000 0.035601
O O13 0.500000 0.169997 0.068995
O O14 0.247584 0.199960 0.000104
O O15 0.257479 0.224690 0.128623
O O16 0.000000 0.736653 0.946083
O O17 0.500000 0.746147 0.202324
O O18 0.279799 0.843206 0.236899
O O19 0.228427 0.500000 0.744685
O O20 0.000000 0.401233 0.757545
#
# Coordination Sequence:
#
# PCOD9357715 Si02
#       8
#     8   4   8   4   8   8   8   8
#     4  10  20  34  56  84 111 143 188 240 288 339
#     4  11  21  37  67  95 119 152 203 258 309 363
#     4  11  23  39  60  88 124 158 198 249 304 363
#     4   9  18  35  59  89 123 158 193 244 305 357
#     4  10  22  39  59  85 120 158 200 247 299 363
#     4  11  22  36  58  86 117 155 194 241 298 360
#     4  11  23  37  59  86 116 158 203 246 293 354
#     4  10  20  33  50  77 115 152 186 227 277 334
#
# _framework density 18.800878999999998
#
# number of rings (size 3 to 8) (size 9 to 14) (size 15 to 20)
#    0.000    1.571    2.857    2.357    1.000    4.000 
#    0.000    0.357    1.571    0.000    0.000    0.000 
#    0.000    0.000    0.000    0.000    0.000    0.000 
#
# Total GULP energy -156297.798323 kJ/mol
# GULP energy per Si atom -5582.064226 kJ/mol
# Density = 1.875809 g / cm^3
# Si number density = 18.800879 Si / 1000 Ang^3
#
#
#
# Elastic Constant Matrix: (Units=GPa)
#
#
# Indices 1 2 3 4 5 6 
#
# 1 28.3631 21.3358 15.0118 0.0000 0.0000 0.0000
# 2 21.3358 98.4032 20.3035 0.0000 0.0000 0.0000
# 3 15.0118 20.3035 65.4730 0.0000 0.0000 0.0000
# 4 0.0000 0.0000 0.0000 22.8966 0.0000 0.0000
# 5 0.0000 0.0000 0.0000 0.0000 6.3948 0.0000
# 6 0.0000 0.0000 0.0000 0.0000 0.0000 24.6656
#
#
#
# Elastic Compliance Matrix: (Units=1/GPa)
#
#
# Indices 1 2 3 4 5 6 
#
# 1 0.045661 -0.008269 -0.007905 0.000000 0.000000 0.000000
# 2 -0.008269 0.012355 -0.001935 0.000000 0.000000 0.000000
# 3 -0.007905 -0.001935 0.017686 0.000000 0.000000 0.000000
# 4 0.000000 0.000000 0.000000 0.043675 0.000000 0.000000
# 5 0.000000 0.000000 0.000000 0.000000 0.156378 0.000000
# 6 0.000000 0.000000 0.000000 0.000000 0.000000 0.040542
#
#
# Mechanical properties :
#
#
# Convention : Reuss Voigt Hill
#
# Bulk Modulus (GPa) = 25.32734 33.94906 29.63820
# Shear Modulus (GPa) = 13.67327 19.83061 16.75194
#
# Velocity S-wave (km/s) = 2.69972 3.25125 2.98823
# Velocity P-wave (km/s) = 4.81856 5.67367 5.26351
#
# Compressibility (1/GPa) = 0.03948302
#
# Stress axis : x y z
#
# Youngs Moduli (GPa) = 21.90037 80.94214 56.54173
#
# Poissons Ratio (x) = 0.66933 0.44696
# Poissons Ratio (y) = 0.18110 0.10942
# Poissons Ratio (z) = 0.17312 0.15664
#
# Static dielectric constant tensor:
#      x y z
#    x 1.659420 0.000000 0.000000 
#    y 0.000000 1.679320 0.000000 
#    z 0.000000 0.000000 1.649610 
# 
# From -- ./inp_files/19844.got.cif
#   From: 2010.05.17/outbox.cif.g08.bks.cpg/sg38_10_cif.got.tgz:19844.got - 2010.06.03 18:07:57.
