data_PCOD9357395
_publ_section_title
;
Structure prediction by ZEFSAII (Michael W. Deem and Ramdas Pophale) SiO2 
 PCOD9357395
Probable space group: A M M 2
;
_chemical_formula_sum "Si O2"
_cell_formula_units_Z 20
_cell_length_a 5.580905
_cell_length_b 10.957627
_cell_length_c 13.302382
_cell_angle_alpha 90.000000
_cell_angle_beta 90.000000
_cell_angle_gamma 90.000000
_cell_volume 813.486889
_symmetry_space_group_name_H-M "A M M 2"
_symmetry_group_IT_number 38
_symmetry_cell_setting 'orthorhombic'
loop_
_space_group_symop_operation_xyz
x,y,z
-x,-y,z
-x,y,z
x,-y,z
x,1/2+y,1/2+z
-x,1/2-y,1/2+z
-x,1/2+y,1/2+z
x,1/2-y,1/2+z
loop_
_atom_site_type_symbol
_atom_site_label
_atom_site_fract_x
_atom_site_fract_y
_atom_site_fract_z
Si Si1 0.500000 0.705603 0.817040
Si Si2 0.500000 0.856491 0.635756
Si Si3 0.000000 0.267271 0.374088
Si Si4 0.000000 0.500000 0.519907
Si Si5 0.000000 0.646676 0.142735
Si Si6 0.500000 0.500000 0.646762
O O1 0.500000 0.835579 0.757202
O O2 0.747931 0.694284 0.877186
O O3 0.500000 0.613542 0.723512
O O4 0.752019 0.805551 0.598527
O O5 0.500000 0.000000 0.614975
O O6 0.000000 0.381285 0.448408
O O7 0.000000 0.315565 0.258755
O O8 0.750327 0.500000 0.584174
O O9 0.000000 0.500000 0.136113
#
# Coordination Sequence:
#
# PCOD9357395 Si02
#       6
#     4   4   4   2   4   2
#     4  10  21  36  59  88 131 173 220 260 326 409
#     4   8  14  23  44  73 101 137 190 256 287 330
#     4  10  19  35  61  93 114 169 226 279 300 392
#     4  12  24  40  68 102 138 162 224 294 350 374
#     4   8  12  21  38  69 106 120 170 245 302 310
#     4  12  26  42  58 102 148 178 196 280 370 406
#
# _framework density 24.585521
#
# number of rings (size 3 to 8) (size 9 to 14) (size 15 to 20)
#    0.000    2.400    1.000    2.400    2.800    0.000 
#    0.000    0.000    0.000    0.000   15.600    0.000 
#    0.000    0.000    0.000    0.000    0.000    0.000 
#
# Total GULP energy -55789.460651 kJ/mol
# GULP energy per Si atom -5578.946065 kJ/mol
# Density = 2.452956 g / cm^3
# Si number density = 24.585521 Si / 1000 Ang^3
#
#
#
# Elastic Constant Matrix: (Units=GPa)
#
#
# Indices 1 2 3 4 5 6 
#
# 1 353.2826 22.6429 61.0719 0.0000 0.0000 0.0000
# 2 22.6429 66.5703 28.8947 0.0000 0.0000 0.0000
# 3 61.0719 28.8947 146.9885 0.0000 0.0000 0.0000
# 4 0.0000 0.0000 0.0000 46.0865 0.0000 0.0000
# 5 0.0000 0.0000 0.0000 0.0000 -1.1987 0.0000
# 6 0.0000 0.0000 0.0000 0.0000 0.0000 -31.1929
#
#
#
# Elastic Compliance Matrix: (Units=1/GPa)
#
#
# Indices 1 2 3 4 5 6 
#
# 1 0.003067 -0.000536 -0.001169 0.000000 0.000000 0.000000
# 2 -0.000536 0.016517 -0.003024 0.000000 0.000000 0.000000
# 3 -0.001169 -0.003024 0.007883 0.000000 0.000000 0.000000
# 4 0.000000 0.000000 0.000000 0.021698 0.000000 0.000000
# 5 0.000000 0.000000 0.000000 0.000000 -0.834237 0.000000
# 6 0.000000 0.000000 0.000000 0.000000 0.000000 -0.032059
#
#
# Mechanical properties :
#
#
# Convention : Reuss Voigt Hill
#
# Bulk Modulus (GPa) = 55.52741 88.00672 71.76707
# Shear Modulus (GPa) = -6.23699 33.02112 13.39207
#
# Velocity S-wave (km/s) = -1.59448 3.66883 2.33644
# Velocity P-wave (km/s) = 4.38687 7.33627 6.04423
#
# Compressibility (1/GPa) = 0.01800912
#
# Stress axis : x y z
#
# Youngs Moduli (GPa) = 326.04962 60.54511 126.84821
#
# Poissons Ratio (x) = 0.03244 0.14828
# Poissons Ratio (y) = 0.17470 0.38361
# Poissons Ratio (z) = 0.38115 0.18310
#
# Static dielectric constant tensor:
#      x y z
#    x 2.133020 0.000000 0.000000 
#    y 0.000000 1.951280 0.000000 
#    z 0.000000 0.000000 1.901190 
# 
# From -- ./inp_files/10985.got.cif
#   From: 2010.05.17/outbox.cif.g08.bks.cpg/sg38_6_cif.got.tgz:10985.got - 2010.06.03 18:07:57.
