data_PCOD9357109
_publ_section_title
;
Structure prediction by ZEFSAII (Michael W. Deem and Ramdas Pophale) SiO2 
 PCOD9357109
Probable space group: A M M 2
;
_chemical_formula_sum "Si O2"
_cell_formula_units_Z 64
_cell_length_a 9.150742
_cell_length_b 33.588048
_cell_length_c 11.734684
_cell_angle_alpha 90.000000
_cell_angle_beta 90.000000
_cell_angle_gamma 90.000000
_cell_volume 3606.720390
_symmetry_space_group_name_H-M "A M M 2"
_symmetry_group_IT_number 38
_symmetry_cell_setting 'orthorhombic'
loop_
_space_group_symop_operation_xyz
x,y,z
-x,-y,z
-x,y,z
x,-y,z
x,1/2+y,1/2+z
-x,1/2-y,1/2+z
-x,1/2+y,1/2+z
x,1/2-y,1/2+z
loop_
_atom_site_type_symbol
_atom_site_label
_atom_site_fract_x
_atom_site_fract_y
_atom_site_fract_z
Si Si1 0.674833 0.847888 0.077340
Si Si2 0.176697 0.046728 0.450768
Si Si3 0.169211 0.276219 0.451000
Si Si4 0.676052 0.619617 0.826735
Si Si5 0.831394 0.826044 0.719491
Si Si6 0.672496 0.604770 0.350509
Si Si7 0.325393 0.194217 0.488482
Si Si8 0.833507 0.452524 0.209678
O O1 0.500000 0.839929 0.078672
O O2 0.716794 0.865314 0.200077
O O3 0.756732 0.807720 0.037983
O O4 0.703371 0.880578 0.978560
O O5 0.248358 0.078758 0.366663
O O6 0.216869 0.058478 0.581412
O O7 0.000000 0.048631 0.444047
O O8 0.217431 0.000000 0.431722
O O9 0.173565 0.296205 0.326454
O O10 0.254223 0.234896 0.444788
O O11 0.000000 0.269844 0.483367
O O12 0.500000 0.614242 0.829067
O O13 0.713735 0.655587 0.913109
O O14 0.760403 0.866131 0.766937
O O15 0.736777 0.811411 0.614572
O O16 0.000000 0.831505 0.685610
O O17 0.500000 0.608548 0.332215
O O18 0.730874 0.562418 0.310533
O O19 0.500000 0.197716 0.488403
O O20 0.838685 0.500000 0.208822
O O21 0.000000 0.437842 0.226204
#
# Coordination Sequence:
#
# PCOD9357109 Si02
#       8
#     8   8   8   8   8   8   8   8
#     4   9  20  39  57  76 108 148 186 226 275 331
#     4   9  19  36  57  82 112 146 182 225 280 333
#     4  10  22  38  56  80 107 140 183 228 276 328
#     4  10  22  38  56  82 110 145 189 229 275 331
#     4  10  21  37  55  77 106 139 177 220 268 325
#     4  10  19  33  55  79 105 139 179 223 271 324
#     4  11  23  36  55  82 111 141 180 229 277 330
#     4   9  18  33  54  80 111 144 177 221 278 334
#
# _framework density 17.744651999999999
#
# number of rings (size 3 to 8) (size 9 to 14) (size 15 to 20)
#    0.000    2.250    0.000    3.000    1.750    6.500 
#    0.000    1.875    0.000    3.750    0.000    0.000 
#    0.000    0.000    0.000    0.000    0.000    0.000 
#
# Total GULP energy -178520.055545 kJ/mol
# GULP energy per Si atom -5578.751736 kJ/mol
# Density = 1.770426 g / cm^3
# Si number density = 17.744652 Si / 1000 Ang^3
#
#
#
# Elastic Constant Matrix: (Units=GPa)
#
#
# Indices 1 2 3 4 5 6 
#
# 1 61.5977 44.5332 40.4438 0.0000 0.0000 0.0000
# 2 44.5332 90.3378 49.4581 0.0000 0.0000 0.0000
# 3 40.4438 49.4581 52.9819 0.0000 0.0000 0.0000
# 4 0.0000 0.0000 0.0000 17.9733 0.0000 0.0000
# 5 0.0000 0.0000 0.0000 0.0000 26.5329 0.0000
# 6 0.0000 0.0000 0.0000 0.0000 0.0000 36.4002
#
#
#
# Elastic Compliance Matrix: (Units=1/GPa)
#
#
# Indices 1 2 3 4 5 6 
#
# 1 0.033688 -0.005171 -0.020889 0.000000 0.000000 0.000000
# 2 -0.005171 0.023434 -0.017928 0.000000 0.000000 0.000000
# 3 -0.020889 -0.017928 0.051556 0.000000 0.000000 0.000000
# 4 0.000000 0.000000 0.000000 0.055638 0.000000 0.000000
# 5 0.000000 0.000000 0.000000 0.000000 0.037689 0.000000
# 6 0.000000 0.000000 0.000000 0.000000 0.000000 0.027472
#
#
# Mechanical properties :
#
#
# Convention : Reuss Voigt Hill
#
# Bulk Modulus (GPa) = 48.30482 52.64307 50.47394
# Shear Modulus (GPa) = 15.41532 20.88012 18.14772
#
# Velocity S-wave (km/s) = 2.95062 3.43403 3.20146
# Velocity P-wave (km/s) = 6.23614 6.74202 6.49401
#
# Compressibility (1/GPa) = 0.02070187
#
# Stress axis : x y z
#
# Youngs Moduli (GPa) = 29.68439 42.67338 19.39651
#
# Poissons Ratio (x) = 0.22065 0.40517
# Poissons Ratio (y) = 0.15349 0.34774
# Poissons Ratio (z) = 0.62007 0.76506
#
# Static dielectric constant tensor:
#      x y z
#    x 1.596690 0.000000 0.000000 
#    y 0.000000 1.632160 0.000000 
#    z 0.000000 0.000000 1.594130 
# 
# From -- ./inp_files/8537.got.cif
#   From: 2010.05.17/outbox.cif.g08.bks.cpg/sg38_5_cif.got.tgz:8537.got - 2010.06.03 18:07:57.
