data_PCOD9357590
_publ_section_title
;
Structure prediction by ZEFSAII (Michael W. Deem and Ramdas Pophale) SiO2 
 PCOD9357590
Probable space group: A M M 2
;
_chemical_formula_sum "Si O2"
_cell_formula_units_Z 64
_cell_length_a 16.051490
_cell_length_b 9.988200
_cell_length_c 23.593088
_cell_angle_alpha 90.000000
_cell_angle_beta 90.000000
_cell_angle_gamma 90.000000
_cell_volume 3782.573451
_symmetry_space_group_name_H-M "A M M 2"
_symmetry_group_IT_number 38
_symmetry_cell_setting 'orthorhombic'
loop_
_space_group_symop_operation_xyz
x,y,z
-x,-y,z
-x,y,z
x,-y,z
x,1/2+y,1/2+z
-x,1/2-y,1/2+z
-x,1/2+y,1/2+z
x,1/2-y,1/2+z
loop_
_atom_site_type_symbol
_atom_site_label
_atom_site_fract_x
_atom_site_fract_y
_atom_site_fract_z
Si Si1 0.400976 0.840953 0.942960
Si Si2 0.904406 0.662976 0.934352
Si Si3 0.267622 0.840953 0.376248
Si Si4 0.594916 0.651742 0.173676
Si Si5 0.900916 0.648543 0.060262
Si Si6 0.183554 0.646807 0.635388
Si Si7 0.708844 0.153041 0.242613
Si Si8 0.363009 0.651693 0.575748
O O1 0.500000 0.810603 0.935099
O O2 0.338702 0.748363 0.906422
O O3 0.389459 0.000000 0.930181
O O4 0.377856 0.822988 0.009519
O O5 0.907942 0.500000 0.935762
O O6 0.826091 0.699366 0.895366
O O7 0.000000 0.706743 0.920613
O O8 0.880783 0.706967 0.998230
O O9 0.273344 0.828554 0.308434
O O10 0.278706 0.000000 0.390363
O O11 0.500000 0.644928 0.192568
O O12 0.626921 0.500000 0.166517
O O13 0.646118 0.737221 0.218824
O O14 0.597963 0.734389 0.115061
O O15 0.863579 0.500000 0.064500
O O16 0.873380 0.738073 0.111863
O O17 0.000000 0.637395 0.059912
O O18 0.145421 0.500000 0.628697
O O19 0.212602 0.663343 0.700146
O O20 0.266914 0.651457 0.596345
O O21 0.676823 0.000000 0.234189
O O22 0.394600 0.500000 0.587691
#
# Coordination Sequence:
#
# PCOD9357590 Si02
#       8
#     8   8   8   8   8   8   8   8
#     4  10  21  35  51  74 106 142 173 203 250 309
#     4   8  15  30  53  79 103 127 160 205 255 304
#     4  10  20  35  55  76  99 132 176 220 254 291
#     4  10  20  32  49  74  98 123 163 212 254 294
#     4   9  17  29  47  73 102 128 154 188 239 304
#     4   9  17  30  48  70  95 123 159 202 245 292
#     4   9  20  36  50  68  96 130 168 206 249 301
#     4   9  18  33  52  73  99 131 164 200 250 309
#
# _framework density 16.919698
#
# number of rings (size 3 to 8) (size 9 to 14) (size 15 to 20)
#    0.000    2.750    0.000    3.000    0.000    5.500 
#    0.000    3.125    0.000    3.375    0.000    0.000 
#    0.000    0.000    0.000    0.000    0.000    0.000 
#
# Total GULP energy -178143.278504 kJ/mol
# GULP energy per Si atom -5566.977453 kJ/mol
# Density = 1.688119 g / cm^3
# Si number density = 16.919698 Si / 1000 Ang^3
#
#
#
# Elastic Constant Matrix: (Units=GPa)
#
#
# Indices 1 2 3 4 5 6 
#
# 1 48.8221 38.1454 52.0566 0.0000 0.0000 0.0000
# 2 38.1454 92.3835 66.7822 0.0000 0.0000 0.0000
# 3 52.0566 66.7822 110.5093 0.0000 0.0000 0.0000
# 4 0.0000 0.0000 0.0000 16.7065 0.0000 0.0000
# 5 0.0000 0.0000 0.0000 0.0000 5.5176 0.0000
# 6 0.0000 0.0000 0.0000 0.0000 0.0000 35.9812
#
#
#
# Elastic Compliance Matrix: (Units=1/GPa)
#
#
# Indices 1 2 3 4 5 6 
#
# 1 0.042661 -0.005483 -0.016782 0.000000 0.000000 0.000000
# 2 -0.005483 0.019926 -0.009459 0.000000 0.000000 0.000000
# 3 -0.016782 -0.009459 0.022670 0.000000 0.000000 0.000000
# 4 0.000000 0.000000 0.000000 0.059857 0.000000 0.000000
# 5 0.000000 0.000000 0.000000 0.000000 0.181238 0.000000
# 6 0.000000 0.000000 0.000000 0.000000 0.000000 0.027792
#
#
# Mechanical properties :
#
#
# Convention : Reuss Voigt Hill
#
# Bulk Modulus (GPa) = 45.85257 62.85368 54.35313
# Shear Modulus (GPa) = 11.76853 17.95643 14.86248
#
# Velocity S-wave (km/s) = 2.64019 3.26125 2.96702
# Velocity P-wave (km/s) = 6.03764 7.17007 6.62808
#
# Compressibility (1/GPa) = 0.02180903
#
# Stress axis : x y z
#
# Youngs Moduli (GPa) = 23.44080 50.18608 44.11050
#
# Poissons Ratio (x) = 0.27518 0.74027
# Poissons Ratio (y) = 0.12853 0.41722
# Poissons Ratio (z) = 0.39339 0.47469
#
# Static dielectric constant tensor:
#      x y z
#    x 1.584050 0.000000 0.000000 
#    y 0.000000 1.587800 0.000000 
#    z 0.000000 0.000000 1.560120 
# 
# From -- ./inp_files/23115.got.cif
#   From: 2010.05.17/outbox.cif.g08.bks.cpg/sg38_12_cif.got.tgz:23115.got - 2010.06.03 18:07:57.
