data_PCOD9357883
_publ_section_title
;
Structure prediction by ZEFSAII (Michael W. Deem and Ramdas Pophale) SiO2 
 PCOD9357883
Probable space group: A M M 2
;
_chemical_formula_sum "Si O2"
_cell_formula_units_Z 64
_cell_length_a 15.482157
_cell_length_b 9.606315
_cell_length_c 21.033656
_cell_angle_alpha 90.000000
_cell_angle_beta 90.000000
_cell_angle_gamma 90.000000
_cell_volume 3128.261556
_symmetry_space_group_name_H-M "A M M 2"
_symmetry_group_IT_number 38
_symmetry_cell_setting 'orthorhombic'
loop_
_space_group_symop_operation_xyz
x,y,z
-x,-y,z
-x,y,z
x,-y,z
x,1/2+y,1/2+z
-x,1/2-y,1/2+z
-x,1/2+y,1/2+z
x,1/2-y,1/2+z
loop_
_atom_site_type_symbol
_atom_site_label
_atom_site_fract_x
_atom_site_fract_y
_atom_site_fract_z
Si Si1 0.104270 0.341281 0.767160
Si Si2 0.104276 0.840896 0.122928
Si Si3 0.359929 0.342236 0.002269
Si Si4 0.359478 0.658282 0.385987
Si Si5 0.152252 0.842099 0.886466
Si Si6 0.603708 0.841434 0.741912
Si Si7 0.603770 0.342629 0.625679
Si Si8 0.847376 0.842540 0.503794
O O1 0.132930 0.500000 0.781813
O O2 0.132089 0.306972 0.695072
O O3 0.133864 0.234360 0.820325
O O4 0.000000 0.342114 0.767228
O O5 0.135156 0.734927 0.069816
O O6 0.000000 0.839890 0.122538
O O7 0.131791 0.000000 0.108405
O O8 0.392927 0.500000 0.008404
O O9 0.378710 0.249723 0.063887
O O10 0.256142 0.350682 0.996519
O O11 0.392805 0.262283 0.939717
O O12 0.393128 0.500000 0.393945
O O13 0.255986 0.651058 0.393023
O O14 0.378101 0.703683 0.313972
O O15 0.118721 0.000000 0.887810
O O16 0.118479 0.749837 0.945173
O O17 0.500000 0.847913 0.734932
O O18 0.637340 0.737431 0.688130
O O19 0.637215 0.000000 0.733834
O O20 0.500000 0.352192 0.631835
O O21 0.637977 0.500000 0.619766
O O22 0.881760 0.000000 0.502858
#
# Coordination Sequence:
#
# PCOD9357883 Si02
#       8
#     8   8   8   8   8   8   8   8
#     4   9  19  36  55  75 102 134 168 210 258 307
#     4   9  19  36  56  78 105 137 173 213 258 308
#     4  10  21  36  54  77 105 137 174 215 258 306
#     4   9  19  35  53  76 106 137 171 212 257 304
#     4  10  20  34  53  76 104 137 172 212 255 303
#     4   9  18  34  55  77 104 137 170 208 255 304
#     4  10  21  36  54  77 105 137 174 214 255 304
#     4  10  21  36  54  77 105 137 174 215 258 306
#
# _framework density 20.458646999999999
#
# number of rings (size 3 to 8) (size 9 to 14) (size 15 to 20)
#    0.000    2.500    0.000    2.250    0.000    6.250 
#    0.000    6.250    0.000    0.000    0.000    0.000 
#    0.000    0.000    0.000    0.000    0.000    0.000 
#
# Total GULP energy -178660.902292 kJ/mol
# GULP energy per Si atom -5583.153197 kJ/mol
# Density = 2.041208 g / cm^3
# Si number density = 20.458647 Si / 1000 Ang^3
#
#
#
# Elastic Constant Matrix: (Units=GPa)
#
#
# Indices 1 2 3 4 5 6 
#
# 1 24.7690 10.5234 0.4427 0.0000 0.0000 0.0000
# 2 10.5234 198.0487 150.3930 0.0000 0.0000 0.0000
# 3 0.4427 150.3930 184.3725 0.0000 0.0000 0.0000
# 4 0.0000 0.0000 0.0000 39.9380 0.0000 0.0000
# 5 0.0000 0.0000 0.0000 0.0000 30.3867 0.0000
# 6 0.0000 0.0000 0.0000 0.0000 0.0000 17.7309
#
#
#
# Elastic Compliance Matrix: (Units=1/GPa)
#
#
# Indices 1 2 3 4 5 6 
#
# 1 0.042739 -0.005762 0.004598 0.000000 0.000000 0.000000
# 2 -0.005762 0.014044 -0.011442 0.000000 0.000000 0.000000
# 3 0.004598 -0.011442 0.014746 0.000000 0.000000 0.000000
# 4 0.000000 0.000000 0.000000 0.025039 0.000000 0.000000
# 5 0.000000 0.000000 0.000000 0.000000 0.032909 0.000000
# 6 0.000000 0.000000 0.000000 0.000000 0.000000 0.056399
#
#
# Mechanical properties :
#
#
# Convention : Reuss Voigt Hill
#
# Bulk Modulus (GPa) = 21.59079 81.10093 51.34586
# Shear Modulus (GPa) = 22.07229 33.99986 28.03607
#
# Velocity S-wave (km/s) = 3.28818 4.08104 3.70588
# Velocity P-wave (km/s) = 4.99925 7.86981 6.59267
#
# Compressibility (1/GPa) = 0.04631605
#
# Stress axis : x y z
#
# Youngs Moduli (GPa) = 23.39778 71.20329 67.81442
#
# Poissons Ratio (x) = 0.41030 -0.31179
# Poissons Ratio (y) = 0.13483 0.77594
# Poissons Ratio (z) = -0.10758 0.81472
#
# Static dielectric constant tensor:
#      x y z
#    x 1.754690 0.000000 0.000000 
#    y 0.000000 1.729350 0.000000 
#    z 0.000000 0.000000 1.693510 
# 
# From -- ./inp_files/18872.got.cif
#   From: 2010.05.17/outbox.cif.g08.bks.cpg/sg38_10_cif.got.tgz:18872.got - 2010.06.03 18:07:57.
