data_PCOD9357646
_publ_section_title
;
Structure prediction by ZEFSAII (Michael W. Deem and Ramdas Pophale) SiO2 
 PCOD9357646
Probable space group: A M M 2
;
_chemical_formula_sum "Si O2"
_cell_formula_units_Z 64
_cell_length_a 7.602191
_cell_length_b 18.662805
_cell_length_c 21.987917
_cell_angle_alpha 90.000000
_cell_angle_beta 90.000000
_cell_angle_gamma 90.000000
_cell_volume 3119.606266
_symmetry_space_group_name_H-M "A M M 2"
_symmetry_group_IT_number 38
_symmetry_cell_setting 'orthorhombic'
loop_
_space_group_symop_operation_xyz
x,y,z
-x,-y,z
-x,y,z
x,-y,z
x,1/2+y,1/2+z
-x,1/2-y,1/2+z
-x,1/2+y,1/2+z
x,1/2-y,1/2+z
loop_
_atom_site_type_symbol
_atom_site_label
_atom_site_fract_x
_atom_site_fract_y
_atom_site_fract_z
Si Si1 0.794856 0.840325 0.708670
Si Si2 0.210641 0.581992 0.088949
Si Si3 0.714862 0.583521 0.824403
Si Si4 0.292798 0.176406 0.211206
Si Si5 0.213178 0.917549 0.094041
Si Si6 0.784533 0.916346 0.829399
Si Si7 0.710758 0.417448 0.957174
Si Si8 0.795087 0.587229 0.461577
O O1 0.720013 0.874587 0.646858
O O2 0.785208 0.755172 0.706759
O O3 0.720921 0.871421 0.771720
O O4 0.000000 0.861534 0.709821
O O5 0.279208 0.500000 0.090106
O O6 0.000000 0.578206 0.093750
O O7 0.244718 0.615438 0.022392
O O8 0.500000 0.583677 0.822829
O O9 0.767099 0.500000 0.818067
O O10 0.777903 0.631143 0.768473
O O11 0.770407 0.610929 0.891462
O O12 0.500000 0.186040 0.220795
O O13 0.266144 0.131875 0.149670
O O14 0.000000 0.918522 0.091250
O O15 0.270615 0.000000 0.103968
O O16 0.279048 0.892168 0.027482
O O17 0.720293 0.890961 0.896037
O O18 0.000000 0.913580 0.832088
O O19 0.738479 0.000000 0.821236
O O20 0.500000 0.419691 0.954458
O O21 0.775828 0.500000 0.959719
O O22 0.791955 0.500000 0.461315
O O23 0.000000 0.609235 0.461830
#
# Coordination Sequence:
#
# PCOD9357646 Si02
#       8
#     8   8   8   8   8   8   8   8
#     4  10  20  33  48  68  97 129 159 195 236 277
#     4   9  17  30  49  73  98 122 151 192 241 285
#     4   8  15  30  51  71  90 117 155 195 234 276
#     4  11  22  34  48  67  95 131 166 198 232 275
#     4   9  17  31  52  76 100 125 154 192 238 283
#     4   8  13  25  49  76  95 117 155 196 233 280
#     4   8  14  27  49  73  93 116 150 191 233 280
#     4   7  11  22  44  74 100 118 144 188 237 281
#
# _framework density 20.515408999999998
#
# number of rings (size 3 to 8) (size 9 to 14) (size 15 to 20)
#    0.000    3.250    0.000    3.375    0.000    2.750 
#    0.000    2.500    0.000    9.375    0.000    1.750 
#    0.000    0.000    0.000    0.000    0.000    0.000 
#
# Total GULP energy -178272.712461 kJ/mol
# GULP energy per Si atom -5571.022264 kJ/mol
# Density = 2.046871 g / cm^3
# Si number density = 20.515409 Si / 1000 Ang^3
#
#
#
# Elastic Constant Matrix: (Units=GPa)
#
#
# Indices 1 2 3 4 5 6 
#
# 1 40.7990 -8.0199 0.2801 0.0000 0.0000 0.0000
# 2 -8.0199 54.7020 76.2479 0.0000 0.0000 0.0000
# 3 0.2801 76.2479 245.3539 0.0000 0.0000 0.0000
# 4 0.0000 0.0000 0.0000 -6.4382 0.0000 0.0000
# 5 0.0000 0.0000 0.0000 0.0000 17.8006 0.0000
# 6 0.0000 0.0000 0.0000 0.0000 0.0000 -135.9950
#
#
#
# Elastic Compliance Matrix: (Units=1/GPa)
#
#
# Indices 1 2 3 4 5 6 
#
# 1 0.025854 0.006760 -0.002130 0.000000 0.000000 0.000000
# 2 0.006760 0.034019 -0.010580 0.000000 0.000000 0.000000
# 3 -0.002130 -0.010580 0.007366 0.000000 0.000000 0.000000
# 4 0.000000 0.000000 0.000000 -0.155323 0.000000 0.000000
# 5 0.000000 0.000000 0.000000 0.000000 0.056178 0.000000
# 6 0.000000 0.000000 0.000000 0.000000 0.000000 -0.007353
#
#
# Mechanical properties :
#
#
# Convention : Reuss Voigt Hill
#
# Bulk Modulus (GPa) = 18.07068 53.09679 35.58374
# Shear Modulus (GPa) = -560.92222 -6.77006 -283.84614
#
# Velocity S-wave (km/s) = -16.55321 -1.81856 -11.77531
# Velocity P-wave (km/s) = 18.88167 4.63984 12.94197
#
# Compressibility (1/GPa) = 0.05533826
#
# Stress axis : x y z
#
# Youngs Moduli (GPa) = 38.67899 29.39569 135.75955
#
# Poissons Ratio (x) = -0.19871 0.28920
# Poissons Ratio (y) = -0.26146 1.43628
# Poissons Ratio (z) = 0.08239 0.31099
#
# Static dielectric constant tensor:
#      x y z
#    x 1.781100 0.000000 0.000000 
#    y 0.000000 1.673690 0.000000 
#    z 0.000000 0.000000 1.788500 
# 
# From -- ./inp_files/20060.got.cif
#   From: 2010.05.17/outbox.cif.g08.bks.cpg/sg38_11_cif.got.tgz:20060.got - 2010.06.03 18:07:57.
