data_PCOD9357718
_publ_section_title
;
Structure prediction by ZEFSAII (Michael W. Deem and Ramdas Pophale) SiO2 
 PCOD9357718
Probable space group: A M M 2
;
_chemical_formula_sum "Si O2"
_cell_formula_units_Z 64
_cell_length_a 8.844199
_cell_length_b 23.685747
_cell_length_c 19.487249
_cell_angle_alpha 90.000000
_cell_angle_beta 90.000000
_cell_angle_gamma 90.000000
_cell_volume 4082.217371
_symmetry_space_group_name_H-M "A M M 2"
_symmetry_group_IT_number 38
_symmetry_cell_setting 'orthorhombic'
loop_
_space_group_symop_operation_xyz
x,y,z
-x,-y,z
-x,y,z
x,-y,z
x,1/2+y,1/2+z
-x,1/2-y,1/2+z
-x,1/2+y,1/2+z
x,1/2-y,1/2+z
loop_
_atom_site_type_symbol
_atom_site_label
_atom_site_fract_x
_atom_site_fract_y
_atom_site_fract_z
Si Si1 0.320584 0.257472 0.045150
Si Si2 0.680629 0.729056 0.697580
Si Si3 0.820014 0.227140 0.906757
Si Si4 0.819236 0.617752 0.046736
Si Si5 0.319463 0.566091 0.908705
Si Si6 0.319631 0.433639 0.185201
Si Si7 0.180684 0.839157 0.317139
Si Si8 0.818609 0.162170 0.771930
O O1 0.500000 0.268323 0.042669
O O2 0.287256 0.226060 0.116653
O O3 0.235697 0.317507 0.045382
O O4 0.268268 0.224514 0.977638
O O5 0.500000 0.729892 0.707518
O O6 0.753011 0.680508 0.744360
O O7 0.749476 0.787980 0.725087
O O8 0.786408 0.287105 0.869499
O O9 0.783422 0.179688 0.850190
O O10 0.000000 0.225852 0.919702
O O11 0.753363 0.588313 0.114531
O O12 0.000000 0.615767 0.047203
O O13 0.755973 0.586915 0.979331
O O14 0.500000 0.573676 0.913848
O O15 0.287741 0.500000 0.897999
O O16 0.254683 0.605200 0.848417
O O17 0.500000 0.424753 0.181923
O O18 0.290128 0.500000 0.193617
O O19 0.249962 0.396106 0.245841
O O20 0.000000 0.844616 0.313216
O O21 0.000000 0.162632 0.764036
#
# Coordination Sequence:
#
# PCOD9357718 Si02
#       8
#     8   8   8   8   8   8   8   8
#     4  11  21  32  51  77 104 136 171 206 252 307
#     4  10  20  33  51  74 103 135 169 210 256 305
#     4   9  19  33  50  74 102 131 166 208 256 304
#     4  12  23  34  50  72 103 139 176 215 250 296
#     4  11  23  37  53  73 101 138 177 215 255 302
#     4  11  23  37  52  72 101 137 177 216 255 304
#     4  10  20  34  52  75 101 133 172 213 256 302
#     4  10  20  34  52  74 100 132 172 214 255 303
#
# _framework density 15.677752999999999
#
# number of rings (size 3 to 8) (size 9 to 14) (size 15 to 20)
#    0.000    1.500    2.500    4.500    0.000    7.500 
#    0.000    0.000    0.000    0.000    0.000    0.875 
#    0.000    5.000    0.000    0.000    0.000    0.000 
#
# Total GULP energy -178735.717870 kJ/mol
# GULP energy per Si atom -5585.491183 kJ/mol
# Density = 1.564207 g / cm^3
# Si number density = 15.677753 Si / 1000 Ang^3
#
#
#
# Elastic Constant Matrix: (Units=GPa)
#
#
# Indices 1 2 3 4 5 6 
#
# 1 81.9998 55.1200 72.6887 0.0000 0.0000 0.0000
# 2 55.1200 92.7036 70.6580 0.0000 0.0000 0.0000
# 3 72.6887 70.6580 135.2953 0.0000 0.0000 0.0000
# 4 0.0000 0.0000 0.0000 17.0409 0.0000 0.0000
# 5 0.0000 0.0000 0.0000 0.0000 38.5620 0.0000
# 6 0.0000 0.0000 0.0000 0.0000 0.0000 9.6123
#
#
#
# Elastic Compliance Matrix: (Units=1/GPa)
#
#
# Indices 1 2 3 4 5 6 
#
# 1 0.026545 -0.008162 -0.009999 0.000000 0.000000 0.000000
# 2 -0.008162 0.020430 -0.006284 0.000000 0.000000 0.000000
# 3 -0.009999 -0.006284 0.016045 0.000000 0.000000 0.000000
# 4 0.000000 0.000000 0.000000 0.058682 0.000000 0.000000
# 5 0.000000 0.000000 0.000000 0.000000 0.025932 0.000000
# 6 0.000000 0.000000 0.000000 0.000000 0.000000 0.104034
#
#
# Mechanical properties :
#
#
# Convention : Reuss Voigt Hill
#
# Bulk Modulus (GPa) = 70.77380 78.54803 74.66091
# Shear Modulus (GPa) = 16.37892 20.47849 18.42870
#
# Velocity S-wave (km/s) = 3.23572 3.61808 3.43223
# Velocity P-wave (km/s) = 7.69420 8.22583 7.96445
#
# Compressibility (1/GPa) = 0.01412952
#
# Stress axis : x y z
#
# Youngs Moduli (GPa) = 37.67120 48.94734 62.32330
#
# Poissons Ratio (x) = 0.39952 0.62318
# Poissons Ratio (y) = 0.30748 0.39166
# Poissons Ratio (z) = 0.37668 0.30760
#
# Static dielectric constant tensor:
#      x y z
#    x 1.522590 0.000000 0.000000 
#    y 0.000000 1.499050 0.000000 
#    z 0.000000 0.000000 1.521680 
# 
# From -- ./inp_files/20233.got.cif
#   From: 2010.05.17/outbox.cif.g08.bks.cpg/sg38_11_cif.got.tgz:20233.got - 2010.06.03 18:07:57.
