data_PCOD9357904
_publ_section_title
;
Structure prediction by ZEFSAII (Michael W. Deem and Ramdas Pophale) SiO2 
 PCOD9357904
Probable space group: A M M 2
;
_chemical_formula_sum "Si O2"
_cell_formula_units_Z 48
_cell_length_a 19.498908
_cell_length_b 8.547167
_cell_length_c 15.487637
_cell_angle_alpha 90.000000
_cell_angle_beta 90.000000
_cell_angle_gamma 90.000000
_cell_volume 2581.176134
_symmetry_space_group_name_H-M "A M M 2"
_symmetry_group_IT_number 38
_symmetry_cell_setting 'orthorhombic'
loop_
_space_group_symop_operation_xyz
x,y,z
-x,-y,z
-x,y,z
x,-y,z
x,1/2+y,1/2+z
-x,1/2-y,1/2+z
-x,1/2+y,1/2+z
x,1/2-y,1/2+z
loop_
_atom_site_type_symbol
_atom_site_label
_atom_site_fract_x
_atom_site_fract_y
_atom_site_fract_z
Si Si1 0.327563 0.312070 0.019150
Si Si2 0.165307 0.688053 0.205655
Si Si3 0.678255 0.189937 0.716317
Si Si4 0.920570 0.687411 0.863029
Si Si5 0.823937 0.813539 0.013904
Si Si6 0.421103 0.689500 0.368825
O O1 0.325293 0.500000 0.016390
O O2 0.339738 0.262824 0.118600
O O3 0.252697 0.247653 0.993646
O O4 0.385033 0.249428 0.955250
O O5 0.161969 0.500000 0.207937
O O6 0.242866 0.736641 0.232762
O O7 0.111684 0.758290 0.272485
O O8 0.155994 0.744172 0.107372
O O9 0.625148 0.244858 0.788200
O O10 0.677384 0.000000 0.717876
O O11 0.916851 0.500000 0.868732
O O12 0.875855 0.759666 0.940028
O O13 0.000000 0.735193 0.869373
O O14 0.822445 0.000000 0.018891
O O15 0.500000 0.739743 0.361923
O O16 0.419932 0.500000 0.369117
#
# Coordination Sequence:
#
# PCOD9357904 Si02
#       6
#     8   8   8   8   8   8
#     4  10  20  36  58  82 109 142 186 236 283 336
#     4  10  20  37  61  86 113 148 192 237 284 341
#     4   8  17  34  55  78 104 140 182 223 270 326
#     4  11  24  40  58  84 118 153 190 234 284 338
#     4  11  22  38  61  86 114 149 191 238 288 340
#     4  10  20  34  53  79 112 148 185 227 279 340
#
# _framework density 18.596173
#
# number of rings (size 3 to 8) (size 9 to 14) (size 15 to 20)
#    0.000    2.000    0.000    5.000    0.000    4.333 
#    0.000    5.833    0.000    0.000    0.000    0.000 
#    0.000    0.000    0.000    0.000    0.000    0.000 
#
# Total GULP energy -134065.732455 kJ/mol
# GULP energy per Si atom -5586.072186 kJ/mol
# Density = 1.855385 g / cm^3
# Si number density = 18.596173 Si / 1000 Ang^3
#
#
#
# Elastic Constant Matrix: (Units=GPa)
#
#
# Indices 1 2 3 4 5 6 
#
# 1 73.6912 19.3169 37.2200 0.0000 0.0000 0.0000
# 2 19.3169 41.1181 7.9599 0.0000 0.0000 0.0000
# 3 37.2200 7.9599 48.4119 0.0000 0.0000 0.0000
# 4 0.0000 0.0000 0.0000 32.3195 0.0000 0.0000
# 5 0.0000 0.0000 0.0000 0.0000 -12.0514 0.0000
# 6 0.0000 0.0000 0.0000 0.0000 0.0000 24.4293
#
#
#
# Elastic Compliance Matrix: (Units=1/GPa)
#
#
# Indices 1 2 3 4 5 6 
#
# 1 0.024570 -0.008145 -0.017550 0.000000 0.000000 0.000000
# 2 -0.008145 0.027820 0.001688 0.000000 0.000000 0.000000
# 3 -0.017550 0.001688 0.033872 0.000000 0.000000 0.000000
# 4 0.000000 0.000000 0.000000 0.030941 0.000000 0.000000
# 5 0.000000 0.000000 0.000000 0.000000 -0.082978 0.000000
# 6 0.000000 0.000000 0.000000 0.000000 0.000000 0.040935
#
#
# Mechanical properties :
#
#
# Convention : Reuss Voigt Hill
#
# Bulk Modulus (GPa) = 26.14642 32.46829 29.30736
# Shear Modulus (GPa) = 36.78571 15.52110 26.15341
#
# Velocity S-wave (km/s) = 4.45245 2.89215 3.75425
# Velocity P-wave (km/s) = 6.36577 5.35259 5.88104
#
# Compressibility (1/GPa) = 0.03824616
#
# Stress axis : x y z
#
# Youngs Moduli (GPa) = 40.70075 35.94544 29.52328
#
# Poissons Ratio (x) = 0.29278 0.51814
# Poissons Ratio (y) = 0.33151 -0.04983
# Poissons Ratio (z) = 0.71431 -0.06067
#
# Static dielectric constant tensor:
#      x y z
#    x 1.620350 0.000000 0.000000 
#    y 0.000000 1.629990 0.000000 
#    z 0.000000 0.000000 1.623540 
# 
# From -- ./inp_files/14970.got.cif
#   From: 2010.05.17/outbox.cif.g08.bks.cpg/sg38_8_cif.got.tgz:14970.got - 2010.06.03 18:07:57.
