data_PCOD9357545
_publ_section_title
;
Structure prediction by ZEFSAII (Michael W. Deem and Ramdas Pophale) SiO2 
 PCOD9357545
Probable space group: A M M 2
;
_chemical_formula_sum "Si O2"
_cell_formula_units_Z 64
_cell_length_a 14.468138
_cell_length_b 8.963723
_cell_length_c 31.792039
_cell_angle_alpha 90.000000
_cell_angle_beta 90.000000
_cell_angle_gamma 90.000000
_cell_volume 4123.058078
_symmetry_space_group_name_H-M "A M M 2"
_symmetry_group_IT_number 38
_symmetry_cell_setting 'orthorhombic'
loop_
_space_group_symop_operation_xyz
x,y,z
-x,-y,z
-x,y,z
x,-y,z
x,1/2+y,1/2+z
-x,1/2-y,1/2+z
-x,1/2+y,1/2+z
x,1/2-y,1/2+z
loop_
_atom_site_type_symbol
_atom_site_label
_atom_site_fract_x
_atom_site_fract_y
_atom_site_fract_z
Si Si1 0.203662 0.678154 0.759080
Si Si2 0.393418 0.322746 0.128914
Si Si3 0.890410 0.177126 0.839136
Si Si4 0.604279 0.822702 0.220131
Si Si5 0.109370 0.179871 0.519643
Si Si6 0.213641 0.322094 0.597717
Si Si7 0.887878 0.828120 0.425453
Si Si8 0.889694 0.677280 0.177369
O O1 0.190822 0.500000 0.757517
O O2 0.165208 0.741534 0.802514
O O3 0.312263 0.710868 0.751582
O O4 0.149413 0.752817 0.720247
O O5 0.500000 0.291961 0.117207
O O6 0.377826 0.500000 0.126761
O O7 0.381768 0.267341 0.176996
O O8 0.318150 0.237125 0.101569
O O9 0.860371 0.230796 0.885489
O O10 0.000000 0.212822 0.834572
O O11 0.880306 0.000000 0.835183
O O12 0.500000 0.792489 0.235644
O O13 0.609774 0.000000 0.210154
O O14 0.165763 0.261156 0.555723
O O15 0.140288 0.221525 0.472245
O O16 0.000000 0.213518 0.524126
O O17 0.118740 0.000000 0.523450
O O18 0.210809 0.500000 0.599560
O O19 0.159328 0.254359 0.637779
O O20 0.000000 0.827868 0.426643
O O21 0.858932 0.000000 0.419184
O O22 0.870882 0.500000 0.176531
O O23 0.000000 0.698639 0.175087
#
# Coordination Sequence:
#
# PCOD9357545 Si02
#       8
#     8   8   8   8   8   8   8   8
#     4  11  21  32  49  72  96 128 164 200 244 293
#     4  10  20  34  53  73  93 123 163 206 249 292
#     4  10  20  32  47  69  99 133 165 200 242 287
#     4   9  18  33  51  71  95 122 156 202 252 295
#     4   9  18  33  52  73  99 131 165 203 246 290
#     4  12  23  33  48  72 100 132 165 200 243 291
#     4   8  15  30  51  72  94 123 161 204 246 286
#     4  11  23  36  48  64  94 134 170 204 240 281
#
# _framework density 15.522460000000001
#
# number of rings (size 3 to 8) (size 9 to 14) (size 15 to 20)
#    0.000    2.000    1.250    4.125    0.000    6.750 
#    0.000    1.250    0.000    0.000    0.000    0.875 
#    0.000    3.000    0.000    0.000    0.000    0.000 
#
# Total GULP energy -178560.287379 kJ/mol
# GULP energy per Si atom -5580.008981 kJ/mol
# Density = 1.548713 g / cm^3
# Si number density = 15.522460 Si / 1000 Ang^3
#
#
#
# Elastic Constant Matrix: (Units=GPa)
#
#
# Indices 1 2 3 4 5 6 
#
# 1 93.6417 63.9517 66.9231 0.0000 0.0000 0.0000
# 2 63.9517 78.4274 66.0113 0.0000 0.0000 0.0000
# 3 66.9231 66.0113 129.4884 0.0000 0.0000 0.0000
# 4 0.0000 0.0000 0.0000 28.7552 0.0000 0.0000
# 5 0.0000 0.0000 0.0000 0.0000 5.3449 0.0000
# 6 0.0000 0.0000 0.0000 0.0000 0.0000 21.4299
#
#
#
# Elastic Compliance Matrix: (Units=1/GPa)
#
#
# Indices 1 2 3 4 5 6 
#
# 1 0.025527 -0.017009 -0.004522 0.000000 0.000000 0.000000
# 2 -0.017009 0.033667 -0.008372 0.000000 0.000000 0.000000
# 3 -0.004522 -0.008372 0.014328 0.000000 0.000000 0.000000
# 4 0.000000 0.000000 0.000000 0.034776 0.000000 0.000000
# 5 0.000000 0.000000 0.000000 0.000000 0.187096 0.000000
# 6 0.000000 0.000000 0.000000 0.000000 0.000000 0.046664
#
#
# Mechanical properties :
#
#
# Convention : Reuss Voigt Hill
#
# Bulk Modulus (GPa) = 72.91219 77.25885 75.08552
# Shear Modulus (GPa) = 12.30204 18.08409 15.19307
#
# Velocity S-wave (km/s) = 2.81825 3.41695 3.13194
# Velocity P-wave (km/s) = 7.59369 8.08998 7.84576
#
# Compressibility (1/GPa) = 0.01371513
#
# Stress axis : x y z
#
# Youngs Moduli (GPa) = 39.17404 29.70244 69.79449
#
# Poissons Ratio (x) = 0.50522 0.31561
# Poissons Ratio (y) = 0.66633 0.58433
# Poissons Ratio (z) = 0.17714 0.24867
#
# Static dielectric constant tensor:
#      x y z
#    x 1.518210 0.000000 0.000000 
#    y 0.000000 1.516920 0.000000 
#    z 0.000000 0.000000 1.496360 
# 
# From -- ./inp_files/25120.got.cif
#   From: 2010.05.17/outbox.cif.g08.bks.cpg/sg38_13_cif.got.tgz:25120.got - 2010.06.03 18:07:57.
