data_PCOD9357451
_publ_section_title
;
Structure prediction by ZEFSAII (Michael W. Deem and Ramdas Pophale) SiO2 
 PCOD9357451
Probable space group: A M M 2
;
_chemical_formula_sum "Si O2"
_cell_formula_units_Z 34
_cell_length_a 7.621642
_cell_length_b 36.060178
_cell_length_c 5.010300
_cell_angle_alpha 90.000000
_cell_angle_beta 90.000000
_cell_angle_gamma 90.000000
_cell_volume 1377.019665
_symmetry_space_group_name_H-M "A M M 2"
_symmetry_group_IT_number 38
_symmetry_cell_setting 'orthorhombic'
loop_
_space_group_symop_operation_xyz
x,y,z
-x,-y,z
-x,y,z
x,-y,z
x,1/2+y,1/2+z
-x,1/2-y,1/2+z
-x,1/2+y,1/2+z
x,1/2-y,1/2+z
loop_
_atom_site_type_symbol
_atom_site_label
_atom_site_fract_x
_atom_site_fract_y
_atom_site_fract_z
Si Si1 0.209812 0.730087 0.696470
Si Si2 0.804608 0.539874 0.093371
Si Si3 0.711908 0.109245 0.950762
Si Si4 0.289631 0.348886 0.951297
Si Si5 0.500000 0.500000 0.838093
O O1 0.279224 0.738895 0.402978
O O2 0.244790 0.690468 0.825807
O O3 0.000000 0.733562 0.675046
O O4 0.792871 0.500000 0.246120
O O5 0.769314 0.572197 0.301530
O O6 0.000000 0.543219 0.981360
O O7 0.653712 0.532519 0.875693
O O8 0.500000 0.108717 0.958082
O O9 0.771691 0.142131 0.748930
O O10 0.774629 0.119304 0.246106
O O11 0.500000 0.351042 0.958547
#
# Coordination Sequence:
#
# PCOD9357451 Si02
#       5
#     8   8   8   8   2
#     4  10  21  37  55  77 108 144 182 230 284 339
#     4   9  17  31  57  85 114 158 201 237 295 349
#     4  10  19  37  54  81 116 148 184 239 289 339
#     4  10  22  35  58  83 111 147 186 231 291 341
#     4   8  14  32  56  80 124 150 194 258 280 344
#
# _framework density 24.691005000000001
#
# number of rings (size 3 to 8) (size 9 to 14) (size 15 to 20)
#    0.706    1.647    1.176    1.412    0.000    2.824 
#    0.000    1.176    0.000    8.471    0.000    0.000 
#    0.000    0.000    0.000    0.000    0.000    0.000 
#
# Total GULP energy -94702.516847 kJ/mol
# GULP energy per Si atom -5570.736285 kJ/mol
# Density = 2.463481 g / cm^3
# Si number density = 24.691005 Si / 1000 Ang^3
#
#
#
# Elastic Constant Matrix: (Units=GPa)
#
#
# Indices 1 2 3 4 5 6 
#
# 1 94.4001 -9.8176 19.4327 0.0000 0.0000 0.0000
# 2 -9.8176 70.7818 -8.9935 0.0000 0.0000 0.0000
# 3 19.4327 -8.9935 82.5401 0.0000 0.0000 0.0000
# 4 0.0000 0.0000 0.0000 17.5037 0.0000 0.0000
# 5 0.0000 0.0000 0.0000 0.0000 2.6486 0.0000
# 6 0.0000 0.0000 0.0000 0.0000 0.0000 42.3329
#
#
#
# Elastic Compliance Matrix: (Units=1/GPa)
#
#
# Indices 1 2 3 4 5 6 
#
# 1 0.011239 0.001240 -0.002511 0.000000 0.000000 0.000000
# 2 0.001240 0.014463 0.001284 0.000000 0.000000 0.000000
# 3 -0.002511 0.001284 0.012846 0.000000 0.000000 0.000000
# 4 0.000000 0.000000 0.000000 0.057131 0.000000 0.000000
# 5 0.000000 0.000000 0.000000 0.000000 0.377554 0.000000
# 6 0.000000 0.000000 0.000000 0.000000 0.000000 0.023622
#
#
# Mechanical properties :
#
#
# Convention : Reuss Voigt Hill
#
# Bulk Modulus (GPa) = 25.92406 27.66280 26.79343
# Shear Modulus (GPa) = 9.80993 28.97041 19.39017
#
# Velocity S-wave (km/s) = 1.99542 3.42909 2.80538
# Velocity P-wave (km/s) = 3.97883 5.18711 4.62262
#
# Compressibility (1/GPa) = 0.03857420
#
# Stress axis : x y z
#
# Youngs Moduli (GPa) = 88.97551 69.14175 77.84292
#
# Poissons Ratio (x) = -0.08572 0.19546
# Poissons Ratio (y) = -0.11032 -0.09995
# Poissons Ratio (z) = 0.22341 -0.08878
#
# Static dielectric constant tensor:
#      x y z
#    x 1.945990 0.000000 0.000000 
#    y 0.000000 2.011280 0.000000 
#    z 0.000000 0.000000 2.029960 
# 
# From -- ./inp_files/470.got.cif
#   From: 2010.05.17/outbox.cif.g08.bks.cpg/sg38_1_cif.got.tgz:470.got - 2010.06.03 18:07:57.
