data_PCOD9357160
_publ_section_title
;
Structure prediction by ZEFSAII (Michael W. Deem and Ramdas Pophale) SiO2 
 PCOD9357160
Probable space group: A M M 2
;
_chemical_formula_sum "Si O2"
_cell_formula_units_Z 64
_cell_length_a 20.080316
_cell_length_b 8.820105
_cell_length_c 20.487586
_cell_angle_alpha 90.000000
_cell_angle_beta 90.000000
_cell_angle_gamma 90.000000
_cell_volume 3628.566509
_symmetry_space_group_name_H-M "A M M 2"
_symmetry_group_IT_number 38
_symmetry_cell_setting 'orthorhombic'
loop_
_space_group_symop_operation_xyz
x,y,z
-x,-y,z
-x,y,z
x,-y,z
x,1/2+y,1/2+z
-x,1/2-y,1/2+z
-x,1/2+y,1/2+z
x,1/2-y,1/2+z
loop_
_atom_site_type_symbol
_atom_site_label
_atom_site_fract_x
_atom_site_fract_y
_atom_site_fract_z
Si Si1 0.178322 0.319316 0.959630
Si Si2 0.193388 0.818108 0.822593
Si Si3 0.318985 0.180612 0.006393
Si Si4 0.846119 0.320386 0.179213
Si Si5 0.309539 0.819572 0.645918
Si Si6 0.922232 0.679748 0.563107
Si Si7 0.335109 0.681265 0.782071
Si Si8 0.422694 0.818133 0.405361
O O1 0.182970 0.500000 0.957602
O O2 0.164179 0.252988 0.887953
O O3 0.249384 0.252833 0.982457
O O4 0.122766 0.267126 0.010788
O O5 0.153350 0.783982 0.756092
O O6 0.267178 0.750490 0.811763
O O7 0.198419 0.000000 0.828374
O O8 0.331483 0.239818 0.079571
O O9 0.313000 0.000000 0.005577
O O10 0.376833 0.235133 0.958007
O O11 0.859048 0.500000 0.171218
O O12 0.770022 0.293086 0.155494
O O13 0.895467 0.226824 0.134231
O O14 0.343545 0.753350 0.710761
O O15 0.319440 0.000000 0.641937
O O16 0.913340 0.500000 0.553755
O O17 0.000000 0.716506 0.556378
O O18 0.327642 0.500000 0.776203
O O19 0.393513 0.714116 0.833378
O O20 0.500000 0.776838 0.410602
O O21 0.416398 0.000000 0.415342
#
# Coordination Sequence:
#
# PCOD9357160 Si02
#       8
#     8   8   8   8   8   8   8   8
#     4  12  23  37  59  87 118 154 197 244 295 354
#     4  10  20  35  57  86 118 148 188 243 292 340
#     4  12  23  36  59  88 118 153 197 248 296 350
#     4   9  19  35  57  84 114 149 189 233 285 344
#     4  10  20  35  57  85 117 149 191 243 291 343
#     4  11  24  40  59  85 118 155 195 241 295 354
#     4  10  19  33  56  85 116 151 192 238 290 348
#     4  10  22  40  60  84 119 159 196 239 295 356
#
# _framework density 17.637820000000001
#
# number of rings (size 3 to 8) (size 9 to 14) (size 15 to 20)
#    0.000    1.500    2.500    4.500    0.000    4.250 
#    0.000    1.250    0.000    3.000    0.000    0.000 
#    0.000    0.000    0.000    0.000    0.000    0.000 
#
# Total GULP energy -178790.158066 kJ/mol
# GULP energy per Si atom -5587.192440 kJ/mol
# Density = 1.759768 g / cm^3
# Si number density = 17.637820 Si / 1000 Ang^3
#
#
#
# Elastic Constant Matrix: (Units=GPa)
#
#
# Indices 1 2 3 4 5 6 
#
# 1 88.0762 63.6287 63.9186 0.0000 0.0000 0.0000
# 2 63.6287 102.9772 75.2489 0.0000 0.0000 0.0000
# 3 63.9186 75.2489 150.6711 0.0000 0.0000 0.0000
# 4 0.0000 0.0000 0.0000 37.0057 0.0000 0.0000
# 5 0.0000 0.0000 0.0000 0.0000 22.3707 0.0000
# 6 0.0000 0.0000 0.0000 0.0000 0.0000 23.3495
#
#
#
# Elastic Compliance Matrix: (Units=1/GPa)
#
#
# Indices 1 2 3 4 5 6 
#
# 1 0.021936 -0.010635 -0.003994 0.000000 0.000000 0.000000
# 2 -0.010635 0.020448 -0.005700 0.000000 0.000000 0.000000
# 3 -0.003994 -0.005700 0.011178 0.000000 0.000000 0.000000
# 4 0.000000 0.000000 0.000000 0.027023 0.000000 0.000000
# 5 0.000000 0.000000 0.000000 0.000000 0.044701 0.000000
# 6 0.000000 0.000000 0.000000 0.000000 0.000000 0.042828
#
#
# Mechanical properties :
#
#
# Convention : Reuss Voigt Hill
#
# Bulk Modulus (GPa) = 77.50621 83.03522 80.27072
# Shear Modulus (GPa) = 23.46607 25.80705 24.63656
#
# Velocity S-wave (km/s) = 3.65148 3.82928 3.74144
# Velocity P-wave (km/s) = 7.86233 8.16893 8.01710
#
# Compressibility (1/GPa) = 0.01290219
#
# Stress axis : x y z
#
# Youngs Moduli (GPa) = 45.58804 48.90521 89.45867
#
# Poissons Ratio (x) = 0.52011 0.35732
# Poissons Ratio (y) = 0.48483 0.50995
# Poissons Ratio (z) = 0.18209 0.27878
#
# Static dielectric constant tensor:
#      x y z
#    x 1.570800 0.000000 0.000000 
#    y 0.000000 1.588000 0.000000 
#    z 0.000000 0.000000 1.606430 
# 
# From -- ./inp_files/21345.got.cif
#   From: 2010.05.17/outbox.cif.g08.bks.cpg/sg38_11_cif.got.tgz:21345.got - 2010.06.03 18:07:57.
