data_PCOD9357185
_publ_section_title
;
Structure prediction by ZEFSAII (Michael W. Deem and Ramdas Pophale) SiO2 
 PCOD9357185
Probable space group: A M M 2
;
_chemical_formula_sum "Si O2"
_cell_formula_units_Z 64
_cell_length_a 8.529500
_cell_length_b 23.949939
_cell_length_c 19.755688
_cell_angle_alpha 90.000000
_cell_angle_beta 90.000000
_cell_angle_gamma 90.000000
_cell_volume 4035.711793
_symmetry_space_group_name_H-M "A M M 2"
_symmetry_group_IT_number 38
_symmetry_cell_setting 'orthorhombic'
loop_
_space_group_symop_operation_xyz
x,y,z
-x,-y,z
-x,y,z
x,-y,z
x,1/2+y,1/2+z
-x,1/2-y,1/2+z
-x,1/2+y,1/2+z
x,1/2-y,1/2+z
loop_
_atom_site_type_symbol
_atom_site_label
_atom_site_fract_x
_atom_site_fract_y
_atom_site_fract_z
Si Si1 0.811926 0.248793 0.993990
Si Si2 0.189912 0.436225 0.361381
Si Si3 0.686176 0.274611 0.851542
Si Si4 0.809474 0.269611 0.143706
Si Si5 0.689261 0.935802 0.137219
Si Si6 0.311612 0.877673 0.996143
Si Si7 0.812345 0.660191 0.728133
Si Si8 0.810467 0.333418 0.272854
O O1 0.743327 0.278992 0.928392
O O2 0.000000 0.251213 0.990951
O O3 0.756856 0.272947 0.066359
O O4 0.760620 0.184009 0.992084
O O5 0.238494 0.500000 0.349359
O O6 0.255944 0.413525 0.432137
O O7 0.239783 0.392564 0.303244
O O8 0.000000 0.434804 0.364861
O O9 0.500000 0.272571 0.849186
O O10 0.747502 0.322523 0.801266
O O11 0.752680 0.216359 0.821432
O O12 0.762104 0.210310 0.176950
O O13 0.758731 0.316933 0.197027
O O14 0.000000 0.269909 0.142507
O O15 0.500000 0.935188 0.139113
O O16 0.737013 0.907764 0.065898
O O17 0.752505 0.897433 0.197436
O O18 0.741629 0.000000 0.140669
O O19 0.500000 0.873080 0.995122
O O20 0.000000 0.660570 0.730615
O O21 0.000000 0.331859 0.273658
#
# Coordination Sequence:
#
# PCOD9357185 Si02
#       8
#     8   8   8   8   8   8   8   8
#     4  11  19  31  49  71  97 129 165 203 244 296
#     4  10  20  32  48  69  96 133 171 204 240 285
#     4  11  21  32  48  72  98 126 160 200 252 303
#     4   8  16  29  48  69  91 121 158 199 246 289
#     4  10  21  35  49  69 101 138 171 206 248 291
#     4  11  21  32  46  68 100 136 170 205 242 283
#     4  10  19  34  52  72  95 127 167 207 248 291
#     4   9  17  32  49  68  95 126 161 202 243 291
#
# _framework density 15.858416
#
# number of rings (size 3 to 8) (size 9 to 14) (size 15 to 20)
#    0.000    2.000    2.500    3.375    0.000    1.500 
#    0.000    0.625    0.000    0.000    0.000    0.875 
#    0.000    3.000    0.000    0.000    0.000    0.000 
#
# Total GULP energy -178537.177249 kJ/mol
# GULP energy per Si atom -5579.286789 kJ/mol
# Density = 1.582232 g / cm^3
# Si number density = 15.858416 Si / 1000 Ang^3
#
#
#
# Elastic Constant Matrix: (Units=GPa)
#
#
# Indices 1 2 3 4 5 6 
#
# 1 22.0074 20.1742 23.3757 0.0000 0.0000 0.0000
# 2 20.1742 88.3283 67.9363 0.0000 0.0000 0.0000
# 3 23.3757 67.9363 150.0280 0.0000 0.0000 0.0000
# 4 0.0000 0.0000 0.0000 20.1543 0.0000 0.0000
# 5 0.0000 0.0000 0.0000 0.0000 17.9478 0.0000
# 6 0.0000 0.0000 0.0000 0.0000 0.0000 15.6284
#
#
#
# Elastic Compliance Matrix: (Units=1/GPa)
#
#
# Indices 1 2 3 4 5 6 
#
# 1 0.059638 -0.009934 -0.004794 0.000000 0.000000 0.000000
# 2 -0.009934 0.019026 -0.007068 0.000000 0.000000 0.000000
# 3 -0.004794 -0.007068 0.010613 0.000000 0.000000 0.000000
# 4 0.000000 0.000000 0.000000 0.049617 0.000000 0.000000
# 5 0.000000 0.000000 0.000000 0.000000 0.055717 0.000000
# 6 0.000000 0.000000 0.000000 0.000000 0.000000 0.063986
#
#
# Mechanical properties :
#
#
# Convention : Reuss Voigt Hill
#
# Bulk Modulus (GPa) = 21.88874 53.70399 37.79636
# Shear Modulus (GPa) = 15.75214 20.67128 18.21171
#
# Velocity S-wave (km/s) = 3.15508 3.61430 3.39247
# Velocity P-wave (km/s) = 5.20627 7.16629 6.26343
#
# Compressibility (1/GPa) = 0.04568560
#
# Stress axis : x y z
#
# Youngs Moduli (GPa) = 16.76790 52.55840 94.22618
#
# Poissons Ratio (x) = 0.52213 0.45168
# Poissons Ratio (y) = 0.16658 0.66597
# Poissons Ratio (z) = 0.08038 0.37147
#
# Static dielectric constant tensor:
#      x y z
#    x 1.536630 0.000000 0.000000 
#    y 0.000000 1.511170 0.000000 
#    z 0.000000 0.000000 1.539650 
# 
# From -- ./inp_files/17225.got.cif
#   From: 2010.05.17/outbox.cif.g08.bks.cpg/sg38_9_cif.got.tgz:17225.got - 2010.06.03 18:07:57.
