data_PCOD9357224
_publ_section_title
;
Structure prediction by ZEFSAII (Michael W. Deem and Ramdas Pophale) SiO2 
 PCOD9357224
Probable space group: A M M 2
;
_chemical_formula_sum "Si O2"
_cell_formula_units_Z 56
_cell_length_a 24.657629
_cell_length_b 8.121790
_cell_length_c 14.883728
_cell_angle_alpha 90.000000
_cell_angle_beta 90.000000
_cell_angle_gamma 90.000000
_cell_volume 2980.676164
_symmetry_space_group_name_H-M "A M M 2"
_symmetry_group_IT_number 38
_symmetry_cell_setting 'orthorhombic'
loop_
_space_group_symop_operation_xyz
x,y,z
-x,-y,z
-x,y,z
x,-y,z
x,1/2+y,1/2+z
-x,1/2-y,1/2+z
-x,1/2+y,1/2+z
x,1/2-y,1/2+z
loop_
_atom_site_type_symbol
_atom_site_label
_atom_site_fract_x
_atom_site_fract_y
_atom_site_fract_z
Si Si1 0.147970 0.201265 0.355540
Si Si2 0.560343 0.801548 0.853989
Si Si3 0.768794 0.696027 0.704753
Si Si4 0.560339 0.198512 0.559155
Si Si5 0.854417 0.804390 0.560946
Si Si6 0.061322 0.302172 0.709664
Si Si7 0.355280 0.199659 0.706670
O O1 0.199646 0.252643 0.295089
O O2 0.147834 0.259386 0.458482
O O3 0.095916 0.254189 0.296466
O O4 0.148102 0.000000 0.357939
O O5 0.500000 0.744537 0.824984
O O6 0.567750 0.750355 0.956622
O O7 0.609343 0.743712 0.791987
O O8 0.559719 0.000000 0.848706
O O9 0.774996 0.500000 0.700687
O O10 0.800545 0.765744 0.618462
O O11 0.705970 0.740304 0.706296
O O12 0.500000 0.255173 0.588304
O O13 0.609250 0.256016 0.621393
O O14 0.559778 0.000000 0.563978
O O15 0.904126 0.738391 0.620860
O O16 0.860504 0.000000 0.556147
O O17 0.058907 0.500000 0.715707
O O18 0.000000 0.237685 0.707145
O O19 0.353856 0.000000 0.706597
#
# Coordination Sequence:
#
# PCOD9357224 Si02
#       7
#     8   8   8   8   8   8   8
#     4   8  17  34  54  73  97 135 173 203 243 296
#     4   9  18  33  52  74 101 131 164 206 254 301
#     4  10  21  37  53  72 100 132 169 210 254 303
#     4   9  18  33  52  73  99 132 167 202 245 303
#     4  10  19  34  56  78 101 132 172 213 251 292
#     4   9  18  34  54  78 110 142 170 203 246 296
#     4  10  20  34  52  74 100 131 167 206 253 303
#
# _framework density 18.787683999999999
#
# number of rings (size 3 to 8) (size 9 to 14) (size 15 to 20)
#    0.000    2.714    0.000    2.143    0.000    4.857 
#    0.000   12.857    0.000    4.286    0.000    0.000 
#    0.000    0.000    0.000    0.000    0.000    0.000 
#
# Total GULP energy -156137.008404 kJ/mol
# GULP energy per Si atom -5576.321729 kJ/mol
# Density = 1.874492 g / cm^3
# Si number density = 18.787684 Si / 1000 Ang^3
#
#
#
# Elastic Constant Matrix: (Units=GPa)
#
#
# Indices 1 2 3 4 5 6 
#
# 1 182.8442 1.5452 98.1476 0.0000 0.0000 0.0000
# 2 1.5452 7.3773 2.9591 0.0000 0.0000 0.0000
# 3 98.1476 2.9591 163.1566 0.0000 0.0000 0.0000
# 4 0.0000 0.0000 0.0000 22.3491 0.0000 0.0000
# 5 0.0000 0.0000 0.0000 0.0000 12.7476 0.0000
# 6 0.0000 0.0000 0.0000 0.0000 0.0000 26.5320
#
#
#
# Elastic Compliance Matrix: (Units=1/GPa)
#
#
# Indices 1 2 3 4 5 6 
#
# 1 0.008078 0.000259 -0.004864 0.000000 0.000000 0.000000
# 2 0.000259 0.136553 -0.002632 0.000000 0.000000 0.000000
# 3 -0.004864 -0.002632 0.009103 0.000000 0.000000 0.000000
# 4 0.000000 0.000000 0.000000 0.044745 0.000000 0.000000
# 5 0.000000 0.000000 0.000000 0.000000 0.078446 0.000000
# 6 0.000000 0.000000 0.000000 0.000000 0.000000 0.037690
#
#
# Mechanical properties :
#
#
# Convention : Reuss Voigt Hill
#
# Bulk Modulus (GPa) = 7.18084 62.07577 34.62830
# Shear Modulus (GPa) = 13.31524 29.04083 21.17803
#
# Velocity S-wave (km/s) = 2.66507 3.93585 3.36107
# Velocity P-wave (km/s) = 3.64699 7.33260 5.79083
#
# Compressibility (1/GPa) = 0.13925941
#
# Stress axis : x y z
#
# Youngs Moduli (GPa) = 123.79551 7.32314 109.85677
#
# Poissons Ratio (x) = -0.00190 0.53434
# Poissons Ratio (y) = -0.03207 0.28919
# Poissons Ratio (z) = 0.60214 0.01928
#
# Static dielectric constant tensor:
#      x y z
#    x 1.639310 0.000000 0.000000 
#    y 0.000000 1.673000 0.000000 
#    z 0.000000 0.000000 1.642250 
# 
# From -- ./inp_files/15482.got.cif
#   From: 2010.05.17/outbox.cif.g08.bks.cpg/sg38_8_cif.got.tgz:15482.got - 2010.06.03 18:07:57.
