data_PCOD9357592
_publ_section_title
;
Structure prediction by ZEFSAII (Michael W. Deem and Ramdas Pophale) SiO2 
 PCOD9357592
Probable space group: A M M 2
;
_chemical_formula_sum "Si O2"
_cell_formula_units_Z 40
_cell_length_a 7.749584
_cell_length_b 9.950315
_cell_length_c 26.361770
_cell_angle_alpha 90.000000
_cell_angle_beta 90.000000
_cell_angle_gamma 90.000000
_cell_volume 2032.777225
_symmetry_space_group_name_H-M "A M M 2"
_symmetry_group_IT_number 38
_symmetry_cell_setting 'orthorhombic'
loop_
_space_group_symop_operation_xyz
x,y,z
-x,-y,z
-x,y,z
x,-y,z
x,1/2+y,1/2+z
-x,1/2-y,1/2+z
-x,1/2+y,1/2+z
x,1/2-y,1/2+z
loop_
_atom_site_type_symbol
_atom_site_label
_atom_site_fract_x
_atom_site_fract_y
_atom_site_fract_z
Si Si1 0.208370 0.346132 0.760740
Si Si2 0.710944 0.655062 0.942057
Si Si3 0.792867 0.650956 0.646642
Si Si4 0.706111 0.652596 0.352730
Si Si5 0.707020 0.348872 0.056016
O O1 0.265576 0.500000 0.772301
O O2 0.267332 0.311715 0.703437
O O3 0.264234 0.238351 0.801991
O O4 0.000000 0.348011 0.760888
O O5 0.500000 0.656094 0.940971
O O6 0.762325 0.500000 0.931748
O O7 0.773823 0.759029 0.899884
O O8 0.766175 0.691059 0.999403
O O9 0.729225 0.500000 0.635784
O O10 0.749609 0.750638 0.601586
O O11 0.000000 0.645437 0.649557
O O12 0.500000 0.642941 0.359564
O O13 0.774270 0.500000 0.350261
O O14 0.500000 0.355074 0.053058
O O15 0.771558 0.500000 0.066085
#
# Coordination Sequence:
#
# PCOD9357592 Si02
#       5
#     8   8   8   8   8
#     4   9  19  36  54  70  93 129 169 204 240 286
#     4   8  15  30  50  70  96 131 165 196 235 284
#     4   9  19  35  52  71  97 129 165 203 242 286
#     4  10  20  32  49  76 104 127 157 200 246 290
#     4   9  18  32  51  76 102 127 160 201 241 285
#
# _framework density 19.677512
#
# number of rings (size 3 to 8) (size 9 to 14) (size 15 to 20)
#    0.000    3.000    0.000    3.000    0.000    4.800 
#    0.000    9.000    0.000    1.200    0.000    0.000 
#    0.000    0.000    0.000    0.000    0.000    0.000 
#
# Total GULP energy -111521.075066 kJ/mol
# GULP energy per Si atom -5576.053753 kJ/mol
# Density = 1.963273 g / cm^3
# Si number density = 19.677512 Si / 1000 Ang^3
#
#
#
# Elastic Constant Matrix: (Units=GPa)
#
#
# Indices 1 2 3 4 5 6 
#
# 1 24.7959 7.3706 4.7710 0.0000 0.0000 0.0000
# 2 7.3706 169.5497 156.4800 0.0000 0.0000 0.0000
# 3 4.7710 156.4800 203.6753 0.0000 0.0000 0.0000
# 4 0.0000 0.0000 0.0000 39.7147 0.0000 0.0000
# 5 0.0000 0.0000 0.0000 0.0000 36.4234 0.0000
# 6 0.0000 0.0000 0.0000 0.0000 0.0000 -14.4939
#
#
#
# Elastic Compliance Matrix: (Units=1/GPa)
#
#
# Indices 1 2 3 4 5 6 
#
# 1 0.040974 -0.003078 0.001405 0.000000 0.000000 0.000000
# 2 -0.003078 0.020503 -0.015680 0.000000 0.000000 0.000000
# 3 0.001405 -0.015680 0.016924 0.000000 0.000000 0.000000
# 4 0.000000 0.000000 0.000000 0.025180 0.000000 0.000000
# 5 0.000000 0.000000 0.000000 0.000000 0.027455 0.000000
# 6 0.000000 0.000000 0.000000 0.000000 0.000000 -0.068995
#
#
# Mechanical properties :
#
#
# Convention : Reuss Voigt Hill
#
# Bulk Modulus (GPa) = 22.88615 81.69599 52.29107
# Shear Modulus (GPa) = 44.91899 27.62214 36.27057
#
# Velocity S-wave (km/s) = 4.78300 3.75072 4.29797
# Velocity P-wave (km/s) = 6.49297 7.76948 7.15973
#
# Compressibility (1/GPa) = 0.04369455
#
# Stress axis : x y z
#
# Youngs Moduli (GPa) = 24.40583 48.77279 59.08886
#
# Poissons Ratio (x) = 0.15010 -0.08300
# Poissons Ratio (y) = 0.07511 0.92652
# Poissons Ratio (z) = -0.03428 0.76477
#
# Static dielectric constant tensor:
#      x y z
#    x 1.736090 0.000000 0.000000 
#    y 0.000000 1.683510 0.000000 
#    z 0.000000 0.000000 1.683220 
# 
# From -- ./inp_files/20439.got.cif
#   From: 2010.05.17/outbox.cif.g08.bks.cpg/sg38_11_cif.got.tgz:20439.got - 2010.06.03 18:07:57.
