data_PCOD9357688
_publ_section_title
;
Structure prediction by ZEFSAII (Michael W. Deem and Ramdas Pophale) SiO2 
 PCOD9357688
Probable space group: A M M 2
;
_chemical_formula_sum "Si O2"
_cell_formula_units_Z 64
_cell_length_a 9.122730
_cell_length_b 14.621365
_cell_length_c 28.648772
_cell_angle_alpha 90.000000
_cell_angle_beta 90.000000
_cell_angle_gamma 90.000000
_cell_volume 3821.367022
_symmetry_space_group_name_H-M "A M M 2"
_symmetry_group_IT_number 38
_symmetry_cell_setting 'orthorhombic'
loop_
_space_group_symop_operation_xyz
x,y,z
-x,-y,z
-x,y,z
x,-y,z
x,1/2+y,1/2+z
-x,1/2-y,1/2+z
-x,1/2+y,1/2+z
x,1/2-y,1/2+z
loop_
_atom_site_type_symbol
_atom_site_label
_atom_site_fract_x
_atom_site_fract_y
_atom_site_fract_z
Si Si1 0.174555 0.105294 0.262350
Si Si2 0.675587 0.604532 0.131184
Si Si3 0.174730 0.278129 0.942312
Si Si4 0.328699 0.609461 0.293703
Si Si5 0.675111 0.393447 0.021628
Si Si6 0.328853 0.609487 0.860409
Si Si7 0.675556 0.392925 0.402060
Si Si8 0.173995 0.716350 0.211234
O O1 0.263934 0.127967 0.309180
O O2 0.209506 0.178008 0.222323
O O3 0.000000 0.112701 0.272555
O O4 0.205236 0.000000 0.249810
O O5 0.500000 0.608888 0.136901
O O6 0.720858 0.500000 0.142726
O O7 0.706813 0.620254 0.076498
O O8 0.750523 0.674915 0.165792
O O9 0.238315 0.337573 0.899368
O O10 0.238480 0.176674 0.934646
O O11 0.000000 0.277943 0.941822
O O12 0.236618 0.325808 0.988725
O O13 0.500000 0.633706 0.286614
O O14 0.316509 0.500000 0.287515
O O15 0.290562 0.629238 0.347644
O O16 0.230863 0.660838 0.256297
O O17 0.500000 0.381222 0.014592
O O18 0.708057 0.500000 0.010383
O O19 0.500000 0.635608 0.862896
O O20 0.318352 0.500000 0.868111
O O21 0.500000 0.381860 0.407638
O O22 0.709656 0.500000 0.409694
O O23 0.000000 0.706808 0.207127
#
# Coordination Sequence:
#
# PCOD9357688 Si02
#       8
#     8   8   8   8   8   8   8   8
#     4   9  19  35  50  67  98 136 170 206 249 294
#     4   9  19  36  56  76  99 128 160 198 247 297
#     4  12  23  32  49  77 106 135 165 201 251 307
#     4   9  18  32  49  70  98 132 167 201 240 287
#     4   9  19  37  58  77  98 127 165 206 247 296
#     4  10  20  33  50  73 101 134 173 213 249 291
#     4   9  19  36  55  73  97 134 177 216 250 285
#     4  11  21  30  47  75 101 129 165 202 245 297
#
# _framework density 16.747933
#
# number of rings (size 3 to 8) (size 9 to 14) (size 15 to 20)
#    0.000    2.250    0.000    4.875    0.000    8.750 
#    0.000    2.500    0.000    0.750    0.000    3.500 
#    0.000    0.000    0.000    0.000    0.000    0.000 
#
# Total GULP energy -178667.235774 kJ/mol
# GULP energy per Si atom -5583.351118 kJ/mol
# Density = 1.670981 g / cm^3
# Si number density = 16.747933 Si / 1000 Ang^3
#
#
#
# Elastic Constant Matrix: (Units=GPa)
#
#
# Indices 1 2 3 4 5 6 
#
# 1 68.7037 61.6920 61.8360 0.0000 0.0000 0.0000
# 2 61.6920 94.3205 77.5846 0.0000 0.0000 0.0000
# 3 61.8360 77.5846 89.7085 0.0000 0.0000 0.0000
# 4 0.0000 0.0000 0.0000 31.8161 0.0000 0.0000
# 5 0.0000 0.0000 0.0000 0.0000 4.8419 0.0000
# 6 0.0000 0.0000 0.0000 0.0000 0.0000 24.1422
#
#
#
# Elastic Compliance Matrix: (Units=1/GPa)
#
#
# Indices 1 2 3 4 5 6 
#
# 1 0.042369 -0.012783 -0.018149 0.000000 0.000000 0.000000
# 2 -0.012783 0.040593 -0.026295 0.000000 0.000000 0.000000
# 3 -0.018149 -0.026295 0.046399 0.000000 0.000000 0.000000
# 4 0.000000 0.000000 0.000000 0.031431 0.000000 0.000000
# 5 0.000000 0.000000 0.000000 0.000000 0.206532 0.000000
# 6 0.000000 0.000000 0.000000 0.000000 0.000000 0.041421
#
#
# Mechanical properties :
#
#
# Convention : Reuss Voigt Hill
#
# Bulk Modulus (GPa) = 67.09084 72.77312 69.93198
# Shear Modulus (GPa) = 9.46667 15.60137 12.53402
#
# Velocity S-wave (km/s) = 2.38007 3.05543 2.73864
# Velocity P-wave (km/s) = 6.90645 7.48290 7.20045
#
# Compressibility (1/GPa) = 0.01490516
#
# Stress axis : x y z
#
# Youngs Moduli (GPa) = 23.60227 24.63487 21.55206
#
# Poissons Ratio (x) = 0.31491 0.39116
# Poissons Ratio (y) = 0.30171 0.56672
# Poissons Ratio (z) = 0.42837 0.64779
#
# Static dielectric constant tensor:
#      x y z
#    x 1.553060 0.000000 0.000000 
#    y 0.000000 1.578830 0.000000 
#    z 0.000000 0.000000 1.540820 
# 
# From -- ./inp_files/24765.got.cif
#   From: 2010.05.17/outbox.cif.g08.bks.cpg/sg38_13_cif.got.tgz:24765.got - 2010.06.03 18:07:57.
