data_PCOD9357727
_publ_section_title
;
Structure prediction by ZEFSAII (Michael W. Deem and Ramdas Pophale) SiO2 
 PCOD9357727
Probable space group: A M M 2
;
_chemical_formula_sum "Si O2"
_cell_formula_units_Z 64
_cell_length_a 15.540274
_cell_length_b 9.595951
_cell_length_c 23.710952
_cell_angle_alpha 90.000000
_cell_angle_beta 90.000000
_cell_angle_gamma 90.000000
_cell_volume 3535.865078
_symmetry_space_group_name_H-M "A M M 2"
_symmetry_group_IT_number 38
_symmetry_cell_setting 'orthorhombic'
loop_
_space_group_symop_operation_xyz
x,y,z
-x,-y,z
-x,y,z
x,-y,z
x,1/2+y,1/2+z
-x,1/2-y,1/2+z
-x,1/2+y,1/2+z
x,1/2-y,1/2+z
loop_
_atom_site_type_symbol
_atom_site_label
_atom_site_fract_x
_atom_site_fract_y
_atom_site_fract_z
Si Si1 0.830180 0.153775 0.020920
Si Si2 0.726036 0.341046 0.411328
Si Si3 0.403531 0.341848 0.978036
Si Si4 0.355060 0.838850 0.082667
Si Si5 0.601773 0.834306 0.694318
Si Si6 0.898616 0.653215 0.106854
Si Si7 0.758274 0.662651 0.279157
Si Si8 0.102802 0.834559 0.213723
O O1 0.742114 0.158197 0.057830
O O2 0.883815 0.278972 0.046269
O O3 0.869466 0.000000 0.029302
O O4 0.804655 0.169968 0.955654
O O5 0.692544 0.500000 0.419229
O O6 0.657876 0.230401 0.433241
O O7 0.746995 0.322580 0.346153
O O8 0.500000 0.345006 0.955775
O O9 0.375966 0.500000 0.991125
O O10 0.402279 0.249946 0.034553
O O11 0.368148 0.759323 0.141478
O O12 0.383391 0.000000 0.086754
O O13 0.500000 0.806659 0.706689
O O14 0.668979 0.808411 0.745516
O O15 0.607866 0.000000 0.680484
O O16 0.857971 0.500000 0.112514
O O17 0.870890 0.761094 0.154953
O O18 0.000000 0.639520 0.115244
O O19 0.780253 0.500000 0.267365
O O20 0.835068 0.761300 0.258464
O O21 0.000000 0.811589 0.223631
O O22 0.116495 0.000000 0.210882
#
# Coordination Sequence:
#
# PCOD9357727 Si02
#       8
#     8   8   8   8   8   8   8   8
#     4   9  18  33  52  75 103 133 168 213 264 316
#     4   9  20  37  55  76 101 134 179 222 260 309
#     4  10  20  33  51  76 104 135 173 218 267 316
#     4  10  20  33  51  76 104 135 174 219 266 318
#     4  10  21  35  51  76 110 144 178 219 269 323
#     4  10  20  33  52  80 109 135 167 208 255 313
#     4  10  21  38  59  80 105 142 186 228 268 312
#     4  10  21  37  58  84 112 142 176 217 269 324
#
# _framework density 18.100238999999998
#
# number of rings (size 3 to 8) (size 9 to 14) (size 15 to 20)
#    0.000    2.250    0.000    3.375    0.000   10.250 
#    0.000    1.875    0.000    3.750    0.000    0.000 
#    0.000    0.000    0.000    0.000    0.000    0.000 
#
# Total GULP energy -178389.041638 kJ/mol
# GULP energy per Si atom -5574.657551 kJ/mol
# Density = 1.805904 g / cm^3
# Si number density = 18.100239 Si / 1000 Ang^3
#
#
#
# Elastic Constant Matrix: (Units=GPa)
#
#
# Indices 1 2 3 4 5 6 
#
# 1 37.9206 44.9049 35.0739 0.0000 0.0000 0.0000
# 2 44.9049 130.8841 72.6613 0.0000 0.0000 0.0000
# 3 35.0739 72.6613 112.6268 0.0000 0.0000 0.0000
# 4 0.0000 0.0000 0.0000 24.3963 0.0000 0.0000
# 5 0.0000 0.0000 0.0000 0.0000 5.1495 0.0000
# 6 0.0000 0.0000 0.0000 0.0000 0.0000 1.1619
#
#
#
# Elastic Compliance Matrix: (Units=1/GPa)
#
#
# Indices 1 2 3 4 5 6 
#
# 1 0.047415 -0.012573 -0.006654 0.000000 0.000000 0.000000
# 2 -0.012573 0.015238 -0.005915 0.000000 0.000000 0.000000
# 3 -0.006654 -0.005915 0.014767 0.000000 0.000000 0.000000
# 4 0.000000 0.000000 0.000000 0.040990 0.000000 0.000000
# 5 0.000000 0.000000 0.000000 0.000000 0.194192 0.000000
# 6 0.000000 0.000000 0.000000 0.000000 0.000000 0.860635
#
#
# Mechanical properties :
#
#
# Convention : Reuss Voigt Hill
#
# Bulk Modulus (GPa) = 36.85328 65.19018 51.02173
# Shear Modulus (GPa) = 4.05657 14.72764 9.39211
#
# Velocity S-wave (km/s) = 1.49868 2.85559 2.28040
# Velocity P-wave (km/s) = 4.83731 6.85324 5.93155
#
# Compressibility (1/GPa) = 0.02713463
#
# Stress axis : x y z
#
# Youngs Moduli (GPa) = 21.09054 65.62509 67.71731
#
# Poissons Ratio (x) = 0.82514 0.45059
# Poissons Ratio (y) = 0.26518 0.40057
# Poissons Ratio (z) = 0.14034 0.38819
#
# Static dielectric constant tensor:
#      x y z
#    x 1.649940 0.000000 0.000000 
#    y 0.000000 1.635060 0.000000 
#    z 0.000000 0.000000 1.601510 
# 
# From -- ./inp_files/22961.got.cif
#   From: 2010.05.17/outbox.cif.g08.bks.cpg/sg38_12_cif.got.tgz:22961.got - 2010.06.03 18:07:57.
