data_PCOD9357475
_publ_section_title
;
Structure prediction by ZEFSAII (Michael W. Deem and Ramdas Pophale) SiO2 
 PCOD9357475
Probable space group: A M M 2
;
_chemical_formula_sum "Si O2"
_cell_formula_units_Z 48
_cell_length_a 7.823776
_cell_length_b 9.084148
_cell_length_c 36.174127
_cell_angle_alpha 90.000000
_cell_angle_beta 90.000000
_cell_angle_gamma 90.000000
_cell_volume 2570.979821
_symmetry_space_group_name_H-M "A M M 2"
_symmetry_group_IT_number 38
_symmetry_cell_setting 'orthorhombic'
loop_
_space_group_symop_operation_xyz
x,y,z
-x,-y,z
-x,y,z
x,-y,z
x,1/2+y,1/2+z
-x,1/2-y,1/2+z
-x,1/2+y,1/2+z
x,1/2-y,1/2+z
loop_
_atom_site_type_symbol
_atom_site_label
_atom_site_fract_x
_atom_site_fract_y
_atom_site_fract_z
Si Si1 0.697416 0.820206 0.206640
Si Si2 0.300705 0.323147 0.397148
Si Si3 0.202899 0.332989 0.546824
Si Si4 0.704813 0.334481 0.972358
Si Si5 0.000000 0.178060 0.261393
Si Si6 0.295151 0.667870 0.626043
Si Si7 0.000000 0.677610 0.341475
O O1 0.500000 0.775309 0.213415
O O2 0.756868 0.768140 0.165739
O O3 0.831802 0.778124 0.237956
O O4 0.696776 0.000000 0.204675
O O5 0.500000 0.281251 0.390044
O O6 0.296278 0.500000 0.400651
O O7 0.240565 0.254243 0.435973
O O8 0.168985 0.280778 0.364962
O O9 0.275994 0.500000 0.544997
O O10 0.255580 0.244539 0.510765
O O11 0.252188 0.263754 0.586458
O O12 0.000000 0.343284 0.546442
O O13 0.500000 0.341462 0.969786
O O14 0.774201 0.500000 0.972029
O O15 0.000000 0.248402 0.301625
O O16 0.000000 0.000000 0.264230
O O17 0.500000 0.659392 0.628330
O O18 0.225329 0.500000 0.624161
O O19 0.000000 0.500000 0.337706
#
# Coordination Sequence:
#
# PCOD9357475 Si02
#       7
#     8   8   8   8   4   8   4
#     4   8  15  28  47  74 106 136 168 210 258 302
#     4   9  19  37  59  79 101 133 172 214 257 304
#     4  10  20  30  46  75 106 137 175 216 256 301
#     4  10  21  36  53  74 102 137 173 212 260 310
#     4  10  20  32  52  79 104 133 167 206 255 308
#     4   8  14  26  45  69  98 133 172 214 254 289
#     4  10  22  38  56  79 106 133 165 206 257 316
#
# _framework density 18.669924999999999
#
# number of rings (size 3 to 8) (size 9 to 14) (size 15 to 20)
#    0.000    2.833    0.000    2.000    2.333    3.333 
#    0.000    0.000    0.000    1.000    0.000    2.333 
#    0.000    0.000    0.000    0.000    0.000    0.000 
#
# Total GULP energy -133723.611478 kJ/mol
# GULP energy per Si atom -5571.817145 kJ/mol
# Density = 1.862743 g / cm^3
# Si number density = 18.669925 Si / 1000 Ang^3
#
#
#
# Elastic Constant Matrix: (Units=GPa)
#
#
# Indices 1 2 3 4 5 6 
#
# 1 79.0838 24.3144 78.3872 0.0000 0.0000 0.0000
# 2 24.3144 20.6839 47.1693 0.0000 0.0000 0.0000
# 3 78.3872 47.1693 221.7589 0.0000 0.0000 0.0000
# 4 0.0000 0.0000 0.0000 23.2330 0.0000 0.0000
# 5 0.0000 0.0000 0.0000 0.0000 37.7886 0.0000
# 6 0.0000 0.0000 0.0000 0.0000 0.0000 9.1516
#
#
#
# Elastic Compliance Matrix: (Units=1/GPa)
#
#
# Indices 1 2 3 4 5 6 
#
# 1 0.021789 -0.015632 -0.004377 0.000000 0.000000 0.000000
# 2 -0.015632 0.105105 -0.016831 0.000000 0.000000 0.000000
# 3 -0.004377 -0.016831 0.009637 0.000000 0.000000 0.000000
# 4 0.000000 0.000000 0.000000 0.043042 0.000000 0.000000
# 5 0.000000 0.000000 0.000000 0.000000 0.026463 0.000000
# 6 0.000000 0.000000 0.000000 0.000000 0.000000 0.109271
#
#
# Mechanical properties :
#
#
# Convention : Reuss Voigt Hill
#
# Bulk Modulus (GPa) = 15.91069 69.02984 42.47027
# Shear Modulus (GPa) = 12.19701 25.47837 18.83769
#
# Velocity S-wave (km/s) = 2.55874 3.69816 3.17990
# Velocity P-wave (km/s) = 4.15574 7.43567 6.02326
#
# Compressibility (1/GPa) = 0.06285082
#
# Stress axis : x y z
#
# Youngs Moduli (GPa) = 45.89369 9.51434 103.77130
#
# Poissons Ratio (x) = 0.14873 0.45422
# Poissons Ratio (y) = 0.71742 1.74654
# Poissons Ratio (z) = 0.20088 0.16013
#
# Static dielectric constant tensor:
#      x y z
#    x 1.659230 0.000000 0.000000 
#    y 0.000000 1.664250 0.000000 
#    z 0.000000 0.000000 1.649580 
# 
# From -- ./inp_files/24346.got.cif
#   From: 2010.05.17/outbox.cif.g08.bks.cpg/sg38_13_cif.got.tgz:24346.got - 2010.06.03 18:07:57.
