data_PCOD9357007
_publ_section_title
;
Structure prediction by ZEFSAII (Michael W. Deem and Ramdas Pophale) SiO2 
 PCOD9357007
Probable space group: A M M 2
;
_chemical_formula_sum "Si O2"
_cell_formula_units_Z 56
_cell_length_a 9.010191
_cell_length_b 16.096932
_cell_length_c 20.320978
_cell_angle_alpha 90.000000
_cell_angle_beta 90.000000
_cell_angle_gamma 90.000000
_cell_volume 2947.282140
_symmetry_space_group_name_H-M "A M M 2"
_symmetry_group_IT_number 38
_symmetry_cell_setting 'orthorhombic'
loop_
_space_group_symop_operation_xyz
x,y,z
-x,-y,z
-x,y,z
x,-y,z
x,1/2+y,1/2+z
-x,1/2-y,1/2+z
-x,1/2+y,1/2+z
x,1/2-y,1/2+z
loop_
_atom_site_type_symbol
_atom_site_label
_atom_site_fract_x
_atom_site_fract_y
_atom_site_fract_z
Si Si1 0.178381 0.597714 0.636380
Si Si2 0.672338 0.820039 0.261543
Si Si3 0.669125 0.375171 0.230296
Si Si4 0.830030 0.587933 0.359689
Si Si5 0.671998 0.246142 0.898798
Si Si6 0.329080 0.754987 0.053942
Si Si7 0.825745 0.910447 0.603314
O O1 0.217144 0.500000 0.624852
O O2 0.234967 0.625786 0.709435
O O3 0.247363 0.662981 0.583161
O O4 0.000000 0.605104 0.634097
O O5 0.500000 0.846564 0.258522
O O6 0.681955 0.724651 0.236270
O O7 0.713497 0.810688 0.339803
O O8 0.500000 0.395532 0.211669
O O9 0.713855 0.410300 0.300536
O O10 0.787920 0.410225 0.180134
O O11 0.816687 0.500000 0.396271
O O12 0.785591 0.669855 0.397428
O O13 0.000000 0.594423 0.336151
O O14 0.500000 0.222216 0.881868
O O15 0.671295 0.264683 0.975881
O O16 0.500000 0.763065 0.075320
O O17 0.256943 0.671859 0.081617
O O18 0.000000 0.902807 0.591141
O O19 0.775134 0.000000 0.575534
#
# Coordination Sequence:
#
# PCOD9357007 Si02
#       7
#     8   8   8   8   8   8   8
#     4  11  24  40  61  91 126 165 208 257 312 370
#     4   9  18  36  60  86 114 149 195 248 299 352
#     4  10  19  32  54  83 114 148 186 232 284 339
#     4  10  20  32  49  78 114 150 189 232 285 351
#     4   9  21  39  59  82 112 152 200 250 306 366
#     4  11  23  41  63  88 119 159 204 254 311 370
#     4  11  23  37  56  84 117 152 190 236 294 358
#
# _framework density 19.000554999999999
#
# number of rings (size 3 to 8) (size 9 to 14) (size 15 to 20)
#    0.000    1.857    1.429    3.429    0.000    9.143 
#    0.000    3.571    0.000    4.286    0.000    0.000 
#    0.000    0.000    0.000    0.000    0.000    0.000 
#
# Total GULP energy -155883.914343 kJ/mol
# GULP energy per Si atom -5567.282655 kJ/mol
# Density = 1.895731 g / cm^3
# Si number density = 19.000555 Si / 1000 Ang^3
#
#
#
# Elastic Constant Matrix: (Units=GPa)
#
#
# Indices 1 2 3 4 5 6 
#
# 1 55.0439 34.4638 21.4762 0.0000 0.0000 0.0000
# 2 34.4638 103.1792 31.6287 0.0000 0.0000 0.0000
# 3 21.4762 31.6287 77.8761 0.0000 0.0000 0.0000
# 4 0.0000 0.0000 0.0000 -2.1705 0.0000 0.0000
# 5 0.0000 0.0000 0.0000 0.0000 2.1109 0.0000
# 6 0.0000 0.0000 0.0000 0.0000 0.0000 41.8672
#
#
#
# Elastic Compliance Matrix: (Units=1/GPa)
#
#
# Indices 1 2 3 4 5 6 
#
# 1 0.023931 -0.006820 -0.003830 0.000000 0.000000 0.000000
# 2 -0.006820 0.013013 -0.003405 0.000000 0.000000 0.000000
# 3 -0.003830 -0.003405 0.015280 0.000000 0.000000 0.000000
# 4 0.000000 0.000000 0.000000 -0.460718 0.000000 0.000000
# 5 0.000000 0.000000 0.000000 0.000000 0.473735 0.000000
# 6 0.000000 0.000000 0.000000 0.000000 0.000000 0.023885
#
#
# Mechanical properties :
#
#
# Convention : Reuss Voigt Hill
#
# Bulk Modulus (GPa) = 41.46547 45.69297 43.57922
# Shear Modulus (GPa) = 39.91227 18.26354 29.08791
#
# Velocity S-wave (km/s) = 4.58819 3.10370 3.91691
# Velocity P-wave (km/s) = 7.06677 6.07819 6.59104
#
# Compressibility (1/GPa) = 0.02411645
#
# Stress axis : x y z
#
# Youngs Moduli (GPa) = 41.78602 76.84391 65.44552
#
# Poissons Ratio (x) = 0.52404 0.25066
# Poissons Ratio (y) = 0.28496 0.22282
# Poissons Ratio (z) = 0.16004 0.26163
#
# Static dielectric constant tensor:
#      x y z
#    x 1.644910 0.000000 0.000000 
#    y 0.000000 1.717900 0.000000 
#    z 0.000000 0.000000 1.727580 
# 
# From -- ./inp_files/19765.got.cif
#   From: 2010.05.17/outbox.cif.g08.bks.cpg/sg38_10_cif.got.tgz:19765.got - 2010.06.03 18:07:57.
