data_PCOD9357277
_publ_section_title
;
Structure prediction by ZEFSAII (Michael W. Deem and Ramdas Pophale) SiO2 
 PCOD9357277
Probable space group: A M M 2
;
_chemical_formula_sum "Si O2"
_cell_formula_units_Z 64
_cell_length_a 24.741834
_cell_length_b 7.946919
_cell_length_c 15.888984
_cell_angle_alpha 90.000000
_cell_angle_beta 90.000000
_cell_angle_gamma 90.000000
_cell_volume 3124.113495
_symmetry_space_group_name_H-M "A M M 2"
_symmetry_group_IT_number 38
_symmetry_cell_setting 'orthorhombic'
loop_
_space_group_symop_operation_xyz
x,y,z
-x,-y,z
-x,y,z
x,-y,z
x,1/2+y,1/2+z
-x,1/2-y,1/2+z
-x,1/2+y,1/2+z
x,1/2-y,1/2+z
loop_
_atom_site_type_symbol
_atom_site_label
_atom_site_fract_x
_atom_site_fract_y
_atom_site_fract_z
Si Si1 0.938668 0.797752 0.021960
Si Si2 0.747353 0.694414 0.880747
Si Si3 0.367080 0.202936 0.436920
Si Si4 0.863694 0.797075 0.676481
Si Si5 0.868050 0.801170 0.867442
Si Si6 0.256887 0.801885 0.692924
Si Si7 0.632256 0.799492 0.119925
Si Si8 0.437950 0.205946 0.278738
O O1 0.904930 0.761912 0.106059
O O2 0.000000 0.733526 0.026701
O O3 0.941114 0.000000 0.013781
O O4 0.906711 0.730715 0.939972
O O5 0.753752 0.500000 0.905493
O O6 0.694495 0.766975 0.925954
O O7 0.805355 0.778813 0.892768
O O8 0.734592 0.706511 0.780989
O O9 0.388361 0.251422 0.528088
O O10 0.404550 0.261830 0.360549
O O11 0.364228 0.000000 0.431076
O O12 0.874775 0.734110 0.772000
O O13 0.801377 0.749807 0.656500
O O14 0.866109 0.000000 0.677792
O O15 0.878688 0.000000 0.861721
O O16 0.307853 0.773320 0.633972
O O17 0.252977 0.000000 0.713732
O O18 0.593614 0.739368 0.195035
O O19 0.636296 0.000000 0.126212
O O20 0.500000 0.261114 0.280167
O O21 0.438102 0.000000 0.278960
#
# Coordination Sequence:
#
# PCOD9357277 Si02
#       8
#     8   8   8   8   8   8   8   8
#     4  10  22  39  58  82 113 148 190 236 280 334
#     4  10  19  34  57  85 117 149 189 236 286 343
#     4  10  21  37  56  84 117 153 190 232 286 341
#     4   9  20  37  57  82 111 146 187 230 281 339
#     4   9  20  38  57  81 112 151 189 227 283 342
#     4  10  20  36  58  84 118 153 188 235 291 347
#     4  11  22  36  57  88 117 151 194 237 288 341
#     4   9  19  39  62  81 112 156 196 236 285 341
#
# _framework density 20.485811999999999
#
# number of rings (size 3 to 8) (size 9 to 14) (size 15 to 20)
#    0.000    2.250    1.250    1.875    1.750    5.250 
#    0.000    1.250    0.000    2.625    0.000    0.000 
#    0.000    0.000    0.000    0.000    0.000    0.000 
#
# Total GULP energy -178661.204679 kJ/mol
# GULP energy per Si atom -5583.162646 kJ/mol
# Density = 2.043919 g / cm^3
# Si number density = 20.485812 Si / 1000 Ang^3
#
#
#
# Elastic Constant Matrix: (Units=GPa)
#
#
# Indices 1 2 3 4 5 6 
#
# 1 149.0073 4.2218 104.3527 0.0000 0.0000 0.0000
# 2 4.2218 16.5064 1.2955 0.0000 0.0000 0.0000
# 3 104.3527 1.2955 152.0137 0.0000 0.0000 0.0000
# 4 0.0000 0.0000 0.0000 22.9252 0.0000 0.0000
# 5 0.0000 0.0000 0.0000 0.0000 -8.5265 0.0000
# 6 0.0000 0.0000 0.0000 0.0000 0.0000 10.9104
#
#
#
# Elastic Compliance Matrix: (Units=1/GPa)
#
#
# Indices 1 2 3 4 5 6 
#
# 1 0.013038 -0.002634 -0.008928 0.000000 0.000000 0.000000
# 2 -0.002634 0.061155 0.001287 0.000000 0.000000 0.000000
# 3 -0.008928 0.001287 0.012696 0.000000 0.000000 0.000000
# 4 0.000000 0.000000 0.000000 0.043620 0.000000 0.000000
# 5 0.000000 0.000000 0.000000 0.000000 -0.117281 0.000000
# 6 0.000000 0.000000 0.000000 0.000000 0.000000 0.091656
#
#
# Mechanical properties :
#
#
# Convention : Reuss Voigt Hill
#
# Bulk Modulus (GPa) = 15.07388 59.69637 37.38513
# Shear Modulus (GPa) = 33.88749 18.90563 26.39656
#
# Velocity S-wave (km/s) = 4.07159 3.04116 3.59350
# Velocity P-wave (km/s) = 5.42936 6.44478 5.95874
#
# Compressibility (1/GPa) = 0.06633990
#
# Stress axis : x y z
#
# Youngs Moduli (GPa) = 76.69913 16.35178 78.76508
#
# Poissons Ratio (x) = 0.04307 0.70319
# Poissons Ratio (y) = 0.20202 -0.10137
# Poissons Ratio (z) = 0.68475 -0.02104
#
# Static dielectric constant tensor:
#      x y z
#    x 1.712470 0.000000 0.000000 
#    y 0.000000 1.755040 0.000000 
#    z 0.000000 0.000000 1.726940 
# 
# From -- ./inp_files/15842.got.cif
#   From: 2010.05.17/outbox.cif.g08.bks.cpg/sg38_8_cif.got.tgz:15842.got - 2010.06.03 18:07:57.
