data_PCOD9357762
_publ_section_title
;
Structure prediction by ZEFSAII (Michael W. Deem and Ramdas Pophale) SiO2 
 PCOD9357762
Probable space group: A M M 2
;
_chemical_formula_sum "Si O2"
_cell_formula_units_Z 56
_cell_length_a 21.267517
_cell_length_b 7.527418
_cell_length_c 15.610816
_cell_angle_alpha 90.000000
_cell_angle_beta 90.000000
_cell_angle_gamma 90.000000
_cell_volume 2499.127576
_symmetry_space_group_name_H-M "A M M 2"
_symmetry_group_IT_number 38
_symmetry_cell_setting 'orthorhombic'
loop_
_space_group_symop_operation_xyz
x,y,z
-x,-y,z
-x,y,z
x,-y,z
x,1/2+y,1/2+z
-x,1/2-y,1/2+z
-x,1/2+y,1/2+z
x,1/2-y,1/2+z
loop_
_atom_site_type_symbol
_atom_site_label
_atom_site_fract_x
_atom_site_fract_y
_atom_site_fract_z
Si Si1 0.166046 0.210666 0.951100
Si Si2 0.161149 0.285638 0.748767
Si Si3 0.296557 0.698396 0.724957
Si Si4 0.072003 0.282248 0.597102
Si Si5 0.432166 0.705056 0.690735
Si Si6 0.299100 0.791784 0.914904
Si Si7 0.432927 0.786730 0.493396
O O1 0.154026 0.240559 0.849408
O O2 0.238340 0.267512 0.969367
O O3 0.164817 0.000000 0.964351
O O4 0.114374 0.281393 0.016987
O O5 0.165248 0.500000 0.745340
O O6 0.227971 0.219927 0.709250
O O7 0.105317 0.228958 0.686158
O O8 0.298667 0.500000 0.684422
O O9 0.363988 0.788184 0.708731
O O10 0.295821 0.686055 0.827295
O O11 0.071352 0.500000 0.596357
O O12 0.000000 0.223785 0.591197
O O13 0.500000 0.780251 0.720379
O O14 0.429860 0.500000 0.722429
O O15 0.434752 0.708169 0.588301
O O16 0.289585 0.000000 0.894992
O O17 0.368099 0.771375 0.952210
O O18 0.500000 0.738606 0.450403
O O19 0.431351 0.000000 0.499880
#
# Coordination Sequence:
#
# PCOD9357762 Si02
#       7
#     8   8   8   8   8   8   8
#     4   9  19  35  55  79 110 143 179 224 270 318
#     4   9  18  33  54  78 107 141 179 222 267 317
#     4   9  18  32  51  73 101 134 171 213 261 313
#     4   9  18  33  55  82 108 142 185 220 262 324
#     4   9  18  32  50  72  98 131 170 210 255 310
#     4  10  20  33  52  75 101 133 174 218 263 313
#     4  10  21  35  50  71 101 135 171 214 263 312
#
# _framework density 22.407819
#
# number of rings (size 3 to 8) (size 9 to 14) (size 15 to 20)
#    0.000    2.714    0.000    0.857    2.000    3.143 
#    0.000    2.143    0.000    0.857    0.000    0.000 
#    0.000    0.000    0.000    0.000    0.000    0.000 
#
# Total GULP energy -156018.655645 kJ/mol
# GULP energy per Si atom -5572.094844 kJ/mol
# Density = 2.235682 g / cm^3
# Si number density = 22.407819 Si / 1000 Ang^3
#
#
#
# Elastic Constant Matrix: (Units=GPa)
#
#
# Indices 1 2 3 4 5 6 
#
# 1 230.8724 7.1727 64.8098 0.0000 0.0000 0.0000
# 2 7.1727 65.8952 -9.8935 0.0000 0.0000 0.0000
# 3 64.8098 -9.8935 52.7536 0.0000 0.0000 0.0000
# 4 0.0000 0.0000 0.0000 20.3311 0.0000 0.0000
# 5 0.0000 0.0000 0.0000 0.0000 229.4341 0.0000
# 6 0.0000 0.0000 0.0000 0.0000 0.0000 -14.1793
#
#
#
# Elastic Compliance Matrix: (Units=1/GPa)
#
#
# Indices 1 2 3 4 5 6 
#
# 1 0.006877 -0.002075 -0.008838 0.000000 0.000000 0.000000
# 2 -0.002075 0.016242 0.005596 0.000000 0.000000 0.000000
# 3 -0.008838 0.005596 0.030863 0.000000 0.000000 0.000000
# 4 0.000000 0.000000 0.000000 0.049186 0.000000 0.000000
# 5 0.000000 0.000000 0.000000 0.000000 0.004359 0.000000
# 6 0.000000 0.000000 0.000000 0.000000 0.000000 -0.070525
#
#
# Mechanical properties :
#
#
# Convention : Reuss Voigt Hill
#
# Bulk Modulus (GPa) = 23.06986 52.63324 37.85155
# Shear Modulus (GPa) = 80.53667 66.27932 73.40799
#
# Velocity S-wave (km/s) = 6.00161 5.44453 5.72984
# Velocity P-wave (km/s) = 7.63830 7.94126 7.79125
#
# Compressibility (1/GPa) = 0.04334660
#
# Stress axis : x y z
#
# Youngs Moduli (GPa) = 145.41813 61.57010 32.40153
#
# Poissons Ratio (x) = 0.12778 0.28635
# Poissons Ratio (y) = 0.30180 -0.18131
# Poissons Ratio (z) = 1.28514 -0.34453
#
# Static dielectric constant tensor:
#      x y z
#    x 1.892570 0.000000 0.000000 
#    y 0.000000 1.852590 0.000000 
#    z 0.000000 0.000000 1.789620 
# 
# From -- ./inp_files/15460.got.cif
#   From: 2010.05.17/outbox.cif.g08.bks.cpg/sg38_8_cif.got.tgz:15460.got - 2010.06.03 18:07:57.
