data_PCOD9357543
_publ_section_title
;
Structure prediction by ZEFSAII (Michael W. Deem and Ramdas Pophale) SiO2 
 PCOD9357543
Probable space group: A M M 2
;
_chemical_formula_sum "Si O2"
_cell_formula_units_Z 64
_cell_length_a 22.091612
_cell_length_b 9.140628
_cell_length_c 15.070415
_cell_angle_alpha 90.000000
_cell_angle_beta 90.000000
_cell_angle_gamma 90.000000
_cell_volume 3043.187094
_symmetry_space_group_name_H-M "A M M 2"
_symmetry_group_IT_number 38
_symmetry_cell_setting 'orthorhombic'
loop_
_space_group_symop_operation_xyz
x,y,z
-x,-y,z
-x,y,z
x,-y,z
x,1/2+y,1/2+z
-x,1/2-y,1/2+z
-x,1/2+y,1/2+z
x,1/2-y,1/2+z
loop_
_atom_site_type_symbol
_atom_site_label
_atom_site_fract_x
_atom_site_fract_y
_atom_site_fract_z
Si Si1 0.566020 0.174772 0.344550
Si Si2 0.935076 0.323356 0.892363
Si Si3 0.196305 0.170274 0.607517
Si Si4 0.566020 0.174772 0.652620
Si Si5 0.313993 0.337822 0.603074
Si Si6 0.935076 0.176644 0.604812
Si Si7 0.803695 0.670275 0.889657
Si Si8 0.313993 0.337821 0.394098
O O1 0.500000 0.206522 0.387224
O O2 0.564237 0.250001 0.248585
O O3 0.625790 0.241753 0.386859
O O4 0.571322 0.000000 0.338084
O O5 0.934247 0.500000 0.881493
O O6 0.869554 0.270250 0.860016
O O7 0.000000 0.268071 0.857073
O O8 0.935935 0.297192 0.998587
O O9 0.254075 0.260284 0.639713
O O10 0.130446 0.229750 0.637158
O O11 0.195749 0.172081 0.498587
O O12 0.202341 0.000000 0.632769
O O13 0.500000 0.206523 0.609946
O O14 0.625790 0.241753 0.610312
O O15 0.571321 0.000000 0.659085
O O16 0.323617 0.500000 0.641766
O O17 0.302569 0.353110 0.498586
O O18 0.000000 0.231929 0.640102
O O19 0.934247 0.000000 0.615682
O O20 0.797659 0.500000 0.864405
O O21 0.745925 0.760284 0.857460
O O22 0.323616 0.500000 0.355406
#
# Coordination Sequence:
#
# PCOD9357543 Si02
#       8
#     8   8   8   8   8   8   8   8
#     4  10  21  37  56  75  95 120 151 189 233 281
#     4   7   9  14  27  49  76 107 145 187 228 269
#     4   8  13  22  37  57  83 116 153 192 232 273
#     4  10  21  37  56  75  95 120 151 189 233 281
#     4  10  20  32  47  69  98 130 161 194 232 274
#     4   7   9  14  27  49  76 107 145 187 228 269
#     4   8  13  22  37  57  83 116 153 192 232 273
#     4  10  20  32  47  69  98 130 161 194 232 274
#
# _framework density 21.030583
#
# number of rings (size 3 to 8) (size 9 to 14) (size 15 to 20)
#    0.000    3.250    0.000    3.750    0.000    3.500 
#    0.000    2.500    0.000    0.750    0.000    5.250 
#    0.000    1.000    0.000    2.750    0.000    7.000 
#
# Total GULP energy -178187.336551 kJ/mol
# GULP energy per Si atom -5568.354267 kJ/mol
# Density = 2.098272 g / cm^3
# Si number density = 21.030583 Si / 1000 Ang^3
#
#
#
# Elastic Constant Matrix: (Units=GPa)
#
#
# Indices 1 2 3 4 5 6 
#
# 1 251.7616 90.1921 9.5553 0.0000 0.0000 0.0000
# 2 90.1921 87.8872 2.1498 0.0000 0.0000 0.0000
# 3 9.5553 2.1498 31.2357 0.0000 0.0000 0.0000
# 4 0.0000 0.0000 0.0000 11.1772 0.0000 0.0000
# 5 0.0000 0.0000 0.0000 0.0000 -7.3493 0.0000
# 6 0.0000 0.0000 0.0000 0.0000 0.0000 70.8774
#
#
#
# Elastic Compliance Matrix: (Units=1/GPa)
#
#
# Indices 1 2 3 4 5 6 
#
# 1 0.006350 -0.006480 -0.001497 0.000000 0.000000 0.000000
# 2 -0.006480 0.018010 0.000743 0.000000 0.000000 0.000000
# 3 -0.001497 0.000743 0.032421 0.000000 0.000000 0.000000
# 4 0.000000 0.000000 0.000000 0.089468 0.000000 0.000000
# 5 0.000000 0.000000 0.000000 0.000000 -0.136067 0.000000
# 6 0.000000 0.000000 0.000000 0.000000 0.000000 0.014109
#
#
# Mechanical properties :
#
#
# Convention : Reuss Voigt Hill
#
# Bulk Modulus (GPa) = 23.63295 63.85321 43.74308
# Shear Modulus (GPa) = 94.58072 32.87355 63.72713
#
# Velocity S-wave (km/s) = 6.71346 3.95793 5.51071
# Velocity P-wave (km/s) = 8.44724 7.16345 7.83169
#
# Compressibility (1/GPa) = 0.04231380
#
# Stress axis : x y z
#
# Youngs Moduli (GPa) = 157.47216 55.52393 30.84389
#
# Poissons Ratio (x) = 0.35981 0.04616
# Poissons Ratio (y) = 1.02046 -0.02291
# Poissons Ratio (z) = 0.23568 -0.04124
#
# Static dielectric constant tensor:
#      x y z
#    x 1.824030 0.000000 0.000000 
#    y 0.000000 1.758030 0.000000 
#    z 0.000000 0.000000 1.852070 
# 
# From -- ./inp_files/21521.got.cif
#   From: 2010.05.17/outbox.cif.g08.bks.cpg/sg38_11_cif.got.tgz:21521.got - 2010.06.03 18:07:57.
