data_PCOD9357948
_publ_section_title
;
Structure prediction by ZEFSAII (Michael W. Deem and Ramdas Pophale) SiO2 
 PCOD9357948
Probable space group: A M M 2
;
_chemical_formula_sum "Si O2"
_cell_formula_units_Z 64
_cell_length_a 18.844508
_cell_length_b 19.481874
_cell_length_c 8.952571
_cell_angle_alpha 90.000000
_cell_angle_beta 90.000000
_cell_angle_gamma 90.000000
_cell_volume 3286.724539
_symmetry_space_group_name_H-M "A M M 2"
_symmetry_group_IT_number 38
_symmetry_cell_setting 'orthorhombic'
loop_
_space_group_symop_operation_xyz
x,y,z
-x,-y,z
-x,y,z
x,-y,z
x,1/2+y,1/2+z
-x,1/2-y,1/2+z
-x,1/2+y,1/2+z
x,1/2-y,1/2+z
loop_
_atom_site_type_symbol
_atom_site_label
_atom_site_fract_x
_atom_site_fract_y
_atom_site_fract_z
Si Si1 0.081554 0.679553 0.686840
Si Si2 0.308166 0.077014 0.623827
Si Si3 0.286378 0.822328 0.350023
Si Si4 0.187817 0.575402 0.668082
Si Si5 0.419531 0.790718 0.141886
Si Si6 0.170975 0.924688 0.823600
Si Si7 0.844077 0.273992 0.398058
Si Si8 0.420336 0.651888 0.309303
O O1 0.106972 0.600973 0.686647
O O2 0.135357 0.714252 0.569061
O O3 0.101985 0.716777 0.838803
O O4 0.000000 0.687298 0.646946
O O5 0.305577 0.136428 0.499806
O O6 0.231279 0.075087 0.699767
O O7 0.363272 0.097515 0.754046
O O8 0.324322 0.000000 0.565787
O O9 0.235757 0.871817 0.255367
O O10 0.356808 0.813842 0.251249
O O11 0.236821 0.754429 0.378701
O O12 0.198529 0.500000 0.729029
O O13 0.203327 0.575555 0.491401
O O14 0.500000 0.816428 0.176960
O O15 0.422017 0.710019 0.180147
O O16 0.404660 0.811637 0.969709
O O17 0.139053 0.847562 0.819235
O O18 0.132741 0.000000 0.812906
O O19 0.500000 0.623092 0.321931
#
# Coordination Sequence:
#
# PCOD9357948 Si02
#       8
#     8   8   8   8   8   8   8   8
#     4  10  20  34  54  79 108 142 180 226 277 334
#     4  11  22  34  52  77 108 147 186 230 282 337
#     4  11  21  34  56  83 112 145 189 238 286 341
#     4   9  19  35  54  77 106 141 182 229 282 338
#     4  10  21  37  59  84 110 142 184 241 299 349
#     4   9  18  33  52  76 106 140 180 224 275 337
#     4  10  20  34  54  81 109 143 182 228 282 337
#     4  10  21  37  55  77 106 140 181 230 289 351
#
# _framework density 19.472273000000001
#
# number of rings (size 3 to 8) (size 9 to 14) (size 15 to 20)
#    0.000    2.000    0.000    3.750    0.000    6.000 
#    0.000    0.625    0.000    3.750    0.000    0.000 
#    0.000    0.000    0.000    0.000    0.000    0.000 
#
# Total GULP energy -178185.368632 kJ/mol
# GULP energy per Si atom -5568.292770 kJ/mol
# Density = 1.942795 g / cm^3
# Si number density = 19.472273 Si / 1000 Ang^3
#
#
#
# Elastic Constant Matrix: (Units=GPa)
#
#
# Indices 1 2 3 4 5 6 
#
# 1 80.3026 22.4442 28.8389 0.0000 0.0000 0.0000
# 2 22.4442 68.7937 4.5308 0.0000 0.0000 0.0000
# 3 28.8389 4.5308 42.0127 0.0000 0.0000 0.0000
# 4 0.0000 0.0000 0.0000 17.1728 0.0000 0.0000
# 5 0.0000 0.0000 0.0000 0.0000 19.1099 0.0000
# 6 0.0000 0.0000 0.0000 0.0000 0.0000 13.7235
#
#
#
# Elastic Compliance Matrix: (Units=1/GPa)
#
#
# Indices 1 2 3 4 5 6 
#
# 1 0.018171 -0.005143 -0.011918 0.000000 0.000000 0.000000
# 2 -0.005143 0.016096 0.001795 0.000000 0.000000 0.000000
# 3 -0.011918 0.001795 0.031790 0.000000 0.000000 0.000000
# 4 0.000000 0.000000 0.000000 0.058232 0.000000 0.000000
# 5 0.000000 0.000000 0.000000 0.000000 0.052329 0.000000
# 6 0.000000 0.000000 0.000000 0.000000 0.000000 0.072868
#
#
# Mechanical properties :
#
#
# Convention : Reuss Voigt Hill
#
# Bulk Modulus (GPa) = 28.15092 33.63742 30.89417
# Shear Modulus (GPa) = 17.13153 19.02091 18.07622
#
# Velocity S-wave (km/s) = 2.96935 3.12880 3.05012
# Velocity P-wave (km/s) = 5.12292 5.51041 5.32019
#
# Compressibility (1/GPa) = 0.03552282
#
# Stress axis : x y z
#
# Youngs Moduli (GPa) = 55.03401 62.12712 31.45655
#
# Poissons Ratio (x) = 0.31954 0.37491
# Poissons Ratio (y) = 0.28306 -0.05645
# Poissons Ratio (z) = 0.65591 -0.11150
#
# Static dielectric constant tensor:
#      x y z
#    x 1.691040 0.000000 0.000000 
#    y 0.000000 1.750920 0.000000 
#    z 0.000000 0.000000 1.689700 
# 
# From -- ./inp_files/6467.got.cif
#   From: 2010.05.17/outbox.cif.g08.bks.cpg/sg38_4_cif.got.tgz:6467.got - 2010.06.03 18:07:57.
