data_PCOD9357652
_publ_section_title
;
Structure prediction by ZEFSAII (Michael W. Deem and Ramdas Pophale) SiO2 
 PCOD9357652
Probable space group: A M M 2
;
_chemical_formula_sum "Si O2"
_cell_formula_units_Z 40
_cell_length_a 8.161561
_cell_length_b 7.318382
_cell_length_c 29.752805
_cell_angle_alpha 90.000000
_cell_angle_beta 90.000000
_cell_angle_gamma 90.000000
_cell_volume 1777.117819
_symmetry_space_group_name_H-M "A M M 2"
_symmetry_group_IT_number 38
_symmetry_cell_setting 'orthorhombic'
loop_
_space_group_symop_operation_xyz
x,y,z
-x,-y,z
-x,y,z
x,-y,z
x,1/2+y,1/2+z
-x,1/2-y,1/2+z
-x,1/2+y,1/2+z
x,1/2-y,1/2+z
loop_
_atom_site_type_symbol
_atom_site_label
_atom_site_fract_x
_atom_site_fract_y
_atom_site_fract_z
Si Si1 0.500000 0.723797 0.664810
Si Si2 0.308306 0.278052 0.410249
Si Si3 0.309322 0.720393 0.311077
Si Si4 0.180715 0.222910 0.005681
Si Si5 0.500000 0.222603 0.060907
Si Si6 0.822470 0.212266 0.214766
O O1 0.500000 0.500000 0.666990
O O2 0.500000 0.776168 0.612817
O O3 0.663019 0.789001 0.690187
O O4 0.500000 0.227949 0.415298
O O5 0.303376 0.500000 0.410088
O O6 0.252645 0.219112 0.360627
O O7 0.210707 0.219135 0.454096
O O8 0.500000 0.776513 0.305673
O O9 0.306798 0.500000 0.310940
O O10 0.208402 0.781206 0.268161
O O11 0.335123 0.282021 0.035389
O O12 0.000000 0.279666 0.021161
O O13 0.182879 0.000000 0.006066
O O14 0.500000 0.000000 0.059520
O O15 0.000000 0.293212 0.204199
O O16 0.828812 0.000000 0.201474
#
# Coordination Sequence:
#
# PCOD9357652 Si02
#       6
#     4   8   8   8   4   8
#     4   9  18  32  46  59  83 119 155 195 238 273
#     4   8  13  23  38  58  88 120 147 178 219 267
#     4   9  17  29  48  72  96 125 159 192 228 273
#     4   9  15  22  35  56  82 113 146 177 216 269
#     4   9  16  26  39  55  79 111 147 187 226 265
#     4  10  20  33  49  68  92 125 161 193 232 281
#
# _framework density 22.508357
#
# number of rings (size 3 to 8) (size 9 to 14) (size 15 to 20)
#    0.000    3.000    2.000    1.200    0.000    2.000 
#    0.000    6.000    0.000    0.000    0.000    0.000 
#    0.000    3.200    0.000    2.000    0.000    2.000 
#
# Total GULP energy -111677.671138 kJ/mol
# GULP energy per Si atom -5583.883557 kJ/mol
# Density = 2.245713 g / cm^3
# Si number density = 22.508357 Si / 1000 Ang^3
#
#
#
# Elastic Constant Matrix: (Units=GPa)
#
#
# Indices 1 2 3 4 5 6 
#
# 1 206.8719 9.1108 112.8070 0.0000 0.0000 0.0000
# 2 9.1108 88.8595 -1.8621 0.0000 0.0000 0.0000
# 3 112.8070 -1.8621 150.2829 0.0000 0.0000 0.0000
# 4 0.0000 0.0000 0.0000 4.1869 0.0000 0.0000
# 5 0.0000 0.0000 0.0000 0.0000 -2.5447 0.0000
# 6 0.0000 0.0000 0.0000 0.0000 0.0000 -9.0110
#
#
#
# Elastic Compliance Matrix: (Units=1/GPa)
#
#
# Indices 1 2 3 4 5 6 
#
# 1 0.008268 -0.000978 -0.006218 0.000000 0.000000 0.000000
# 2 -0.000978 0.011372 0.000875 0.000000 0.000000 0.000000
# 3 -0.006218 0.000875 0.011332 0.000000 0.000000 0.000000
# 4 0.000000 0.000000 0.000000 0.238843 0.000000 0.000000
# 5 0.000000 0.000000 0.000000 0.000000 -0.392977 0.000000
# 6 0.000000 0.000000 0.000000 0.000000 0.000000 -0.110975
#
#
# Mechanical properties :
#
#
# Convention : Reuss Voigt Hill
#
# Bulk Modulus (GPa) = 54.55439 76.23619 65.39529
# Shear Modulus (GPa) = -23.21424 20.25681 -1.47872
#
# Velocity S-wave (km/s) = -3.21497 3.00320 -0.81141
# Velocity P-wave (km/s) = 3.24171 6.78007 5.31404
#
# Compressibility (1/GPa) = 0.01833033
#
# Stress axis : x y z
#
# Youngs Moduli (GPa) = 120.95238 87.93274 88.24200
#
# Poissons Ratio (x) = 0.08600 0.54870
# Poissons Ratio (y) = 0.11829 -0.07721
# Poissons Ratio (z) = 0.75210 -0.07694
#
# Static dielectric constant tensor:
#      x y z
#    x 1.816090 0.000000 0.000000 
#    y 0.000000 2.017300 0.000000 
#    z 0.000000 0.000000 1.781460 
# 
# From -- ./inp_files/23211.got.cif
#   From: 2010.05.17/outbox.cif.g08.bks.cpg/sg38_12_cif.got.tgz:23211.got - 2010.06.03 18:07:57.
