data_PCOD9357365
_publ_section_title
;
Structure prediction by ZEFSAII (Michael W. Deem and Ramdas Pophale) SiO2 
 PCOD9357365
Probable space group: A M M 2
;
_chemical_formula_sum "Si O2"
_cell_formula_units_Z 64
_cell_length_a 7.552930
_cell_length_b 32.075403
_cell_length_c 12.132361
_cell_angle_alpha 90.000000
_cell_angle_beta 90.000000
_cell_angle_gamma 90.000000
_cell_volume 2939.225492
_symmetry_space_group_name_H-M "A M M 2"
_symmetry_group_IT_number 38
_symmetry_cell_setting 'orthorhombic'
loop_
_space_group_symop_operation_xyz
x,y,z
-x,-y,z
-x,y,z
x,-y,z
x,1/2+y,1/2+z
-x,1/2-y,1/2+z
-x,1/2+y,1/2+z
x,1/2-y,1/2+z
loop_
_atom_site_type_symbol
_atom_site_label
_atom_site_fract_x
_atom_site_fract_y
_atom_site_fract_z
Si Si1 0.205073 0.455146 0.430350
Si Si2 0.785520 0.837296 0.680256
Si Si3 0.785687 0.301645 0.945346
Si Si4 0.704181 0.566203 0.188116
Si Si5 0.794773 0.371420 0.535431
Si Si6 0.783885 0.207841 0.903738
Si Si7 0.292178 0.122032 0.287473
Si Si8 0.283804 0.046568 0.442055
O O1 0.285134 0.500000 0.460960
O O2 0.207647 0.450900 0.298165
O O3 0.285969 0.413179 0.481762
O O4 0.000000 0.456185 0.466593
O O5 0.727253 0.818336 0.564303
O O6 0.715169 0.883840 0.693240
O O7 0.734423 0.808763 0.783137
O O8 0.000000 0.840091 0.680127
O O9 0.000000 0.301004 0.945769
O O10 0.721811 0.254690 0.925244
O O11 0.731196 0.335066 0.853840
O O12 0.500000 0.552745 0.192744
O O13 0.776124 0.553102 0.068494
O O14 0.722466 0.327605 0.489819
O O15 0.788609 0.374620 0.666543
O O16 0.000000 0.371094 0.498359
O O17 0.000000 0.209898 0.908450
O O18 0.500000 0.114524 0.270843
O O19 0.222519 0.083876 0.362825
O O20 0.500000 0.048887 0.444883
O O21 0.235029 0.000000 0.404892
#
# Coordination Sequence:
#
# PCOD9357365 Si02
#       8
#     8   8   8   8   8   8   8   8
#     4  10  21  38  60  86 116 149 186 235 289 332
#     4  10  19  35  59  86 115 145 186 235 283 332
#     4  10  21  36  61  88 111 145 191 236 278 333
#     4  11  20  34  58  86 118 150 185 227 280 342
#     4  10  21  39  60  81 111 150 191 235 279 332
#     4   9  19  36  60  86 111 146 189 233 278 331
#     4  11  23  39  57  81 115 150 186 234 286 337
#     4   9  19  36  56  78 108 148 187 224 273 332
#
# _framework density 21.774443999999999
#
# number of rings (size 3 to 8) (size 9 to 14) (size 15 to 20)
#    0.000    2.000    2.500    1.125    1.750    1.750 
#    0.000    1.250    0.000    3.375    0.000    0.000 
#    0.000    0.000    0.000    0.000    0.000    0.000 
#
# Total GULP energy -178794.325787 kJ/mol
# GULP energy per Si atom -5587.322681 kJ/mol
# Density = 2.172488 g / cm^3
# Si number density = 21.774444 Si / 1000 Ang^3
#
#
#
# Elastic Constant Matrix: (Units=GPa)
#
#
# Indices 1 2 3 4 5 6 
#
# 1 50.7838 -4.6061 -12.5001 0.0000 0.0000 0.0000
# 2 -4.6061 201.8369 64.2335 0.0000 0.0000 0.0000
# 3 -12.5001 64.2335 111.0943 0.0000 0.0000 0.0000
# 4 0.0000 0.0000 0.0000 44.4338 0.0000 0.0000
# 5 0.0000 0.0000 0.0000 0.0000 60.3609 0.0000
# 6 0.0000 0.0000 0.0000 0.0000 0.0000 2.0630
#
#
#
# Elastic Compliance Matrix: (Units=1/GPa)
#
#
# Indices 1 2 3 4 5 6 
#
# 1 0.020269 -0.000323 0.002467 0.000000 0.000000 0.000000
# 2 -0.000323 0.006077 -0.003550 0.000000 0.000000 0.000000
# 3 0.002467 -0.003550 0.011331 0.000000 0.000000 0.000000
# 4 0.000000 0.000000 0.000000 0.022505 0.000000 0.000000
# 5 0.000000 0.000000 0.000000 0.000000 0.016567 0.000000
# 6 0.000000 0.000000 0.000000 0.000000 0.000000 0.484722
#
#
# Mechanical properties :
#
#
# Convention : Reuss Voigt Hill
#
# Bulk Modulus (GPa) = 28.68035 50.88550 39.78292
# Shear Modulus (GPa) = 8.68199 42.47739 25.57969
#
# Velocity S-wave (km/s) = 1.99897 4.42157 3.43119
# Velocity P-wave (km/s) = 4.30442 7.03471 5.83160
#
# Compressibility (1/GPa) = 0.03486708
#
# Stress axis : x y z
#
# Youngs Moduli (GPa) = 49.33562 164.55863 88.24986
#
# Poissons Ratio (x) = 0.05309 -0.21773
# Poissons Ratio (y) = 0.01592 0.31328
# Poissons Ratio (z) = -0.12172 0.58416
#
# Static dielectric constant tensor:
#      x y z
#    x 1.823680 0.000000 0.000000 
#    y 0.000000 1.784590 0.000000 
#    z 0.000000 0.000000 1.740520 
# 
# From -- ./inp_files/8670.got.cif
#   From: 2010.05.17/outbox.cif.g08.bks.cpg/sg38_5_cif.got.tgz:8670.got - 2010.06.03 18:07:57.
