data_PCOD9357790
_publ_section_title
;
Structure prediction by ZEFSAII (Michael W. Deem and Ramdas Pophale) SiO2 
 PCOD9357790
Probable space group: A M M 2
;
_chemical_formula_sum "Si O2"
_cell_formula_units_Z 56
_cell_length_a 24.568581
_cell_length_b 7.666827
_cell_length_c 14.936714
_cell_angle_alpha 90.000000
_cell_angle_beta 90.000000
_cell_angle_gamma 90.000000
_cell_volume 2813.525158
_symmetry_space_group_name_H-M "A M M 2"
_symmetry_group_IT_number 38
_symmetry_cell_setting 'orthorhombic'
loop_
_space_group_symop_operation_xyz
x,y,z
-x,-y,z
-x,y,z
x,-y,z
x,1/2+y,1/2+z
-x,1/2-y,1/2+z
-x,1/2+y,1/2+z
x,1/2-y,1/2+z
loop_
_atom_site_type_symbol
_atom_site_label
_atom_site_fract_x
_atom_site_fract_y
_atom_site_fract_z
Si Si1 0.938000 0.000000 0.899821
Si Si2 0.439311 0.286901 0.699956
Si Si3 0.145308 0.295741 0.682720
Si Si4 0.767364 0.210226 0.034408
Si Si5 0.645618 0.204343 0.056921
Si Si6 0.061574 0.000000 0.681651
Si Si7 0.439131 0.710855 0.907184
Si Si8 0.856484 0.696967 0.893789
O O1 0.902090 0.167246 0.925572
O O2 0.940715 0.000000 0.790773
O O3 0.000000 0.000000 0.933004
O O4 0.500000 0.230548 0.671019
O O5 0.439377 0.500000 0.696355
O O6 0.391322 0.220833 0.636838
O O7 0.432003 0.238616 0.803547
O O8 0.132355 0.500000 0.668774
O O9 0.197985 0.252258 0.623750
O O10 0.096090 0.169875 0.655426
O O11 0.155247 0.269526 0.788707
O O12 0.705827 0.277432 0.041993
O O13 0.766059 0.000000 0.023364
O O14 0.802253 0.282049 0.951937
O O15 0.653690 0.000000 0.078072
O O16 0.608157 0.219324 0.969571
O O17 0.000000 0.000000 0.648065
O O18 0.500000 0.767495 0.935750
O O19 0.437910 0.500000 0.911191
O O20 0.876996 0.500000 0.901848
#
# Coordination Sequence:
#
# PCOD9357790 Si02
#       8
#     4   8   8   8   8   4   8   8
#     4   9  18  36  60  86 117 147 180 233 283 325
#     4   8  15  30  52  75 102 140 180 218 268 330
#     4   9  20  37  57  81 112 149 186 228 279 332
#     4  10  21  37  54  75 114 149 182 236 284 327
#     4  10  20  33  53  79 103 138 182 227 268 320
#     4   9  18  34  60  88 111 143 186 229 279 333
#     4   9  18  33  52  75 107 141 175 223 276 324
#     4  10  20  36  60  84 109 150 191 226 279 337
#
# _framework density 19.903856999999999
#
# number of rings (size 3 to 8) (size 9 to 14) (size 15 to 20)
#    0.000    2.714    0.714    1.286    1.000    3.143 
#    0.000    7.143    0.000    0.857    0.000    0.000 
#    0.000    0.000    0.000    0.000    0.000    0.000 
#
# Total GULP energy -156278.645289 kJ/mol
# GULP energy per Si atom -5581.380189 kJ/mol
# Density = 1.985856 g / cm^3
# Si number density = 19.903857 Si / 1000 Ang^3
#
#
#
# Elastic Constant Matrix: (Units=GPa)
#
#
# Indices 1 2 3 4 5 6 
#
# 1 196.3528 52.5022 67.9940 0.0000 0.0000 0.0000
# 2 52.5022 58.3743 30.1198 0.0000 0.0000 0.0000
# 3 67.9940 30.1198 68.5037 0.0000 0.0000 0.0000
# 4 0.0000 0.0000 0.0000 17.4636 0.0000 0.0000
# 5 0.0000 0.0000 0.0000 0.0000 7.0097 0.0000
# 6 0.0000 0.0000 0.0000 0.0000 0.0000 -3.8499
#
#
#
# Elastic Compliance Matrix: (Units=1/GPa)
#
#
# Indices 1 2 3 4 5 6 
#
# 1 0.008508 -0.004262 -0.006571 0.000000 0.000000 0.000000
# 2 -0.004262 0.024292 -0.006451 0.000000 0.000000 0.000000
# 3 -0.006571 -0.006451 0.023956 0.000000 0.000000 0.000000
# 4 0.000000 0.000000 0.000000 0.057262 0.000000 0.000000
# 5 0.000000 0.000000 0.000000 0.000000 0.142660 0.000000
# 6 0.000000 0.000000 0.000000 0.000000 0.000000 -0.259747
#
#
# Mechanical properties :
#
#
# Convention : Reuss Voigt Hill
#
# Bulk Modulus (GPa) = 45.06654 69.38475 57.22565
# Shear Modulus (GPa) = 128.55798 15.63234 72.09516
#
# Velocity S-wave (km/s) = 8.04548 2.80553 6.02498
# Velocity P-wave (km/s) = 10.44019 6.74020 8.78714
#
# Compressibility (1/GPa) = 0.02218941
#
# Stress axis : x y z
#
# Youngs Moduli (GPa) = 117.54098 41.16541 41.74342
#
# Poissons Ratio (x) = 0.17543 0.27428
# Poissons Ratio (y) = 0.50091 0.26929
# Poissons Ratio (z) = 0.77232 0.26556
#
# Static dielectric constant tensor:
#      x y z
#    x 1.674580 0.000000 0.000000 
#    y 0.000000 1.731090 0.000000 
#    z 0.000000 0.000000 1.697450 
# 
# From -- ./inp_files/15554.got.cif
#   From: 2010.05.17/outbox.cif.g08.bks.cpg/sg38_8_cif.got.tgz:15554.got - 2010.06.03 18:07:57.
