data_PCOD9357340
_publ_section_title
;
Structure prediction by ZEFSAII (Michael W. Deem and Ramdas Pophale) SiO2 
 PCOD9357340
Probable space group: A M M 2
;
_chemical_formula_sum "Si O2"
_cell_formula_units_Z 58
_cell_length_a 7.862495
_cell_length_b 22.703246
_cell_length_c 15.427313
_cell_angle_alpha 90.000000
_cell_angle_beta 90.000000
_cell_angle_gamma 90.000000
_cell_volume 2753.839520
_symmetry_space_group_name_H-M "A M M 2"
_symmetry_group_IT_number 38
_symmetry_cell_setting 'orthorhombic'
loop_
_space_group_symop_operation_xyz
x,y,z
-x,-y,z
-x,y,z
x,-y,z
x,1/2+y,1/2+z
-x,1/2-y,1/2+z
-x,1/2+y,1/2+z
x,1/2-y,1/2+z
loop_
_atom_site_type_symbol
_atom_site_label
_atom_site_fract_x
_atom_site_fract_y
_atom_site_fract_z
Si Si1 0.803722 0.766902 0.783920
Si Si2 0.500000 0.000000 0.777989
Si Si3 0.299197 0.756932 0.094913
Si Si4 0.304050 0.185544 0.444557
Si Si5 0.202134 0.599157 0.309976
Si Si6 0.307554 0.429919 0.681859
Si Si7 0.802680 0.933678 0.370326
Si Si8 0.297401 0.619360 0.503606
O O1 0.781736 0.738213 0.689365
O O2 0.740751 0.724529 0.860587
O O3 0.738067 0.834433 0.782654
O O4 0.000000 0.774645 0.803531
O O5 0.345100 0.051733 0.781162
O O6 0.500000 0.750637 0.114727
O O7 0.280341 0.812790 0.031203
O O8 0.222568 0.704988 0.035641
O O9 0.500000 0.198136 0.458781
O O10 0.280749 0.117189 0.425432
O O11 0.209292 0.601584 0.415156
O O12 0.000000 0.588980 0.284832
O O13 0.500000 0.404505 0.686692
O O14 0.319849 0.500000 0.682372
O O15 0.213199 0.414418 0.769838
O O16 0.232230 0.412697 0.589938
O O17 0.000000 0.935900 0.392788
O O18 0.730825 0.000000 0.378896
O O19 0.500000 0.605810 0.493529
#
# Coordination Sequence:
#
# PCOD9357340 Si02
#       8
#     8   2   8   8   8   8   8   8
#     4  11  24  41  65  97 133 166 212 274 330 392
#     4  12  26  44  72  86 132 180 218 288 332 398
#     4  10  22  37  62  94 126 166 213 262 327 394
#     4  11  22  38  64  94 124 164 212 259 316 389
#     4  11  25  42  66  98 128 174 227 274 339 403
#     4   9  18  30  51  82 117 156 201 246 302 377
#     4  10  21  37  56  82 120 164 207 256 320 377
#     4  10  19  35  57  89 127 166 207 262 323 388
#
# _framework density 21.061502999999998
#
# number of rings (size 3 to 8) (size 9 to 14) (size 15 to 20)
#    0.000    1.655    2.069    2.276    2.897    4.138 
#    0.000    0.000    1.517    0.000    0.000    0.000 
#    0.000    0.000    0.000    0.000    0.000    0.000 
#
# Total GULP energy -161443.360749 kJ/mol
# GULP energy per Si atom -5567.012440 kJ/mol
# Density = 2.101357 g / cm^3
# Si number density = 21.061503 Si / 1000 Ang^3
#
#
#
# Elastic Constant Matrix: (Units=GPa)
#
#
# Indices 1 2 3 4 5 6 
#
# 1 59.6842 22.8221 -6.9082 0.0000 0.0000 0.0000
# 2 22.8221 63.6385 -2.2395 0.0000 0.0000 0.0000
# 3 -6.9082 -2.2395 41.7255 0.0000 0.0000 0.0000
# 4 0.0000 0.0000 0.0000 27.9278 0.0000 0.0000
# 5 0.0000 0.0000 0.0000 0.0000 25.3881 0.0000
# 6 0.0000 0.0000 0.0000 0.0000 0.0000 27.0623
#
#
#
# Elastic Compliance Matrix: (Units=1/GPa)
#
#
# Indices 1 2 3 4 5 6 
#
# 1 0.019761 -0.006985 0.002897 0.000000 0.000000 0.000000
# 2 -0.006985 0.018212 -0.000179 0.000000 0.000000 0.000000
# 3 0.002897 -0.000179 0.024436 0.000000 0.000000 0.000000
# 4 0.000000 0.000000 0.000000 0.035807 0.000000 0.000000
# 5 0.000000 0.000000 0.000000 0.000000 0.039389 0.000000
# 6 0.000000 0.000000 0.000000 0.000000 0.000000 0.036952
#
#
# Mechanical properties :
#
#
# Convention : Reuss Voigt Hill
#
# Bulk Modulus (GPa) = 18.56125 21.37745 19.96935
# Shear Modulus (GPa) = 24.86958 26.16722 25.51840
#
# Velocity S-wave (km/s) = 3.44002 3.52862 3.48460
# Velocity P-wave (km/s) = 4.96088 5.17432 5.06872
#
# Compressibility (1/GPa) = 0.05387569
#
# Stress axis : x y z
#
# Youngs Moduli (GPa) = 50.60475 54.90776 40.92297
#
# Poissons Ratio (x) = 0.38352 -0.11855
# Poissons Ratio (y) = 0.35346 0.00732
# Poissons Ratio (z) = -0.14659 0.00982
#
# Static dielectric constant tensor:
#      x y z
#    x 1.768150 0.000000 0.000000 
#    y 0.000000 1.862160 0.000000 
#    z 0.000000 0.000000 1.750600 
# 
# From -- ./inp_files/12665.got.cif
#   From: 2010.05.17/outbox.cif.g08.bks.cpg/sg38_7_cif.got.tgz:12665.got - 2010.06.03 18:07:57.
