data_PCOD9357207
_publ_section_title
;
Structure prediction by ZEFSAII (Michael W. Deem and Ramdas Pophale) SiO2 
 PCOD9357207
Probable space group: A M M 2
;
_chemical_formula_sum "Si O2"
_cell_formula_units_Z 64
_cell_length_a 19.885087
_cell_length_b 8.445788
_cell_length_c 21.193598
_cell_angle_alpha 90.000000
_cell_angle_beta 90.000000
_cell_angle_gamma 90.000000
_cell_volume 3559.363673
_symmetry_space_group_name_H-M "A M M 2"
_symmetry_group_IT_number 38
_symmetry_cell_setting 'orthorhombic'
loop_
_space_group_symop_operation_xyz
x,y,z
-x,-y,z
-x,y,z
x,-y,z
x,1/2+y,1/2+z
-x,1/2-y,1/2+z
-x,1/2+y,1/2+z
x,1/2-y,1/2+z
loop_
_atom_site_type_symbol
_atom_site_label
_atom_site_fract_x
_atom_site_fract_y
_atom_site_fract_z
Si Si1 0.709678 0.690548 0.485680
Si Si2 0.788632 0.806825 0.110842
Si Si3 0.712722 0.310360 0.736777
Si Si4 0.423967 0.309179 0.038263
Si Si5 0.787515 0.189615 0.860645
Si Si6 0.924771 0.308589 0.552856
Si Si7 0.923661 0.310416 0.910500
Si Si8 0.576555 0.308845 0.184297
O O1 0.712488 0.500000 0.485354
O O2 0.747600 0.745798 0.549042
O O3 0.632951 0.742961 0.492934
O O4 0.747480 0.747173 0.423075
O O5 0.753624 0.752629 0.174874
O O6 0.865560 0.757037 0.099427
O O7 0.787275 0.000000 0.111584
O O8 0.714857 0.500000 0.737802
O O9 0.748551 0.246565 0.798993
O O10 0.635730 0.257040 0.727467
O O11 0.500000 0.260424 0.021964
O O12 0.421520 0.500000 0.037425
O O13 0.411237 0.259080 0.111191
O O14 0.864041 0.249127 0.866412
O O15 0.788401 0.000000 0.861807
O O16 0.924260 0.500000 0.551381
O O17 0.910781 0.251627 0.481620
O O18 0.000000 0.255462 0.570146
O O19 0.922247 0.500000 0.911319
O O20 0.000000 0.259732 0.893319
O O21 0.500000 0.260976 0.200874
O O22 0.578761 0.500000 0.185731
#
# Coordination Sequence:
#
# PCOD9357207 Si02
#       8
#     8   8   8   8   8   8   8   8
#     4  10  19  34  55  79 106 138 179 225 267 317
#     4   9  17  32  52  79 109 136 175 224 269 318
#     4  11  22  36  55  80 113 145 180 229 277 323
#     4   9  18  32  52  81 113 141 174 222 275 324
#     4  11  23  39  57  78 110 149 187 223 267 328
#     4   9  16  30  54  80 107 142 181 219 265 322
#     4  10  20  34  54  82 112 140 177 226 275 320
#     4   9  18  34  55  79 108 141 179 221 268 328
#
# _framework density 17.980741999999999
#
# number of rings (size 3 to 8) (size 9 to 14) (size 15 to 20)
#    0.000    2.250    2.500    1.875    0.000    2.250 
#    0.000    3.750    0.000    3.000    0.000    0.000 
#    0.000    0.000    0.000    0.000    0.000    0.000 
#
# Total GULP energy -178507.874147 kJ/mol
# GULP energy per Si atom -5578.371067 kJ/mol
# Density = 1.793982 g / cm^3
# Si number density = 17.980742 Si / 1000 Ang^3
#
#
#
# Elastic Constant Matrix: (Units=GPa)
#
#
# Indices 1 2 3 4 5 6 
#
# 1 162.8292 22.2884 76.4503 0.0000 0.0000 0.0000
# 2 22.2884 17.1595 17.9849 0.0000 0.0000 0.0000
# 3 76.4503 17.9849 106.9893 0.0000 0.0000 0.0000
# 4 0.0000 0.0000 0.0000 20.0881 0.0000 0.0000
# 5 0.0000 0.0000 0.0000 0.0000 30.7912 0.0000
# 6 0.0000 0.0000 0.0000 0.0000 0.0000 26.4080
#
#
#
# Elastic Compliance Matrix: (Units=1/GPa)
#
#
# Indices 1 2 3 4 5 6 
#
# 1 0.009813 -0.006551 -0.005911 0.000000 0.000000 0.000000
# 2 -0.006551 0.075114 -0.007945 0.000000 0.000000 0.000000
# 3 -0.005911 -0.007945 0.014906 0.000000 0.000000 0.000000
# 4 0.000000 0.000000 0.000000 0.049781 0.000000 0.000000
# 5 0.000000 0.000000 0.000000 0.000000 0.032477 0.000000
# 6 0.000000 0.000000 0.000000 0.000000 0.000000 0.037867
#
#
# Mechanical properties :
#
#
# Convention : Reuss Voigt Hill
#
# Bulk Modulus (GPa) = 16.94396 57.82501 37.38448
# Shear Modulus (GPa) = 17.82874 26.80776 22.31825
#
# Velocity S-wave (km/s) = 3.15230 3.86543 3.52693
# Velocity P-wave (km/s) = 4.76373 7.22158 6.11737
#
# Compressibility (1/GPa) = 0.05901808
#
# Stress axis : x y z
#
# Youngs Moduli (GPa) = 101.90085 13.31314 67.08656
#
# Poissons Ratio (x) = 0.08722 0.39655
# Poissons Ratio (y) = 0.66758 0.53302
# Poissons Ratio (z) = 0.60234 0.10578
#
# Static dielectric constant tensor:
#      x y z
#    x 1.637310 0.000000 0.000000 
#    y 0.000000 1.617740 0.000000 
#    z 0.000000 0.000000 1.589300 
# 
# From -- ./inp_files/21369.got.cif
#   From: 2010.05.17/outbox.cif.g08.bks.cpg/sg38_11_cif.got.tgz:21369.got - 2010.06.03 18:07:57.
