data_PCOD9357552
_publ_section_title
;
Structure prediction by ZEFSAII (Michael W. Deem and Ramdas Pophale) SiO2 
 PCOD9357552
Probable space group: A M M 2
;
_chemical_formula_sum "Si O2"
_cell_formula_units_Z 48
_cell_length_a 8.954723
_cell_length_b 14.036907
_cell_length_c 24.177360
_cell_angle_alpha 90.000000
_cell_angle_beta 90.000000
_cell_angle_gamma 90.000000
_cell_volume 3039.012287
_symmetry_space_group_name_H-M "A M M 2"
_symmetry_group_IT_number 38
_symmetry_cell_setting 'orthorhombic'
loop_
_space_group_symop_operation_xyz
x,y,z
-x,-y,z
-x,y,z
x,-y,z
x,1/2+y,1/2+z
-x,1/2-y,1/2+z
-x,1/2+y,1/2+z
x,1/2-y,1/2+z
loop_
_atom_site_type_symbol
_atom_site_label
_atom_site_fract_x
_atom_site_fract_y
_atom_site_fract_z
Si Si1 0.677492 0.388176 0.120210
Si Si2 0.822031 0.208001 0.515487
Si Si3 0.677996 0.788371 0.842837
Si Si4 0.178198 0.387521 0.238056
Si Si5 0.178753 0.390657 0.447049
Si Si6 0.820865 0.110059 0.398994
O O1 0.500000 0.378272 0.126885
O O2 0.710448 0.500000 0.108834
O O3 0.735741 0.326707 0.069097
O O4 0.758637 0.363168 0.177550
O O5 0.786015 0.315043 0.495210
O O6 0.787715 0.141982 0.462117
O O7 0.000000 0.201690 0.525596
O O8 0.500000 0.789467 0.841161
O O9 0.745689 0.825989 0.785707
O O10 0.737413 0.856706 0.891998
O O11 0.738190 0.683857 0.859164
O O12 0.210959 0.500000 0.247687
O O13 0.000000 0.375441 0.239493
O O14 0.212462 0.500000 0.460445
O O15 0.000000 0.382421 0.436620
O O16 0.000000 0.121017 0.391935
O O17 0.781466 0.000000 0.390350
#
# Coordination Sequence:
#
# PCOD9357552 Si02
#       6
#     8   8   8   8   8   8
#     4  10  20  32  47  70  99 127 155 192 240 290
#     4   9  17  30  49  72  96 124 159 197 236 279
#     4  11  21  31  47  73 103 129 155 195 245 291
#     4  10  20  34  52  71  93 125 163 200 238 284
#     4   9  18  33  51  70  95 129 167 202 235 278
#     4   9  18  33  52  72  96 129 167 201 232 275
#
# _framework density 15.794605000000001
#
# number of rings (size 3 to 8) (size 9 to 14) (size 15 to 20)
#    0.000    2.333    0.000    4.500    0.000    8.000 
#    0.000    0.000    0.000    1.000    0.000    2.333 
#    0.000    0.000    0.000    0.000    0.000    0.000 
#
# Total GULP energy -133917.468931 kJ/mol
# GULP energy per Si atom -5579.894539 kJ/mol
# Density = 1.575866 g / cm^3
# Si number density = 15.794605 Si / 1000 Ang^3
#
#
#
# Elastic Constant Matrix: (Units=GPa)
#
#
# Indices 1 2 3 4 5 6 
#
# 1 66.6607 62.4568 69.8954 0.0000 0.0000 0.0000
# 2 62.4568 126.5242 83.7969 0.0000 0.0000 0.0000
# 3 69.8954 83.7969 133.3954 0.0000 0.0000 0.0000
# 4 0.0000 0.0000 0.0000 20.6692 0.0000 0.0000
# 5 0.0000 0.0000 0.0000 0.0000 -371.7207 0.0000
# 6 0.0000 0.0000 0.0000 0.0000 0.0000 15.8639
#
#
#
# Elastic Compliance Matrix: (Units=1/GPa)
#
#
# Indices 1 2 3 4 5 6 
#
# 1 0.039401 -0.009892 -0.014431 0.000000 0.000000 0.000000
# 2 -0.009892 0.016018 -0.004879 0.000000 0.000000 0.000000
# 3 -0.014431 -0.004879 0.018123 0.000000 0.000000 0.000000
# 4 0.000000 0.000000 0.000000 0.048381 0.000000 0.000000
# 5 0.000000 0.000000 0.000000 0.000000 -0.002690 0.000000
# 6 0.000000 0.000000 0.000000 0.000000 0.000000 0.063036
#
#
# Mechanical properties :
#
#
# Convention : Reuss Voigt Hill
#
# Bulk Modulus (GPa) = 66.06072 84.31984 75.19028
# Shear Modulus (GPa) = 20.34848 -59.67545 -19.66349
#
# Velocity S-wave (km/s) = 3.59321 -6.15339 -3.53221
# Velocity P-wave (km/s) = 7.68964 1.73652 5.57432
#
# Compressibility (1/GPa) = 0.01513759
#
# Stress axis : x y z
#
# Youngs Moduli (GPa) = 25.38037 62.42903 55.17877
#
# Poissons Ratio (x) = 0.61755 0.79627
# Poissons Ratio (y) = 0.25106 0.26923
# Poissons Ratio (z) = 0.36626 0.30461
#
# Static dielectric constant tensor:
#      x y z
#    x 1.538160 0.000000 0.000000 
#    y 0.000000 1.525410 0.000000 
#    z 0.000000 0.000000 1.494230 
# 
# From -- ./inp_files/19624.got.cif
#   From: 2010.05.17/outbox.cif.g08.bks.cpg/sg38_10_cif.got.tgz:19624.got - 2010.06.03 18:07:57.
