data_PCOD9357685
_publ_section_title
;
Structure prediction by ZEFSAII (Michael W. Deem and Ramdas Pophale) SiO2 
 PCOD9357685
Probable space group: A M M 2
;
_chemical_formula_sum "Si O2"
_cell_formula_units_Z 48
_cell_length_a 7.520785
_cell_length_b 9.442205
_cell_length_c 31.805464
_cell_angle_alpha 90.000000
_cell_angle_beta 90.000000
_cell_angle_gamma 90.000000
_cell_volume 2258.594855
_symmetry_space_group_name_H-M "A M M 2"
_symmetry_group_IT_number 38
_symmetry_cell_setting 'orthorhombic'
loop_
_space_group_symop_operation_xyz
x,y,z
-x,-y,z
-x,y,z
x,-y,z
x,1/2+y,1/2+z
-x,1/2-y,1/2+z
-x,1/2+y,1/2+z
x,1/2-y,1/2+z
loop_
_atom_site_type_symbol
_atom_site_label
_atom_site_fract_x
_atom_site_fract_y
_atom_site_fract_z
Si Si1 0.282916 0.836887 0.760030
Si Si2 0.789181 0.660813 0.517106
Si Si3 0.717638 0.337338 0.842189
Si Si4 0.282272 0.837094 0.177644
Si Si5 0.709635 0.340874 0.098168
Si Si6 0.287141 0.838692 0.922149
O O1 0.500000 0.838342 0.760103
O O2 0.227025 0.755034 0.802075
O O3 0.227806 0.751232 0.718627
O O4 0.224738 0.000000 0.759419
O O5 0.716328 0.500000 0.521884
O O6 0.726159 0.764411 0.553450
O O7 0.749330 0.709473 0.469681
O O8 0.000000 0.652469 0.521240
O O9 0.500000 0.338122 0.842259
O O10 0.774796 0.500000 0.839041
O O11 0.777762 0.263119 0.885298
O O12 0.500000 0.839471 0.177483
O O13 0.219598 0.758173 0.135489
O O14 0.224275 0.000000 0.179174
O O15 0.500000 0.353520 0.106820
O O16 0.784440 0.500000 0.097928
O O17 0.500000 0.845777 0.917652
O O18 0.218186 0.000000 0.917871
#
# Coordination Sequence:
#
# PCOD9357685 Si02
#       6
#     8   8   8   8   8   8
#     4   9  15  23  37  60  93 128 158 191 234 283
#     4  10  21  36  53  73  97 127 164 205 250 299
#     4   9  16  25  39  62  92 124 158 195 235 281
#     4   9  16  26  42  65  94 127 161 197 238 284
#     4  10  20  33  50  73 100 130 165 204 246 293
#     4   9  17  30  48  69  94 125 160 198 241 288
#
# _framework density 21.252151999999999
#
# number of rings (size 3 to 8) (size 9 to 14) (size 15 to 20)
#    0.000    2.667    0.000    2.500    0.000    8.667 
#    0.000    1.667    0.000    0.000    0.000    1.167 
#    0.000    6.667    0.000    0.000    0.000    0.000 
#
# Total GULP energy -134048.170770 kJ/mol
# GULP energy per Si atom -5585.340449 kJ/mol
# Density = 2.120378 g / cm^3
# Si number density = 21.252152 Si / 1000 Ang^3
#
#
#
# Elastic Constant Matrix: (Units=GPa)
#
#
# Indices 1 2 3 4 5 6 
#
# 1 53.4774 5.1227 -4.9760 0.0000 0.0000 0.0000
# 2 5.1227 216.2846 156.1263 0.0000 0.0000 0.0000
# 3 -4.9760 156.1263 210.8754 0.0000 0.0000 0.0000
# 4 0.0000 0.0000 0.0000 40.8852 0.0000 0.0000
# 5 0.0000 0.0000 0.0000 0.0000 -48.8413 0.0000
# 6 0.0000 0.0000 0.0000 0.0000 0.0000 -3.6587
#
#
#
# Elastic Compliance Matrix: (Units=1/GPa)
#
#
# Indices 1 2 3 4 5 6 
#
# 1 0.019015 -0.001663 0.001680 0.000000 0.000000 0.000000
# 2 -0.001663 0.010077 -0.007500 0.000000 0.000000 0.000000
# 3 0.001680 -0.007500 0.010334 0.000000 0.000000 0.000000
# 4 0.000000 0.000000 0.000000 0.024459 0.000000 0.000000
# 5 0.000000 0.000000 0.000000 0.000000 -0.020474 0.000000
# 6 0.000000 0.000000 0.000000 0.000000 0.000000 -0.273321
#
#
# Mechanical properties :
#
#
# Convention : Reuss Voigt Hill
#
# Bulk Modulus (GPa) = 40.88219 88.13148 64.50684
# Shear Modulus (GPa) = -24.17894 19.30134 -2.43880
#
# Velocity S-wave (km/s) = -3.37667 3.01692 -1.07240
# Velocity P-wave (km/s) = 2.01891 7.32770 5.37453
#
# Compressibility (1/GPa) = 0.02446053
#
# Stress axis : x y z
#
# Youngs Moduli (GPa) = 52.58970 99.23950 96.76467
#
# Poissons Ratio (x) = 0.16504 -0.16257
# Poissons Ratio (y) = 0.08746 0.72571
# Poissons Ratio (z) = -0.08835 0.74427
#
# Static dielectric constant tensor:
#      x y z
#    x 1.788140 0.000000 0.000000 
#    y 0.000000 1.734240 0.000000 
#    z 0.000000 0.000000 1.723340 
# 
# From -- ./inp_files/24283.got.cif
#   From: 2010.05.17/outbox.cif.g08.bks.cpg/sg38_13_cif.got.tgz:24283.got - 2010.06.03 18:07:57.
