data_PCOD9357286
_publ_section_title
;
Structure prediction by ZEFSAII (Michael W. Deem and Ramdas Pophale) SiO2 
 PCOD9357286
Probable space group: A M M 2
;
_chemical_formula_sum "Si O2"
_cell_formula_units_Z 64
_cell_length_a 14.860212
_cell_length_b 8.629546
_cell_length_c 25.662748
_cell_angle_alpha 90.000000
_cell_angle_beta 90.000000
_cell_angle_gamma 90.000000
_cell_volume 3290.910813
_symmetry_space_group_name_H-M "A M M 2"
_symmetry_group_IT_number 38
_symmetry_cell_setting 'orthorhombic'
loop_
_space_group_symop_operation_xyz
x,y,z
-x,-y,z
-x,y,z
x,-y,z
x,1/2+y,1/2+z
-x,1/2-y,1/2+z
-x,1/2+y,1/2+z
x,1/2-y,1/2+z
loop_
_atom_site_type_symbol
_atom_site_label
_atom_site_fract_x
_atom_site_fract_y
_atom_site_fract_z
Si Si1 0.397677 0.313578 0.390200
Si Si2 0.208697 0.813181 0.631056
Si Si3 0.362028 0.321503 0.271574
Si Si4 0.895207 0.814342 0.030995
Si Si5 0.099475 0.814029 0.849822
Si Si6 0.152779 0.177252 0.741528
Si Si7 0.777580 0.817900 0.436874
Si Si8 0.400952 0.184398 0.160850
O O1 0.500000 0.277671 0.405274
O O2 0.385734 0.500000 0.390259
O O3 0.383841 0.263965 0.329603
O O4 0.323599 0.241616 0.428033
O O5 0.154334 0.754151 0.581585
O O6 0.159964 0.753321 0.684100
O O7 0.312940 0.759942 0.634582
O O8 0.208751 0.000000 0.632592
O O9 0.394119 0.500000 0.267568
O O10 0.254901 0.325858 0.262964
O O11 0.397592 0.226466 0.222375
O O12 0.000000 0.762737 0.026971
O O13 0.895458 0.000000 0.034149
O O14 0.835153 0.764200 0.981807
O O15 0.099679 0.756229 0.790249
O O16 0.171701 0.725182 0.883484
O O17 0.000000 0.795659 0.872698
O O18 0.119886 0.000000 0.849647
O O19 0.120449 0.000000 0.734885
O O20 0.777890 0.000000 0.446417
O O21 0.500000 0.234928 0.141191
O O22 0.394074 0.000000 0.154789
#
# Coordination Sequence:
#
# PCOD9357286 Si02
#       8
#     8   8   8   8   8   8   8   8
#     4  10  20  36  60  87 118 159 204 247 294 354
#     4  10  21  38  62  91 121 154 198 252 301 353
#     4   9  16  30  53  80 115 159 205 248 289 344
#     4  11  25  46  70  91 113 150 199 250 304 363
#     4  10  19  34  58  85 116 157 201 242 289 353
#     4   8  15  30  53  83 119 155 191 234 286 345
#     4  12  25  40  60  87 122 157 195 250 303 354
#     4  10  20  33  52  83 125 168 206 245 292 349
#
# _framework density 19.447503000000001
#
# number of rings (size 3 to 8) (size 9 to 14) (size 15 to 20)
#    0.000    2.000    1.250    3.750    0.000    5.500 
#    0.000    2.500    0.000    3.750    0.000    0.000 
#    0.000    0.000    0.000    0.000    0.000    0.000 
#
# Total GULP energy -178532.071340 kJ/mol
# GULP energy per Si atom -5579.127229 kJ/mol
# Density = 1.940324 g / cm^3
# Si number density = 19.447503 Si / 1000 Ang^3
#
#
#
# Elastic Constant Matrix: (Units=GPa)
#
#
# Indices 1 2 3 4 5 6 
#
# 1 128.3997 36.1260 60.8139 0.0000 0.0000 0.0000
# 2 36.1260 48.7082 21.3940 0.0000 0.0000 0.0000
# 3 60.8139 21.3940 104.5305 0.0000 0.0000 0.0000
# 4 0.0000 0.0000 0.0000 26.5038 0.0000 0.0000
# 5 0.0000 0.0000 0.0000 0.0000 16.7215 0.0000
# 6 0.0000 0.0000 0.0000 0.0000 0.0000 12.6743
#
#
#
# Elastic Compliance Matrix: (Units=1/GPa)
#
#
# Indices 1 2 3 4 5 6 
#
# 1 0.012442 -0.006646 -0.005878 0.000000 0.000000 0.000000
# 2 -0.006646 0.026109 -0.001477 0.000000 0.000000 0.000000
# 3 -0.005878 -0.001477 0.013289 0.000000 0.000000 0.000000
# 4 0.000000 0.000000 0.000000 0.037730 0.000000 0.000000
# 5 0.000000 0.000000 0.000000 0.000000 0.059803 0.000000
# 6 0.000000 0.000000 0.000000 0.000000 0.000000 0.078900
#
#
# Mechanical properties :
#
#
# Convention : Reuss Voigt Hill
#
# Bulk Modulus (GPa) = 41.95253 57.58958 49.77105
# Shear Modulus (GPa) = 18.92346 22.06687 20.49517
#
# Velocity S-wave (km/s) = 3.12276 3.37217 3.24986
# Velocity P-wave (km/s) = 5.88398 6.69620 6.30319
#
# Compressibility (1/GPa) = 0.02383647
#
# Stress axis : x y z
#
# Youngs Moduli (GPa) = 80.37063 38.30166 75.25115
#
# Poissons Ratio (x) = 0.25456 0.44236
# Poissons Ratio (y) = 0.53417 0.11114
# Poissons Ratio (z) = 0.47245 0.05657
#
# Static dielectric constant tensor:
#      x y z
#    x 1.713690 0.000000 0.000000 
#    y 0.000000 1.668890 0.000000 
#    z 0.000000 0.000000 1.682330 
# 
# From -- ./inp_files/22889.got.cif
#   From: 2010.05.17/outbox.cif.g08.bks.cpg/sg38_12_cif.got.tgz:22889.got - 2010.06.03 18:07:57.
