data_PCOD9357493
_publ_section_title
;
Structure prediction by ZEFSAII (Michael W. Deem and Ramdas Pophale) SiO2 
 PCOD9357493
Probable space group: A M M 2
;
_chemical_formula_sum "Si O2"
_cell_formula_units_Z 64
_cell_length_a 7.717470
_cell_length_b 28.561868
_cell_length_c 15.310432
_cell_angle_alpha 90.000000
_cell_angle_beta 90.000000
_cell_angle_gamma 90.000000
_cell_volume 3374.807477
_symmetry_space_group_name_H-M "A M M 2"
_symmetry_group_IT_number 38
_symmetry_cell_setting 'orthorhombic'
loop_
_space_group_symop_operation_xyz
x,y,z
-x,-y,z
-x,y,z
x,-y,z
x,1/2+y,1/2+z
-x,1/2-y,1/2+z
-x,1/2+y,1/2+z
x,1/2-y,1/2+z
loop_
_atom_site_type_symbol
_atom_site_label
_atom_site_fract_x
_atom_site_fract_y
_atom_site_fract_z
Si Si1 0.209606 0.279863 0.569290
Si Si2 0.211437 0.553450 0.567187
Si Si3 0.797808 0.832254 0.760090
Si Si4 0.791902 0.447130 0.764531
Si Si5 0.213076 0.636836 0.443749
Si Si6 0.704737 0.860106 0.384543
Si Si7 0.792505 0.825897 0.567915
Si Si8 0.705263 0.724873 0.767987
O O1 0.268415 0.317951 0.499683
O O2 0.270833 0.227094 0.549162
O O3 0.264814 0.291201 0.668128
O O4 0.000000 0.279994 0.568213
O O5 0.263817 0.500000 0.549206
O O6 0.267796 0.565505 0.666169
O O7 0.269085 0.590859 0.496016
O O8 0.000000 0.554381 0.567246
O O9 0.724006 0.858149 0.844558
O O10 0.722820 0.840429 0.663253
O O11 0.787224 0.776287 0.776866
O O12 0.000000 0.845356 0.756035
O O13 0.729532 0.500000 0.784818
O O14 0.748274 0.407539 0.833976
O O15 0.000000 0.449353 0.760585
O O16 0.000000 0.637174 0.442408
O O17 0.500000 0.855015 0.380829
O O18 0.756302 0.858204 0.485531
O O19 0.777369 0.814595 0.333183
O O20 0.000000 0.822472 0.576816
O O21 0.500000 0.730791 0.781662
#
# Coordination Sequence:
#
# PCOD9357493 Si02
#       8
#     8   8   8   8   8   8   8   8
#     4   9  17  29  47  70  93 122 158 193 232 276
#     4   8  14  25  44  73 102 121 141 177 228 279
#     4   9  18  32  48  66  90 123 161 197 232 269
#     4   9  18  33  53  75  97 121 150 187 231 278
#     4   9  15  25  45  69  92 120 154 189 225 271
#     4  11  22  32  46  69  95 126 160 192 233 282
#     4   9  18  31  46  64  88 120 159 201 237 271
#     4  10  20  31  43  65  97 127 155 190 232 278
#
# _framework density 18.964044000000001
#
# number of rings (size 3 to 8) (size 9 to 14) (size 15 to 20)
#    0.000    2.750    0.000    3.750    0.000    6.250 
#    0.000    0.625    0.000    1.500    0.000    3.500 
#    0.000    0.000    0.000    0.000    0.000    0.000 
#
# Total GULP energy -178497.602454 kJ/mol
# GULP energy per Si atom -5578.050077 kJ/mol
# Density = 1.892088 g / cm^3
# Si number density = 18.964044 Si / 1000 Ang^3
#
#
#
# Elastic Constant Matrix: (Units=GPa)
#
#
# Indices 1 2 3 4 5 6 
#
# 1 27.5478 -2.2019 1.8065 0.0000 0.0000 0.0000
# 2 -2.2019 88.1012 107.1483 0.0000 0.0000 0.0000
# 3 1.8065 107.1483 180.7776 0.0000 0.0000 0.0000
# 4 0.0000 0.0000 0.0000 30.5521 0.0000 0.0000
# 5 0.0000 0.0000 0.0000 0.0000 -26.6976 0.0000
# 6 0.0000 0.0000 0.0000 0.0000 0.0000 -1.7325
#
#
#
# Elastic Compliance Matrix: (Units=1/GPa)
#
#
# Indices 1 2 3 4 5 6 
#
# 1 0.036908 0.004911 -0.003280 0.000000 0.000000 0.000000
# 2 0.004911 0.041315 -0.024537 0.000000 0.000000 0.000000
# 3 -0.003280 -0.024537 0.020107 0.000000 0.000000 0.000000
# 4 0.000000 0.000000 0.000000 0.032731 0.000000 0.000000
# 5 0.000000 0.000000 0.000000 0.000000 -0.037457 0.000000
# 6 0.000000 0.000000 0.000000 0.000000 0.000000 -0.577194
#
#
# Mechanical properties :
#
#
# Convention : Reuss Voigt Hill
#
# Bulk Modulus (GPa) = 19.04031 56.65915 37.84973
# Shear Modulus (GPa) = -11.89702 13.06933 0.58615
#
# Velocity S-wave (km/s) = -2.50741 2.62804 0.55656
# Velocity P-wave (km/s) = 1.29585 6.25706 4.51830
#
# Compressibility (1/GPa) = 0.05252016
#
# Stress axis : x y z
#
# Youngs Moduli (GPa) = 27.09428 24.20453 49.73283
#
# Poissons Ratio (x) = -0.11888 0.16312
# Poissons Ratio (y) = -0.13307 1.22027
# Poissons Ratio (z) = 0.08886 0.59390
#
# Static dielectric constant tensor:
#      x y z
#    x 1.683050 0.000000 0.000000 
#    y 0.000000 1.650740 0.000000 
#    z 0.000000 0.000000 1.695250 
# 
# From -- ./inp_files/13112.got.cif
#   From: 2010.05.17/outbox.cif.g08.bks.cpg/sg38_7_cif.got.tgz:13112.got - 2010.06.03 18:07:57.
