data_PCOD9357664
_publ_section_title
;
Structure prediction by ZEFSAII (Michael W. Deem and Ramdas Pophale) SiO2 
 PCOD9357664
Probable space group: A M M 2
;
_chemical_formula_sum "Si O2"
_cell_formula_units_Z 64
_cell_length_a 8.932935
_cell_length_b 28.384720
_cell_length_c 14.821000
_cell_angle_alpha 90.000000
_cell_angle_beta 90.000000
_cell_angle_gamma 90.000000
_cell_volume 3757.995846
_symmetry_space_group_name_H-M "A M M 2"
_symmetry_group_IT_number 38
_symmetry_cell_setting 'orthorhombic'
loop_
_space_group_symop_operation_xyz
x,y,z
-x,-y,z
-x,y,z
x,-y,z
x,1/2+y,1/2+z
-x,1/2-y,1/2+z
-x,1/2+y,1/2+z
x,1/2-y,1/2+z
loop_
_atom_site_type_symbol
_atom_site_label
_atom_site_fract_x
_atom_site_fract_y
_atom_site_fract_z
Si Si1 0.820612 0.820677 0.305680
Si Si2 0.177420 0.133629 0.491109
Si Si3 0.679364 0.174192 0.112508
Si Si4 0.321355 0.554792 0.110859
Si Si5 0.677055 0.281182 0.317145
Si Si6 0.324451 0.216071 0.603377
Si Si7 0.820397 0.945543 0.802464
Si Si8 0.820546 0.862875 0.936760
O O1 0.786884 0.856624 0.386519
O O2 0.752481 0.835122 0.209602
O O3 0.747271 0.770377 0.330357
O O4 0.000000 0.815259 0.298747
O O5 0.258524 0.089162 0.535010
O O6 0.228010 0.179921 0.546280
O O7 0.000000 0.127660 0.500111
O O8 0.500000 0.170643 0.118753
O O9 0.714144 0.229041 0.088228
O O10 0.745313 0.141918 0.034173
O O11 0.500000 0.558147 0.114185
O O12 0.279505 0.500000 0.095766
O O13 0.255578 0.568861 0.208420
O O14 0.500000 0.280311 0.338451
O O15 0.693200 0.292524 0.210596
O O16 0.760184 0.319649 0.376767
O O17 0.500000 0.209534 0.581042
O O18 0.780015 0.910390 0.882905
O O19 0.000000 0.943188 0.790559
O O20 0.779780 0.000000 0.820774
O O21 0.000000 0.860301 0.944834
#
# Coordination Sequence:
#
# PCOD9357664 Si02
#       8
#     8   8   8   8   8   8   8   8
#     4  10  21  36  52  73 102 135 174 216 255 297
#     4  11  22  33  51  77 102 133 170 208 253 302
#     4  10  21  36  53  73 100 137 175 212 257 302
#     4  10  21  36  55  79 105 133 165 204 251 301
#     4  10  20  33  49  73 106 141 175 209 250 300
#     4   9  19  33  49  72 103 137 171 208 248 295
#     4   9  19  36  56  78 105 135 166 203 250 303
#     4  11  21  32  51  77 103 134 172 213 256 302
#
# _framework density 17.030355
#
# number of rings (size 3 to 8) (size 9 to 14) (size 15 to 20)
#    0.000    2.000    0.000    4.500    0.000   10.750 
#    0.000    0.000    0.000    0.750    0.000    1.750 
#    0.000    0.000    0.000    0.000    0.000    0.000 
#
# Total GULP energy -178743.159547 kJ/mol
# GULP energy per Si atom -5585.723736 kJ/mol
# Density = 1.699159 g / cm^3
# Si number density = 17.030355 Si / 1000 Ang^3
#
#
#
# Elastic Constant Matrix: (Units=GPa)
#
#
# Indices 1 2 3 4 5 6 
#
# 1 52.1474 41.4414 47.9582 0.0000 0.0000 0.0000
# 2 41.4414 75.6412 75.7384 0.0000 0.0000 0.0000
# 3 47.9582 75.7384 97.3219 0.0000 0.0000 0.0000
# 4 0.0000 0.0000 0.0000 29.6416 0.0000 0.0000
# 5 0.0000 0.0000 0.0000 0.0000 0.6718 0.0000
# 6 0.0000 0.0000 0.0000 0.0000 0.0000 23.0030
#
#
#
# Elastic Compliance Matrix: (Units=1/GPa)
#
#
# Indices 1 2 3 4 5 6 
#
# 1 0.036365 -0.008970 -0.010940 0.000000 0.000000 0.000000
# 2 -0.008970 0.062094 -0.043903 0.000000 0.000000 0.000000
# 3 -0.010940 -0.043903 0.049833 0.000000 0.000000 0.000000
# 4 0.000000 0.000000 0.000000 0.033736 0.000000 0.000000
# 5 0.000000 0.000000 0.000000 0.000000 1.488590 0.000000
# 6 0.000000 0.000000 0.000000 0.000000 0.000000 0.043473
#
#
# Mechanical properties :
#
#
# Convention : Reuss Voigt Hill
#
# Bulk Modulus (GPa) = 48.38618 61.70961 55.04790
# Shear Modulus (GPa) = 2.70474 14.66143 8.68308
#
# Velocity S-wave (km/s) = 1.26160 2.93729 2.26046
# Velocity P-wave (km/s) = 5.53133 6.91501 6.26151
#
# Compressibility (1/GPa) = 0.02066706
#
# Stress axis : x y z
#
# Youngs Moduli (GPa) = 27.49866 16.10451 20.06712
#
# Poissons Ratio (x) = 0.14445 0.21953
# Poissons Ratio (y) = 0.24666 0.88101
# Poissons Ratio (z) = 0.30082 0.70704
#
# Static dielectric constant tensor:
#      x y z
#    x 1.563680 0.000000 0.000000 
#    y 0.000000 1.562900 0.000000 
#    z 0.000000 0.000000 1.572820 
# 
# From -- ./inp_files/12824.got.cif
#   From: 2010.05.17/outbox.cif.g08.bks.cpg/sg38_7_cif.got.tgz:12824.got - 2010.06.03 18:07:57.
