data_PCOD9357961
_publ_section_title
;
Structure prediction by ZEFSAII (Michael W. Deem and Ramdas Pophale) SiO2 
 PCOD9357961
Probable space group: A M M 2
;
_chemical_formula_sum "Si O2"
_cell_formula_units_Z 48
_cell_length_a 14.611543
_cell_length_b 7.770912
_cell_length_c 21.262596
_cell_angle_alpha 90.000000
_cell_angle_beta 90.000000
_cell_angle_gamma 90.000000
_cell_volume 2414.261778
_symmetry_space_group_name_H-M "A M M 2"
_symmetry_group_IT_number 38
_symmetry_cell_setting 'orthorhombic'
loop_
_space_group_symop_operation_xyz
x,y,z
-x,-y,z
-x,y,z
x,-y,z
x,1/2+y,1/2+z
-x,1/2-y,1/2+z
-x,1/2+y,1/2+z
x,1/2-y,1/2+z
loop_
_atom_site_type_symbol
_atom_site_label
_atom_site_fract_x
_atom_site_fract_y
_atom_site_fract_z
Si Si1 0.290285 0.788698 0.787810
Si Si2 0.898102 0.705160 0.339601
Si Si3 0.605404 0.210275 0.914403
Si Si4 0.709004 0.296367 0.538853
Si Si5 0.897130 0.794223 0.484568
Si Si6 0.603839 0.204462 0.664753
O O1 0.185866 0.729305 0.797963
O O2 0.346574 0.736777 0.849774
O O3 0.340440 0.727606 0.724925
O O4 0.288762 0.000000 0.786885
O O5 0.902560 0.500000 0.329881
O O6 0.876481 0.732196 0.413504
O O7 0.000000 0.777077 0.327999
O O8 0.500000 0.263638 0.916627
O O9 0.607332 0.000000 0.914956
O O10 0.659555 0.272096 0.975847
O O11 0.695730 0.500000 0.539434
O O12 0.816569 0.260868 0.530877
O O13 0.661055 0.228919 0.601294
O O14 0.000000 0.732745 0.500512
O O15 0.898640 0.000000 0.483055
O O16 0.500000 0.273942 0.659735
O O17 0.595703 0.000000 0.674795
#
# Coordination Sequence:
#
# PCOD9357961 Si02
#       6
#     8   8   8   8   8   8
#     4   9  16  30  51  77 105 139 183 224 267 318
#     4   9  16  29  52  81 109 137 176 225 273 322
#     4   9  16  27  48  77 102 129 175 228 267 305
#     4  11  21  35  55  79 108 143 182 226 273 326
#     4  10  20  34  54  81 111 141 175 220 275 331
#     4  10  21  36  54  76 108 149 187 227 275 325
#
# _framework density 19.881855000000002
#
# number of rings (size 3 to 8) (size 9 to 14) (size 15 to 20)
#    0.000    2.333    1.667    2.000    0.000    4.000 
#    0.000    1.667    0.000    3.000    0.000    0.000 
#    0.000    0.000    0.000    0.000    0.000    0.000 
#
# Total GULP energy -133949.313188 kJ/mol
# GULP energy per Si atom -5581.221383 kJ/mol
# Density = 1.983660 g / cm^3
# Si number density = 19.881855 Si / 1000 Ang^3
#
#
#
# Elastic Constant Matrix: (Units=GPa)
#
#
# Indices 1 2 3 4 5 6 
#
# 1 190.3991 0.0196 104.2997 0.0000 0.0000 0.0000
# 2 0.0196 25.9007 0.1080 0.0000 0.0000 0.0000
# 3 104.2997 0.1080 154.3626 0.0000 0.0000 0.0000
# 4 0.0000 0.0000 0.0000 17.3819 0.0000 0.0000
# 5 0.0000 0.0000 0.0000 0.0000 29.6971 0.0000
# 6 0.0000 0.0000 0.0000 0.0000 0.0000 10.2519
#
#
#
# Elastic Compliance Matrix: (Units=1/GPa)
#
#
# Indices 1 2 3 4 5 6 
#
# 1 0.008338 0.000017 -0.005634 0.000000 0.000000 0.000000
# 2 0.000017 0.038609 -0.000039 0.000000 0.000000 0.000000
# 3 -0.005634 -0.000039 0.010285 0.000000 0.000000 0.000000
# 4 0.000000 0.000000 0.000000 0.057531 0.000000 0.000000
# 5 0.000000 0.000000 0.000000 0.000000 0.033673 0.000000
# 6 0.000000 0.000000 0.000000 0.000000 0.000000 0.097543
#
#
# Mechanical properties :
#
#
# Convention : Reuss Voigt Hill
#
# Bulk Modulus (GPa) = 21.77621 64.39077 43.08349
# Shear Modulus (GPa) = 18.34199 29.21518 23.77859
#
# Velocity S-wave (km/s) = 3.04064 3.83749 3.46207
# Velocity P-wave (km/s) = 4.82742 7.21748 6.13987
#
# Compressibility (1/GPa) = 0.04592167
#
# Stress axis : x y z
#
# Youngs Moduli (GPa) = 119.92575 25.90056 97.22740
#
# Poissons Ratio (x) = -0.00044 0.54779
# Poissons Ratio (y) = -0.00206 0.00375
# Poissons Ratio (z) = 0.67568 0.00100
#
# Static dielectric constant tensor:
#      x y z
#    x 1.721200 0.000000 0.000000 
#    y 0.000000 1.741310 0.000000 
#    z 0.000000 0.000000 1.662540 
# 
# From -- ./inp_files/18142.got.cif
#   From: 2010.05.17/outbox.cif.g08.bks.cpg/sg38_10_cif.got.tgz:18142.got - 2010.06.03 18:07:57.
