data_PCOD9357584
_publ_section_title
;
Structure prediction by ZEFSAII (Michael W. Deem and Ramdas Pophale) SiO2 
 PCOD9357584
Probable space group: A M M 2
;
_chemical_formula_sum "Si O2"
_cell_formula_units_Z 64
_cell_length_a 14.791848
_cell_length_b 13.418745
_cell_length_c 17.039378
_cell_angle_alpha 90.000000
_cell_angle_beta 90.000000
_cell_angle_gamma 90.000000
_cell_volume 3382.112681
_symmetry_space_group_name_H-M "A M M 2"
_symmetry_group_IT_number 38
_symmetry_cell_setting 'orthorhombic'
loop_
_space_group_symop_operation_xyz
x,y,z
-x,-y,z
-x,y,z
x,-y,z
x,1/2+y,1/2+z
-x,1/2-y,1/2+z
-x,1/2+y,1/2+z
x,1/2-y,1/2+z
loop_
_atom_site_type_symbol
_atom_site_label
_atom_site_fract_x
_atom_site_fract_y
_atom_site_fract_z
Si Si1 0.743217 0.887337 0.807830
Si Si2 0.748096 0.385577 0.557897
Si Si3 0.812551 0.611498 0.729424
Si Si4 0.394137 0.882891 0.675356
Si Si5 0.392242 0.771714 0.512712
Si Si6 0.246206 0.815250 0.394265
Si Si7 0.893018 0.780207 0.520806
Si Si8 0.897957 0.177942 0.698716
O O1 0.661934 0.852024 0.751286
O O2 0.757744 0.802157 0.871356
O O3 0.828811 0.883926 0.750145
O O4 0.727300 0.000000 0.835940
O O5 0.755846 0.500000 0.534753
O O6 0.747930 0.380621 0.653236
O O7 0.658824 0.333479 0.523699
O O8 0.836600 0.322307 0.532841
O O9 0.853069 0.500000 0.726664
O O10 0.763214 0.627061 0.812573
O O11 0.879893 0.705133 0.719323
O O12 0.500000 0.869625 0.690393
O O13 0.372436 0.827004 0.595017
O O14 0.375596 0.000000 0.663983
O O15 0.500000 0.765879 0.500907
O O16 0.338275 0.827776 0.443379
O O17 0.161159 0.835294 0.451571
O O18 0.883583 0.833435 0.605443
O O19 0.000000 0.766614 0.505532
O O20 0.000000 0.151901 0.717739
#
# Coordination Sequence:
#
# PCOD9357584 Si02
#       8
#     8   8   8   8   8   8   8   8
#     4  10  20  34  52  73 100 134 167 204 250 294
#     4   9  18  34  54  75  97 126 171 213 241 284
#     4   9  18  33  53  74  99 132 166 205 252 295
#     4   9  18  34  56  77  94 121 168 216 251 290
#     4  10  20  34  53  75 101 133 165 202 249 296
#     4  10  20  32  48  76 108 133 161 198 244 304
#     4   9  18  33  52  72  98 132 165 204 251 292
#     4   9  18  34  54  74  97 128 171 214 244 285
#
# _framework density 18.923082999999998
#
# number of rings (size 3 to 8) (size 9 to 14) (size 15 to 20)
#    0.000    2.625    0.000    3.000    0.000    6.000 
#    0.000    3.750    0.000    1.500    0.000    0.000 
#    0.000    0.000    0.000    0.000    0.000    0.000 
#
# Total GULP energy -178355.484448 kJ/mol
# GULP energy per Si atom -5573.608889 kJ/mol
# Density = 1.888001 g / cm^3
# Si number density = 18.923083 Si / 1000 Ang^3
#
#
#
# Elastic Constant Matrix: (Units=GPa)
#
#
# Indices 1 2 3 4 5 6 
#
# 1 68.5957 2.1973 23.4550 0.0000 0.0000 0.0000
# 2 2.1973 18.7288 6.8668 0.0000 0.0000 0.0000
# 3 23.4550 6.8668 76.9837 0.0000 0.0000 0.0000
# 4 0.0000 0.0000 0.0000 12.0439 0.0000 0.0000
# 5 0.0000 0.0000 0.0000 0.0000 13.1503 0.0000
# 6 0.0000 0.0000 0.0000 0.0000 0.0000 8.2764
#
#
#
# Elastic Compliance Matrix: (Units=1/GPa)
#
#
# Indices 1 2 3 4 5 6 
#
# 1 0.016274 -0.000094 -0.004950 0.000000 0.000000 0.000000
# 2 -0.000094 0.055200 -0.004895 0.000000 0.000000 0.000000
# 3 -0.004950 -0.004895 0.014934 0.000000 0.000000 0.000000
# 4 0.000000 0.000000 0.000000 0.083030 0.000000 0.000000
# 5 0.000000 0.000000 0.000000 0.000000 0.076044 0.000000
# 6 0.000000 0.000000 0.000000 0.000000 0.000000 0.120825
#
#
# Mechanical properties :
#
#
# Convention : Reuss Voigt Hill
#
# Bulk Modulus (GPa) = 15.03094 25.48294 20.25694
# Shear Modulus (GPa) = 12.24406 15.48005 13.86206
#
# Velocity S-wave (km/s) = 2.54646 2.86326 2.70950
# Velocity P-wave (km/s) = 4.07510 4.94235 4.52953
#
# Compressibility (1/GPa) = 0.06652942
#
# Stress axis : x y z
#
# Youngs Moduli (GPa) = 61.44888 18.11607 66.95930
#
# Poissons Ratio (x) = 0.00171 0.33143
# Poissons Ratio (y) = 0.00581 0.32776
# Poissons Ratio (z) = 0.30416 0.08868
#
# Static dielectric constant tensor:
#      x y z
#    x 1.630250 0.000000 0.000000 
#    y 0.000000 1.673630 0.000000 
#    z 0.000000 0.000000 1.688700 
# 
# From -- ./inp_files/18499.got.cif
#   From: 2010.05.17/outbox.cif.g08.bks.cpg/sg38_10_cif.got.tgz:18499.got - 2010.06.03 18:07:57.
