data_PCOD9357015
_publ_section_title
;
Structure prediction by ZEFSAII (Michael W. Deem and Ramdas Pophale) SiO2 
 PCOD9357015
Probable space group: A M M 2
;
_chemical_formula_sum "Si O2"
_cell_formula_units_Z 64
_cell_length_a 24.547046
_cell_length_b 7.877044
_cell_length_c 15.863710
_cell_angle_alpha 90.000000
_cell_angle_beta 90.000000
_cell_angle_gamma 90.000000
_cell_volume 3067.377799
_symmetry_space_group_name_H-M "A M M 2"
_symmetry_group_IT_number 38
_symmetry_cell_setting 'orthorhombic'
loop_
_space_group_symop_operation_xyz
x,y,z
-x,-y,z
-x,y,z
x,-y,z
x,1/2+y,1/2+z
-x,1/2-y,1/2+z
-x,1/2+y,1/2+z
x,1/2-y,1/2+z
loop_
_atom_site_type_symbol
_atom_site_label
_atom_site_fract_x
_atom_site_fract_y
_atom_site_fract_z
Si Si1 0.864038 0.293900 0.808060
Si Si2 0.235315 0.696998 0.073464
Si Si3 0.118869 0.804559 0.126683
Si Si4 0.368065 0.204126 0.886317
Si Si5 0.245504 0.201421 0.884316
Si Si6 0.938975 0.200157 0.459022
Si Si7 0.642008 0.204003 0.579451
Si Si8 0.437542 0.791746 0.728555
O O1 0.863740 0.500000 0.807125
O O2 0.889717 0.234650 0.720285
O O3 0.801635 0.237839 0.818165
O O4 0.898310 0.229702 0.888018
O O5 0.231785 0.500000 0.099801
O O6 0.183652 0.792432 0.110377
O O7 0.295816 0.765794 0.093267
O O8 0.230966 0.707287 0.971912
O O9 0.101765 0.000000 0.124970
O O10 0.087718 0.717525 0.050502
O O11 0.306570 0.255193 0.860070
O O12 0.411016 0.265024 0.817021
O O13 0.370033 0.000000 0.884711
O O14 0.375518 0.256187 0.983585
O O15 0.246863 0.000000 0.901306
O O16 0.000000 0.272315 0.456471
O O17 0.943019 0.000000 0.440964
O O18 0.600090 0.264302 0.650374
O O19 0.645069 0.000000 0.585745
O O20 0.500000 0.737586 0.720083
O O21 0.437182 0.000000 0.728132
#
# Coordination Sequence:
#
# PCOD9357015 Si02
#       8
#     8   8   8   8   8   8   8   8
#     4  10  22  38  57  84 117 151 185 224 278 336
#     4  10  19  33  55  80 114 150 185 229 285 341
#     4  11  23  37  57  88 118 148 189 233 279 331
#     4   9  19  34  53  79 110 143 181 228 280 331
#     4  10  19  32  55  83 114 145 184 232 280 335
#     4  10  22  42  64  83 111 154 195 231 275 331
#     4   9  19  34  54  79 107 143 186 230 277 332
#     4   9  18  34  55  78 107 147 191 228 271 335
#
# _framework density 20.864727999999999
#
# number of rings (size 3 to 8) (size 9 to 14) (size 15 to 20)
#    0.000    2.250    1.250    1.125    1.750    3.250 
#    0.000    1.875    0.000    0.750    0.000    0.000 
#    0.000    0.000    0.000    0.000    0.000    0.000 
#
# Total GULP energy -178654.676999 kJ/mol
# GULP energy per Si atom -5582.958656 kJ/mol
# Density = 2.081724 g / cm^3
# Si number density = 20.864728 Si / 1000 Ang^3
#
#
#
# Elastic Constant Matrix: (Units=GPa)
#
#
# Indices 1 2 3 4 5 6 
#
# 1 82.3629 0.2765 29.6361 0.0000 0.0000 0.0000
# 2 0.2765 23.3342 -3.0773 0.0000 0.0000 0.0000
# 3 29.6361 -3.0773 61.3942 0.0000 0.0000 0.0000
# 4 0.0000 0.0000 0.0000 19.0800 0.0000 0.0000
# 5 0.0000 0.0000 0.0000 0.0000 0.9012 0.0000
# 6 0.0000 0.0000 0.0000 0.0000 0.0000 7.5724
#
#
#
# Elastic Compliance Matrix: (Units=1/GPa)
#
#
# Indices 1 2 3 4 5 6 
#
# 1 0.014723 -0.001119 -0.007163 0.000000 0.000000 0.000000
# 2 -0.001119 0.043226 0.002707 0.000000 0.000000 0.000000
# 3 -0.007163 0.002707 0.019882 0.000000 0.000000 0.000000
# 4 0.000000 0.000000 0.000000 0.052411 0.000000 0.000000
# 5 0.000000 0.000000 0.000000 0.000000 1.109599 0.000000
# 6 0.000000 0.000000 0.000000 0.000000 0.000000 0.132058
#
#
# Mechanical properties :
#
#
# Convention : Reuss Voigt Hill
#
# Bulk Modulus (GPa) = 14.99710 24.52910 19.76310
# Shear Modulus (GPa) = 3.55802 14.86113 9.20957
#
# Velocity S-wave (km/s) = 1.30728 2.67172 2.10322
# Velocity P-wave (km/s) = 3.07929 4.61511 3.92309
#
# Compressibility (1/GPa) = 0.06667955
#
# Stress axis : x y z
#
# Youngs Moduli (GPa) = 67.92306 23.13430 50.29794
#
# Poissons Ratio (x) = 0.02589 0.36028
# Poissons Ratio (y) = 0.07601 -0.13615
# Poissons Ratio (z) = 0.48653 -0.06262
#
# Static dielectric constant tensor:
#      x y z
#    x 1.739830 0.000000 0.000000 
#    y 0.000000 1.757120 0.000000 
#    z 0.000000 0.000000 1.739260 
# 
# From -- ./inp_files/15738.got.cif
#   From: 2010.05.17/outbox.cif.g08.bks.cpg/sg38_8_cif.got.tgz:15738.got - 2010.06.03 18:07:57.
