data_PCOD9357237
_publ_section_title
;
Structure prediction by ZEFSAII (Michael W. Deem and Ramdas Pophale) SiO2 
 PCOD9357237
Probable space group: A M M 2
;
_chemical_formula_sum "Si O2"
_cell_formula_units_Z 48
_cell_length_a 7.836313
_cell_length_b 31.595263
_cell_length_c 9.425338
_cell_angle_alpha 90.000000
_cell_angle_beta 90.000000
_cell_angle_gamma 90.000000
_cell_volume 2333.622925
_symmetry_space_group_name_H-M "A M M 2"
_symmetry_group_IT_number 38
_symmetry_cell_setting 'orthorhombic'
loop_
_space_group_symop_operation_xyz
x,y,z
-x,-y,z
-x,y,z
x,-y,z
x,1/2+y,1/2+z
-x,1/2-y,1/2+z
-x,1/2+y,1/2+z
x,1/2-y,1/2+z
loop_
_atom_site_type_symbol
_atom_site_label
_atom_site_fract_x
_atom_site_fract_y
_atom_site_fract_z
Si Si1 0.793642 0.047896 0.040060
Si Si2 0.198707 0.710940 0.543117
Si Si3 0.206054 0.872185 0.544316
Si Si4 0.302997 0.630668 0.372622
Si Si5 0.789974 0.290784 0.864281
Si Si6 0.791655 0.047693 0.367131
O O1 0.741835 0.056140 0.203619
O O2 0.000000 0.048566 0.036615
O O3 0.739239 0.000000 0.002741
O O4 0.730297 0.084450 0.937572
O O5 0.207476 0.666392 0.462857
O O6 0.271003 0.708327 0.701798
O O7 0.268970 0.748494 0.444984
O O8 0.000000 0.721981 0.562250
O O9 0.255456 0.868394 0.707758
O O10 0.263873 0.832024 0.452260
O O11 0.267758 0.915621 0.471765
O O12 0.000000 0.872742 0.538699
O O13 0.500000 0.641189 0.387769
O O14 0.000000 0.291397 0.861726
O O15 0.000000 0.047742 0.368917
O O16 0.737114 0.000000 0.404988
#
# Coordination Sequence:
#
# PCOD9357237 Si02
#       6
#     8   8   8   8   8   8
#     4   9  18  36  62  86 106 135 178 226 274 322
#     4  10  19  36  60  84 108 136 177 226 276 326
#     4  10  19  34  56  81 109 142 181 224 269 318
#     4  12  25  37  50  76 114 152 185 218 263 318
#     4   9  18  33  60  89 107 132 177 232 279 320
#     4   8  15  30  56  87 110 130 168 222 273 322
#
# _framework density 20.568875999999999
#
# number of rings (size 3 to 8) (size 9 to 14) (size 15 to 20)
#    0.000    2.333    0.000    4.500    0.000    6.333 
#    0.000    8.333    0.000    1.000    0.000    0.000 
#    0.000    0.000    0.000    0.000    0.000    0.000 
#
# Total GULP energy -134026.331522 kJ/mol
# GULP energy per Si atom -5584.430480 kJ/mol
# Density = 2.052206 g / cm^3
# Si number density = 20.568876 Si / 1000 Ang^3
#
#
#
# Elastic Constant Matrix: (Units=GPa)
#
#
# Indices 1 2 3 4 5 6 
#
# 1 20.0042 -9.0166 -3.9135 0.0000 0.0000 0.0000
# 2 -9.0166 132.3011 101.8517 0.0000 0.0000 0.0000
# 3 -3.9135 101.8517 182.0678 0.0000 0.0000 0.0000
# 4 0.0000 0.0000 0.0000 39.7335 0.0000 0.0000
# 5 0.0000 0.0000 0.0000 0.0000 -29.0921 0.0000
# 6 0.0000 0.0000 0.0000 0.0000 0.0000 -11.4630
#
#
#
# Elastic Compliance Matrix: (Units=1/GPa)
#
#
# Indices 1 2 3 4 5 6 
#
# 1 0.051810 0.004696 -0.001513 0.000000 0.000000 0.000000
# 2 0.004696 0.013702 -0.007564 0.000000 0.000000 0.000000
# 3 -0.001513 -0.007564 0.009691 0.000000 0.000000 0.000000
# 4 0.000000 0.000000 0.000000 0.025168 0.000000 0.000000
# 5 0.000000 0.000000 0.000000 0.000000 -0.034374 0.000000
# 6 0.000000 0.000000 0.000000 0.000000 0.000000 -0.087237
#
#
# Mechanical properties :
#
#
# Convention : Reuss Voigt Hill
#
# Bulk Modulus (GPa) = 15.05108 56.91291 35.98200
# Shear Modulus (GPa) = 517.08312 16.19911 266.64112
#
# Velocity S-wave (km/s) = 15.87252 2.80938 11.39801
# Velocity P-wave (km/s) = 18.52698 6.18490 13.81126
#
# Compressibility (1/GPa) = 0.06644043
#
# Stress axis : x y z
#
# Youngs Moduli (GPa) = 19.30126 72.98363 103.18466
#
# Poissons Ratio (x) = -0.34274 0.15616
# Poissons Ratio (y) = -0.09064 0.78049
# Poissons Ratio (z) = 0.02921 0.55205
#
# Static dielectric constant tensor:
#      x y z
#    x 1.743750 0.000000 0.000000 
#    y 0.000000 1.712640 0.000000 
#    z 0.000000 0.000000 1.703280 
# 
# From -- ./inp_files/3744.got.cif
#   From: 2010.05.17/outbox.cif.g08.bks.cpg/sg38_2_cif.got.tgz:3744.got - 2010.06.03 18:07:57.
