data_PCOD9357251
_publ_section_title
;
Structure prediction by ZEFSAII (Michael W. Deem and Ramdas Pophale) SiO2 
 PCOD9357251
Probable space group: A M M 2
;
_chemical_formula_sum "Si O2"
_cell_formula_units_Z 64
_cell_length_a 24.653074
_cell_length_b 7.626688
_cell_length_c 15.864447
_cell_angle_alpha 90.000000
_cell_angle_beta 90.000000
_cell_angle_gamma 90.000000
_cell_volume 2982.854006
_symmetry_space_group_name_H-M "A M M 2"
_symmetry_group_IT_number 38
_symmetry_cell_setting 'orthorhombic'
loop_
_space_group_symop_operation_xyz
x,y,z
-x,-y,z
-x,y,z
x,-y,z
x,1/2+y,1/2+z
-x,1/2-y,1/2+z
-x,1/2+y,1/2+z
x,1/2-y,1/2+z
loop_
_atom_site_type_symbol
_atom_site_label
_atom_site_fract_x
_atom_site_fract_y
_atom_site_fract_z
Si Si1 0.437677 0.215502 0.255240
Si Si2 0.639650 0.704818 0.606606
Si Si3 0.257524 0.793309 0.860842
Si Si4 0.754638 0.287547 0.663688
Si Si5 0.624167 0.200895 0.420020
Si Si6 0.128510 0.788586 0.099318
Si Si7 0.138852 0.214791 0.912423
Si Si8 0.061001 0.209171 0.762972
O O1 0.500000 0.269135 0.247870
O O2 0.400983 0.277459 0.176987
O O3 0.410545 0.275697 0.342690
O O4 0.436863 0.000000 0.255431
O O5 0.644846 0.500000 0.627459
O O6 0.700893 0.776186 0.615160
O O7 0.618560 0.717865 0.511940
O O8 0.251790 0.765483 0.760874
O O9 0.312790 0.709233 0.893173
O O10 0.201366 0.729174 0.901543
O O11 0.262468 0.000000 0.879560
O O12 0.756715 0.500000 0.659473
O O13 0.811761 0.224119 0.627063
O O14 0.607600 0.000000 0.429470
O O15 0.085942 0.738375 0.170818
O O16 0.130217 0.000000 0.097837
O O17 0.117095 0.731142 0.003846
O O18 0.102135 0.276921 0.834642
O O19 0.139777 0.000000 0.909453
O O20 0.000000 0.279778 0.770105
O O21 0.058189 0.000000 0.775632
#
# Coordination Sequence:
#
# PCOD9357251 Si02
#       8
#     8   8   8   8   8   8   8   8
#     4   9  19  37  59  80 109 152 193 231 279 331
#     4  10  20  37  59  83 113 148 187 229 277 335
#     4  11  20  34  59  85 113 147 186 227 276 340
#     4  10  19  34  56  84 116 147 179 228 287 334
#     4  11  22  37  57  85 117 148 186 230 282 337
#     4  10  20  35  58  83 110 141 181 226 273 332
#     4   9  19  36  57  82 109 144 183 221 270 329
#     4  10  21  38  57  78 109 146 186 231 276 321
#
# _framework density 21.455962
#
# number of rings (size 3 to 8) (size 9 to 14) (size 15 to 20)
#    0.000    2.000    2.500    1.500    0.000    3.750 
#    0.000    4.375    0.000    2.625    0.000    0.000 
#    0.000    0.000    0.000    0.000    0.000    0.000 
#
# Total GULP energy -178775.963564 kJ/mol
# GULP energy per Si atom -5586.748861 kJ/mol
# Density = 2.140713 g / cm^3
# Si number density = 21.455962 Si / 1000 Ang^3
#
#
#
# Elastic Constant Matrix: (Units=GPa)
#
#
# Indices 1 2 3 4 5 6 
#
# 1 103.3045 -1.2955 23.7873 0.0000 0.0000 0.0000
# 2 -1.2955 38.6605 -15.7916 0.0000 0.0000 0.0000
# 3 23.7873 -15.7916 100.5775 0.0000 0.0000 0.0000
# 4 0.0000 0.0000 0.0000 25.4560 0.0000 0.0000
# 5 0.0000 0.0000 0.0000 0.0000 5.0144 0.0000
# 6 0.0000 0.0000 0.0000 0.0000 0.0000 63.1359
#
#
#
# Elastic Compliance Matrix: (Units=1/GPa)
#
#
# Indices 1 2 3 4 5 6 
#
# 1 0.010255 -0.000691 -0.002534 0.000000 0.000000 0.000000
# 2 -0.000691 0.027685 0.004510 0.000000 0.000000 0.000000
# 3 -0.002534 0.004510 0.011250 0.000000 0.000000 0.000000
# 4 0.000000 0.000000 0.000000 0.039283 0.000000 0.000000
# 5 0.000000 0.000000 0.000000 0.000000 0.199424 0.000000
# 6 0.000000 0.000000 0.000000 0.000000 0.000000 0.015839
#
#
# Mechanical properties :
#
#
# Convention : Reuss Voigt Hill
#
# Bulk Modulus (GPa) = 19.31976 28.43811 23.87893
# Shear Modulus (GPa) = 15.70253 34.44407 25.07330
#
# Velocity S-wave (km/s) = 2.70821 4.01101 3.42218
# Velocity P-wave (km/s) = 4.33625 5.89355 5.17383
#
# Compressibility (1/GPa) = 0.05176048
#
# Stress axis : x y z
#
# Youngs Moduli (GPa) = 97.51416 36.12013 88.88854
#
# Poissons Ratio (x) = 0.02497 0.22524
# Poissons Ratio (y) = 0.06742 -0.40092
# Poissons Ratio (z) = 0.24709 -0.16292
#
# Static dielectric constant tensor:
#      x y z
#    x 1.758800 0.000000 0.000000 
#    y 0.000000 1.853640 0.000000 
#    z 0.000000 0.000000 1.745810 
# 
# From -- ./inp_files/15747.got.cif
#   From: 2010.05.17/outbox.cif.g08.bks.cpg/sg38_8_cif.got.tgz:15747.got - 2010.06.03 18:07:57.
