data_PCOD9357563
_publ_section_title
;
Structure prediction by ZEFSAII (Michael W. Deem and Ramdas Pophale) SiO2 
 PCOD9357563
Probable space group: A M M 2
;
_chemical_formula_sum "Si O2"
_cell_formula_units_Z 40
_cell_length_a 7.784035
_cell_length_b 14.114388
_cell_length_c 19.028967
_cell_angle_alpha 90.000000
_cell_angle_beta 90.000000
_cell_angle_gamma 90.000000
_cell_volume 2090.653428
_symmetry_space_group_name_H-M "A M M 2"
_symmetry_group_IT_number 38
_symmetry_cell_setting 'orthorhombic'
loop_
_space_group_symop_operation_xyz
x,y,z
-x,-y,z
-x,y,z
x,-y,z
x,1/2+y,1/2+z
-x,1/2-y,1/2+z
-x,1/2+y,1/2+z
x,1/2-y,1/2+z
loop_
_atom_site_type_symbol
_atom_site_label
_atom_site_fract_x
_atom_site_fract_y
_atom_site_fract_z
Si Si1 0.792987 0.891740 0.353730
Si Si2 0.791787 0.700936 0.998201
Si Si3 0.203697 0.604491 0.562554
Si Si4 0.294897 0.799796 0.205866
Si Si5 0.294243 0.395264 0.143201
O O1 0.730548 0.838461 0.423703
O O2 0.748909 0.837383 0.282475
O O3 0.000000 0.895485 0.358361
O O4 0.729265 0.000000 0.351276
O O5 0.000000 0.704040 0.996939
O O6 0.727345 0.806267 0.018260
O O7 0.741580 0.632720 0.062477
O O8 0.276654 0.500000 0.548721
O O9 0.226002 0.632420 0.644209
O O10 0.000000 0.600391 0.548652
O O11 0.500000 0.798881 0.198162
O O12 0.229161 0.693440 0.189189
O O13 0.500000 0.398577 0.152367
O O14 0.225075 0.500000 0.159124
#
# Coordination Sequence:
#
# PCOD9357563 Si02
#       5
#     8   8   8   8   8
#     4  10  20  33  48  68  97 128 154 188 236 280
#     4   9  18  32  50  72  96 122 156 194 230 275
#     4   9  17  31  51  72  95 124 155 190 234 278
#     4  10  20  32  48  71  96 123 158 195 229 273
#     4   9  18  33  51  70  94 123 154 192 237 279
#
# _framework density 19.132774999999999
#
# number of rings (size 3 to 8) (size 9 to 14) (size 15 to 20)
#    0.000    2.600    0.000    1.800    0.000    6.000 
#    0.000    1.000    0.000    1.200    0.000    0.000 
#    0.000    0.000    0.000    0.000    0.000    0.000 
#
# Total GULP energy -111564.477699 kJ/mol
# GULP energy per Si atom -5578.223885 kJ/mol
# Density = 1.908923 g / cm^3
# Si number density = 19.132775 Si / 1000 Ang^3
#
#
#
# Elastic Constant Matrix: (Units=GPa)
#
#
# Indices 1 2 3 4 5 6 
#
# 1 24.6343 3.0180 -10.5494 0.0000 0.0000 0.0000
# 2 3.0180 169.8400 72.4205 0.0000 0.0000 0.0000
# 3 -10.5494 72.4205 118.7752 0.0000 0.0000 0.0000
# 4 0.0000 0.0000 0.0000 10.3502 0.0000 0.0000
# 5 0.0000 0.0000 0.0000 0.0000 414.6958 0.0000
# 6 0.0000 0.0000 0.0000 0.0000 0.0000 15.2626
#
#
#
# Elastic Compliance Matrix: (Units=1/GPa)
#
#
# Indices 1 2 3 4 5 6 
#
# 1 0.043503 -0.003271 0.005858 0.000000 0.000000 0.000000
# 2 -0.003271 0.008202 -0.005292 0.000000 0.000000 0.000000
# 3 0.005858 -0.005292 0.012166 0.000000 0.000000 0.000000
# 4 0.000000 0.000000 0.000000 0.096616 0.000000 0.000000
# 5 0.000000 0.000000 0.000000 0.000000 0.002411 0.000000
# 6 0.000000 0.000000 0.000000 0.000000 0.000000 0.065520
#
#
# Mechanical properties :
#
#
# Convention : Reuss Voigt Hill
#
# Bulk Modulus (GPa) = 17.10487 49.22529 33.16508
# Shear Modulus (GPa) = 19.73818 104.61908 62.17863
#
# Velocity S-wave (km/s) = 3.21540 7.40265 5.70693
# Velocity P-wave (km/s) = 4.76913 9.94232 7.79726
#
# Compressibility (1/GPa) = 0.05846289
#
# Stress axis : x y z
#
# Youngs Moduli (GPa) = 22.98676 121.91465 82.19535
#
# Poissons Ratio (x) = 0.39879 -0.48153
# Poissons Ratio (y) = 0.07519 0.43496
# Poissons Ratio (z) = -0.13466 0.64515
#
# Static dielectric constant tensor:
#      x y z
#    x 1.704750 0.000000 0.000000 
#    y 0.000000 1.705660 0.000000 
#    z 0.000000 0.000000 1.618990 
# 
# From -- ./inp_files/11659.got.cif
#   From: 2010.05.17/outbox.cif.g08.bks.cpg/sg38_6_cif.got.tgz:11659.got - 2010.06.03 18:07:57.
