data_PCOD9357051
_publ_section_title
;
Structure prediction by ZEFSAII (Michael W. Deem and Ramdas Pophale) SiO2 
 PCOD9357051
Probable space group: A M M 2
;
_chemical_formula_sum "Si O2"
_cell_formula_units_Z 48
_cell_length_a 7.391877
_cell_length_b 8.360475
_cell_length_c 34.794213
_cell_angle_alpha 90.000000
_cell_angle_beta 90.000000
_cell_angle_gamma 90.000000
_cell_volume 2150.268545
_symmetry_space_group_name_H-M "A M M 2"
_symmetry_group_IT_number 38
_symmetry_cell_setting 'orthorhombic'
loop_
_space_group_symop_operation_xyz
x,y,z
-x,-y,z
-x,y,z
x,-y,z
x,1/2+y,1/2+z
-x,1/2-y,1/2+z
-x,1/2+y,1/2+z
x,1/2-y,1/2+z
loop_
_atom_site_type_symbol
_atom_site_label
_atom_site_fract_x
_atom_site_fract_y
_atom_site_fract_z
Si Si1 0.718936 0.314128 0.023780
Si Si2 0.720813 0.314095 0.110646
Si Si3 0.221047 0.174496 0.787403
Si Si4 0.717630 0.000000 0.157150
Si Si5 0.784834 0.325002 0.863829
Si Si6 0.786834 0.500000 0.747431
Si Si7 0.283310 0.324702 0.444163
O O1 0.500000 0.298383 0.024357
O O2 0.761056 0.500000 0.017950
O O3 0.778002 0.272511 0.066844
O O4 0.786279 0.223210 0.986187
O O5 0.500000 0.317338 0.111332
O O6 0.776220 0.500000 0.119118
O O7 0.780141 0.167014 0.137553
O O8 0.277229 0.199478 0.831918
O O9 0.283613 0.332714 0.764815
O O10 0.000000 0.172646 0.785425
O O11 0.281417 0.000000 0.773276
O O12 0.500000 0.000000 0.153163
O O13 0.764120 0.000000 0.201849
O O14 0.711719 0.500000 0.854164
O O15 0.752669 0.288106 0.908251
O O16 0.000000 0.330418 0.859202
O O17 0.000000 0.500000 0.757041
O O18 0.500000 0.329692 0.447757
O O19 0.215787 0.500000 0.433569
#
# Coordination Sequence:
#
# PCOD9357051 Si02
#       7
#     8   8   8   4   8   4   8
#     4   8  14  26  44  66  94 129 168 206 244 285
#     4   8  15  28  47  72 100 131 166 204 246 295
#     4   9  17  32  55  77  97 127 167 209 246 291
#     4  10  20  32  52  78 102 128 164 208 254 298
#     4  10  19  33  53  74  97 129 172 215 253 298
#     4  10  20  36  54  76 102 128 166 206 248 306
#     4  10  20  30  44  72 106 135 167 209 254 301
#
# _framework density 22.322792
#
# number of rings (size 3 to 8) (size 9 to 14) (size 15 to 20)
#    0.000    2.833    0.833    2.000    1.167    2.667 
#    0.000    0.833    0.000    2.000    0.000    2.333 
#    0.000    0.000    0.000    0.000    0.000    0.000 
#
# Total GULP energy -133864.069676 kJ/mol
# GULP energy per Si atom -5577.669570 kJ/mol
# Density = 2.227198 g / cm^3
# Si number density = 22.322792 Si / 1000 Ang^3
#
#
#
# Elastic Constant Matrix: (Units=GPa)
#
#
# Indices 1 2 3 4 5 6 
#
# 1 73.7338 7.5341 -4.6768 0.0000 0.0000 0.0000
# 2 7.5341 173.8583 90.8562 0.0000 0.0000 0.0000
# 3 -4.6768 90.8562 127.5496 0.0000 0.0000 0.0000
# 4 0.0000 0.0000 0.0000 23.6627 0.0000 0.0000
# 5 0.0000 0.0000 0.0000 0.0000 17.4297 0.0000
# 6 0.0000 0.0000 0.0000 0.0000 0.0000 -5.2469
#
#
#
# Elastic Compliance Matrix: (Units=1/GPa)
#
#
# Indices 1 2 3 4 5 6 
#
# 1 0.013797 -0.001374 0.001484 0.000000 0.000000 0.000000
# 2 -0.001374 0.009299 -0.006674 0.000000 0.000000 0.000000
# 3 0.001484 -0.006674 0.012649 0.000000 0.000000 0.000000
# 4 0.000000 0.000000 0.000000 0.042261 0.000000 0.000000
# 5 0.000000 0.000000 0.000000 0.000000 0.057373 0.000000
# 6 0.000000 0.000000 0.000000 0.000000 0.000000 -0.190589
#
#
# Mechanical properties :
#
#
# Convention : Reuss Voigt Hill
#
# Bulk Modulus (GPa) = 44.21346 62.50762 53.36054
# Shear Modulus (GPa) = -144.74736 25.93098 -59.40819
#
# Velocity S-wave (km/s) = -8.06124 3.41198 -5.16440
# Velocity P-wave (km/s) = 8.17285 6.60186 3.40667
#
# Compressibility (1/GPa) = 0.02261754
#
# Stress axis : x y z
#
# Youngs Moduli (GPa) = 72.48057 107.53474 79.05854
#
# Poissons Ratio (x) = 0.14771 -0.11735
# Poissons Ratio (y) = 0.09956 0.52767
# Poissons Ratio (z) = -0.10758 0.71774
#
# Static dielectric constant tensor:
#      x y z
#    x 1.871250 0.000000 0.000000 
#    y 0.000000 1.841930 0.000000 
#    z 0.000000 0.000000 1.783890 
# 
# From -- ./inp_files/24393.got.cif
#   From: 2010.05.17/outbox.cif.g08.bks.cpg/sg38_13_cif.got.tgz:24393.got - 2010.06.03 18:07:57.
