data_PCOD9357723
_publ_section_title
;
Structure prediction by ZEFSAII (Michael W. Deem and Ramdas Pophale) SiO2 
 PCOD9357723
Probable space group: A M M 2
;
_chemical_formula_sum "Si O2"
_cell_formula_units_Z 48
_cell_length_a 7.481077
_cell_length_b 9.421983
_cell_length_c 31.885358
_cell_angle_alpha 90.000000
_cell_angle_beta 90.000000
_cell_angle_gamma 90.000000
_cell_volume 2247.489848
_symmetry_space_group_name_H-M "A M M 2"
_symmetry_group_IT_number 38
_symmetry_cell_setting 'orthorhombic'
loop_
_space_group_symop_operation_xyz
x,y,z
-x,-y,z
-x,y,z
x,-y,z
x,1/2+y,1/2+z
-x,1/2-y,1/2+z
-x,1/2+y,1/2+z
x,1/2-y,1/2+z
loop_
_atom_site_type_symbol
_atom_site_label
_atom_site_fract_x
_atom_site_fract_y
_atom_site_fract_z
Si Si1 0.281425 0.836409 0.753380
Si Si2 0.786077 0.661880 0.510190
Si Si3 0.718630 0.336989 0.835687
Si Si4 0.286009 0.838718 0.172507
Si Si5 0.785469 0.339497 0.089047
Si Si6 0.286026 0.838018 0.915790
O O1 0.500000 0.837450 0.753054
O O2 0.226509 0.754887 0.795485
O O3 0.220349 0.751018 0.712339
O O4 0.223835 0.000000 0.752871
O O5 0.716685 0.500000 0.513767
O O6 0.717211 0.761974 0.547120
O O7 0.750816 0.713040 0.462956
O O8 0.000000 0.654382 0.514877
O O9 0.500000 0.337829 0.835841
O O10 0.776195 0.500000 0.832637
O O11 0.779209 0.262179 0.878590
O O12 0.500000 0.847613 0.177198
O O13 0.251207 0.755555 0.129628
O O14 0.216743 0.000000 0.171384
O O15 0.717024 0.500000 0.093832
O O16 0.000000 0.348388 0.085229
O O17 0.500000 0.845310 0.911389
O O18 0.217084 0.000000 0.912114
#
# Coordination Sequence:
#
# PCOD9357723 Si02
#       6
#     8   8   8   8   8   8
#     4   9  16  27  45  69  98 130 161 195 238 287
#     4   9  18  33  51  69  92 125 162 198 240 291
#     4   9  16  26  42  66  96 127 158 193 235 284
#     4  10  20  33  51  76 103 130 163 204 248 292
#     4  10  21  36  53  73  98 130 167 204 245 296
#     4   9  17  29  46  69  95 122 155 196 240 284
#
# _framework density 21.357158999999999
#
# number of rings (size 3 to 8) (size 9 to 14) (size 15 to 20)
#    0.000    2.667    0.000    2.000    0.000    7.333 
#    0.000    1.667    0.000    1.000    0.000    2.333 
#    0.000    0.000    0.000    0.000    0.000    0.000 
#
# Total GULP energy -134061.554298 kJ/mol
# GULP energy per Si atom -5585.898096 kJ/mol
# Density = 2.130855 g / cm^3
# Si number density = 21.357159 Si / 1000 Ang^3
#
#
#
# Elastic Constant Matrix: (Units=GPa)
#
#
# Indices 1 2 3 4 5 6 
#
# 1 60.4924 6.7027 -1.2207 0.0000 0.0000 0.0000
# 2 6.7027 213.6172 159.6982 0.0000 0.0000 0.0000
# 3 -1.2207 159.6982 238.7758 0.0000 0.0000 0.0000
# 4 0.0000 0.0000 0.0000 41.4212 0.0000 0.0000
# 5 0.0000 0.0000 0.0000 0.0000 33.1795 0.0000
# 6 0.0000 0.0000 0.0000 0.0000 0.0000 6.1403
#
#
#
# Elastic Compliance Matrix: (Units=1/GPa)
#
#
# Indices 1 2 3 4 5 6 
#
# 1 0.016679 -0.001174 0.000871 0.000000 0.000000 0.000000
# 2 -0.001174 0.009445 -0.006323 0.000000 0.000000 0.000000
# 3 0.000871 -0.006323 0.008422 0.000000 0.000000 0.000000
# 4 0.000000 0.000000 0.000000 0.024142 0.000000 0.000000
# 5 0.000000 0.000000 0.000000 0.000000 0.030139 0.000000
# 6 0.000000 0.000000 0.000000 0.000000 0.000000 0.162860
#
#
# Mechanical properties :
#
#
# Convention : Reuss Voigt Hill
#
# Bulk Modulus (GPa) = 46.96615 93.69398 70.33007
# Shear Modulus (GPa) = 18.37983 39.32854 28.85418
#
# Velocity S-wave (km/s) = 2.93677 4.29589 3.67962
# Velocity P-wave (km/s) = 5.79120 8.28079 7.14526
#
# Compressibility (1/GPa) = 0.02129193
#
# Stress axis : x y z
#
# Youngs Moduli (GPa) = 59.95685 105.87308 118.74283
#
# Poissons Ratio (x) = 0.12431 -0.10337
# Poissons Ratio (y) = 0.07040 0.75083
# Poissons Ratio (z) = -0.05220 0.66946
#
# Static dielectric constant tensor:
#      x y z
#    x 1.820420 0.000000 0.000000 
#    y 0.000000 1.756300 0.000000 
#    z 0.000000 0.000000 1.723770 
# 
# From -- ./inp_files/22417.got.cif
#   From: 2010.05.17/outbox.cif.g08.bks.cpg/sg38_12_cif.got.tgz:22417.got - 2010.06.03 18:07:57.
