data_PCOD9357822
_publ_section_title
;
Structure prediction by ZEFSAII (Michael W. Deem and Ramdas Pophale) SiO2 
 PCOD9357822
Probable space group: A M M 2
;
_chemical_formula_sum "Si O2"
_cell_formula_units_Z 34
_cell_length_a 8.136094
_cell_length_b 8.247145
_cell_length_c 27.190499
_cell_angle_alpha 90.000000
_cell_angle_beta 90.000000
_cell_angle_gamma 90.000000
_cell_volume 1824.470164
_symmetry_space_group_name_H-M "A M M 2"
_symmetry_group_IT_number 38
_symmetry_cell_setting 'orthorhombic'
loop_
_space_group_symop_operation_xyz
x,y,z
-x,-y,z
-x,y,z
x,-y,z
x,1/2+y,1/2+z
-x,1/2-y,1/2+z
-x,1/2+y,1/2+z
x,1/2-y,1/2+z
loop_
_atom_site_type_symbol
_atom_site_label
_atom_site_fract_x
_atom_site_fract_y
_atom_site_fract_z
Si Si1 0.000000 0.679530 0.849431
Si Si2 0.186397 0.805381 0.499892
Si Si3 0.697117 0.186823 0.609622
Si Si4 0.000000 0.500000 0.752778
Si Si5 0.300509 0.000000 0.177554
Si Si6 0.324178 0.191663 0.899515
O O1 0.000000 0.651013 0.790967
O O2 0.832991 0.756640 0.868329
O O3 0.000000 0.500000 0.872580
O O4 0.238621 0.767534 0.555436
O O5 0.296369 0.736805 0.456428
O O6 0.000000 0.748947 0.491408
O O7 0.191070 0.000000 0.496156
O O8 0.500000 0.178856 0.607059
O O9 0.734934 0.334432 0.646659
O O10 0.754489 0.000000 0.621366
O O11 0.832365 0.500000 0.721467
O O12 0.500000 0.000000 0.189012
O O13 0.500000 0.261855 0.882767
O O14 0.331743 0.000000 0.896081
#
# Coordination Sequence:
#
# PCOD9357822 Si02
#       6
#     4   8   8   2   4   8
#     4  10  23  43  63  85 116 152 206 267 312 373
#     4  10  20  33  54  88 127 168 207 242 295 366
#     4   9  19  36  58  87 127 169 205 246 302 372
#     4  10  26  44  68  92 112 152 216 260 328 378
#     4  10  22  42  66  94 126 158 208 266 313 374
#     4  11  23  38  60  90 126 166 207 252 313 376
#
# _framework density 18.635545
#
# number of rings (size 3 to 8) (size 9 to 14) (size 15 to 20)
#    0.353    1.647    1.176    1.765    3.294    3.765 
#    0.000    2.353    0.000    2.824    0.000    0.000 
#    0.000    0.000    0.000    0.000    0.000    0.000 
#
# Total GULP energy -94741.172482 kJ/mol
# GULP energy per Si atom -5573.010146 kJ/mol
# Density = 1.859313 g / cm^3
# Si number density = 18.635545 Si / 1000 Ang^3
#
#
#
# Elastic Constant Matrix: (Units=GPa)
#
#
# Indices 1 2 3 4 5 6 
#
# 1 137.8821 52.9720 80.6983 0.0000 0.0000 0.0000
# 2 52.9720 69.3623 47.3085 0.0000 0.0000 0.0000
# 3 80.6983 47.3085 110.2579 0.0000 0.0000 0.0000
# 4 0.0000 0.0000 0.0000 135.0467 0.0000 0.0000
# 5 0.0000 0.0000 0.0000 0.0000 5.8604 0.0000
# 6 0.0000 0.0000 0.0000 0.0000 0.0000 29.9714
#
#
#
# Elastic Compliance Matrix: (Units=1/GPa)
#
#
# Indices 1 2 3 4 5 6 
#
# 1 0.013897 -0.005197 -0.007942 0.000000 0.000000 0.000000
# 2 -0.005197 0.022325 -0.005776 0.000000 0.000000 0.000000
# 3 -0.007942 -0.005776 0.017360 0.000000 0.000000 0.000000
# 4 0.000000 0.000000 0.000000 0.007405 0.000000 0.000000
# 5 0.000000 0.000000 0.000000 0.000000 0.170637 0.000000
# 6 0.000000 0.000000 0.000000 0.000000 0.000000 0.033365
#
#
# Mechanical properties :
#
#
# Convention : Reuss Voigt Hill
#
# Bulk Modulus (GPa) = 63.47313 75.49553 69.48433
# Shear Modulus (GPa) = 16.23016 43.27728 29.75372
#
# Velocity S-wave (km/s) = 2.95435 4.82425 4.00010
# Velocity P-wave (km/s) = 6.76548 8.46349 7.66167
#
# Compressibility (1/GPa) = 0.01575470
#
# Stress axis : x y z
#
# Youngs Moduli (GPa) = 71.95805 44.79307 57.60283
#
# Poissons Ratio (x) = 0.23277 0.45746
# Poissons Ratio (y) = 0.37394 0.33269
# Poissons Ratio (z) = 0.57146 0.25870
#
# Static dielectric constant tensor:
#      x y z
#    x 1.654800 0.000000 0.000000 
#    y 0.000000 1.657410 0.000000 
#    z 0.000000 0.000000 1.623030 
# 
# From -- ./inp_files/23178.got.cif
#   From: 2010.05.17/outbox.cif.g08.bks.cpg/sg38_12_cif.got.tgz:23178.got - 2010.06.03 18:07:57.
