data_PCOD9357796
_publ_section_title
;
Structure prediction by ZEFSAII (Michael W. Deem and Ramdas Pophale) SiO2 
 PCOD9357796
Probable space group: A M M 2
;
_chemical_formula_sum "Si O2"
_cell_formula_units_Z 64
_cell_length_a 8.265333
_cell_length_b 20.215451
_cell_length_c 21.376295
_cell_angle_alpha 90.000000
_cell_angle_beta 90.000000
_cell_angle_gamma 90.000000
_cell_volume 3571.710286
_symmetry_space_group_name_H-M "A M M 2"
_symmetry_group_IT_number 38
_symmetry_cell_setting 'orthorhombic'
loop_
_space_group_symop_operation_xyz
x,y,z
-x,-y,z
-x,y,z
x,-y,z
x,1/2+y,1/2+z
-x,1/2-y,1/2+z
-x,1/2+y,1/2+z
x,1/2-y,1/2+z
loop_
_atom_site_type_symbol
_atom_site_label
_atom_site_fract_x
_atom_site_fract_y
_atom_site_fract_z
Si Si1 0.805605 0.210765 0.123660
Si Si2 0.302977 0.073159 0.317427
Si Si3 0.694982 0.926448 0.171093
Si Si4 0.306904 0.287377 0.866300
Si Si5 0.195301 0.711894 0.001045
Si Si6 0.805730 0.926981 0.548662
Si Si7 0.693545 0.074451 0.691181
Si Si8 0.806459 0.791762 0.745434
O O1 0.760164 0.134491 0.131769
O O2 0.745195 0.250462 0.184876
O O3 0.000000 0.216234 0.123838
O O4 0.746839 0.244441 0.059693
O O5 0.500000 0.072746 0.319598
O O6 0.257862 0.081361 0.244247
O O7 0.244415 0.137519 0.354130
O O8 0.248093 0.000000 0.338557
O O9 0.500000 0.924660 0.169456
O O10 0.747384 0.000000 0.150956
O O11 0.500000 0.289936 0.866820
O O12 0.247144 0.263324 0.933412
O O13 0.254099 0.242062 0.808586
O O14 0.000000 0.710699 0.003362
O O15 0.255622 0.636440 0.011065
O O16 0.766829 0.915752 0.621841
O O17 0.000000 0.928599 0.542239
O O18 0.741769 0.000000 0.531158
O O19 0.500000 0.077265 0.685773
O O20 0.752082 0.132928 0.735572
O O21 0.739220 0.000000 0.711550
O O22 0.000000 0.789258 0.745037
#
# Coordination Sequence:
#
# PCOD9357796 Si02
#       8
#     8   8   8   8   8   8   8   8
#     4  10  20  34  54  79 106 139 180 222 264 308
#     4   8  15  29  48  72 105 141 173 207 254 313
#     4   9  17  31  53  79 106 136 170 214 268 317
#     4  11  22  35  53  79 107 143 183 224 271 318
#     4  10  21  37  51  73 109 146 182 223 266 318
#     4   9  17  32  53  75 106 148 186 219 261 315
#     4  10  20  33  53  83 113 138 173 224 272 316
#     4  11  21  36  57  80 106 142 181 222 269 320
#
# _framework density 17.918585
#
# number of rings (size 3 to 8) (size 9 to 14) (size 15 to 20)
#    0.000    2.250    2.500    1.875    0.000    3.000 
#    0.000    0.000    0.000    1.875    0.000    3.500 
#    0.000    0.000    0.000    0.000    0.000    0.000 
#
# Total GULP energy -178529.177426 kJ/mol
# GULP energy per Si atom -5579.036795 kJ/mol
# Density = 1.787780 g / cm^3
# Si number density = 17.918585 Si / 1000 Ang^3
#
#
#
# Elastic Constant Matrix: (Units=GPa)
#
#
# Indices 1 2 3 4 5 6 
#
# 1 9.1524 7.2510 9.1406 0.0000 0.0000 0.0000
# 2 7.2510 113.4200 67.7250 0.0000 0.0000 0.0000
# 3 9.1406 67.7250 114.5409 0.0000 0.0000 0.0000
# 4 0.0000 0.0000 0.0000 27.5744 0.0000 0.0000
# 5 0.0000 0.0000 0.0000 0.0000 -10.8917 0.0000
# 6 0.0000 0.0000 0.0000 0.0000 0.0000 22.8406
#
#
#
# Elastic Compliance Matrix: (Units=1/GPa)
#
#
# Indices 1 2 3 4 5 6 
#
# 1 0.119381 -0.003004 -0.007751 0.000000 0.000000 0.000000
# 2 -0.003004 0.013704 -0.007863 0.000000 0.000000 0.000000
# 3 -0.007751 -0.007863 0.013998 0.000000 0.000000 0.000000
# 4 0.000000 0.000000 0.000000 0.036266 0.000000 0.000000
# 5 0.000000 0.000000 0.000000 0.000000 -0.091813 0.000000
# 6 0.000000 0.000000 0.000000 0.000000 0.000000 0.043782
#
#
# Mechanical properties :
#
#
# Convention : Reuss Voigt Hill
#
# Bulk Modulus (GPa) = 9.10351 45.03850 27.07101
# Shear Modulus (GPa) = 23.90410 18.10444 21.00427
#
# Velocity S-wave (km/s) = 3.65641 3.18208 3.42746
# Velocity P-wave (km/s) = 4.78720 6.22017 5.55013
#
# Compressibility (1/GPa) = 0.10984768
#
# Stress axis : x y z
#
# Youngs Moduli (GPa) = 8.37654 72.97132 71.43741
#
# Poissons Ratio (x) = 0.21921 0.55369
# Poissons Ratio (y) = 0.02516 0.56172
# Poissons Ratio (z) = 0.06492 0.57378
#
# Static dielectric constant tensor:
#      x y z
#    x 1.625230 0.000000 0.000000 
#    y 0.000000 1.633880 0.000000 
#    z 0.000000 0.000000 1.592120 
# 
# From -- ./inp_files/20048.got.cif
#   From: 2010.05.17/outbox.cif.g08.bks.cpg/sg38_11_cif.got.tgz:20048.got - 2010.06.03 18:07:57.
