data_PCOD9357352
_publ_section_title
;
Structure prediction by ZEFSAII (Michael W. Deem and Ramdas Pophale) SiO2 
 PCOD9357352
Probable space group: A M M 2
;
_chemical_formula_sum "Si O2"
_cell_formula_units_Z 64
_cell_length_a 24.609695
_cell_length_b 8.121178
_cell_length_c 15.636857
_cell_angle_alpha 90.000000
_cell_angle_beta 90.000000
_cell_angle_gamma 90.000000
_cell_volume 3125.177762
_symmetry_space_group_name_H-M "A M M 2"
_symmetry_group_IT_number 38
_symmetry_cell_setting 'orthorhombic'
loop_
_space_group_symop_operation_xyz
x,y,z
-x,-y,z
-x,y,z
x,-y,z
x,1/2+y,1/2+z
-x,1/2-y,1/2+z
-x,1/2+y,1/2+z
x,1/2-y,1/2+z
loop_
_atom_site_type_symbol
_atom_site_label
_atom_site_fract_x
_atom_site_fract_y
_atom_site_fract_z
Si Si1 0.634395 0.302940 0.594670
Si Si2 0.881112 0.691210 0.857920
Si Si3 0.356831 0.700998 0.397880
Si Si4 0.235177 0.691415 0.409045
Si Si5 0.438093 0.698949 0.249117
Si Si6 0.752414 0.691378 0.098467
Si Si7 0.860640 0.699933 0.672821
Si Si8 0.060757 0.305053 0.524049
O O1 0.638314 0.500000 0.594351
O O2 0.628516 0.248747 0.495289
O O3 0.587110 0.249853 0.658383
O O4 0.691599 0.231052 0.628013
O O5 0.895963 0.500000 0.862571
O O6 0.817104 0.711520 0.877658
O O7 0.888275 0.751013 0.761297
O O8 0.915233 0.781590 0.929991
O O9 0.356351 0.500000 0.397569
O O10 0.294550 0.752128 0.379681
O O11 0.399009 0.757418 0.326124
O O12 0.228635 0.500000 0.384828
O O13 0.237115 0.704680 0.512288
O O14 0.500000 0.756845 0.258883
O O15 0.438361 0.500000 0.252727
O O16 0.755793 0.500000 0.075475
O O17 0.799608 0.734023 0.164538
O O18 0.857597 0.500000 0.672078
O O19 0.895936 0.760618 0.592589
O O20 0.057475 0.500000 0.540836
O O21 0.000000 0.235679 0.531788
#
# Coordination Sequence:
#
# PCOD9357352 Si02
#       8
#     8   8   8   8   8   8   8   8
#     4  10  21  38  59  85 117 155 197 243 297 354
#     4  11  23  37  58  91 122 154 198 247 299 351
#     4   8  18  36  57  81 111 154 197 235 288 349
#     4  10  19  35  58  84 120 159 198 243 297 358
#     4  10  21  38  59  85 117 154 199 247 293 348
#     4  11  21  35  59  89 121 155 197 244 301 358
#     4  10  22  39  59  87 123 159 197 241 298 357
#     4  10  22  42  65  85 115 164 209 246 294 353
#
# _framework density 20.478836000000001
#
# number of rings (size 3 to 8) (size 9 to 14) (size 15 to 20)
#    0.000    2.000    1.250    3.000    1.750    2.500 
#    0.000    5.625    0.000    0.000    0.000    0.000 
#    0.000    0.000    0.000    0.000    0.000    0.000 
#
# Total GULP energy -178734.380133 kJ/mol
# GULP energy per Si atom -5585.449379 kJ/mol
# Density = 2.043223 g / cm^3
# Si number density = 20.478836 Si / 1000 Ang^3
#
#
#
# Elastic Constant Matrix: (Units=GPa)
#
#
# Indices 1 2 3 4 5 6 
#
# 1 74.0901 3.1536 10.7299 0.0000 0.0000 0.0000
# 2 3.1536 22.6668 -0.8524 0.0000 0.0000 0.0000
# 3 10.7299 -0.8524 41.5878 0.0000 0.0000 0.0000
# 4 0.0000 0.0000 0.0000 20.6808 0.0000 0.0000
# 5 0.0000 0.0000 0.0000 0.0000 4.1462 0.0000
# 6 0.0000 0.0000 0.0000 0.0000 0.0000 12.6352
#
#
#
# Elastic Compliance Matrix: (Units=1/GPa)
#
#
# Indices 1 2 3 4 5 6 
#
# 1 0.014120 -0.002103 -0.003686 0.000000 0.000000 0.000000
# 2 -0.002103 0.044465 0.001454 0.000000 0.000000 0.000000
# 3 -0.003686 0.001454 0.025026 0.000000 0.000000 0.000000
# 4 0.000000 0.000000 0.000000 0.048354 0.000000 0.000000
# 5 0.000000 0.000000 0.000000 0.000000 0.241187 0.000000
# 6 0.000000 0.000000 0.000000 0.000000 0.000000 0.079144
#
#
# Mechanical properties :
#
#
# Convention : Reuss Voigt Hill
#
# Bulk Modulus (GPa) = 13.34388 18.26742 15.80565
# Shear Modulus (GPa) = 10.28918 15.84667 13.06792
#
# Velocity S-wave (km/s) = 2.24393 2.78476 2.52884
# Velocity P-wave (km/s) = 3.63919 4.39082 4.03256
#
# Compressibility (1/GPa) = 0.07494072
#
# Stress axis : x y z
#
# Youngs Moduli (GPa) = 70.81932 22.48974 39.95778
#
# Poissons Ratio (x) = 0.04730 0.14729
# Poissons Ratio (y) = 0.14894 -0.05810
# Poissons Ratio (z) = 0.26106 -0.03270
#
# Static dielectric constant tensor:
#      x y z
#    x 1.716670 0.000000 0.000000 
#    y 0.000000 1.722750 0.000000 
#    z 0.000000 0.000000 1.730020 
# 
# From -- ./inp_files/15874.got.cif
#   From: 2010.05.17/outbox.cif.g08.bks.cpg/sg38_8_cif.got.tgz:15874.got - 2010.06.03 18:07:57.
