data_PCOD9357830
_publ_section_title
;
Structure prediction by ZEFSAII (Michael W. Deem and Ramdas Pophale) SiO2 
 PCOD9357830
Probable space group: A M M 2
;
_chemical_formula_sum "Si O2"
_cell_formula_units_Z 64
_cell_length_a 24.253404
_cell_length_b 14.296095
_cell_length_c 8.154949
_cell_angle_alpha 90.000000
_cell_angle_beta 90.000000
_cell_angle_gamma 90.000000
_cell_volume 2827.557048
_symmetry_space_group_name_H-M "A M M 2"
_symmetry_group_IT_number 38
_symmetry_cell_setting 'orthorhombic'
loop_
_space_group_symop_operation_xyz
x,y,z
-x,-y,z
-x,y,z
x,-y,z
x,1/2+y,1/2+z
-x,1/2-y,1/2+z
-x,1/2+y,1/2+z
x,1/2-y,1/2+z
loop_
_atom_site_type_symbol
_atom_site_label
_atom_site_fract_x
_atom_site_fract_y
_atom_site_fract_z
Si Si1 0.560827 0.358021 0.544070
Si Si2 0.064152 0.386038 0.029862
Si Si3 0.259267 0.884798 0.847245
Si Si4 0.560827 0.141979 0.650420
Si Si5 0.131887 0.385416 0.347244
Si Si6 0.320155 0.392938 0.668954
Si Si7 0.679845 0.107062 0.525536
Si Si8 0.935848 0.886038 0.164627
O O1 0.500000 0.395441 0.587503
O O2 0.560288 0.250000 0.597245
O O3 0.567152 0.367242 0.347245
O O4 0.614720 0.396710 0.631098
O O5 0.065603 0.500000 0.030743
O O6 0.100422 0.354426 0.182842
O O7 0.000000 0.359980 0.051470
O O8 0.082410 0.356696 0.847244
O O9 0.195545 0.857470 0.847245
O O10 0.290100 0.851698 0.683354
O O11 0.262343 0.000000 0.847245
O O12 0.290100 0.851698 0.011136
O O13 0.500000 0.104559 0.606987
O O14 0.614720 0.103290 0.563392
O O15 0.130762 0.500000 0.347244
O O16 0.100422 0.354426 0.511647
O O17 0.300332 0.500000 0.679085
O O18 0.311041 0.348998 0.847245
O O19 0.699668 0.000000 0.515405
O O20 0.000000 0.859980 0.143019
O O21 0.934397 0.000000 0.163745
#
# Coordination Sequence:
#
# PCOD9357830 Si02
#       8
#     8   8   8   8   8   8   8   8
#     4  10  20  34  53  76 100 122 150 193 239 287
#     4   8  13  20  30  47  72 102 140 186 231 271
#     4   9  18  31  43  61  87 118 160 199 231 273
#     4  10  20  34  53  76 100 122 150 193 239 287
#     4   9  15  22  35  51  72 105 147 192 229 265
#     4  10  20  34  51  69  94 127 159 195 238 284
#     4  10  20  34  51  69  94 127 159 195 238 284
#     4   8  13  20  30  47  72 102 140 186 231 271
#
# _framework density 22.634381000000001
#
# number of rings (size 3 to 8) (size 9 to 14) (size 15 to 20)
#    0.000    2.750    1.250    1.875    0.000    4.500 
#    0.000    7.500    0.000    0.000    0.000    0.000 
#    0.000    0.000    0.000    0.000    0.000    5.000 
#
# Total GULP energy -178735.490247 kJ/mol
# GULP energy per Si atom -5585.484070 kJ/mol
# Density = 2.258286 g / cm^3
# Si number density = 22.634381 Si / 1000 Ang^3
#
#
#
# Elastic Constant Matrix: (Units=GPa)
#
#
# Indices 1 2 3 4 5 6 
#
# 1 139.0158 -0.4987 133.6100 0.0000 0.0000 0.0000
# 2 -0.4987 66.4890 22.5633 0.0000 0.0000 0.0000
# 3 133.6100 22.5633 250.9018 0.0000 0.0000 0.0000
# 4 0.0000 0.0000 0.0000 18.6743 0.0000 0.0000
# 5 0.0000 0.0000 0.0000 0.0000 -48.1385 0.0000
# 6 0.0000 0.0000 0.0000 0.0000 0.0000 32.4844
#
#
#
# Elastic Compliance Matrix: (Units=1/GPa)
#
#
# Indices 1 2 3 4 5 6 
#
# 1 0.015282 0.002967 -0.008405 0.000000 0.000000 0.000000
# 2 0.002967 0.016089 -0.003027 0.000000 0.000000 0.000000
# 3 -0.008405 -0.003027 0.008734 0.000000 0.000000 0.000000
# 4 0.000000 0.000000 0.000000 0.053549 0.000000 0.000000
# 5 0.000000 0.000000 0.000000 0.000000 -0.020773 0.000000
# 6 0.000000 0.000000 0.000000 0.000000 0.000000 0.030784
#
#
# Mechanical properties :
#
#
# Convention : Reuss Voigt Hill
#
# Bulk Modulus (GPa) = 43.14897 85.30619 64.22758
# Shear Modulus (GPa) = 38.96516 20.65284 29.80900
#
# Velocity S-wave (km/s) = 4.15360 3.02396 3.63296
# Velocity P-wave (km/s) = 6.48907 7.06845 6.78495
#
# Compressibility (1/GPa) = 0.02317553
#
# Stress axis : x y z
#
# Youngs Moduli (GPa) = 65.43644 62.15240 114.50147
#
# Poissons Ratio (x) = -0.18439 0.96236
# Poissons Ratio (y) = -0.19414 0.34657
# Poissons Ratio (z) = 0.54998 0.18812
#
# Static dielectric constant tensor:
#      x y z
#    x 1.776390 0.000000 0.000000 
#    y 0.000000 1.884640 0.000000 
#    z 0.000000 0.000000 1.827770 
# 
# From -- ./inp_files/6867.got.cif
#   From: 2010.05.17/outbox.cif.g08.bks.cpg/sg38_4_cif.got.tgz:6867.got - 2010.06.03 18:07:57.
