data_PCOD9357459
_publ_section_title
;
Structure prediction by ZEFSAII (Michael W. Deem and Ramdas Pophale) SiO2 
 PCOD9357459
Probable space group: A M M 2
;
_chemical_formula_sum "Si O2"
_cell_formula_units_Z 40
_cell_length_a 17.017959
_cell_length_b 8.643366
_cell_length_c 14.843094
_cell_angle_alpha 90.000000
_cell_angle_beta 90.000000
_cell_angle_gamma 90.000000
_cell_volume 2183.307035
_symmetry_space_group_name_H-M "A M M 2"
_symmetry_group_IT_number 38
_symmetry_cell_setting 'orthorhombic'
loop_
_space_group_symop_operation_xyz
x,y,z
-x,-y,z
-x,y,z
x,-y,z
x,1/2+y,1/2+z
-x,1/2-y,1/2+z
-x,1/2+y,1/2+z
x,1/2-y,1/2+z
loop_
_atom_site_type_symbol
_atom_site_label
_atom_site_fract_x
_atom_site_fract_y
_atom_site_fract_z
Si Si1 0.590174 0.816097 0.836500
Si Si2 0.589636 0.684073 0.637529
Si Si3 0.701831 0.816725 0.485168
Si Si4 0.123140 0.313851 0.477236
Si Si5 0.000000 0.186553 0.336226
Si Si6 0.000000 0.812494 0.128266
O O1 0.500000 0.777456 0.862517
O O2 0.599049 0.769872 0.732464
O O3 0.652468 0.726476 0.896478
O O4 0.600509 0.000000 0.848484
O O5 0.500000 0.713567 0.605145
O O6 0.597331 0.500000 0.650925
O O7 0.652911 0.742642 0.566852
O O8 0.788749 0.747122 0.479725
O O9 0.706205 0.000000 0.496199
O O10 0.122115 0.500000 0.472466
O O11 0.074905 0.247893 0.392163
O O12 0.075215 0.266713 0.567734
O O13 0.000000 0.239953 0.231866
O O14 0.000000 0.000000 0.337727
O O15 0.000000 0.000000 0.131331
#
# Coordination Sequence:
#
# PCOD9357459 Si02
#       6
#     8   8   8   8   4   4
#     4  10  21  38  59  83 112 149 194 241 288 341
#     4  10  21  38  59  83 113 151 193 237 287 343
#     4  12  24  37  56  84 117 153 192 238 289 337
#     4  10  21  39  58  82 114 148 187 229 279 340
#     4  10  19  37  62  87 112 141 181 228 282 343
#     4   8  18  37  62  83 106 143 179 218 274 335
#
# _framework density 18.320830999999998
#
# number of rings (size 3 to 8) (size 9 to 14) (size 15 to 20)
#    0.000    1.800    0.000    5.100    0.000    6.400 
#    0.000   12.000    0.000    0.000    0.000    0.000 
#    0.000    0.000    0.000    0.000    0.000    0.000 
#
# Total GULP energy -111734.418569 kJ/mol
# GULP energy per Si atom -5586.720928 kJ/mol
# Density = 1.827913 g / cm^3
# Si number density = 18.320831 Si / 1000 Ang^3
#
#
#
# Elastic Constant Matrix: (Units=GPa)
#
#
# Indices 1 2 3 4 5 6 
#
# 1 130.9195 22.6319 51.0707 0.0000 0.0000 0.0000
# 2 22.6319 53.2065 3.3915 0.0000 0.0000 0.0000
# 3 51.0707 3.3915 98.4990 0.0000 0.0000 0.0000
# 4 0.0000 0.0000 0.0000 34.0619 0.0000 0.0000
# 5 0.0000 0.0000 0.0000 0.0000 26.3003 0.0000
# 6 0.0000 0.0000 0.0000 0.0000 0.0000 29.1612
#
#
#
# Elastic Compliance Matrix: (Units=1/GPa)
#
#
# Indices 1 2 3 4 5 6 
#
# 1 0.010391 -0.004086 -0.005247 0.000000 0.000000 0.000000
# 2 -0.004086 0.020442 0.001414 0.000000 0.000000 0.000000
# 3 -0.005247 0.001414 0.012824 0.000000 0.000000 0.000000
# 4 0.000000 0.000000 0.000000 0.029358 0.000000 0.000000
# 5 0.000000 0.000000 0.000000 0.000000 0.038022 0.000000
# 6 0.000000 0.000000 0.000000 0.000000 0.000000 0.034292
#
#
# Mechanical properties :
#
#
# Convention : Reuss Voigt Hill
#
# Bulk Modulus (GPa) = 35.94346 48.53481 42.23914
# Shear Modulus (GPa) = 29.33558 31.60673 30.47115
#
# Velocity S-wave (km/s) = 4.00586 4.15803 4.08266
# Velocity P-wave (km/s) = 6.40760 7.04283 6.73271
#
# Compressibility (1/GPa) = 0.02782147
#
# Stress axis : x y z
#
# Youngs Moduli (GPa) = 96.23302 48.91796 77.97701
#
# Poissons Ratio (x) = 0.19986 0.40916
# Poissons Ratio (y) = 0.39317 -0.11030
# Poissons Ratio (z) = 0.50495 -0.06919
#
# Static dielectric constant tensor:
#      x y z
#    x 1.601560 0.000000 0.000000 
#    y 0.000000 1.608790 0.000000 
#    z 0.000000 0.000000 1.616810 
# 
# From -- ./inp_files/14306.got.cif
#   From: 2010.05.17/outbox.cif.g08.bks.cpg/sg38_8_cif.got.tgz:14306.got - 2010.06.03 18:07:57.
