data_PCOD9357993
_publ_section_title
;
Structure prediction by ZEFSAII (Michael W. Deem and Ramdas Pophale) SiO2 
 PCOD9357993
Probable space group: A M M 2
;
_chemical_formula_sum "Si O2"
_cell_formula_units_Z 56
_cell_length_a 22.055003
_cell_length_b 8.029249
_cell_length_c 15.846494
_cell_angle_alpha 90.000000
_cell_angle_beta 90.000000
_cell_angle_gamma 90.000000
_cell_volume 2806.178146
_symmetry_space_group_name_H-M "A M M 2"
_symmetry_group_IT_number 38
_symmetry_cell_setting 'orthorhombic'
loop_
_space_group_symop_operation_xyz
x,y,z
-x,-y,z
-x,y,z
x,-y,z
x,1/2+y,1/2+z
-x,1/2-y,1/2+z
-x,1/2+y,1/2+z
x,1/2-y,1/2+z
loop_
_atom_site_type_symbol
_atom_site_label
_atom_site_fract_x
_atom_site_fract_y
_atom_site_fract_z
Si Si1 0.847457 0.299265 0.115890
Si Si2 0.069164 0.299019 0.770859
Si Si3 0.628065 0.702565 0.954569
Si Si4 0.930509 0.296755 0.962392
Si Si5 0.632703 0.196061 0.266846
Si Si6 0.710446 0.697817 0.108320
Si Si7 0.500000 0.304937 0.526880
Si Si8 0.500000 0.692811 0.216800
O O1 0.845302 0.500000 0.110136
O O2 0.884093 0.257561 0.200395
O O3 0.778560 0.234884 0.116446
O O4 0.884917 0.237799 0.034420
O O5 0.068575 0.500000 0.771187
O O6 0.084423 0.244639 0.866562
O O7 0.000000 0.243057 0.751962
O O8 0.627288 0.500000 0.955001
O O9 0.646794 0.757882 0.861068
O O10 0.560361 0.761129 0.975830
O O11 0.672709 0.763644 0.028260
O O12 0.929629 0.500000 0.962922
O O13 0.000000 0.246723 0.980705
O O14 0.671638 0.276202 0.192648
O O15 0.561536 0.225355 0.249886
O O16 0.644984 0.000000 0.263669
O O17 0.715624 0.500000 0.094694
O O18 0.500000 0.500000 0.547736
O O19 0.500000 0.207438 0.615315
O O20 0.500000 0.500000 0.241823
#
# Coordination Sequence:
#
# PCOD9357993 Si02
#       8
#     8   8   8   8   8   8   4   4
#     4  10  20  34  55  81 108 144 191 229 270 328
#     4   9  18  33  54  81 111 142 179 226 282 336
#     4  10  22  40  60  82 113 150 185 229 286 337
#     4   8  15  30  53  79 107 141 182 225 270 330
#     4  11  23  39  61  88 112 143 192 236 274 335
#     4  10  22  39  56  78 112 153 187 226 282 335
#     4  12  23  36  61  92 116 142 185 233 278 335
#     4  12  23  38  61  86 118 152 179 225 290 335
#
# _framework density 19.955967999999999
#
# number of rings (size 3 to 8) (size 9 to 14) (size 15 to 20)
#    0.000    2.000    1.429    3.429    0.000    5.429 
#    0.000    3.571    0.000    0.857    0.000    0.000 
#    0.000    0.000    0.000    0.000    0.000    0.000 
#
# Total GULP energy -156389.323694 kJ/mol
# GULP energy per Si atom -5585.332989 kJ/mol
# Density = 1.991055 g / cm^3
# Si number density = 19.955968 Si / 1000 Ang^3
#
#
#
# Elastic Constant Matrix: (Units=GPa)
#
#
# Indices 1 2 3 4 5 6 
#
# 1 163.6099 0.3645 103.9730 0.0000 0.0000 0.0000
# 2 0.3645 14.9329 -3.0938 0.0000 0.0000 0.0000
# 3 103.9730 -3.0938 160.0161 0.0000 0.0000 0.0000
# 4 0.0000 0.0000 0.0000 25.5432 0.0000 0.0000
# 5 0.0000 0.0000 0.0000 0.0000 2.4586 0.0000
# 6 0.0000 0.0000 0.0000 0.0000 0.0000 13.6954
#
#
#
# Elastic Compliance Matrix: (Units=1/GPa)
#
#
# Indices 1 2 3 4 5 6 
#
# 1 0.010452 -0.001669 -0.006824 0.000000 0.000000 0.000000
# 2 -0.001669 0.067502 0.002390 0.000000 0.000000 0.000000
# 3 -0.006824 0.002390 0.010729 0.000000 0.000000 0.000000
# 4 0.000000 0.000000 0.000000 0.039149 0.000000 0.000000
# 5 0.000000 0.000000 0.000000 0.000000 0.406733 0.000000
# 6 0.000000 0.000000 0.000000 0.000000 0.000000 0.073017
#
#
# Mechanical properties :
#
#
# Convention : Reuss Voigt Hill
#
# Bulk Modulus (GPa) = 13.07579 60.11626 36.59603
# Shear Modulus (GPa) = 7.74855 24.16046 15.95450
#
# Velocity S-wave (km/s) = 1.97263 3.48327 2.83058
# Velocity P-wave (km/s) = 3.42854 6.80936 5.39084
#
# Compressibility (1/GPa) = 0.07647720
#
# Stress axis : x y z
#
# Youngs Moduli (GPa) = 95.67269 14.81440 93.20144
#
# Poissons Ratio (x) = 0.02472 0.63599
# Poissons Ratio (y) = 0.15967 -0.22271
# Poissons Ratio (z) = 0.65285 -0.03540
#
# Static dielectric constant tensor:
#      x y z
#    x 1.585040 0.000000 0.000000 
#    y 0.000000 1.713030 0.000000 
#    z 0.000000 0.000000 1.695760 
# 
# From -- ./inp_files/15561.got.cif
#   From: 2010.05.17/outbox.cif.g08.bks.cpg/sg38_8_cif.got.tgz:15561.got - 2010.06.03 18:07:57.
