data_PCOD9357763
_publ_section_title
;
Structure prediction by ZEFSAII (Michael W. Deem and Ramdas Pophale) SiO2 
 PCOD9357763
Probable space group: A M M 2
;
_chemical_formula_sum "Si O2"
_cell_formula_units_Z 64
_cell_length_a 21.091782
_cell_length_b 13.427821
_cell_length_c 9.869565
_cell_angle_alpha 90.000000
_cell_angle_beta 90.000000
_cell_angle_gamma 90.000000
_cell_volume 2795.225366
_symmetry_space_group_name_H-M "A M M 2"
_symmetry_group_IT_number 38
_symmetry_cell_setting 'orthorhombic'
loop_
_space_group_symop_operation_xyz
x,y,z
-x,-y,z
-x,y,z
x,-y,z
x,1/2+y,1/2+z
-x,1/2-y,1/2+z
-x,1/2+y,1/2+z
x,1/2-y,1/2+z
loop_
_atom_site_type_symbol
_atom_site_label
_atom_site_fract_x
_atom_site_fract_y
_atom_site_fract_z
Si Si1 0.168894 0.324910 0.824500
Si Si2 0.429168 0.256850 0.122965
Si Si3 0.739601 0.888356 0.104362
Si Si4 0.423202 0.114002 0.865371
Si Si5 0.722406 0.831529 0.523238
Si Si6 0.181040 0.884764 0.735424
Si Si7 0.377139 0.391205 0.818755
Si Si8 0.929834 0.381530 0.020077
O O1 0.194075 0.362691 0.680202
O O2 0.173981 0.205585 0.838724
O O3 0.100249 0.355283 0.875084
O O4 0.221945 0.370408 0.924485
O O5 0.500000 0.291598 0.087176
O O6 0.409677 0.187579 0.993038
O O7 0.398813 0.344592 0.219350
O O8 0.427853 0.177202 0.246728
O O9 0.724215 0.788438 0.022518
O O10 0.683103 0.889432 0.216014
O O11 0.742006 0.000000 0.044498
O O12 0.500000 0.111253 0.856866
O O13 0.401312 0.000000 0.891248
O O14 0.749989 0.868703 0.666048
O O15 0.655446 0.863648 0.461481
O O16 0.124218 0.857013 0.630132
O O17 0.173722 0.000000 0.774936
O O18 0.403846 0.500000 0.831022
O O19 0.934699 0.500000 0.026721
O O20 0.000000 0.338660 0.042749
#
# Coordination Sequence:
#
# PCOD9357763 Si02
#       8
#     8   8   8   8   8   8   8   8
#     4   9  17  30  48  71  96 125 161 205 251 296
#     4  10  21  37  60  87 115 150 193 238 287 350
#     4   9  18  32  51  73  97 129 167 209 261 316
#     4   9  19  38  61  84 114 152 191 236 288 342
#     4   9  18  32  49  71  99 129 165 210 259 313
#     4   9  17  30  48  68  95 129 163 201 248 302
#     4  10  20  33  52  75 101 135 174 220 271 324
#     4   9  17  29  46  68  93 124 162 200 241 294
#
# _framework density 22.896187000000001
#
# number of rings (size 3 to 8) (size 9 to 14) (size 15 to 20)
#    0.000    2.750    0.000    1.125    1.750    4.750 
#    0.000    1.250    0.000    6.750    0.000    0.000 
#    0.000    0.000    0.000    0.000    0.000    0.000 
#
# Total GULP energy -178147.098275 kJ/mol
# GULP energy per Si atom -5567.096821 kJ/mol
# Density = 2.284407 g / cm^3
# Si number density = 22.896187 Si / 1000 Ang^3
#
#
#
# Elastic Constant Matrix: (Units=GPa)
#
#
# Indices 1 2 3 4 5 6 
#
# 1 68.8071 3.8884 25.5817 0.0000 0.0000 0.0000
# 2 3.8884 74.7883 -0.1957 0.0000 0.0000 0.0000
# 3 25.5817 -0.1957 84.5288 0.0000 0.0000 0.0000
# 4 0.0000 0.0000 0.0000 25.3459 0.0000 0.0000
# 5 0.0000 0.0000 0.0000 0.0000 11.7969 0.0000
# 6 0.0000 0.0000 0.0000 0.0000 0.0000 19.8702
#
#
#
# Elastic Compliance Matrix: (Units=1/GPa)
#
#
# Indices 1 2 3 4 5 6 
#
# 1 0.016432 -0.000867 -0.004975 0.000000 0.000000 0.000000
# 2 -0.000867 0.013417 0.000294 0.000000 0.000000 0.000000
# 3 -0.004975 0.000294 0.013337 0.000000 0.000000 0.000000
# 4 0.000000 0.000000 0.000000 0.039454 0.000000 0.000000
# 5 0.000000 0.000000 0.000000 0.000000 0.084768 0.000000
# 6 0.000000 0.000000 0.000000 0.000000 0.000000 0.050327
#
#
# Mechanical properties :
#
#
# Convention : Reuss Voigt Hill
#
# Bulk Modulus (GPa) = 31.16428 31.85255 31.50842
# Shear Modulus (GPa) = 20.87437 24.65925 22.76681
#
# Velocity S-wave (km/s) = 3.02271 3.28533 3.15675
# Velocity P-wave (km/s) = 5.08163 5.32289 5.20366
#
# Compressibility (1/GPa) = 0.03208802
#
# Stress axis : x y z
#
# Youngs Moduli (GPa) = 60.85673 74.53265 74.98165
#
# Poissons Ratio (x) = 0.06465 0.37303
# Poissons Ratio (y) = 0.05278 -0.02201
# Poissons Ratio (z) = 0.30276 -0.02188
#
# Static dielectric constant tensor:
#      x y z
#    x 1.879080 0.000000 0.000000 
#    y 0.000000 1.894470 0.000000 
#    z 0.000000 0.000000 1.952240 
# 
# From -- ./inp_files/10884.got.cif
#   From: 2010.05.17/outbox.cif.g08.bks.cpg/sg38_6_cif.got.tgz:10884.got - 2010.06.03 18:07:57.
