data_PCOD9357419
_publ_section_title
;
Structure prediction by ZEFSAII (Michael W. Deem and Ramdas Pophale) SiO2 
 PCOD9357419
Probable space group: A M M 2
;
_chemical_formula_sum "Si O2"
_cell_formula_units_Z 56
_cell_length_a 13.790612
_cell_length_b 11.522058
_cell_length_c 14.459009
_cell_angle_alpha 90.000000
_cell_angle_beta 90.000000
_cell_angle_gamma 90.000000
_cell_volume 2297.482039
_symmetry_space_group_name_H-M "A M M 2"
_symmetry_group_IT_number 38
_symmetry_cell_setting 'orthorhombic'
loop_
_space_group_symop_operation_xyz
x,y,z
-x,-y,z
-x,y,z
x,-y,z
x,1/2+y,1/2+z
-x,1/2-y,1/2+z
-x,1/2+y,1/2+z
x,1/2-y,1/2+z
loop_
_atom_site_type_symbol
_atom_site_label
_atom_site_fract_x
_atom_site_fract_y
_atom_site_fract_z
Si Si1 0.115460 0.373793 0.724780
Si Si2 0.146487 0.625939 0.991587
Si Si3 0.190457 0.625855 0.212366
Si Si4 0.392334 0.824928 0.044713
Si Si5 0.607106 0.276429 0.236303
Si Si6 0.831085 0.624911 0.507461
Si Si7 0.639629 0.871121 0.418533
O O1 0.151001 0.500000 0.762063
O O2 0.153480 0.247303 0.755457
O O3 0.142241 0.377634 0.616146
O O4 0.000000 0.372266 0.736273
O O5 0.098791 0.500000 0.974154
O O6 0.165903 0.628449 0.102567
O O7 0.115791 0.758751 0.971360
O O8 0.246392 0.621623 0.936308
O O9 0.155352 0.500000 0.246676
O O10 0.305703 0.634953 0.224490
O O11 0.500000 0.874328 0.021580
O O12 0.381489 0.819820 0.155096
O O13 0.288306 0.866852 0.003728
O O14 0.397030 0.692361 0.010248
O O15 0.500000 0.327281 0.227919
O O16 0.615585 0.211562 0.333573
O O17 0.859398 0.500000 0.467564
O O18 0.603427 0.000000 0.404053
#
# Coordination Sequence:
#
# PCOD9357419 Si02
#       7
#     8   8   8   8   8   8   8
#     4   9  17  31  53  83 117 149 187 241 301 360
#     4   8  15  32  54  75 103 142 187 236 284 335
#     4  10  19  36  58  82 115 156 200 242 295 361
#     4  10  20  35  52  76 116 160 195 241 299 349
#     4  11  22  34  51  82 119 155 198 249 300 349
#     4   9  16  29  49  75 108 146 186 230 286 351
#     4  10  20  36  57  82 112 155 212 258 294 350
#
# _framework density 24.374510000000001
#
# number of rings (size 3 to 8) (size 9 to 14) (size 15 to 20)
#    0.000    2.429    4.286    0.429    0.000    3.143 
#    0.000    5.714    0.000    3.429    0.000    9.000 
#    0.000   24.000    0.000    0.000    0.000    0.000 
#
# Total GULP energy -156003.884032 kJ/mol
# GULP energy per Si atom -5571.567287 kJ/mol
# Density = 2.431903 g / cm^3
# Si number density = 24.374510 Si / 1000 Ang^3
#
#
#
# Elastic Constant Matrix: (Units=GPa)
#
#
# Indices 1 2 3 4 5 6 
#
# 1 99.7547 44.5361 2.5833 0.0000 0.0000 0.0000
# 2 44.5361 243.0347 8.7697 0.0000 0.0000 0.0000
# 3 2.5833 8.7697 78.4450 0.0000 0.0000 0.0000
# 4 0.0000 0.0000 0.0000 3.2025 0.0000 0.0000
# 5 0.0000 0.0000 0.0000 0.0000 -51.1518 0.0000
# 6 0.0000 0.0000 0.0000 0.0000 0.0000 11.3934
#
#
#
# Elastic Compliance Matrix: (Units=1/GPa)
#
#
# Indices 1 2 3 4 5 6 
#
# 1 0.010919 -0.001996 -0.000136 0.000000 0.000000 0.000000
# 2 -0.001996 0.004496 -0.000437 0.000000 0.000000 0.000000
# 3 -0.000136 -0.000437 0.012801 0.000000 0.000000 0.000000
# 4 0.000000 0.000000 0.000000 0.312255 0.000000 0.000000
# 5 0.000000 0.000000 0.000000 0.000000 -0.019550 0.000000
# 6 0.000000 0.000000 0.000000 0.000000 0.000000 0.087770
#
#
# Mechanical properties :
#
#
# Convention : Reuss Voigt Hill
#
# Bulk Modulus (GPa) = 43.33171 59.22363 51.27767
# Shear Modulus (GPa) = 11.86175 17.04517 14.45346
#
# Velocity S-wave (km/s) = 2.20840 2.64730 2.43775
# Velocity P-wave (km/s) = 4.93141 5.80469 5.38578
#
# Compressibility (1/GPa) = 0.02307779
#
# Stress axis : x y z
#
# Youngs Moduli (GPa) = 91.58129 222.41110 78.11810
#
# Poissons Ratio (x) = 0.44394 0.01066
# Poissons Ratio (y) = 0.18280 0.03413
# Poissons Ratio (z) = 0.01250 0.09717
#
# Static dielectric constant tensor:
#      x y z
#    x 1.881920 0.000000 0.000000 
#    y 0.000000 1.899180 0.000000 
#    z 0.000000 0.000000 1.880140 
# 
# From -- ./inp_files/14569.got.cif
#   From: 2010.05.17/outbox.cif.g08.bks.cpg/sg38_8_cif.got.tgz:14569.got - 2010.06.03 18:07:57.
