data_PCOD9357010
_publ_section_title
;
Structure prediction by ZEFSAII (Michael W. Deem and Ramdas Pophale) SiO2 
 PCOD9357010
Probable space group: A M M 2
;
_chemical_formula_sum "Si O2"
_cell_formula_units_Z 64
_cell_length_a 8.716468
_cell_length_b 25.882583
_cell_length_c 15.282308
_cell_angle_alpha 90.000000
_cell_angle_beta 90.000000
_cell_angle_gamma 90.000000
_cell_volume 3447.760611
_symmetry_space_group_name_H-M "A M M 2"
_symmetry_group_IT_number 38
_symmetry_cell_setting 'orthorhombic'
loop_
_space_group_symop_operation_xyz
x,y,z
-x,-y,z
-x,y,z
x,-y,z
x,1/2+y,1/2+z
-x,1/2-y,1/2+z
-x,1/2+y,1/2+z
x,1/2-y,1/2+z
loop_
_atom_site_type_symbol
_atom_site_label
_atom_site_fract_x
_atom_site_fract_y
_atom_site_fract_z
Si Si1 0.181820 0.261782 0.532680
Si Si2 0.312952 0.941967 0.441824
Si Si3 0.314853 0.887919 0.263106
Si Si4 0.816119 0.134894 0.935173
Si Si5 0.316844 0.667393 0.260957
Si Si6 0.685390 0.439933 0.580133
Si Si7 0.315132 0.847141 0.560514
Si Si8 0.180989 0.722607 0.739958
O O1 0.237226 0.309912 0.475407
O O2 0.259451 0.206521 0.518238
O O3 0.205433 0.276475 0.634717
O O4 0.000000 0.255809 0.518477
O O5 0.500000 0.942559 0.445186
O O6 0.271152 0.924454 0.343852
O O7 0.260957 0.897498 0.508453
O O8 0.259803 0.000000 0.461257
O O9 0.500000 0.883841 0.262393
O O10 0.266004 0.912024 0.170294
O O11 0.245985 0.831091 0.274698
O O12 0.756447 0.132811 0.836410
O O13 0.000000 0.134288 0.937023
O O14 0.752917 0.090456 0.997920
O O15 0.500000 0.664132 0.264999
O O16 0.266095 0.652974 0.162317
O O17 0.264055 0.726525 0.275360
O O18 0.500000 0.437564 0.576562
O O19 0.730218 0.500000 0.581213
O O20 0.500000 0.846734 0.559358
O O21 0.000000 0.726771 0.757249
#
# Coordination Sequence:
#
# PCOD9357010 Si02
#       8
#     8   8   8   8   8   8   8   8
#     4   9  19  34  52  76 108 144 179 220 272 329
#     4   9  18  34  56  82 110 141 182 229 275 327
#     4  10  19  32  54  84 114 147 184 226 275 332
#     4  11  22  37  56  82 112 149 191 232 284 342
#     4  10  21  36  54  80 113 147 187 236 283 334
#     4  10  21  37  57  82 114 152 192 236 284 335
#     4   9  19  35  56  81 108 142 186 230 277 328
#     4  10  19  34  53  78 113 150 184 221 271 334
#
# _framework density 18.562774000000001
#
# number of rings (size 3 to 8) (size 9 to 14) (size 15 to 20)
#    0.000    2.250    1.250    1.500    1.750    3.750 
#    0.000    0.625    0.000    4.500    0.000    0.000 
#    0.000    0.000    0.000    0.000    0.000    0.000 
#
# Total GULP energy -178655.536980 kJ/mol
# GULP energy per Si atom -5582.985531 kJ/mol
# Density = 1.852052 g / cm^3
# Si number density = 18.562774 Si / 1000 Ang^3
#
#
#
# Elastic Constant Matrix: (Units=GPa)
#
#
# Indices 1 2 3 4 5 6 
#
# 1 12.9393 17.9717 17.5062 0.0000 0.0000 0.0000
# 2 17.9717 121.3861 46.1723 0.0000 0.0000 0.0000
# 3 17.5062 46.1723 70.8685 0.0000 0.0000 0.0000
# 4 0.0000 0.0000 0.0000 29.2371 0.0000 0.0000
# 5 0.0000 0.0000 0.0000 0.0000 15.0452 0.0000
# 6 0.0000 0.0000 0.0000 0.0000 0.0000 -5.5949
#
#
#
# Elastic Compliance Matrix: (Units=1/GPa)
#
#
# Indices 1 2 3 4 5 6 
#
# 1 0.122810 -0.008832 -0.024583 0.000000 0.000000 0.000000
# 2 -0.008832 0.011588 -0.005368 0.000000 0.000000 0.000000
# 3 -0.024583 -0.005368 0.023681 0.000000 0.000000 0.000000
# 4 0.000000 0.000000 0.000000 0.034203 0.000000 0.000000
# 5 0.000000 0.000000 0.000000 0.000000 0.066466 0.000000
# 6 0.000000 0.000000 0.000000 0.000000 0.000000 -0.178733
#
#
# Mechanical properties :
#
#
# Convention : Reuss Voigt Hill
#
# Bulk Modulus (GPa) = 12.42034 40.94382 26.68208
# Shear Modulus (GPa) = 27.11234 15.97371 21.54303
#
# Velocity S-wave (km/s) = 3.82589 2.93665 3.41038
# Velocity P-wave (km/s) = 5.12076 5.79684 5.46926
#
# Compressibility (1/GPa) = 0.08051307
#
# Stress axis : x y z
#
# Youngs Moduli (GPa) = 8.14264 86.29944 42.22875
#
# Poissons Ratio (x) = 0.76217 1.03811
# Poissons Ratio (y) = 0.07191 0.22668
# Poissons Ratio (z) = 0.20017 0.46325
#
# Static dielectric constant tensor:
#      x y z
#    x 1.623010 0.000000 0.000000 
#    y 0.000000 1.615760 0.000000 
#    z 0.000000 0.000000 1.655180 
# 
# From -- ./inp_files/12730.got.cif
#   From: 2010.05.17/outbox.cif.g08.bks.cpg/sg38_7_cif.got.tgz:12730.got - 2010.06.03 18:07:57.
