data_PCOD9357511
_publ_section_title
;
Structure prediction by ZEFSAII (Michael W. Deem and Ramdas Pophale) SiO2 
 PCOD9357511
Probable space group: A M M 2
;
_chemical_formula_sum "Si O2"
_cell_formula_units_Z 56
_cell_length_a 16.060580
_cell_length_b 7.708097
_cell_length_c 20.940931
_cell_angle_alpha 90.000000
_cell_angle_beta 90.000000
_cell_angle_gamma 90.000000
_cell_volume 2592.414143
_symmetry_space_group_name_H-M "A M M 2"
_symmetry_group_IT_number 38
_symmetry_cell_setting 'orthorhombic'
loop_
_space_group_symop_operation_xyz
x,y,z
-x,-y,z
-x,y,z
x,-y,z
x,1/2+y,1/2+z
-x,1/2-y,1/2+z
-x,1/2+y,1/2+z
x,1/2-y,1/2+z
loop_
_atom_site_type_symbol
_atom_site_label
_atom_site_fract_x
_atom_site_fract_y
_atom_site_fract_z
Si Si1 0.727662 0.208225 0.643680
Si Si2 0.591529 0.793196 0.743340
Si Si3 0.910382 0.290821 0.690770
Si Si4 0.090026 0.201763 0.973866
Si Si5 0.681923 0.208914 0.367160
Si Si6 0.131860 0.289913 0.832883
Si Si7 0.724213 0.297840 0.004645
O O1 0.666555 0.276324 0.699089
O O2 0.824921 0.240107 0.657082
O O3 0.704280 0.278771 0.573680
O O4 0.718673 0.000000 0.641945
O O5 0.500000 0.723069 0.727399
O O6 0.612261 0.764111 0.817613
O O7 0.589413 0.000000 0.733575
O O8 0.911203 0.500000 0.690494
O O9 0.903583 0.234811 0.764942
O O10 0.000000 0.231085 0.664530
O O11 0.092038 0.215427 0.896846
O O12 0.175386 0.289159 0.996165
O O13 0.000000 0.271051 0.995669
O O14 0.094991 0.000000 0.992700
O O15 0.770881 0.258683 0.336583
O O16 0.683932 0.276728 0.439907
O O17 0.681083 0.000000 0.370360
O O18 0.124703 0.500000 0.837020
O O19 0.700336 0.500000 0.006226
#
# Coordination Sequence:
#
# PCOD9357511 Si02
#       7
#     8   8   8   8   8   8   8
#     4  10  21  38  57  79 111 148 186 227 270 322
#     4  10  21  37  59  86 113 141 174 219 279 337
#     4  10  20  33  51  77 111 150 188 227 273 322
#     4  10  20  31  46  73 106 140 184 233 275 319
#     4   9  17  33  57  82 105 133 177 225 267 319
#     4   9  17  31  51  74 104 142 182 224 272 322
#     4   9  20  37  55  75 104 145 185 222 271 325
#
# _framework density 21.601486000000001
#
# number of rings (size 3 to 8) (size 9 to 14) (size 15 to 20)
#    0.000    2.429    1.429    1.714    0.000    6.286 
#    0.000    3.571    0.000    2.571    0.000    0.000 
#    0.000    0.000    0.000    0.000    0.000    0.000 
#
# Total GULP energy -156232.154902 kJ/mol
# GULP energy per Si atom -5579.719818 kJ/mol
# Density = 2.155232 g / cm^3
# Si number density = 21.601486 Si / 1000 Ang^3
#
#
#
# Elastic Constant Matrix: (Units=GPa)
#
#
# Indices 1 2 3 4 5 6 
#
# 1 107.2209 2.7382 56.8937 0.0000 0.0000 0.0000
# 2 2.7382 31.9306 2.2667 0.0000 0.0000 0.0000
# 3 56.8937 2.2667 138.2880 0.0000 0.0000 0.0000
# 4 0.0000 0.0000 0.0000 13.3451 0.0000 0.0000
# 5 0.0000 0.0000 0.0000 0.0000 -9.1995 0.0000
# 6 0.0000 0.0000 0.0000 0.0000 0.0000 10.6078
#
#
#
# Elastic Compliance Matrix: (Units=1/GPa)
#
#
# Indices 1 2 3 4 5 6 
#
# 1 0.011946 -0.000676 -0.004904 0.000000 0.000000 0.000000
# 2 -0.000676 0.031393 -0.000236 0.000000 0.000000 0.000000
# 3 -0.004904 -0.000236 0.009253 0.000000 0.000000 0.000000
# 4 0.000000 0.000000 0.000000 0.074934 0.000000 0.000000
# 5 0.000000 0.000000 0.000000 0.000000 -0.108701 0.000000
# 6 0.000000 0.000000 0.000000 0.000000 0.000000 0.094270
#
#
# Mechanical properties :
#
#
# Convention : Reuss Voigt Hill
#
# Bulk Modulus (GPa) = 24.41487 44.58184 34.49835
# Shear Modulus (GPa) = 36.13277 17.32008 26.72643
#
# Velocity S-wave (km/s) = 4.09430 2.83468 3.52127
# Velocity P-wave (km/s) = 5.80327 5.60330 5.70417
#
# Compressibility (1/GPa) = 0.04095865
#
# Stress axis : x y z
#
# Youngs Moduli (GPa) = 83.71178 31.85452 108.07821
#
# Poissons Ratio (x) = 0.02154 0.52997
# Poissons Ratio (y) = 0.05661 0.02554
# Poissons Ratio (z) = 0.41049 0.00753
#
# Static dielectric constant tensor:
#      x y z
#    x 1.784060 0.000000 0.000000 
#    y 0.000000 1.802600 0.000000 
#    z 0.000000 0.000000 1.809360 
# 
# From -- ./inp_files/21060.got.cif
#   From: 2010.05.17/outbox.cif.g08.bks.cpg/sg38_11_cif.got.tgz:21060.got - 2010.06.03 18:07:57.
