data_PCOD9357734
_publ_section_title
;
Structure prediction by ZEFSAII (Michael W. Deem and Ramdas Pophale) SiO2 
 PCOD9357734
Probable space group: A M M 2
;
_chemical_formula_sum "Si O2"
_cell_formula_units_Z 56
_cell_length_a 14.317588
_cell_length_b 9.529369
_cell_length_c 22.775590
_cell_angle_alpha 90.000000
_cell_angle_beta 90.000000
_cell_angle_gamma 90.000000
_cell_volume 3107.446365
_symmetry_space_group_name_H-M "A M M 2"
_symmetry_group_IT_number 38
_symmetry_cell_setting 'orthorhombic'
loop_
_space_group_symop_operation_xyz
x,y,z
-x,-y,z
-x,y,z
x,-y,z
x,1/2+y,1/2+z
-x,1/2-y,1/2+z
-x,1/2+y,1/2+z
x,1/2-y,1/2+z
loop_
_atom_site_type_symbol
_atom_site_label
_atom_site_fract_x
_atom_site_fract_y
_atom_site_fract_z
Si Si1 0.154236 0.655446 0.966290
Si Si2 0.395746 0.159398 0.903871
Si Si3 0.000000 0.834662 0.022332
Si Si4 0.359005 0.663197 0.018969
Si Si5 0.245793 0.163292 0.341235
Si Si6 0.201076 0.831047 0.208825
Si Si7 0.000000 0.171575 0.157395
Si Si8 0.392428 0.669332 0.639256
O O1 0.113123 0.500000 0.974178
O O2 0.177954 0.672292 0.897494
O O3 0.248830 0.660819 0.004190
O O4 0.088567 0.775333 0.988993
O O5 0.500000 0.154694 0.880248
O O6 0.329450 0.234767 0.857887
O O7 0.364995 0.000000 0.917230
O O8 0.396816 0.251208 0.963142
O O9 0.000000 0.786038 0.089507
O O10 0.000000 0.000000 0.022929
O O11 0.389472 0.500000 0.020822
O O12 0.382254 0.745865 0.078301
O O13 0.204564 0.199756 0.278167
O O14 0.277410 0.000000 0.339038
O O15 0.100497 0.780648 0.183831
O O16 0.300632 0.789286 0.178381
O O17 0.199292 0.000000 0.202234
O O18 0.000000 0.000000 0.161652
O O19 0.500000 0.694909 0.661772
O O20 0.386274 0.500000 0.629641
#
# Coordination Sequence:
#
# PCOD9357734 Si02
#       8
#     8   8   4   8   8   8   4   8
#     4   9  19  34  51  75 106 135 167 216 274 322
#     4  10  20  33  51  76 106 140 175 217 273 327
#     4  11  21  32  53  83 107 133 172 215 266 327
#     4  10  20  34  53  77 105 140 182 224 268 321
#     4   9  19  35  55  78 102 135 179 222 266 318
#     4   9  18  34  55  78 105 140 183 224 265 316
#     4   9  18  32  53  81 107 133 174 227 268 307
#     4  10  20  33  51  78 112 146 178 219 273 327
#
# _framework density 18.021229999999999
#
# number of rings (size 3 to 8) (size 9 to 14) (size 15 to 20)
#    0.000    2.429    0.000    3.214    0.000    8.286 
#    0.000    4.286    0.000    1.714    0.000    0.000 
#    0.000    0.000    0.000    0.000    0.000    0.000 
#
# Total GULP energy -155921.233983 kJ/mol
# GULP energy per Si atom -5568.615499 kJ/mol
# Density = 1.798021 g / cm^3
# Si number density = 18.021230 Si / 1000 Ang^3
#
#
#
# Elastic Constant Matrix: (Units=GPa)
#
#
# Indices 1 2 3 4 5 6 
#
# 1 127.3182 40.4710 53.9336 0.0000 0.0000 0.0000
# 2 40.4710 68.6606 37.4833 0.0000 0.0000 0.0000
# 3 53.9336 37.4833 75.2115 0.0000 0.0000 0.0000
# 4 0.0000 0.0000 0.0000 25.1552 0.0000 0.0000
# 5 0.0000 0.0000 0.0000 0.0000 -41.7546 0.0000
# 6 0.0000 0.0000 0.0000 0.0000 0.0000 25.6264
#
#
#
# Elastic Compliance Matrix: (Units=1/GPa)
#
#
# Indices 1 2 3 4 5 6 
#
# 1 0.011772 -0.003201 -0.006846 0.000000 0.000000 0.000000
# 2 -0.003201 0.020879 -0.008110 0.000000 0.000000 0.000000
# 3 -0.006846 -0.008110 0.022247 0.000000 0.000000 0.000000
# 4 0.000000 0.000000 0.000000 0.039753 0.000000 0.000000
# 5 0.000000 0.000000 0.000000 0.000000 -0.023949 0.000000
# 6 0.000000 0.000000 0.000000 0.000000 0.000000 0.039022
#
#
# Mechanical properties :
#
#
# Convention : Reuss Voigt Hill
#
# Bulk Modulus (GPa) = 53.81237 59.44067 56.62652
# Shear Modulus (GPa) = 32.84452 11.09223 21.96838
#
# Velocity S-wave (km/s) = 4.27376 2.48364 3.49525
# Velocity P-wave (km/s) = 7.36741 6.42494 6.91226
#
# Compressibility (1/GPa) = 0.01858309
#
# Stress axis : x y z
#
# Youngs Moduli (GPa) = 84.94645 47.89589 44.95028
#
# Poissons Ratio (x) = 0.15333 0.30774
# Poissons Ratio (y) = 0.27195 0.36453
# Poissons Ratio (z) = 0.58156 0.38842
#
# Static dielectric constant tensor:
#      x y z
#    x 1.727610 0.000000 0.000000 
#    y 0.000000 1.606850 0.000000 
#    z 0.000000 0.000000 1.588150 
# 
# From -- ./inp_files/21151.got.cif
#   From: 2010.05.17/outbox.cif.g08.bks.cpg/sg38_11_cif.got.tgz:21151.got - 2010.06.03 18:07:57.
