data_PCOD9357624
_publ_section_title
;
Structure prediction by ZEFSAII (Michael W. Deem and Ramdas Pophale) SiO2 
 PCOD9357624
Probable space group: A M M 2
;
_chemical_formula_sum "Si O2"
_cell_formula_units_Z 40
_cell_length_a 10.738900
_cell_length_b 14.330247
_cell_length_c 12.865159
_cell_angle_alpha 90.000000
_cell_angle_beta 90.000000
_cell_angle_gamma 90.000000
_cell_volume 1979.833335
_symmetry_space_group_name_H-M "A M M 2"
_symmetry_group_IT_number 38
_symmetry_cell_setting 'orthorhombic'
loop_
_space_group_symop_operation_xyz
x,y,z
-x,-y,z
-x,y,z
x,-y,z
x,1/2+y,1/2+z
-x,1/2-y,1/2+z
-x,1/2+y,1/2+z
x,1/2-y,1/2+z
loop_
_atom_site_type_symbol
_atom_site_label
_atom_site_fract_x
_atom_site_fract_y
_atom_site_fract_z
Si Si1 0.784756 0.392757 0.388970
Si Si2 0.365283 0.389174 0.582797
Si Si3 0.146437 0.609721 0.157935
Si Si4 0.855573 0.387587 0.733816
Si Si5 0.860058 0.803012 0.450096
O O1 0.830771 0.500000 0.405395
O O2 0.662117 0.382265 0.459573
O O3 0.780140 0.377828 0.265658
O O4 0.864555 0.307568 0.433446
O O5 0.500000 0.347667 0.609464
O O6 0.371230 0.500000 0.604593
O O7 0.244424 0.357697 0.647502
O O8 0.149133 0.500000 0.132283
O O9 0.000000 0.633980 0.179502
O O10 0.197484 0.665228 0.058800
O O11 0.858902 0.500000 0.737571
O O12 0.809672 0.347793 0.844313
O O13 0.000000 0.356686 0.714550
O O14 0.000000 0.841605 0.456772
#
# Coordination Sequence:
#
# PCOD9357624 Si02
#       5
#     8   8   8   8   8
#     4  10  21  35  53  77 108 148 193 234 274 330
#     4   9  19  37  59  81 111 152 191 233 288 341
#     4   9  18  33  52  77 112 151 187 228 284 342
#     4   9  18  33  56  88 120 148 185 235 286 338
#     4  10  20  32  53  81 116 153 188 231 284 338
#
# _framework density 20.203721000000002
#
# number of rings (size 3 to 8) (size 9 to 14) (size 15 to 20)
#    0.000    2.600    0.000    1.200    2.800    5.200 
#    0.000    7.000    0.000    1.200    0.000    5.600 
#    0.000    0.000    0.000    0.000    0.000    0.000 
#
# Total GULP energy -111370.359039 kJ/mol
# GULP energy per Si atom -5568.517952 kJ/mol
# Density = 2.015774 g / cm^3
# Si number density = 20.203721 Si / 1000 Ang^3
#
#
#
# Elastic Constant Matrix: (Units=GPa)
#
#
# Indices 1 2 3 4 5 6 
#
# 1 83.7374 17.5839 62.7983 0.0000 0.0000 0.0000
# 2 17.5839 87.1810 61.0646 0.0000 0.0000 0.0000
# 3 62.7983 61.0646 172.5822 0.0000 0.0000 0.0000
# 4 0.0000 0.0000 0.0000 28.4518 0.0000 0.0000
# 5 0.0000 0.0000 0.0000 0.0000 10.6085 0.0000
# 6 0.0000 0.0000 0.0000 0.0000 0.0000 5.8195
#
#
#
# Elastic Compliance Matrix: (Units=1/GPa)
#
#
# Indices 1 2 3 4 5 6 
#
# 1 0.016513 0.001167 -0.006422 0.000000 0.000000 0.000000
# 2 0.001167 0.015332 -0.005850 0.000000 0.000000 0.000000
# 3 -0.006422 -0.005850 0.010201 0.000000 0.000000 0.000000
# 4 0.000000 0.000000 0.000000 0.035147 0.000000 0.000000
# 5 0.000000 0.000000 0.000000 0.000000 0.094264 0.000000
# 6 0.000000 0.000000 0.000000 0.000000 0.000000 0.171836
#
#
# Mechanical properties :
#
#
# Convention : Reuss Voigt Hill
#
# Bulk Modulus (GPa) = 50.40859 69.59934 60.00397
# Shear Modulus (GPa) = 13.43673 22.44620 17.94147
#
# Velocity S-wave (km/s) = 2.58168 3.33677 2.98321
# Velocity P-wave (km/s) = 5.82160 7.02631 6.45213
#
# Compressibility (1/GPa) = 0.01983789
#
# Stress axis : x y z
#
# Youngs Moduli (GPa) = 60.55895 65.22161 98.03100
#
# Poissons Ratio (x) = -0.07614 0.62952
# Poissons Ratio (y) = -0.07070 0.57346
# Poissons Ratio (z) = 0.38889 0.38153
#
# Static dielectric constant tensor:
#      x y z
#    x 1.683470 0.000000 0.000000 
#    y 0.000000 1.735470 0.000000 
#    z 0.000000 0.000000 1.771480 
# 
# From -- ./inp_files/9060.got.cif
#   From: 2010.05.17/outbox.cif.g08.bks.cpg/sg38_5_cif.got.tgz:9060.got - 2010.06.03 18:07:57.
