data_PCOD9357621
_publ_section_title
;
Structure prediction by ZEFSAII (Michael W. Deem and Ramdas Pophale) SiO2 
 PCOD9357621
Probable space group: A M M 2
;
_chemical_formula_sum "Si O2"
_cell_formula_units_Z 40
_cell_length_a 7.433391
_cell_length_b 8.022959
_cell_length_c 30.323913
_cell_angle_alpha 90.000000
_cell_angle_beta 90.000000
_cell_angle_gamma 90.000000
_cell_volume 1808.451193
_symmetry_space_group_name_H-M "A M M 2"
_symmetry_group_IT_number 38
_symmetry_cell_setting 'orthorhombic'
loop_
_space_group_symop_operation_xyz
x,y,z
-x,-y,z
-x,y,z
x,-y,z
x,1/2+y,1/2+z
-x,1/2-y,1/2+z
-x,1/2+y,1/2+z
x,1/2-y,1/2+z
loop_
_atom_site_type_symbol
_atom_site_label
_atom_site_fract_x
_atom_site_fract_y
_atom_site_fract_z
Si Si1 0.713639 0.500000 0.507611
Si Si2 0.217746 0.192868 0.152347
Si Si3 0.783701 0.000000 0.904244
Si Si4 0.288052 0.321227 0.056862
Si Si5 0.792502 0.296878 0.747461
Si Si6 0.779482 0.807592 0.344843
O O1 0.500000 0.500000 0.516933
O O2 0.737304 0.500000 0.455481
O O3 0.789537 0.335154 0.530718
O O4 0.271307 0.291650 0.109112
O O5 0.284031 0.255981 0.200131
O O6 0.000000 0.192674 0.154486
O O7 0.275429 0.000000 0.146545
O O8 0.721546 0.168374 0.879637
O O9 0.000000 0.000000 0.900763
O O10 0.500000 0.327103 0.046650
O O11 0.209186 0.500000 0.044965
O O12 0.793728 0.500000 0.745741
O O13 0.716762 0.256749 0.795505
O O14 0.000000 0.239558 0.748245
O O15 0.000000 0.809325 0.343739
O O16 0.725526 0.000000 0.353762
#
# Coordination Sequence:
#
# PCOD9357621 Si02
#       6
#     4   8   4   8   8   8
#     4  10  22  40  56  70  96 134 168 210 267 312
#     4   9  16  28  50  79 108 136 167 206 251 295
#     4  10  20  32  52  80  98 122 170 214 249 296
#     4  10  21  37  55  73  96 132 176 212 251 309
#     4   7  11  22  42  69 102 137 164 191 236 293
#     4   8  14  27  46  70 104 135 159 197 246 293
#
# _framework density 22.118372999999998
#
# number of rings (size 3 to 8) (size 9 to 14) (size 15 to 20)
#    0.000    3.200    1.000    2.400    0.000    2.000 
#    1.800    0.000    0.000    1.200    0.000    2.800 
#    0.000    0.000    0.000    0.000    0.000    0.000 
#
# Total GULP energy -111552.118842 kJ/mol
# GULP energy per Si atom -5577.605942 kJ/mol
# Density = 2.206803 g / cm^3
# Si number density = 22.118373 Si / 1000 Ang^3
#
#
#
# Elastic Constant Matrix: (Units=GPa)
#
#
# Indices 1 2 3 4 5 6 
#
# 1 69.3852 10.5191 -7.8025 0.0000 0.0000 0.0000
# 2 10.5191 161.5441 106.0485 0.0000 0.0000 0.0000
# 3 -7.8025 106.0485 163.3113 0.0000 0.0000 0.0000
# 4 0.0000 0.0000 0.0000 -25.7105 0.0000 0.0000
# 5 0.0000 0.0000 0.0000 0.0000 33.2110 0.0000
# 6 0.0000 0.0000 0.0000 0.0000 0.0000 -6.6780
#
#
#
# Elastic Compliance Matrix: (Units=1/GPa)
#
#
# Indices 1 2 3 4 5 6 
#
# 1 0.015062 -0.002533 0.002364 0.000000 0.000000 0.000000
# 2 -0.002533 0.011216 -0.007404 0.000000 0.000000 0.000000
# 3 0.002364 -0.007404 0.011044 0.000000 0.000000 0.000000
# 4 0.000000 0.000000 0.000000 -0.038895 0.000000 0.000000
# 5 0.000000 0.000000 0.000000 0.000000 0.030111 0.000000
# 6 0.000000 0.000000 0.000000 0.000000 0.000000 -0.149746
#
#
# Mechanical properties :
#
#
# Convention : Reuss Voigt Hill
#
# Bulk Modulus (GPa) = 45.09204 67.97452 56.53328
# Shear Modulus (GPa) = -50.67361 19.19621 -15.73870
#
# Velocity S-wave (km/s) = -4.79165 2.94919 -2.67041
# Velocity P-wave (km/s) = 3.19097 6.51120 4.01332
#
# Compressibility (1/GPa) = 0.02217686
#
# Stress axis : x y z
#
# Youngs Moduli (GPa) = 66.39139 89.16015 90.54511
#
# Poissons Ratio (x) = 0.22584 -0.21409
# Poissons Ratio (y) = 0.16817 0.67041
# Poissons Ratio (z) = -0.15698 0.66015
#
# Static dielectric constant tensor:
#      x y z
#    x 1.847370 0.000000 0.000000 
#    y 0.000000 1.818410 0.000000 
#    z 0.000000 0.000000 1.786860 
# 
# From -- ./inp_files/23251.got.cif
#   From: 2010.05.17/outbox.cif.g08.bks.cpg/sg38_12_cif.got.tgz:23251.got - 2010.06.03 18:07:57.
