data_PCOD9357806
_publ_section_title
;
Structure prediction by ZEFSAII (Michael W. Deem and Ramdas Pophale) SiO2 
 PCOD9357806
Probable space group: A M M 2
;
_chemical_formula_sum "Si O2"
_cell_formula_units_Z 64
_cell_length_a 19.824428
_cell_length_b 8.736759
_cell_length_c 21.055133
_cell_angle_alpha 90.000000
_cell_angle_beta 90.000000
_cell_angle_gamma 90.000000
_cell_volume 3646.775349
_symmetry_space_group_name_H-M "A M M 2"
_symmetry_group_IT_number 38
_symmetry_cell_setting 'orthorhombic'
loop_
_space_group_symop_operation_xyz
x,y,z
-x,-y,z
-x,y,z
x,-y,z
x,1/2+y,1/2+z
-x,1/2-y,1/2+z
-x,1/2+y,1/2+z
x,1/2-y,1/2+z
loop_
_atom_site_type_symbol
_atom_site_label
_atom_site_fract_x
_atom_site_fract_y
_atom_site_fract_z
Si Si1 0.210533 0.317262 0.630090
Si Si2 0.922792 0.182600 0.676787
Si Si3 0.783956 0.183150 0.373854
Si Si4 0.289359 0.318346 0.250774
Si Si5 0.422358 0.183731 0.199475
Si Si6 0.575149 0.686132 0.550813
Si Si7 0.284283 0.315308 0.498897
Si Si8 0.075953 0.184249 0.318048
O O1 0.215698 0.500000 0.637614
O O2 0.133344 0.264446 0.634778
O O3 0.249579 0.240340 0.688655
O O4 0.244523 0.274929 0.563401
O O5 0.913710 0.238804 0.749386
O O6 0.000000 0.218886 0.658703
O O7 0.913747 0.000000 0.674309
O O8 0.743470 0.243498 0.312775
O O9 0.751487 0.247931 0.437572
O O10 0.862438 0.228362 0.363500
O O11 0.780798 0.000000 0.374931
O O12 0.283977 0.500000 0.255207
O O13 0.366562 0.267049 0.240966
O O14 0.500000 0.217495 0.216450
O O15 0.413371 0.226016 0.124966
O O16 0.412674 0.000000 0.203802
O O17 0.500000 0.738684 0.532231
O O18 0.574470 0.500000 0.549223
O O19 0.638246 0.737151 0.508899
O O20 0.284476 0.500000 0.493955
O O21 0.000000 0.222951 0.340127
O O22 0.078796 0.000000 0.309206
#
# Coordination Sequence:
#
# PCOD9357806 Si02
#       8
#     8   8   8   8   8   8   8   8
#     4  11  21  36  58  83 112 148 190 231 279 337
#     4  10  20  33  53  84 116 145 182 233 287 334
#     4  11  23  38  57  81 113 150 190 233 284 342
#     4  12  23  35  56  84 116 148 186 234 281 332
#     4   9  17  33  58  85 113 146 186 232 283 337
#     4   8  14  29  55  82 107 140 182 226 275 331
#     4  10  21  37  57  82 113 147 188 233 281 339
#     4   9  18  34  56  79 104 141 187 232 280 339
#
# _framework density 17.549751000000001
#
# number of rings (size 3 to 8) (size 9 to 14) (size 15 to 20)
#    0.000    2.000    2.500    3.000    0.000    2.500 
#    0.000    1.250    0.000    4.875    0.000    0.000 
#    0.000    0.000    0.000    0.000    0.000    0.000 
#
# Total GULP energy -178591.546742 kJ/mol
# GULP energy per Si atom -5580.985836 kJ/mol
# Density = 1.750981 g / cm^3
# Si number density = 17.549751 Si / 1000 Ang^3
#
#
#
# Elastic Constant Matrix: (Units=GPa)
#
#
# Indices 1 2 3 4 5 6 
#
# 1 160.1815 40.2346 80.4057 0.0000 0.0000 0.0000
# 2 40.2346 30.4660 35.4478 0.0000 0.0000 0.0000
# 3 80.4057 35.4478 110.2701 0.0000 0.0000 0.0000
# 4 0.0000 0.0000 0.0000 27.1523 0.0000 0.0000
# 5 0.0000 0.0000 0.0000 0.0000 27.4947 0.0000
# 6 0.0000 0.0000 0.0000 0.0000 0.0000 23.8117
#
#
#
# Elastic Compliance Matrix: (Units=1/GPa)
#
#
# Indices 1 2 3 4 5 6 
#
# 1 0.011026 -0.008318 -0.005366 0.000000 0.000000 0.000000
# 2 -0.008318 0.058711 -0.012808 0.000000 0.000000 0.000000
# 3 -0.005366 -0.012808 0.017099 0.000000 0.000000 0.000000
# 4 0.000000 0.000000 0.000000 0.036829 0.000000 0.000000
# 5 0.000000 0.000000 0.000000 0.000000 0.036371 0.000000
# 6 0.000000 0.000000 0.000000 0.000000 0.000000 0.041996
#
#
# Mechanical properties :
#
#
# Convention : Reuss Voigt Hill
#
# Bulk Modulus (GPa) = 29.54077 68.12153 48.83115
# Shear Modulus (GPa) = 18.77590 25.34703 22.06147
#
# Velocity S-wave (km/s) = 3.27443 3.80451 3.54938
# Velocity P-wave (km/s) = 5.58256 7.62887 6.68448
#
# Compressibility (1/GPa) = 0.03385153
#
# Stress axis : x y z
#
# Youngs Moduli (GPa) = 90.69839 17.03258 58.48437
#
# Poissons Ratio (x) = 0.14167 0.31381
# Poissons Ratio (y) = 0.75440 0.74909
# Poissons Ratio (z) = 0.48666 0.21816
#
# Static dielectric constant tensor:
#      x y z
#    x 1.632380 0.000000 0.000000 
#    y 0.000000 1.589740 0.000000 
#    z 0.000000 0.000000 1.553810 
# 
# From -- ./inp_files/18896.got.cif
#   From: 2010.05.17/outbox.cif.g08.bks.cpg/sg38_10_cif.got.tgz:18896.got - 2010.06.03 18:07:57.
