data_PCOD9357871
_publ_section_title
;
Structure prediction by ZEFSAII (Michael W. Deem and Ramdas Pophale) SiO2 
 PCOD9357871
Probable space group: A M M 2
;
_chemical_formula_sum "Si O2"
_cell_formula_units_Z 48
_cell_length_a 7.464227
_cell_length_b 18.466506
_cell_length_c 15.399848
_cell_angle_alpha 90.000000
_cell_angle_beta 90.000000
_cell_angle_gamma 90.000000
_cell_volume 2122.687216
_symmetry_space_group_name_H-M "A M M 2"
_symmetry_group_IT_number 38
_symmetry_cell_setting 'orthorhombic'
loop_
_space_group_symop_operation_xyz
x,y,z
-x,-y,z
-x,y,z
x,-y,z
x,1/2+y,1/2+z
-x,1/2-y,1/2+z
-x,1/2+y,1/2+z
x,1/2-y,1/2+z
loop_
_atom_site_type_symbol
_atom_site_label
_atom_site_fract_x
_atom_site_fract_y
_atom_site_fract_z
Si Si1 0.780869 0.079455 0.380130
Si Si2 0.783057 0.702224 0.011860
Si Si3 0.710184 0.421463 0.316284
Si Si4 0.292476 0.787529 0.708026
Si Si5 0.782963 0.368137 0.503054
Si Si6 0.204795 0.878575 0.194192
O O1 0.720701 0.144378 0.441575
O O2 0.715521 0.088748 0.281432
O O3 0.000000 0.083461 0.377604
O O4 0.732554 0.000000 0.413424
O O5 0.720221 0.685171 0.109045
O O6 0.727017 0.784340 0.990782
O O7 0.000000 0.701694 0.013172
O O8 0.500000 0.422054 0.292844
O O9 0.785923 0.500000 0.290826
O O10 0.785234 0.349401 0.270596
O O11 0.724856 0.412526 0.419718
O O12 0.500000 0.774654 0.731056
O O13 0.203310 0.708556 0.708316
O O14 0.717072 0.391916 0.598483
O O15 0.000000 0.369526 0.505685
O O16 0.000000 0.904726 0.189935
#
# Coordination Sequence:
#
# PCOD9357871 Si02
#       6
#     8   8   8   8   8   8
#     4   9  17  30  51  78 105 133 163 197 243 298
#     4   9  18  33  53  77 103 129 162 206 249 289
#     4  10  22  37  50  69 101 137 168 203 250 297
#     4  10  20  34  53  74  97 130 171 209 246 293
#     4   9  18  32  52  76  98 127 168 209 247 289
#     4   9  18  34  55  77 102 130 162 204 249 292
#
# _framework density 22.612846999999999
#
# number of rings (size 3 to 8) (size 9 to 14) (size 15 to 20)
#    0.000    2.667    0.000    2.500    0.000    7.000 
#    0.000    2.500    0.000    1.500    0.000    0.000 
#    0.000    0.000    0.000    0.000    0.000    0.000 
#
# Total GULP energy -134022.418924 kJ/mol
# GULP energy per Si atom -5584.267455 kJ/mol
# Density = 2.256138 g / cm^3
# Si number density = 22.612847 Si / 1000 Ang^3
#
#
#
# Elastic Constant Matrix: (Units=GPa)
#
#
# Indices 1 2 3 4 5 6 
#
# 1 69.7567 -4.4907 -10.7479 0.0000 0.0000 0.0000
# 2 -4.4907 50.1608 27.9149 0.0000 0.0000 0.0000
# 3 -10.7479 27.9149 63.5314 0.0000 0.0000 0.0000
# 4 0.0000 0.0000 0.0000 -40.2853 0.0000 0.0000
# 5 0.0000 0.0000 0.0000 0.0000 18.9570 0.0000
# 6 0.0000 0.0000 0.0000 0.0000 0.0000 2.4307
#
#
#
# Elastic Compliance Matrix: (Units=1/GPa)
#
#
# Indices 1 2 3 4 5 6 
#
# 1 0.014720 -0.000090 0.002530 0.000000 0.000000 0.000000
# 2 -0.000090 0.026389 -0.011610 0.000000 0.000000 0.000000
# 3 0.002530 -0.011610 0.021270 0.000000 0.000000 0.000000
# 4 0.000000 0.000000 0.000000 -0.024823 0.000000 0.000000
# 5 0.000000 0.000000 0.000000 0.000000 0.052751 0.000000
# 6 0.000000 0.000000 0.000000 0.000000 0.000000 0.411397
#
#
# Mechanical properties :
#
#
# Convention : Reuss Voigt Hill
#
# Bulk Modulus (GPa) = 22.70816 23.20018 22.95417
# Shear Modulus (GPa) = 9.35063 7.60532 8.47798
#
# Velocity S-wave (km/s) = 2.03570 1.83591 1.93838
# Velocity P-wave (km/s) = 3.94834 3.84397 3.89650
#
# Compressibility (1/GPa) = 0.04403703
#
# Stress axis : x y z
#
# Youngs Moduli (GPa) = 67.93698 37.89458 47.01541
#
# Poissons Ratio (x) = 0.00341 -0.11894
# Poissons Ratio (y) = 0.00612 0.54586
# Poissons Ratio (z) = -0.17186 0.43997
#
# Static dielectric constant tensor:
#      x y z
#    x 1.843980 0.000000 0.000000 
#    y 0.000000 1.829840 0.000000 
#    z 0.000000 0.000000 1.814540 
# 
# From -- ./inp_files/12018.got.cif
#   From: 2010.05.17/outbox.cif.g08.bks.cpg/sg38_7_cif.got.tgz:12018.got - 2010.06.03 18:07:57.
