data_PCOD9357474
_publ_section_title
;
Structure prediction by ZEFSAII (Michael W. Deem and Ramdas Pophale) SiO2 
 PCOD9357474
Probable space group: A M M 2
;
_chemical_formula_sum "Si O2"
_cell_formula_units_Z 48
_cell_length_a 13.792267
_cell_length_b 15.288409
_cell_length_c 11.879860
_cell_angle_alpha 90.000000
_cell_angle_beta 90.000000
_cell_angle_gamma 90.000000
_cell_volume 2505.008888
_symmetry_space_group_name_H-M "A M M 2"
_symmetry_group_IT_number 38
_symmetry_cell_setting 'orthorhombic'
loop_
_space_group_symop_operation_xyz
x,y,z
-x,-y,z
-x,y,z
x,-y,z
x,1/2+y,1/2+z
-x,1/2-y,1/2+z
-x,1/2+y,1/2+z
x,1/2-y,1/2+z
loop_
_atom_site_type_symbol
_atom_site_label
_atom_site_fract_x
_atom_site_fract_y
_atom_site_fract_z
Si Si1 0.218306 0.394646 0.304440
Si Si2 0.389546 0.393215 0.136644
Si Si3 0.108914 0.603129 0.771897
Si Si4 0.105514 0.857714 0.596208
Si Si5 0.268256 0.097059 0.435500
Si Si6 0.890868 0.157968 0.017747
O O1 0.215206 0.500000 0.302988
O O2 0.316588 0.367423 0.238050
O O3 0.132387 0.357520 0.226451
O O4 0.192865 0.364375 0.429683
O O5 0.500000 0.366684 0.157465
O O6 0.386546 0.500000 0.131224
O O7 0.352883 0.361629 0.012569
O O8 0.106768 0.500000 0.800958
O O9 0.203782 0.640301 0.836272
O O10 0.121524 0.612114 0.638571
O O11 0.000000 0.639191 0.799788
O O12 0.186735 0.910591 0.532022
O O13 0.109465 0.760318 0.547270
O O14 0.000000 0.894683 0.577236
O O15 0.300355 0.000000 0.397307
O O16 0.000000 0.134518 0.976133
#
# Coordination Sequence:
#
# PCOD9357474 Si02
#       6
#     8   8   8   8   8   8
#     4  10  20  34  53  75  98 132 175 213 251 299
#     4   8  15  30  53  78  98 120 161 216 264 300
#     4   9  17  29  45  66  97 136 170 198 235 293
#     4  10  20  30  45  70 100 131 166 205 247 291
#     4   9  17  29  48  73  96 124 162 203 249 298
#     4  10  21  32  46  70 104 140 170 201 243 294
#
# _framework density 19.161608999999999
#
# number of rings (size 3 to 8) (size 9 to 14) (size 15 to 20)
#    0.000    2.667    0.000    3.000    2.333    3.667 
#    0.000    0.000    0.000    5.000    0.000    4.667 
#    0.000    0.000    0.000    0.000    0.000    0.000 
#
# Total GULP energy -133604.913728 kJ/mol
# GULP energy per Si atom -5566.871405 kJ/mol
# Density = 1.911800 g / cm^3
# Si number density = 19.161609 Si / 1000 Ang^3
#
#
#
# Elastic Constant Matrix: (Units=GPa)
#
#
# Indices 1 2 3 4 5 6 
#
# 1 102.7082 17.9181 50.7329 0.0000 0.0000 0.0000
# 2 17.9181 22.7844 8.0763 0.0000 0.0000 0.0000
# 3 50.7329 8.0763 109.6413 0.0000 0.0000 0.0000
# 4 0.0000 0.0000 0.0000 46.5790 0.0000 0.0000
# 5 0.0000 0.0000 0.0000 0.0000 27.2368 0.0000
# 6 0.0000 0.0000 0.0000 0.0000 0.0000 9.5875
#
#
#
# Elastic Compliance Matrix: (Units=1/GPa)
#
#
# Indices 1 2 3 4 5 6 
#
# 1 0.014251 -0.009108 -0.005923 0.000000 0.000000 0.000000
# 2 -0.009108 0.050887 0.000466 0.000000 0.000000 0.000000
# 3 -0.005923 0.000466 0.011827 0.000000 0.000000 0.000000
# 4 0.000000 0.000000 0.000000 0.021469 0.000000 0.000000
# 5 0.000000 0.000000 0.000000 0.000000 0.036715 0.000000
# 6 0.000000 0.000000 0.000000 0.000000 0.000000 0.104302
#
#
# Mechanical properties :
#
#
# Convention : Reuss Voigt Hill
#
# Bulk Modulus (GPa) = 20.90517 43.17650 32.04084
# Shear Modulus (GPa) = 17.57303 27.24109 22.40706
#
# Velocity S-wave (km/s) = 3.03164 3.77457 3.42332
# Velocity P-wave (km/s) = 4.81540 6.44812 5.69062
#
# Compressibility (1/GPa) = 0.04783506
#
# Stress axis : x y z
#
# Youngs Moduli (GPa) = 70.17017 19.65133 84.55114
#
# Poissons Ratio (x) = 0.17898 0.50082
# Poissons Ratio (y) = 0.63909 -0.03940
# Poissons Ratio (z) = 0.41564 -0.00916
#
# Static dielectric constant tensor:
#      x y z
#    x 1.717300 0.000000 0.000000 
#    y 0.000000 1.627680 0.000000 
#    z 0.000000 0.000000 1.714940 
# 
# From -- ./inp_files/9225.got.cif
#   From: 2010.05.17/outbox.cif.g08.bks.cpg/sg38_5_cif.got.tgz:9225.got - 2010.06.03 18:07:57.
