data_PCOD9357381
_publ_section_title
;
Structure prediction by ZEFSAII (Michael W. Deem and Ramdas Pophale) SiO2 
 PCOD9357381
Probable space group: A M M 2
;
_chemical_formula_sum "Si O2"
_cell_formula_units_Z 64
_cell_length_a 24.498165
_cell_length_b 8.401117
_cell_length_c 15.404043
_cell_angle_alpha 90.000000
_cell_angle_beta 90.000000
_cell_angle_gamma 90.000000
_cell_volume 3170.336135
_symmetry_space_group_name_H-M "A M M 2"
_symmetry_group_IT_number 38
_symmetry_cell_setting 'orthorhombic'
loop_
_space_group_symop_operation_xyz
x,y,z
-x,-y,z
-x,y,z
x,-y,z
x,1/2+y,1/2+z
-x,1/2-y,1/2+z
-x,1/2+y,1/2+z
x,1/2-y,1/2+z
loop_
_atom_site_type_symbol
_atom_site_label
_atom_site_fract_x
_atom_site_fract_y
_atom_site_fract_z
Si Si1 0.868271 0.685946 0.173150
Si Si2 0.437243 0.692820 0.239044
Si Si3 0.638680 0.309189 0.589811
Si Si4 0.644754 0.806367 0.889274
Si Si5 0.233383 0.688110 0.399405
Si Si6 0.244186 0.689934 0.093456
Si Si7 0.882633 0.682112 0.851377
Si Si8 0.063152 0.686135 0.517217
O O1 0.869521 0.500000 0.195446
O O2 0.805075 0.732156 0.157516
O O3 0.895156 0.780781 0.251696
O O4 0.899529 0.716665 0.083603
O O5 0.500000 0.742930 0.248457
O O6 0.435905 0.500000 0.237957
O O7 0.410375 0.754879 0.150633
O O8 0.399481 0.747591 0.319422
O O9 0.643595 0.500000 0.591164
O O10 0.632633 0.258238 0.488818
O O11 0.695282 0.233881 0.623993
O O12 0.706897 0.758056 0.867067
O O13 0.644810 0.000000 0.888966
O O14 0.227001 0.500000 0.381755
O O15 0.235065 0.717929 0.503044
O O16 0.181421 0.779267 0.363347
O O17 0.240837 0.500000 0.077427
O O18 0.893576 0.500000 0.872781
O O19 0.915400 0.787174 0.920012
O O20 0.068307 0.500000 0.539118
O O21 0.000000 0.733138 0.524024
#
# Coordination Sequence:
#
# PCOD9357381 Si02
#       8
#     8   8   8   8   8   8   8   8
#     4  11  24  41  64  94 127 167 208 255 313 373
#     4  10  21  38  59  83 114 156 205 252 300 363
#     4  10  21  37  58  86 118 156 197 248 306 361
#     4   8  18  36  57  82 113 155 198 238 295 361
#     4  10  19  35  60  88 124 162 204 255 309 371
#     4  10  20  36  60  90 124 161 202 248 309 374
#     4  12  25  40  62  94 129 167 210 257 311 370
#     4  11  25  46  70  94 125 166 211 260 311 369
#
# _framework density 20.187134
#
# number of rings (size 3 to 8) (size 9 to 14) (size 15 to 20)
#    0.000    1.750    1.250    3.750    1.750    3.750 
#    0.000    4.375    0.000    0.000    0.000    0.000 
#    0.000    0.000    0.000    0.000    0.000    0.000 
#
# Total GULP energy -178831.084633 kJ/mol
# GULP energy per Si atom -5588.471395 kJ/mol
# Density = 2.014119 g / cm^3
# Si number density = 20.187134 Si / 1000 Ang^3
#
#
#
# Elastic Constant Matrix: (Units=GPa)
#
#
# Indices 1 2 3 4 5 6 
#
# 1 58.8760 5.5156 -3.0745 0.0000 0.0000 0.0000
# 2 5.5156 21.7995 -5.4656 0.0000 0.0000 0.0000
# 3 -3.0745 -5.4656 35.3967 0.0000 0.0000 0.0000
# 4 0.0000 0.0000 0.0000 26.9946 0.0000 0.0000
# 5 0.0000 0.0000 0.0000 0.0000 -6.1663 0.0000
# 6 0.0000 0.0000 0.0000 0.0000 0.0000 20.9056
#
#
#
# Elastic Compliance Matrix: (Units=1/GPa)
#
#
# Indices 1 2 3 4 5 6 
#
# 1 0.017423 -0.004191 0.000866 0.000000 0.000000 0.000000
# 2 -0.004191 0.048728 0.007160 0.000000 0.000000 0.000000
# 3 0.000866 0.007160 0.029432 0.000000 0.000000 0.000000
# 4 0.000000 0.000000 0.000000 0.037044 0.000000 0.000000
# 5 0.000000 0.000000 0.000000 0.000000 -0.162171 0.000000
# 6 0.000000 0.000000 0.000000 0.000000 0.000000 0.047834
#
#
# Mechanical properties :
#
#
# Convention : Reuss Voigt Hill
#
# Bulk Modulus (GPa) = 9.68490 12.22480 10.95485
# Shear Modulus (GPa) = 111.01838 16.28656 63.65247
#
# Velocity S-wave (km/s) = 7.42388 2.84347 5.62136
# Velocity P-wave (km/s) = 8.84835 4.10479 6.89720
#
# Compressibility (1/GPa) = 0.10325350
#
# Stress axis : x y z
#
# Youngs Moduli (GPa) = 57.39635 20.52199 33.97652
#
# Poissons Ratio (x) = 0.08601 -0.02943
# Poissons Ratio (y) = 0.24055 -0.24328
# Poissons Ratio (z) = -0.04972 -0.14694
#
# Static dielectric constant tensor:
#      x y z
#    x 1.703310 0.000000 0.000000 
#    y 0.000000 1.684180 0.000000 
#    z 0.000000 0.000000 1.711560 
# 
# From -- ./inp_files/15837.got.cif
#   From: 2010.05.17/outbox.cif.g08.bks.cpg/sg38_8_cif.got.tgz:15837.got - 2010.06.03 18:07:57.
