data_PCOD9357235
_publ_section_title
;
Structure prediction by ZEFSAII (Michael W. Deem and Ramdas Pophale) SiO2 
 PCOD9357235
Probable space group: A M M 2
;
_chemical_formula_sum "Si O2"
_cell_formula_units_Z 48
_cell_length_a 14.534718
_cell_length_b 7.947502
_cell_length_c 21.339617
_cell_angle_alpha 90.000000
_cell_angle_beta 90.000000
_cell_angle_gamma 90.000000
_cell_volume 2465.039464
_symmetry_space_group_name_H-M "A M M 2"
_symmetry_group_IT_number 38
_symmetry_cell_setting 'orthorhombic'
loop_
_space_group_symop_operation_xyz
x,y,z
-x,-y,z
-x,y,z
x,-y,z
x,1/2+y,1/2+z
-x,1/2-y,1/2+z
-x,1/2+y,1/2+z
x,1/2-y,1/2+z
loop_
_atom_site_type_symbol
_atom_site_label
_atom_site_fract_x
_atom_site_fract_y
_atom_site_fract_z
Si Si1 0.104004 0.296915 0.217910
Si Si2 0.896487 0.297215 0.074221
Si Si3 0.395283 0.201293 0.897599
Si Si4 0.292025 0.300681 0.772075
Si Si5 0.606523 0.794135 0.146770
Si Si6 0.708050 0.798029 0.021102
O O1 0.104862 0.500000 0.217526
O O2 0.122906 0.239900 0.146017
O O3 0.184398 0.237043 0.263145
O O4 0.000000 0.242908 0.234063
O O5 0.897162 0.500000 0.075452
O O6 0.000000 0.240829 0.057794
O O7 0.815485 0.241360 0.028814
O O8 0.500000 0.267456 0.893549
O O9 0.338505 0.232907 0.834605
O O10 0.340801 0.267420 0.958444
O O11 0.401948 0.000000 0.905008
O O12 0.304822 0.500000 0.773073
O O13 0.342705 0.234189 0.709507
O O14 0.500000 0.745047 0.146801
O O15 0.609668 0.000000 0.146723
O O16 0.657304 0.735177 0.083926
O O17 0.698812 0.000000 0.020901
#
# Coordination Sequence:
#
# PCOD9357235 Si02
#       6
#     8   8   8   8   8   8
#     4   9  18  34  56  81 111 146 181 221 273 331
#     4   9  18  33  54  81 113 145 174 215 275 331
#     4  10  22  39  57  77 108 151 190 224 269 327
#     4  11  21  34  55  83 112 143 180 227 279 327
#     4   9  17  30  50  77 106 134 171 221 271 317
#     4  10  19  34  56  81 106 139 184 228 269 317
#
# _framework density 19.472306
#
# number of rings (size 3 to 8) (size 9 to 14) (size 15 to 20)
#    0.000    2.333    1.667    2.500    0.000    4.333 
#    0.000    2.500    0.000    3.500    0.000    0.000 
#    0.000    0.000    0.000    0.000    0.000    0.000 
#
# Total GULP energy -133953.050377 kJ/mol
# GULP energy per Si atom -5581.377099 kJ/mol
# Density = 1.942799 g / cm^3
# Si number density = 19.472306 Si / 1000 Ang^3
#
#
#
# Elastic Constant Matrix: (Units=GPa)
#
#
# Indices 1 2 3 4 5 6 
#
# 1 177.3040 3.0130 102.6719 0.0000 0.0000 0.0000
# 2 3.0130 16.1925 9.5992 0.0000 0.0000 0.0000
# 3 102.6719 9.5992 157.3656 0.0000 0.0000 0.0000
# 4 0.0000 0.0000 0.0000 19.2961 0.0000 0.0000
# 5 0.0000 0.0000 0.0000 0.0000 27.8050 0.0000
# 6 0.0000 0.0000 0.0000 0.0000 0.0000 17.0190
#
#
#
# Elastic Compliance Matrix: (Units=1/GPa)
#
#
# Indices 1 2 3 4 5 6 
#
# 1 0.009121 0.001899 -0.006067 0.000000 0.000000 0.000000
# 2 0.001899 0.064470 -0.005172 0.000000 0.000000 0.000000
# 3 -0.006067 -0.005172 0.010628 0.000000 0.000000 0.000000
# 4 0.000000 0.000000 0.000000 0.051824 0.000000 0.000000
# 5 0.000000 0.000000 0.000000 0.000000 0.035965 0.000000
# 6 0.000000 0.000000 0.000000 0.000000 0.000000 0.058758
#
#
# Mechanical properties :
#
#
# Convention : Reuss Voigt Hill
#
# Bulk Modulus (GPa) = 15.25778 64.60336 39.93057
# Shear Modulus (GPa) = 18.43044 28.52922 23.47983
#
# Velocity S-wave (km/s) = 3.07985 3.83184 3.47624
# Velocity P-wave (km/s) = 4.52769 7.26818 6.05501
#
# Compressibility (1/GPa) = 0.06554035
#
# Stress axis : x y z
#
# Youngs Moduli (GPa) = 109.63977 15.51118 94.08906
#
# Poissons Ratio (x) = -0.02946 0.57080
# Poissons Ratio (y) = -0.20823 0.48661
# Poissons Ratio (z) = 0.66514 0.08022
#
# Static dielectric constant tensor:
#      x y z
#    x 1.682390 0.000000 0.000000 
#    y 0.000000 1.708590 0.000000 
#    z 0.000000 0.000000 1.663300 
# 
# From -- ./inp_files/18156.got.cif
#   From: 2010.05.17/outbox.cif.g08.bks.cpg/sg38_10_cif.got.tgz:18156.got - 2010.06.03 18:07:57.
