data_PCOD9357632
_publ_section_title
;
Structure prediction by ZEFSAII (Michael W. Deem and Ramdas Pophale) SiO2 
 PCOD9357632
Probable space group: A M M 2
;
_chemical_formula_sum "Si O2"
_cell_formula_units_Z 64
_cell_length_a 20.139615
_cell_length_b 14.560840
_cell_length_c 12.154955
_cell_angle_alpha 90.000000
_cell_angle_beta 90.000000
_cell_angle_gamma 90.000000
_cell_volume 3564.437049
_symmetry_space_group_name_H-M "A M M 2"
_symmetry_group_IT_number 38
_symmetry_cell_setting 'orthorhombic'
loop_
_space_group_symop_operation_xyz
x,y,z
-x,-y,z
-x,y,z
x,-y,z
x,1/2+y,1/2+z
-x,1/2-y,1/2+z
-x,1/2+y,1/2+z
x,1/2-y,1/2+z
loop_
_atom_site_type_symbol
_atom_site_label
_atom_site_fract_x
_atom_site_fract_y
_atom_site_fract_z
Si Si1 0.660309 0.604161 0.995220
Si Si2 0.426864 0.897853 0.705160
Si Si3 0.642038 0.761889 0.844822
Si Si4 0.191100 0.890608 0.410018
Si Si5 0.925976 0.610030 0.071751
Si Si6 0.750117 0.608575 0.465815
Si Si7 0.175548 0.894359 0.748886
Si Si8 0.758167 0.209006 0.197821
O O1 0.647643 0.500000 0.956845
O O2 0.622882 0.682096 0.927710
O O3 0.738381 0.622153 0.972767
O O4 0.632861 0.609485 0.118232
O O5 0.500000 0.890795 0.652654
O O6 0.416571 0.820213 0.794348
O O7 0.422104 0.000000 0.754448
O O8 0.684036 0.712742 0.747452
O O9 0.691771 0.833619 0.905998
O O10 0.129539 0.857320 0.484436
O O11 0.198465 0.839828 0.293575
O O12 0.184025 0.000000 0.392385
O O13 0.929609 0.500000 0.055050
O O14 0.896300 0.621186 0.194645
O O15 0.000000 0.648223 0.058720
O O16 0.734530 0.500000 0.478237
O O17 0.811607 0.614294 0.379234
O O18 0.762896 0.656232 0.582946
O O19 0.219092 0.814575 0.694689
O O20 0.195387 0.000000 0.718831
#
# Coordination Sequence:
#
# PCOD9357632 Si02
#       8
#     8   8   8   8   8   8   8   8
#     4   9  19  34  54  81 109 138 177 222 275 323
#     4  10  21  36  54  77 106 140 180 225 269 317
#     4  10  20  33  52  79 106 142 178 220 266 320
#     4   9  18  32  55  83 109 140 178 228 275 319
#     4   9  18  33  54  78 105 141 185 228 274 326
#     4  10  20  33  51  79 110 142 176 219 274 326
#     4   9  20  33  51  75 102 138 177 218 266 318
#     4  10  20  32  54  78 111 137 177 221 271 326
#
# _framework density 17.95515
#
# number of rings (size 3 to 8) (size 9 to 14) (size 15 to 20)
#    0.000    2.500    0.000    1.500    8.750    1.500 
#    0.000    0.625    0.000    0.750    0.000    3.500 
#    0.000    0.000    0.000    0.000    0.000    0.000 
#
# Total GULP energy -178258.775462 kJ/mol
# GULP energy per Si atom -5570.586733 kJ/mol
# Density = 1.791428 g / cm^3
# Si number density = 17.955150 Si / 1000 Ang^3
#
#
#
# Elastic Constant Matrix: (Units=GPa)
#
#
# Indices 1 2 3 4 5 6 
#
# 1 65.6303 20.6324 36.8195 0.0000 0.0000 0.0000
# 2 20.6324 97.0681 52.1213 0.0000 0.0000 0.0000
# 3 36.8195 52.1213 104.7129 0.0000 0.0000 0.0000
# 4 0.0000 0.0000 0.0000 37.0992 0.0000 0.0000
# 5 0.0000 0.0000 0.0000 0.0000 13.0744 0.0000
# 6 0.0000 0.0000 0.0000 0.0000 0.0000 15.7328
#
#
#
# Elastic Compliance Matrix: (Units=1/GPa)
#
#
# Indices 1 2 3 4 5 6 
#
# 1 0.019008 -0.000616 -0.006377 0.000000 0.000000 0.000000
# 2 -0.000616 0.014080 -0.006792 0.000000 0.000000 0.000000
# 3 -0.006377 -0.006792 0.015173 0.000000 0.000000 0.000000
# 4 0.000000 0.000000 0.000000 0.026955 0.000000 0.000000
# 5 0.000000 0.000000 0.000000 0.000000 0.076485 0.000000
# 6 0.000000 0.000000 0.000000 0.000000 0.000000 0.063561
#
#
# Mechanical properties :
#
#
# Convention : Reuss Voigt Hill
#
# Bulk Modulus (GPa) = 48.32975 54.06196 51.19585
# Shear Modulus (GPa) = 20.02172 23.70384 21.86278
#
# Velocity S-wave (km/s) = 3.34293 3.63736 3.49325
# Velocity P-wave (km/s) = 6.47114 6.91486 6.69667
#
# Compressibility (1/GPa) = 0.02069119
#
# Stress axis : x y z
#
# Youngs Moduli (GPa) = 52.60904 71.02363 65.90734
#
# Poissons Ratio (x) = 0.04376 0.42029
# Poissons Ratio (y) = 0.03241 0.44762
# Poissons Ratio (z) = 0.33549 0.48237
#
# Static dielectric constant tensor:
#      x y z
#    x 1.622880 0.000000 0.000000 
#    y 0.000000 1.635500 0.000000 
#    z 0.000000 0.000000 1.634260 
# 
# From -- ./inp_files/10596.got.cif
#   From: 2010.05.17/outbox.cif.g08.bks.cpg/sg38_6_cif.got.tgz:10596.got - 2010.06.03 18:07:57.
