data_PCOD9357457
_publ_section_title
;
Structure prediction by ZEFSAII (Michael W. Deem and Ramdas Pophale) SiO2 
 PCOD9357457
Probable space group: A M M 2
;
_chemical_formula_sum "Si O2"
_cell_formula_units_Z 40
_cell_length_a 17.230597
_cell_length_b 8.413187
_cell_length_c 14.951812
_cell_angle_alpha 90.000000
_cell_angle_beta 90.000000
_cell_angle_gamma 90.000000
_cell_volume 2167.477984
_symmetry_space_group_name_H-M "A M M 2"
_symmetry_group_IT_number 38
_symmetry_cell_setting 'orthorhombic'
loop_
_space_group_symop_operation_xyz
x,y,z
-x,-y,z
-x,y,z
x,-y,z
x,1/2+y,1/2+z
-x,1/2-y,1/2+z
-x,1/2+y,1/2+z
x,1/2-y,1/2+z
loop_
_atom_site_type_symbol
_atom_site_label
_atom_site_fract_x
_atom_site_fract_y
_atom_site_fract_z
Si Si1 0.706037 0.310850 0.380430
Si Si2 0.000000 0.693731 0.726261
Si Si3 0.412156 0.308120 0.735473
Si Si4 0.586299 0.193405 0.027535
Si Si5 0.000000 0.309985 0.520832
Si Si6 0.880289 0.689488 0.876532
O O1 0.714618 0.500000 0.388503
O O2 0.653435 0.269840 0.295179
O O3 0.655159 0.249984 0.464416
O O4 0.791035 0.237701 0.375430
O O5 0.000000 0.749775 0.623572
O O6 0.926023 0.743010 0.786615
O O7 0.000000 0.500000 0.722851
O O8 0.500000 0.261800 0.762913
O O9 0.406874 0.500000 0.742322
O O10 0.402997 0.265167 0.631228
O O11 0.500000 0.247481 0.998952
O O12 0.585639 0.000000 0.023079
O O13 0.074091 0.255683 0.462705
O O14 0.000000 0.500000 0.523982
O O15 0.887020 0.500000 0.879692
#
# Coordination Sequence:
#
# PCOD9357457 Si02
#       6
#     8   4   8   8   4   8
#     4  11  21  33  52  79 108 138 174 219 263 300
#     4   8  18  37  60  77  98 137 173 202 250 318
#     4   9  18  34  54  74  99 137 181 219 260 314
#     4   8  16  32  52  72  99 139 181 215 257 317
#     4  10  19  37  62  83 100 127 171 216 256 302
#     4  10  21  38  55  78 110 141 172 206 253 314
#
# _framework density 18.454628
#
# number of rings (size 3 to 8) (size 9 to 14) (size 15 to 20)
#    0.000    2.600    0.000    3.900    0.000    2.800 
#    0.000   16.000    0.000    2.400    0.000    0.000 
#    0.000    0.000    0.000    0.000    0.000    0.000 
#
# Total GULP energy -111563.646802 kJ/mol
# GULP energy per Si atom -5578.182340 kJ/mol
# Density = 1.841262 g / cm^3
# Si number density = 18.454628 Si / 1000 Ang^3
#
#
#
# Elastic Constant Matrix: (Units=GPa)
#
#
# Indices 1 2 3 4 5 6 
#
# 1 171.6078 23.8904 90.7681 0.0000 0.0000 0.0000
# 2 23.8904 28.4990 20.7048 0.0000 0.0000 0.0000
# 3 90.7681 20.7048 140.7430 0.0000 0.0000 0.0000
# 4 0.0000 0.0000 0.0000 25.9040 0.0000 0.0000
# 5 0.0000 0.0000 0.0000 0.0000 41.0012 0.0000
# 6 0.0000 0.0000 0.0000 0.0000 0.0000 -47.6066
#
#
#
# Elastic Compliance Matrix: (Units=1/GPa)
#
#
# Indices 1 2 3 4 5 6 
#
# 1 0.009199 -0.003808 -0.005372 0.000000 0.000000 0.000000
# 2 -0.003808 0.040865 -0.003556 0.000000 0.000000 0.000000
# 3 -0.005372 -0.003556 0.011093 0.000000 0.000000 0.000000
# 4 0.000000 0.000000 0.000000 0.038604 0.000000 0.000000
# 5 0.000000 0.000000 0.000000 0.000000 0.024390 0.000000
# 6 0.000000 0.000000 0.000000 0.000000 0.000000 -0.021005
#
#
# Mechanical properties :
#
#
# Convention : Reuss Voigt Hill
#
# Bulk Modulus (GPa) = 28.02371 67.95292 47.98831
# Shear Modulus (GPa) = 35.58415 17.55881 26.57148
#
# Velocity S-wave (km/s) = 4.39589 3.08792 3.79862
# Velocity P-wave (km/s) = 6.40182 7.04381 6.73047
#
# Compressibility (1/GPa) = 0.03568407
#
# Stress axis : x y z
#
# Youngs Moduli (GPa) = 108.70709 24.47104 90.14714
#
# Poissons Ratio (x) = 0.09319 0.48431
# Poissons Ratio (y) = 0.41400 0.32052
# Poissons Ratio (z) = 0.58402 0.08701
#
# Static dielectric constant tensor:
#      x y z
#    x 1.613790 0.000000 0.000000 
#    y 0.000000 1.641840 0.000000 
#    z 0.000000 0.000000 1.637650 
# 
# From -- ./inp_files/14283.got.cif
#   From: 2010.05.17/outbox.cif.g08.bks.cpg/sg38_8_cif.got.tgz:14283.got - 2010.06.03 18:07:57.
