data_PCOD9357309
_publ_section_title
;
Structure prediction by ZEFSAII (Michael W. Deem and Ramdas Pophale) SiO2 
 PCOD9357309
Probable space group: A M M 2
;
_chemical_formula_sum "Si O2"
_cell_formula_units_Z 40
_cell_length_a 13.047445
_cell_length_b 17.207322
_cell_length_c 7.485272
_cell_angle_alpha 90.000000
_cell_angle_beta 90.000000
_cell_angle_gamma 90.000000
_cell_volume 1680.530299
_symmetry_space_group_name_H-M "A M M 2"
_symmetry_group_IT_number 38
_symmetry_cell_setting 'orthorhombic'
loop_
_space_group_symop_operation_xyz
x,y,z
-x,-y,z
-x,y,z
x,-y,z
x,1/2+y,1/2+z
-x,1/2-y,1/2+z
-x,1/2+y,1/2+z
x,1/2-y,1/2+z
loop_
_atom_site_type_symbol
_atom_site_label
_atom_site_fract_x
_atom_site_fract_y
_atom_site_fract_z
Si Si1 0.810202 0.589876 0.898400
Si Si2 0.889497 0.294844 0.183421
Si Si3 0.322036 0.707848 0.758793
Si Si4 0.164891 0.583667 0.469378
Si Si5 0.390331 0.132029 0.911719
O O1 0.801152 0.500000 0.955332
O O2 0.707298 0.642924 0.905246
O O3 0.837728 0.587116 0.686001
O O4 0.882109 0.641553 0.024722
O O5 0.788673 0.240484 0.185947
O O6 0.883915 0.344496 0.366324
O O7 0.000000 0.254758 0.175727
O O8 0.378278 0.785734 0.812637
O O9 0.385022 0.660443 0.615593
O O10 0.120928 0.500000 0.417838
O O11 0.283500 0.586319 0.399964
O O12 0.500000 0.095485 0.869358
#
# Coordination Sequence:
#
# PCOD9357309 Si02
#       5
#     8   8   8   8   8
#     4  10  21  40  62  85 120 160 199 249 305 354
#     4  11  23  39  62  87 120 165 207 246 302 365
#     4  10  20  39  56  89 122 150 203 260 297 352
#     4   9  21  39  59  88 126 156 197 259 304 354
#     4  10  19  34  61  86 113 158 200 245 307 366
#
# _framework density 23.802009000000002
#
# number of rings (size 3 to 8) (size 9 to 14) (size 15 to 20)
#    0.000    2.000    2.000    1.200    0.000    3.600 
#    0.000    2.000    0.000    1.800    0.000    0.000 
#    0.000    0.000    0.000    0.000    0.000    0.000 
#
# Total GULP energy -111550.545491 kJ/mol
# GULP energy per Si atom -5577.527275 kJ/mol
# Density = 2.374783 g / cm^3
# Si number density = 23.802009 Si / 1000 Ang^3
#
#
#
# Elastic Constant Matrix: (Units=GPa)
#
#
# Indices 1 2 3 4 5 6 
#
# 1 154.9057 16.5907 2.4503 0.0000 0.0000 0.0000
# 2 16.5907 102.4300 -0.5263 0.0000 0.0000 0.0000
# 3 2.4503 -0.5263 36.5324 0.0000 0.0000 0.0000
# 4 0.0000 0.0000 0.0000 4.2618 0.0000 0.0000
# 5 0.0000 0.0000 0.0000 0.0000 5.5516 0.0000
# 6 0.0000 0.0000 0.0000 0.0000 0.0000 26.9373
#
#
#
# Elastic Compliance Matrix: (Units=1/GPa)
#
#
# Indices 1 2 3 4 5 6 
#
# 1 0.006577 -0.001068 -0.000457 0.000000 0.000000 0.000000
# 2 -0.001068 0.009937 0.000215 0.000000 0.000000 0.000000
# 3 -0.000457 0.000215 0.027407 0.000000 0.000000 0.000000
# 4 0.000000 0.000000 0.000000 0.234644 0.000000 0.000000
# 5 0.000000 0.000000 0.000000 0.000000 0.180129 0.000000
# 6 0.000000 0.000000 0.000000 0.000000 0.000000 0.037123
#
#
# Mechanical properties :
#
#
# Convention : Reuss Voigt Hill
#
# Bulk Modulus (GPa) = 24.21201 36.76636 30.48919
# Shear Modulus (GPa) = 9.76177 25.70703 17.73440
#
# Velocity S-wave (km/s) = 2.02735 3.28996 2.73258
# Velocity P-wave (km/s) = 3.95911 5.46919 4.77423
#
# Compressibility (1/GPa) = 0.04130182
#
# Stress axis : x y z
#
# Youngs Moduli (GPa) = 152.04246 100.63608 36.48744
#
# Poissons Ratio (x) = 0.10744 0.01666
# Poissons Ratio (y) = 0.16233 -0.00784
# Poissons Ratio (z) = 0.06941 -0.02161
#
# Static dielectric constant tensor:
#      x y z
#    x 1.922960 0.000000 0.000000 
#    y 0.000000 1.887570 0.000000 
#    z 0.000000 0.000000 1.991800 
# 
# From -- ./inp_files/4297.got.cif
#   From: 2010.05.17/outbox.cif.g08.bks.cpg/sg38_3_cif.got.tgz:4297.got - 2010.06.03 18:07:57.
