data_PCOD9357180
_publ_section_title
;
Structure prediction by ZEFSAII (Michael W. Deem and Ramdas Pophale) SiO2 
 PCOD9357180
Probable space group: A M M 2
;
_chemical_formula_sum "Si O2"
_cell_formula_units_Z 48
_cell_length_a 19.404631
_cell_length_b 8.554018
_cell_length_c 15.080539
_cell_angle_alpha 90.000000
_cell_angle_beta 90.000000
_cell_angle_gamma 90.000000
_cell_volume 2503.181915
_symmetry_space_group_name_H-M "A M M 2"
_symmetry_group_IT_number 38
_symmetry_cell_setting 'orthorhombic'
loop_
_space_group_symop_operation_xyz
x,y,z
-x,-y,z
-x,y,z
x,-y,z
x,1/2+y,1/2+z
-x,1/2-y,1/2+z
-x,1/2+y,1/2+z
x,1/2-y,1/2+z
loop_
_atom_site_type_symbol
_atom_site_label
_atom_site_fract_x
_atom_site_fract_y
_atom_site_fract_z
Si Si1 0.000000 0.812462 0.649020
Si Si2 0.000000 0.810084 0.443881
Si Si3 0.648289 0.182162 0.646349
Si Si4 0.500000 0.317873 0.902509
Si Si5 0.500000 0.818367 0.188794
Si Si6 0.353810 0.682898 0.461515
Si Si7 0.735118 0.184989 0.303765
Si Si8 0.894714 0.311339 0.792283
O O1 0.000000 0.756111 0.546250
O O2 0.934746 0.755367 0.707042
O O3 0.000000 0.000000 0.647525
O O4 0.934752 0.763295 0.382564
O O5 0.000000 0.000000 0.447558
O O6 0.568990 0.235297 0.655993
O O7 0.669315 0.218337 0.546244
O O8 0.694354 0.280922 0.713589
O O9 0.654533 0.000000 0.667800
O O10 0.500000 0.500000 0.930412
O O11 0.500000 0.313627 0.795692
O O12 0.431075 0.235256 0.936104
O O13 0.500000 0.000000 0.160835
O O14 0.353159 0.500000 0.482789
O O15 0.304447 0.721444 0.379789
O O16 0.814773 0.232161 0.295393
O O17 0.731649 0.000000 0.323829
O O18 0.899309 0.500000 0.787120
#
# Coordination Sequence:
#
# PCOD9357180 Si02
#       8
#     4   4   8   4   4   8   8   8
#     4  10  19  33  60  93 122 151 197 244 280 338
#     4   8  16  35  60  87 116 153 191 228 280 340
#     4  12  25  41  62  87 119 159 203 250 305 364
#     4  11  22  39  64  88 117 155 199 251 306 364
#     4  11  22  39  64  88 117 153 199 255 306 362
#     4  12  25  41  62  88 120 157 201 252 306 363
#     4  11  23  41  62  88 121 159 203 251 301 358
#     4   9  20  39  61  84 119 160 195 235 292 352
#
# _framework density 19.175595999999999
#
# number of rings (size 3 to 8) (size 9 to 14) (size 15 to 20)
#    0.000    1.333    1.667    5.250    0.000    3.333 
#    0.000    5.000    0.000    0.000    0.000    0.000 
#    0.000    0.000    0.000    0.000    0.000    0.000 
#
# Total GULP energy -134166.225821 kJ/mol
# GULP energy per Si atom -5590.259409 kJ/mol
# Density = 1.913195 g / cm^3
# Si number density = 19.175596 Si / 1000 Ang^3
#
#
#
# Elastic Constant Matrix: (Units=GPa)
#
#
# Indices 1 2 3 4 5 6 
#
# 1 134.8737 11.3301 45.4436 0.0000 0.0000 0.0000
# 2 11.3301 47.2977 -8.5051 0.0000 0.0000 0.0000
# 3 45.4436 -8.5051 118.5044 0.0000 0.0000 0.0000
# 4 0.0000 0.0000 0.0000 32.1953 0.0000 0.0000
# 5 0.0000 0.0000 0.0000 0.0000 -867.5575 0.0000
# 6 0.0000 0.0000 0.0000 0.0000 0.0000 223.0839
#
#
#
# Elastic Compliance Matrix: (Units=1/GPa)
#
#
# Indices 1 2 3 4 5 6 
#
# 1 0.008858 -0.002769 -0.003596 0.000000 0.000000 0.000000
# 2 -0.002769 0.022284 0.002661 0.000000 0.000000 0.000000
# 3 -0.003596 0.002661 0.010008 0.000000 0.000000 0.000000
# 4 0.000000 0.000000 0.000000 0.031060 0.000000 0.000000
# 5 0.000000 0.000000 0.000000 0.000000 -0.001153 0.000000
# 6 0.000000 0.000000 0.000000 0.000000 0.000000 0.004483
#
#
# Mechanical properties :
#
#
# Convention : Reuss Voigt Hill
#
# Bulk Modulus (GPa) = 29.63429 44.13479 36.88454
# Shear Modulus (GPa) = 53.08060 -105.62851 -26.27396
#
# Velocity S-wave (km/s) = 5.26701 -7.42997 -3.70561
# Velocity P-wave (km/s) = 7.24405 7.10914 0.98398
#
# Compressibility (1/GPa) = 0.03374469
#
# Stress axis : x y z
#
# Youngs Moduli (GPa) = 112.88667 44.87440 99.91644
#
# Poissons Ratio (x) = 0.12424 0.35927
# Poissons Ratio (y) = 0.31254 -0.26588
# Poissons Ratio (z) = 0.40591 -0.11941
#
# Static dielectric constant tensor:
#      x y z
#    x 1.685400 0.000000 0.000000 
#    y 0.000000 1.645410 0.000000 
#    z 0.000000 0.000000 1.656120 
# 
# From -- ./inp_files/15096.got.cif
#   From: 2010.05.17/outbox.cif.g08.bks.cpg/sg38_8_cif.got.tgz:15096.got - 2010.06.03 18:07:57.
