data_PCOD9357591
_publ_section_title
;
Structure prediction by ZEFSAII (Michael W. Deem and Ramdas Pophale) SiO2 
 PCOD9357591
Probable space group: A M M 2
;
_chemical_formula_sum "Si O2"
_cell_formula_units_Z 40
_cell_length_a 7.612879
_cell_length_b 9.927341
_cell_length_c 26.322317
_cell_angle_alpha 90.000000
_cell_angle_beta 90.000000
_cell_angle_gamma 90.000000
_cell_volume 1989.326107
_symmetry_space_group_name_H-M "A M M 2"
_symmetry_group_IT_number 38
_symmetry_cell_setting 'orthorhombic'
loop_
_space_group_symop_operation_xyz
x,y,z
-x,-y,z
-x,y,z
x,-y,z
x,1/2+y,1/2+z
-x,1/2-y,1/2+z
-x,1/2+y,1/2+z
x,1/2-y,1/2+z
loop_
_atom_site_type_symbol
_atom_site_label
_atom_site_fract_x
_atom_site_fract_y
_atom_site_fract_z
Si Si1 0.214714 0.654830 0.651320
Si Si2 0.785604 0.154268 0.266292
Si Si3 0.291894 0.346724 0.470806
Si Si4 0.207874 0.652139 0.062492
Si Si5 0.788515 0.347227 0.355547
O O1 0.268595 0.500000 0.640842
O O2 0.267499 0.691211 0.708870
O O3 0.279558 0.758817 0.609146
O O4 0.000000 0.654405 0.650332
O O5 0.722923 0.251135 0.310926
O O6 0.000000 0.156742 0.266705
O O7 0.732592 0.000000 0.275377
O O8 0.500000 0.354454 0.477002
O O9 0.220233 0.500000 0.478051
O O10 0.226858 0.239583 0.511546
O O11 0.253997 0.304279 0.412922
O O12 0.279394 0.500000 0.058614
O O13 0.000000 0.639876 0.071870
O O14 0.722727 0.500000 0.349502
O O15 0.000000 0.350456 0.351779
#
# Coordination Sequence:
#
# PCOD9357591 Si02
#       5
#     8   8   8   8   8
#     4   8  14  26  45  69  97 127 157 192 236 285
#     4   8  14  25  43  69  98 125 154 190 233 280
#     4  10  21  36  52  69  93 129 169 205 243 289
#     4  10  20  32  49  75 102 127 159 201 246 289
#     4   9  17  29  47  71  96 122 155 197 242 286
#
# _framework density 20.107310999999999
#
# number of rings (size 3 to 8) (size 9 to 14) (size 15 to 20)
#    0.000    3.000    0.000    2.400    0.000    4.000 
#    0.000    6.000    0.000    1.200    0.000    5.600 
#    0.000    0.000    0.000    0.000    0.000    0.000 
#
# Total GULP energy -111560.426658 kJ/mol
# GULP energy per Si atom -5578.021333 kJ/mol
# Density = 2.006155 g / cm^3
# Si number density = 20.107311 Si / 1000 Ang^3
#
#
#
# Elastic Constant Matrix: (Units=GPa)
#
#
# Indices 1 2 3 4 5 6 
#
# 1 41.2760 5.3093 -2.6630 0.0000 0.0000 0.0000
# 2 5.3093 149.7796 148.4068 0.0000 0.0000 0.0000
# 3 -2.6630 148.4068 197.2327 0.0000 0.0000 0.0000
# 4 0.0000 0.0000 0.0000 39.9937 0.0000 0.0000
# 5 0.0000 0.0000 0.0000 0.0000 -52.0274 0.0000
# 6 0.0000 0.0000 0.0000 0.0000 0.0000 2.6276
#
#
#
# Elastic Compliance Matrix: (Units=1/GPa)
#
#
# Indices 1 2 3 4 5 6 
#
# 1 0.025102 -0.004817 0.003963 0.000000 0.000000 0.000000
# 2 -0.004817 0.027163 -0.020504 0.000000 0.000000 0.000000
# 3 0.003963 -0.020504 0.020552 0.000000 0.000000 0.000000
# 4 0.000000 0.000000 0.000000 0.025004 0.000000 0.000000
# 5 0.000000 0.000000 0.000000 0.000000 -0.019221 0.000000
# 6 0.000000 0.000000 0.000000 0.000000 0.000000 0.380580
#
#
# Mechanical properties :
#
#
# Convention : Reuss Voigt Hill
#
# Bulk Modulus (GPa) = 33.21971 76.71048 54.96510
# Shear Modulus (GPa) = 9.76699 13.93447 11.85073
#
# Velocity S-wave (km/s) = 2.20635 2.63535 2.43034
# Velocity P-wave (km/s) = 4.80080 6.89155 5.93891
#
# Compressibility (1/GPa) = 0.03010261
#
# Stress axis : x y z
#
# Youngs Moduli (GPa) = 39.83683 36.81490 48.65820
#
# Poissons Ratio (x) = 0.17733 -0.19285
# Poissons Ratio (y) = 0.19188 0.99767
# Poissons Ratio (z) = -0.15788 0.75484
#
# Static dielectric constant tensor:
#      x y z
#    x 1.741590 0.000000 0.000000 
#    y 0.000000 1.655950 0.000000 
#    z 0.000000 0.000000 1.684900 
# 
# From -- ./inp_files/19462.got.cif
#   From: 2010.05.17/outbox.cif.g08.bks.cpg/sg38_10_cif.got.tgz:19462.got - 2010.06.03 18:07:57.
