data_PCOD9357807
_publ_section_title
;
Structure prediction by ZEFSAII (Michael W. Deem and Ramdas Pophale) SiO2 
 PCOD9357807
Probable space group: A M M 2
;
_chemical_formula_sum "Si O2"
_cell_formula_units_Z 64
_cell_length_a 16.580475
_cell_length_b 8.891097
_cell_length_c 23.977069
_cell_angle_alpha 90.000000
_cell_angle_beta 90.000000
_cell_angle_gamma 90.000000
_cell_volume 3534.666221
_symmetry_space_group_name_H-M "A M M 2"
_symmetry_group_IT_number 38
_symmetry_cell_setting 'orthorhombic'
loop_
_space_group_symop_operation_xyz
x,y,z
-x,-y,z
-x,y,z
x,-y,z
x,1/2+y,1/2+z
-x,1/2-y,1/2+z
-x,1/2+y,1/2+z
x,1/2-y,1/2+z
loop_
_atom_site_type_symbol
_atom_site_label
_atom_site_fract_x
_atom_site_fract_y
_atom_site_fract_z
Si Si1 0.743945 0.181127 0.359860
Si Si2 0.404822 0.182170 0.278372
Si Si3 0.906130 0.818994 0.296589
Si Si4 0.094997 0.667560 0.181081
Si Si5 0.193033 0.179679 0.096587
Si Si6 0.738126 0.320758 0.481284
Si Si7 0.412008 0.173641 0.057855
Si Si8 0.654868 0.178433 0.661531
O O1 0.664030 0.228026 0.324080
O O2 0.831140 0.230990 0.335036
O O3 0.741843 0.237825 0.423070
O O4 0.743692 0.000000 0.358709
O O5 0.500000 0.224035 0.289135
O O6 0.375225 0.249369 0.219217
O O7 0.403069 0.000000 0.275026
O O8 0.881279 0.761359 0.235425
O O9 0.000000 0.770031 0.309059
O O10 0.907897 0.000000 0.296859
O O11 0.131220 0.500000 0.181179
O O12 0.114519 0.755627 0.125113
O O13 0.000000 0.652996 0.185758
O O14 0.263357 0.248703 0.136070
O O15 0.198161 0.000000 0.099310
O O16 0.201934 0.223936 0.031819
O O17 0.746168 0.500000 0.472112
O O18 0.653138 0.290693 0.511444
O O19 0.500000 0.181777 0.032908
O O20 0.405572 0.278430 0.111515
O O21 0.397205 0.000000 0.076390
O O22 0.662833 0.000000 0.667686
#
# Coordination Sequence:
#
# PCOD9357807 Si02
#       8
#     8   8   8   8   8   8   8   8
#     4  10  21  36  54  75 101 137 180 224 268 313
#     4  10  21  36  52  73 106 146 181 213 259 325
#     4   9  18  34  56  80 106 140 181 219 260 319
#     4  10  20  33  53  85 117 138 164 211 267 315
#     4  10  20  36  56  76 103 142 181 212 256 322
#     4   9  20  36  53  74  99 132 176 220 261 310
#     4   9  18  34  54  74 100 136 174 213 262 321
#     4  11  21  32  51  80 108 133 170 222 273 315
#
# _framework density 18.106377999999999
#
# number of rings (size 3 to 8) (size 9 to 14) (size 15 to 20)
#    0.000    2.250    0.000    3.750    0.000    7.750 
#    0.000    0.625    0.000    2.250    0.000    0.000 
#    0.000    0.000    0.000    0.000    0.000    0.000 
#
# Total GULP energy -178223.685924 kJ/mol
# GULP energy per Si atom -5569.490185 kJ/mol
# Density = 1.806517 g / cm^3
# Si number density = 18.106378 Si / 1000 Ang^3
#
#
#
# Elastic Constant Matrix: (Units=GPa)
#
#
# Indices 1 2 3 4 5 6 
#
# 1 61.1448 22.8201 58.5809 0.0000 0.0000 0.0000
# 2 22.8201 27.2481 29.7060 0.0000 0.0000 0.0000
# 3 58.5809 29.7060 136.8240 0.0000 0.0000 0.0000
# 4 0.0000 0.0000 0.0000 34.1952 0.0000 0.0000
# 5 0.0000 0.0000 0.0000 0.0000 -6.5894 0.0000
# 6 0.0000 0.0000 0.0000 0.0000 0.0000 14.1484
#
#
#
# Elastic Compliance Matrix: (Units=1/GPa)
#
#
# Indices 1 2 3 4 5 6 
#
# 1 0.032095 -0.015588 -0.010357 0.000000 0.000000 0.000000
# 2 -0.015588 0.055651 -0.005408 0.000000 0.000000 0.000000
# 3 -0.010357 -0.005408 0.012917 0.000000 0.000000 0.000000
# 4 0.000000 0.000000 0.000000 0.029244 0.000000 0.000000
# 5 0.000000 0.000000 0.000000 0.000000 -0.151758 0.000000
# 6 0.000000 0.000000 0.000000 0.000000 0.000000 0.070680
#
#
# Mechanical properties :
#
#
# Convention : Reuss Voigt Hill
#
# Bulk Modulus (GPa) = 26.34622 49.71456 38.03039
# Shear Modulus (GPa) = 40.26167 15.95815 28.10991
#
# Velocity S-wave (km/s) = 4.72064 2.97198 3.94444
# Velocity P-wave (km/s) = 6.65545 6.26845 6.46485
#
# Compressibility (1/GPa) = 0.03795610
#
# Stress axis : x y z
#
# Youngs Moduli (GPa) = 31.15735 17.96915 77.41572
#
# Poissons Ratio (x) = 0.28010 0.80181
# Poissons Ratio (y) = 0.48568 0.41870
# Poissons Ratio (z) = 0.32270 0.09718
#
# Static dielectric constant tensor:
#      x y z
#    x 1.711370 0.000000 0.000000 
#    y 0.000000 1.637620 0.000000 
#    z 0.000000 0.000000 1.585350 
# 
# From -- ./inp_files/21415.got.cif
#   From: 2010.05.17/outbox.cif.g08.bks.cpg/sg38_11_cif.got.tgz:21415.got - 2010.06.03 18:07:57.
