data_PCOD9357857
_publ_section_title
;
Structure prediction by ZEFSAII (Michael W. Deem and Ramdas Pophale) SiO2 
 PCOD9357857
Probable space group: A M M 2
;
_chemical_formula_sum "Si O2"
_cell_formula_units_Z 48
_cell_length_a 8.499063
_cell_length_b 17.013809
_cell_length_c 19.093152
_cell_angle_alpha 90.000000
_cell_angle_beta 90.000000
_cell_angle_gamma 90.000000
_cell_volume 2760.897169
_symmetry_space_group_name_H-M "A M M 2"
_symmetry_group_IT_number 38
_symmetry_cell_setting 'orthorhombic'
loop_
_space_group_symop_operation_xyz
x,y,z
-x,-y,z
-x,y,z
x,-y,z
x,1/2+y,1/2+z
-x,1/2-y,1/2+z
-x,1/2+y,1/2+z
x,1/2-y,1/2+z
loop_
_atom_site_type_symbol
_atom_site_label
_atom_site_fract_x
_atom_site_fract_y
_atom_site_fract_z
Si Si1 0.188486 0.500000 0.274511
Si Si2 0.189765 0.159986 0.537284
Si Si3 0.808090 0.000000 0.612278
Si Si4 0.689452 0.738654 0.659797
Si Si5 0.811397 0.816405 0.378246
Si Si6 0.311592 0.332049 0.298906
Si Si7 0.309817 0.410804 0.746145
O O1 0.242280 0.500000 0.193078
O O2 0.251145 0.419997 0.308119
O O3 0.000000 0.500000 0.275758
O O4 0.243255 0.230987 0.586980
O O5 0.243450 0.166842 0.457170
O O6 0.000000 0.158721 0.536709
O O7 0.244728 0.078672 0.572795
O O8 0.000000 0.000000 0.612057
O O9 0.500000 0.738864 0.655725
O O10 0.736235 0.799490 0.721770
O O11 0.740827 0.652940 0.687716
O O12 0.757431 0.730326 0.353383
O O13 0.745103 0.877162 0.320941
O O14 0.000000 0.820822 0.376428
O O15 0.500000 0.329580 0.302296
O O16 0.500000 0.410503 0.746135
O O17 0.255468 0.500000 0.734697
#
# Coordination Sequence:
#
# PCOD9357857 Si02
#       7
#     4   8   4   8   8   8   8
#     4  11  19  31  57  83 107 136 175 218 261 309
#     4  10  20  34  52  75 107 140 171 210 257 312
#     4   9  18  31  49  77 109 138 163 202 259 309
#     4   9  18  32  52  75 100 135 175 215 256 308
#     4  10  21  34  53  78 106 139 176 214 262 314
#     4  10  20  35  53  76 108 141 178 217 259 310
#     4   9  19  36  55  76 104 136 172 216 266 314
#
# _framework density 17.385653000000001
#
# number of rings (size 3 to 8) (size 9 to 14) (size 15 to 20)
#    0.000    2.333    1.667    2.250    1.167    4.333 
#    0.000    0.417    1.833    0.000    0.000    0.000 
#    0.000    0.000    0.000    0.000    0.000    0.000 
#
# Total GULP energy -133886.409753 kJ/mol
# GULP energy per Si atom -5578.600406 kJ/mol
# Density = 1.734608 g / cm^3
# Si number density = 17.385653 Si / 1000 Ang^3
#
#
#
# Elastic Constant Matrix: (Units=GPa)
#
#
# Indices 1 2 3 4 5 6 
#
# 1 9.2734 12.4645 5.4884 0.0000 0.0000 0.0000
# 2 12.4645 146.9698 44.3054 0.0000 0.0000 0.0000
# 3 5.4884 44.3054 82.1593 0.0000 0.0000 0.0000
# 4 0.0000 0.0000 0.0000 18.0588 0.0000 0.0000
# 5 0.0000 0.0000 0.0000 0.0000 21.3620 0.0000
# 6 0.0000 0.0000 0.0000 0.0000 0.0000 23.0383
#
#
#
# Elastic Compliance Matrix: (Units=1/GPa)
#
#
# Indices 1 2 3 4 5 6 
#
# 1 0.122359 -0.009449 -0.003078 0.000000 0.000000 0.000000
# 2 -0.009449 0.008855 -0.004144 0.000000 0.000000 0.000000
# 3 -0.003078 -0.004144 0.014612 0.000000 0.000000 0.000000
# 4 0.000000 0.000000 0.000000 0.055375 0.000000 0.000000
# 5 0.000000 0.000000 0.000000 0.000000 0.046812 0.000000
# 6 0.000000 0.000000 0.000000 0.000000 0.000000 0.043406
#
#
# Mechanical properties :
#
#
# Convention : Reuss Voigt Hill
#
# Bulk Modulus (GPa) = 8.89027 40.32436 24.60731
# Shear Modulus (GPa) = 13.80245 24.23474 19.01860
#
# Velocity S-wave (km/s) = 2.82068 3.73762 3.31104
# Velocity P-wave (km/s) = 3.96648 6.47076 5.36674
#
# Compressibility (1/GPa) = 0.11248256
#
# Stress axis : x y z
#
# Youngs Moduli (GPa) = 8.17270 112.93437 68.43833
#
# Poissons Ratio (x) = 1.06715 0.21066
# Poissons Ratio (y) = 0.07723 0.28359
# Poissons Ratio (z) = 0.02516 0.46797
#
# Static dielectric constant tensor:
#      x y z
#    x 1.591730 0.000000 0.000000 
#    y 0.000000 1.591160 0.000000 
#    z 0.000000 0.000000 1.572110 
# 
# From -- ./inp_files/16689.got.cif
#   From: 2010.05.17/outbox.cif.g08.bks.cpg/sg38_9_cif.got.tgz:16689.got - 2010.06.03 18:07:57.
