data_PCOD9357625
_publ_section_title
;
Structure prediction by ZEFSAII (Michael W. Deem and Ramdas Pophale) SiO2 
 PCOD9357625
Probable space group: A M M 2
;
_chemical_formula_sum "Si O2"
_cell_formula_units_Z 48
_cell_length_a 18.172022
_cell_length_b 26.259286
_cell_length_c 5.212269
_cell_angle_alpha 90.000000
_cell_angle_beta 90.000000
_cell_angle_gamma 90.000000
_cell_volume 2487.213054
_symmetry_space_group_name_H-M "A M M 2"
_symmetry_group_IT_number 38
_symmetry_cell_setting 'orthorhombic'
loop_
_space_group_symop_operation_xyz
x,y,z
-x,-y,z
-x,y,z
x,-y,z
x,1/2+y,1/2+z
-x,1/2-y,1/2+z
-x,1/2+y,1/2+z
x,1/2-y,1/2+z
loop_
_atom_site_type_symbol
_atom_site_label
_atom_site_fract_x
_atom_site_fract_y
_atom_site_fract_z
Si Si1 0.732495 0.442511 0.544590
Si Si2 0.340327 0.626916 0.187308
Si Si3 0.779743 0.158809 0.293272
Si Si4 0.579624 0.556146 0.852883
Si Si5 0.330799 0.217459 0.014964
Si Si6 0.083513 0.216157 0.496672
O O1 0.761255 0.500000 0.547249
O O2 0.712200 0.420216 0.267182
O O3 0.780188 0.397917 0.675628
O O4 0.651811 0.442715 0.677316
O O5 0.361391 0.662196 0.428462
O O6 0.288064 0.658721 0.995910
O O7 0.408961 0.602036 0.048814
O O8 0.853633 0.175808 0.429837
O O9 0.754051 0.199937 0.076216
O O10 0.500000 0.560321 0.721377
O O11 0.580920 0.500000 0.981048
O O12 0.350546 0.252719 0.772893
O O13 0.090797 0.240073 0.778962
O O14 0.000000 0.195795 0.472119
#
# Coordination Sequence:
#
# PCOD9357625 Si02
#       6
#     8   8   8   8   8   8
#     4   9  19  33  51  82 115 146 189 237 286 335
#     4  10  20  32  53  83 109 147 186 232 280 329
#     4  10  20  33  55  80 112 149 187 232 277 331
#     4   9  18  34  55  80 113 147 181 229 287 343
#     4  11  20  32  52  81 108 139 179 225 267 319
#     4  10  22  36  55  85 119 148 180 228 283 338
#
# _framework density 19.29871
#
# number of rings (size 3 to 8) (size 9 to 14) (size 15 to 20)
#    0.000    2.167    1.667    1.500    4.667    1.333 
#    0.000    1.667    0.000    1.500    0.000    0.000 
#    0.000    0.000    0.000    0.000    0.000    0.000 
#
# Total GULP energy -133612.129115 kJ/mol
# GULP energy per Si atom -5567.172046 kJ/mol
# Density = 1.925478 g / cm^3
# Si number density = 19.298710 Si / 1000 Ang^3
#
#
#
# Elastic Constant Matrix: (Units=GPa)
#
#
# Indices 1 2 3 4 5 6 
#
# 1 68.0453 19.0995 2.1151 0.0000 0.0000 0.0000
# 2 19.0995 56.8197 15.6525 0.0000 0.0000 0.0000
# 3 2.1151 15.6525 74.7048 0.0000 0.0000 0.0000
# 4 0.0000 0.0000 0.0000 34.4214 0.0000 0.0000
# 5 0.0000 0.0000 0.0000 0.0000 12.2141 0.0000
# 6 0.0000 0.0000 0.0000 0.0000 0.0000 26.9331
#
#
#
# Elastic Compliance Matrix: (Units=1/GPa)
#
#
# Indices 1 2 3 4 5 6 
#
# 1 0.016264 -0.005667 0.000727 0.000000 0.000000 0.000000
# 2 -0.005667 0.020652 -0.004167 0.000000 0.000000 0.000000
# 3 0.000727 -0.004167 0.014238 0.000000 0.000000 0.000000
# 4 0.000000 0.000000 0.000000 0.029052 0.000000 0.000000
# 5 0.000000 0.000000 0.000000 0.000000 0.081872 0.000000
# 6 0.000000 0.000000 0.000000 0.000000 0.000000 0.037129
#
#
# Mechanical properties :
#
#
# Convention : Reuss Voigt Hill
#
# Bulk Modulus (GPa) = 30.35742 30.36711 30.36227
# Shear Modulus (GPa) = 21.89117 25.56058 23.72587
#
# Velocity S-wave (km/s) = 3.37164 3.64328 3.51009
# Velocity P-wave (km/s) = 5.56073 5.78510 5.67403
#
# Compressibility (1/GPa) = 0.03294087
#
# Stress axis : x y z
#
# Youngs Moduli (GPa) = 61.48454 48.42053 70.23220
#
# Poissons Ratio (x) = 0.27442 -0.05106
# Poissons Ratio (y) = 0.34845 0.29264
# Poissons Ratio (z) = -0.04470 0.20176
#
# Static dielectric constant tensor:
#      x y z
#    x 1.659040 0.000000 0.000000 
#    y 0.000000 1.734230 0.000000 
#    z 0.000000 0.000000 1.789320 
# 
# From -- ./inp_files/1660.got.cif
#   From: 2010.05.17/outbox.cif.g08.bks.cpg/sg38_1_cif.got.tgz:1660.got - 2010.06.03 18:07:57.
