data_PCOD9357269
_publ_section_title
;
Structure prediction by ZEFSAII (Michael W. Deem and Ramdas Pophale) SiO2 
 PCOD9357269
Probable space group: A M M 2
;
_chemical_formula_sum "Si O2"
_cell_formula_units_Z 56
_cell_length_a 8.858657
_cell_length_b 20.920499
_cell_length_c 16.007429
_cell_angle_alpha 90.000000
_cell_angle_beta 90.000000
_cell_angle_gamma 90.000000
_cell_volume 2966.617197
_symmetry_space_group_name_H-M "A M M 2"
_symmetry_group_IT_number 38
_symmetry_cell_setting 'orthorhombic'
loop_
_space_group_symop_operation_xyz
x,y,z
-x,-y,z
-x,y,z
x,-y,z
x,1/2+y,1/2+z
-x,1/2-y,1/2+z
-x,1/2+y,1/2+z
x,1/2-y,1/2+z
loop_
_atom_site_type_symbol
_atom_site_label
_atom_site_fract_x
_atom_site_fract_y
_atom_site_fract_z
Si Si1 0.182146 0.573181 0.522460
Si Si2 0.183468 0.211014 0.087720
Si Si3 0.166770 0.426725 0.197530
Si Si4 0.180840 0.754263 0.773102
Si Si5 0.819420 0.186512 0.442801
Si Si6 0.322201 0.924751 0.533868
Si Si7 0.675876 0.117911 0.849777
O O1 0.232372 0.500000 0.544114
O O2 0.230887 0.636592 0.574501
O O3 0.236489 0.590628 0.429265
O O4 0.000000 0.572223 0.524268
O O5 0.232092 0.236913 0.179071
O O6 0.227537 0.256631 0.008701
O O7 0.000000 0.211079 0.087628
O O8 0.148122 0.500000 0.174817
O O9 0.233176 0.396791 0.114229
O O10 0.285864 0.425973 0.271272
O O11 0.000000 0.401785 0.220687
O O12 0.258411 0.816303 0.812912
O O13 0.000000 0.763125 0.769458
O O14 0.207841 0.703294 0.846237
O O15 0.732005 0.121704 0.461871
O O16 0.000000 0.178385 0.454718
O O17 0.500000 0.919817 0.549536
O O18 0.289846 0.000000 0.518695
O O19 0.500000 0.122624 0.868638
#
# Coordination Sequence:
#
# PCOD9357269 Si02
#       7
#     8   8   8   8   8   8   8
#     4  10  20  37  60  83 114 157 199 242 299 361
#     4   9  18  35  58  86 115 146 190 244 293 341
#     4  10  20  34  53  77 107 145 186 227 278 341
#     4  10  20  36  59  83 111 148 194 243 292 346
#     4  10  19  34  57  83 113 148 189 237 288 347
#     4  10  21  36  54  79 113 149 186 233 289 349
#     4  12  23  34  52  82 116 149 189 240 296 352
#
# _framework density 18.876719000000001
#
# number of rings (size 3 to 8) (size 9 to 14) (size 15 to 20)
#    0.000    1.857    1.429    3.429    0.000    5.429 
#    0.000    1.429    0.000    2.571    0.000    0.000 
#    0.000    0.000    0.000    0.000    0.000    0.000 
#
# Total GULP energy -155958.839759 kJ/mol
# GULP energy per Si atom -5569.958563 kJ/mol
# Density = 1.883375 g / cm^3
# Si number density = 18.876719 Si / 1000 Ang^3
#
#
#
# Elastic Constant Matrix: (Units=GPa)
#
#
# Indices 1 2 3 4 5 6 
#
# 1 3.7045 11.6039 3.0306 0.0000 0.0000 0.0000
# 2 11.6039 94.1919 28.1187 0.0000 0.0000 0.0000
# 3 3.0306 28.1187 73.6352 0.0000 0.0000 0.0000
# 4 0.0000 0.0000 0.0000 28.0450 0.0000 0.0000
# 5 0.0000 0.0000 0.0000 0.0000 4.1387 0.0000
# 6 0.0000 0.0000 0.0000 0.0000 0.0000 14.9723
#
#
#
# Elastic Compliance Matrix: (Units=1/GPa)
#
#
# Indices 1 2 3 4 5 6 
#
# 1 0.440131 -0.055095 0.002924 0.000000 0.000000 0.000000
# 2 -0.055095 0.018879 -0.004942 0.000000 0.000000 0.000000
# 3 0.002924 -0.004942 0.015347 0.000000 0.000000 0.000000
# 4 0.000000 0.000000 0.000000 0.035657 0.000000 0.000000
# 5 0.000000 0.000000 0.000000 0.000000 0.241619 0.000000
# 6 0.000000 0.000000 0.000000 0.000000 0.000000 0.066790
#
#
# Mechanical properties :
#
#
# Convention : Reuss Voigt Hill
#
# Bulk Modulus (GPa) = 2.77675 28.55978 15.66827
# Shear Modulus (GPa) = 4.74972 18.01645 11.38309
#
# Velocity S-wave (km/s) = 1.58797 3.09273 2.45832
# Velocity P-wave (km/s) = 2.19918 5.28354 4.04674
#
# Compressibility (1/GPa) = 0.36013290
#
# Stress axis : x y z
#
# Youngs Moduli (GPa) = 2.27205 52.96823 65.15847
#
# Poissons Ratio (x) = 2.91827 -0.19053
# Poissons Ratio (y) = 0.12518 0.32200
# Poissons Ratio (z) = -0.00664 0.26176
#
# Static dielectric constant tensor:
#      x y z
#    x 1.655700 0.000000 0.000000 
#    y 0.000000 1.638010 0.000000 
#    z 0.000000 0.000000 1.656650 
# 
# From -- ./inp_files/12352.got.cif
#   From: 2010.05.17/outbox.cif.g08.bks.cpg/sg38_7_cif.got.tgz:12352.got - 2010.06.03 18:07:57.
