data_PCOD9357367
_publ_section_title
;
Structure prediction by ZEFSAII (Michael W. Deem and Ramdas Pophale) SiO2 
 PCOD9357367
Probable space group: A M M 2
;
_chemical_formula_sum "Si O2"
_cell_formula_units_Z 64
_cell_length_a 8.967826
_cell_length_b 28.248471
_cell_length_c 12.813450
_cell_angle_alpha 90.000000
_cell_angle_beta 90.000000
_cell_angle_gamma 90.000000
_cell_volume 3245.997624
_symmetry_space_group_name_H-M "A M M 2"
_symmetry_group_IT_number 38
_symmetry_cell_setting 'orthorhombic'
loop_
_space_group_symop_operation_xyz
x,y,z
-x,-y,z
-x,y,z
x,-y,z
x,1/2+y,1/2+z
-x,1/2-y,1/2+z
-x,1/2+y,1/2+z
x,1/2-y,1/2+z
loop_
_atom_site_type_symbol
_atom_site_label
_atom_site_fract_x
_atom_site_fract_y
_atom_site_fract_z
Si Si1 0.825695 0.948211 0.581150
Si Si2 0.669085 0.682164 0.919664
Si Si3 0.331612 0.070975 0.367844
Si Si4 0.320806 0.555205 0.443256
Si Si5 0.174773 0.199058 0.213091
Si Si6 0.179601 0.378835 0.265826
Si Si7 0.677134 0.706048 0.155984
Si Si8 0.177414 0.910771 0.157972
O O1 0.738510 0.948720 0.473219
O O2 0.776073 0.908981 0.662882
O O3 0.000000 0.939854 0.557456
O O4 0.812030 0.000000 0.631639
O O5 0.500000 0.701645 0.906339
O O6 0.714208 0.688299 0.039225
O O7 0.662891 0.626971 0.891713
O O8 0.782479 0.702545 0.835285
O O9 0.500000 0.054526 0.350602
O O10 0.234371 0.064748 0.264270
O O11 0.500000 0.559184 0.439230
O O12 0.281563 0.500000 0.420181
O O13 0.248270 0.592510 0.362673
O O14 0.261522 0.568639 0.558117
O O15 0.271304 0.239793 0.160457
O O16 0.207652 0.145808 0.172471
O O17 0.000000 0.207668 0.197492
O O18 0.241230 0.326469 0.242079
O O19 0.000000 0.378249 0.274504
O O20 0.500000 0.701799 0.170524
O O21 0.000000 0.916703 0.146712
#
# Coordination Sequence:
#
# PCOD9357367 Si02
#       8
#     8   8   8   8   8   8   8   8
#     4  10  21  36  56  85 119 154 193 239 297 362
#     4   9  19  36  57  81 114 154 193 241 301 362
#     4  10  19  35  59  86 116 151 195 245 300 361
#     4  11  25  44  66  92 125 168 216 267 323 383
#     4  10  22  38  59  90 122 158 205 256 312 372
#     4  11  23  40  63  89 122 162 207 258 312 371
#     4  11  22  38  61  89 122 161 207 254 311 375
#     4  10  22  41  64  89 122 163 207 258 315 373
#
# _framework density 19.716588000000002
#
# number of rings (size 3 to 8) (size 9 to 14) (size 15 to 20)
#    0.000    1.750    1.250    2.625    0.000    6.750 
#    0.000    2.500    0.000    0.000    0.000    0.000 
#    0.000    0.000    0.000    0.000    0.000    0.000 
#
# Total GULP energy -178670.068711 kJ/mol
# GULP energy per Si atom -5583.439647 kJ/mol
# Density = 1.967171 g / cm^3
# Si number density = 19.716588 Si / 1000 Ang^3
#
#
#
# Elastic Constant Matrix: (Units=GPa)
#
#
# Indices 1 2 3 4 5 6 
#
# 1 48.5090 22.6787 25.9598 0.0000 0.0000 0.0000
# 2 22.6787 41.5975 9.8583 0.0000 0.0000 0.0000
# 3 25.9598 9.8583 78.4003 0.0000 0.0000 0.0000
# 4 0.0000 0.0000 0.0000 18.1630 0.0000 0.0000
# 5 0.0000 0.0000 0.0000 0.0000 35.6250 0.0000
# 6 0.0000 0.0000 0.0000 0.0000 0.0000 0.1101
#
#
#
# Elastic Compliance Matrix: (Units=1/GPa)
#
#
# Indices 1 2 3 4 5 6 
#
# 1 0.032708 -0.015734 -0.008852 0.000000 0.000000 0.000000
# 2 -0.015734 0.032347 0.001142 0.000000 0.000000 0.000000
# 3 -0.008852 0.001142 0.015542 0.000000 0.000000 0.000000
# 4 0.000000 0.000000 0.000000 0.055057 0.000000 0.000000
# 5 0.000000 0.000000 0.000000 0.000000 0.028070 0.000000
# 6 0.000000 0.000000 0.000000 0.000000 0.000000 9.079482
#
#
# Mechanical properties :
#
#
# Convention : Reuss Voigt Hill
#
# Bulk Modulus (GPa) = 29.66437 31.72227 30.69332
# Shear Modulus (GPa) = 0.53756 18.11362 9.32559
#
# Velocity S-wave (km/s) = 0.52272 3.03429 2.17717
# Velocity P-wave (km/s) = 3.92968 5.32916 4.68200
#
# Compressibility (1/GPa) = 0.03371048
#
# Stress axis : x y z
#
# Youngs Moduli (GPa) = 30.57370 30.91438 64.34029
#
# Poissons Ratio (x) = 0.48642 0.56952
# Poissons Ratio (y) = 0.48106 -0.07351
# Poissons Ratio (z) = 0.27063 -0.03532
#
# Static dielectric constant tensor:
#      x y z
#    x 1.668740 0.000000 0.000000 
#    y 0.000000 1.737190 0.000000 
#    z 0.000000 0.000000 1.666560 
# 
# From -- ./inp_files/8653.got.cif
#   From: 2010.05.17/outbox.cif.g08.bks.cpg/sg38_5_cif.got.tgz:8653.got - 2010.06.03 18:07:57.
