data_PCOD9357638
_publ_section_title
;
Structure prediction by ZEFSAII (Michael W. Deem and Ramdas Pophale) SiO2 
 PCOD9357638
Probable space group: A M M 2
;
_chemical_formula_sum "Si O2"
_cell_formula_units_Z 64
_cell_length_a 18.569371
_cell_length_b 22.453901
_cell_length_c 8.919454
_cell_angle_alpha 90.000000
_cell_angle_beta 90.000000
_cell_angle_gamma 90.000000
_cell_volume 3719.009320
_symmetry_space_group_name_H-M "A M M 2"
_symmetry_group_IT_number 38
_symmetry_cell_setting 'orthorhombic'
loop_
_space_group_symop_operation_xyz
x,y,z
-x,-y,z
-x,y,z
x,-y,z
x,1/2+y,1/2+z
-x,1/2-y,1/2+z
-x,1/2+y,1/2+z
x,1/2-y,1/2+z
loop_
_atom_site_type_symbol
_atom_site_label
_atom_site_fract_x
_atom_site_fract_y
_atom_site_fract_z
Si Si1 0.317108 0.567853 0.297990
Si Si2 0.756341 0.153221 0.203793
Si Si3 0.698016 0.846276 0.523994
Si Si4 0.914711 0.680511 0.385117
Si Si5 0.829485 0.431954 0.493335
Si Si6 0.364853 0.676451 0.469036
Si Si7 0.166418 0.735682 0.122973
Si Si8 0.582416 0.231177 0.674300
O O1 0.342345 0.500000 0.289670
O O2 0.305040 0.597690 0.136094
O O3 0.240235 0.568395 0.383583
O O4 0.370027 0.611379 0.393417
O O5 0.709476 0.139797 0.349685
O O6 0.804366 0.211319 0.230384
O O7 0.801463 0.096423 0.149578
O O8 0.710338 0.173484 0.057714
O O9 0.765397 0.804395 0.573348
O O10 0.624219 0.811069 0.557785
O O11 0.887025 0.614979 0.431169
O O12 0.887329 0.695192 0.218528
O O13 0.875124 0.727864 0.494399
O O14 0.000000 0.685562 0.398558
O O15 0.854081 0.500000 0.507588
O O16 0.415135 0.703763 0.598273
O O17 0.372534 0.720462 0.326624
O O18 0.500000 0.214236 0.703225
#
# Coordination Sequence:
#
# PCOD9357638 Si02
#       8
#     8   8   8   8   8   8   8   8
#     4   9  19  35  55  82 111 144 193 241 274 326
#     4  10  20  32  55  81 108 145 186 237 278 330
#     4  11  20  33  59  82 110 152 185 237 286 334
#     4  11  22  35  54  80 113 147 183 231 282 340
#     4   9  19  35  54  79 109 145 189 231 278 332
#     4  10  20  33  53  79 114 152 181 227 284 332
#     4  11  20  34  53  81 110 143 184 227 282 339
#     4  11  22  33  51  83 120 145 180 230 284 344
#
# _framework density 17.208883
#
# number of rings (size 3 to 8) (size 9 to 14) (size 15 to 20)
#    0.000    1.750    3.750    1.500    3.500    0.750 
#    0.000    0.625    0.000    9.375    0.000    0.000 
#    0.000   22.000    0.000    0.000    0.000    0.000 
#
# Total GULP energy -178189.457050 kJ/mol
# GULP energy per Si atom -5568.420533 kJ/mol
# Density = 1.716972 g / cm^3
# Si number density = 17.208883 Si / 1000 Ang^3
#
#
#
# Elastic Constant Matrix: (Units=GPa)
#
#
# Indices 1 2 3 4 5 6 
#
# 1 52.8304 33.5402 13.5134 0.0000 0.0000 0.0000
# 2 33.5402 127.9140 57.0236 0.0000 0.0000 0.0000
# 3 13.5134 57.0236 83.6721 0.0000 0.0000 0.0000
# 4 0.0000 0.0000 0.0000 21.8099 0.0000 0.0000
# 5 0.0000 0.0000 0.0000 0.0000 0.6497 0.0000
# 6 0.0000 0.0000 0.0000 0.0000 0.0000 13.4758
#
#
#
# Elastic Compliance Matrix: (Units=1/GPa)
#
#
# Indices 1 2 3 4 5 6 
#
# 1 0.022727 -0.006209 0.000561 0.000000 0.000000 0.000000
# 2 -0.006209 0.012926 -0.007806 0.000000 0.000000 0.000000
# 3 0.000561 -0.007806 0.017181 0.000000 0.000000 0.000000
# 4 0.000000 0.000000 0.000000 0.045851 0.000000 0.000000
# 5 0.000000 0.000000 0.000000 0.000000 1.539271 0.000000
# 6 0.000000 0.000000 0.000000 0.000000 0.000000 0.074207
#
#
# Mechanical properties :
#
#
# Convention : Reuss Voigt Hill
#
# Bulk Modulus (GPa) = 38.57294 52.50790 45.54042
# Shear Modulus (GPa) = 2.86088 17.87635 10.36861
#
# Velocity S-wave (km/s) = 1.29076 3.22652 2.45728
# Velocity P-wave (km/s) = 4.96836 6.66775 5.87977
#
# Compressibility (1/GPa) = 0.02592491
#
# Stress axis : x y z
#
# Youngs Moduli (GPa) = 44.00030 77.36356 58.20419
#
# Poissons Ratio (x) = 0.48039 -0.03267
# Poissons Ratio (y) = 0.27322 0.45436
# Poissons Ratio (z) = -0.02470 0.60393
#
# Static dielectric constant tensor:
#      x y z
#    x 1.576810 0.000000 0.000000 
#    y 0.000000 1.597660 0.000000 
#    z 0.000000 0.000000 1.618090 
# 
# From -- ./inp_files/6572.got.cif
#   From: 2010.05.17/outbox.cif.g08.bks.cpg/sg38_4_cif.got.tgz:6572.got - 2010.06.03 18:07:57.
