data_PCOD9357053
_publ_section_title
;
Structure prediction by ZEFSAII (Michael W. Deem and Ramdas Pophale) SiO2 
 PCOD9357053
Probable space group: A M M 2
;
_chemical_formula_sum "Si O2"
_cell_formula_units_Z 64
_cell_length_a 15.185791
_cell_length_b 7.389321
_cell_length_c 25.708079
_cell_angle_alpha 90.000000
_cell_angle_beta 90.000000
_cell_angle_gamma 90.000000
_cell_volume 2884.772554
_symmetry_space_group_name_H-M "A M M 2"
_symmetry_group_IT_number 38
_symmetry_cell_setting 'orthorhombic'
loop_
_space_group_symop_operation_xyz
x,y,z
-x,-y,z
-x,y,z
x,-y,z
x,1/2+y,1/2+z
-x,1/2-y,1/2+z
-x,1/2+y,1/2+z
x,1/2-y,1/2+z
loop_
_atom_site_type_symbol
_atom_site_label
_atom_site_fract_x
_atom_site_fract_y
_atom_site_fract_z
Si Si1 0.095068 0.717091 0.601610
Si Si2 0.405237 0.780423 0.792944
Si Si3 0.601949 0.278172 0.972027
Si Si4 0.653371 0.293868 0.185723
Si Si5 0.149985 0.719698 0.715692
Si Si6 0.294696 0.784848 0.574512
Si Si7 0.727896 0.793118 0.380903
Si Si8 0.097063 0.721245 0.831339
O O1 0.092650 0.500000 0.601315
O O2 0.102076 0.774201 0.662295
O O3 0.188545 0.761923 0.574855
O O4 0.000000 0.781404 0.580494
O O5 0.500000 0.731468 0.816217
O O6 0.400750 0.714847 0.733471
O O7 0.326247 0.707923 0.827230
O O8 0.398409 0.000000 0.792410
O O9 0.500000 0.220163 0.969720
O O10 0.600085 0.500000 0.971028
O O11 0.662139 0.214795 0.923865
O O12 0.652508 0.219975 0.024392
O O13 0.621625 0.500000 0.178680
O O14 0.751951 0.293204 0.208908
O O15 0.665169 0.210554 0.128675
O O16 0.153321 0.500000 0.715714
O O17 0.110887 0.775474 0.771014
O O18 0.307891 0.000000 0.576437
O O19 0.822846 0.712929 0.367122
O O20 0.744195 0.000000 0.397510
O O21 0.100687 0.500000 0.831264
O O22 0.000000 0.775356 0.848770
#
# Coordination Sequence:
#
# PCOD9357053 Si02
#       8
#     8   8   8   8   8   8   8   8
#     4   9  17  29  47  72 102 135 167 198 239 292
#     4  10  20  32  47  70 100 131 160 196 249 307
#     4   9  18  33  53  75  97 124 164 211 252 291
#     4   9  17  29  45  67  98 129 158 197 243 289
#     4   9  15  26  45  68  95 129 166 197 230 280
#     4   9  18  32  50  72  97 128 168 209 246 285
#     4  10  19  33  53  75  98 126 163 207 247 288
#     4   9  16  26  44  71  99 126 158 195 236 284
#
# _framework density 22.185458000000001
#
# number of rings (size 3 to 8) (size 9 to 14) (size 15 to 20)
#    0.000    2.750    1.250    0.750    0.000    3.000 
#    0.000    3.750    0.000    5.625    0.000    3.500 
#    0.000    0.000    0.000    0.000    0.000    0.000 
#
# Total GULP energy -178482.143253 kJ/mol
# GULP energy per Si atom -5577.566977 kJ/mol
# Density = 2.213496 g / cm^3
# Si number density = 22.185458 Si / 1000 Ang^3
#
#
#
# Elastic Constant Matrix: (Units=GPa)
#
#
# Indices 1 2 3 4 5 6 
#
# 1 184.1802 0.3068 87.2849 0.0000 0.0000 0.0000
# 2 0.3068 76.7603 2.3307 0.0000 0.0000 0.0000
# 3 87.2849 2.3307 129.3946 0.0000 0.0000 0.0000
# 4 0.0000 0.0000 0.0000 5.5156 0.0000 0.0000
# 5 0.0000 0.0000 0.0000 0.0000 19.6078 0.0000
# 6 0.0000 0.0000 0.0000 0.0000 0.0000 6.5276
#
#
#
# Elastic Compliance Matrix: (Units=1/GPa)
#
#
# Indices 1 2 3 4 5 6 
#
# 1 0.007982 0.000132 -0.005387 0.000000 0.000000 0.000000
# 2 0.000132 0.013037 -0.000324 0.000000 0.000000 0.000000
# 3 -0.005387 -0.000324 0.011368 0.000000 0.000000 0.000000
# 4 0.000000 0.000000 0.000000 0.181303 0.000000 0.000000
# 5 0.000000 0.000000 0.000000 0.000000 0.051000 0.000000
# 6 0.000000 0.000000 0.000000 0.000000 0.000000 0.153195
#
#
# Mechanical properties :
#
#
# Convention : Reuss Voigt Hill
#
# Bulk Modulus (GPa) = 47.10478 63.35333 55.22905
# Shear Modulus (GPa) = 11.46475 26.35772 18.91124
#
# Velocity S-wave (km/s) = 2.27572 3.45057 2.92278
# Velocity P-wave (km/s) = 5.30882 6.67034 6.02814
#
# Compressibility (1/GPa) = 0.02122927
#
# Stress axis : x y z
#
# Youngs Moduli (GPa) = 125.28014 76.70557 87.96715
#
# Poissons Ratio (x) = -0.01010 0.47386
# Poissons Ratio (y) = -0.01649 0.02847
# Poissons Ratio (z) = 0.67486 0.02482
#
# Static dielectric constant tensor:
#      x y z
#    x 1.822390 0.000000 0.000000 
#    y 0.000000 1.886270 0.000000 
#    z 0.000000 0.000000 1.806950 
# 
# From -- ./inp_files/22995.got.cif
#   From: 2010.05.17/outbox.cif.g08.bks.cpg/sg38_12_cif.got.tgz:22995.got - 2010.06.03 18:07:57.
