data_PCOD9357095
_publ_section_title
;
Structure prediction by ZEFSAII (Michael W. Deem and Ramdas Pophale) SiO2 
 PCOD9357095
Probable space group: A M M 2
;
_chemical_formula_sum "Si O2"
_cell_formula_units_Z 56
_cell_length_a 8.380520
_cell_length_b 22.499317
_cell_length_c 15.011323
_cell_angle_alpha 90.000000
_cell_angle_beta 90.000000
_cell_angle_gamma 90.000000
_cell_volume 2830.474661
_symmetry_space_group_name_H-M "A M M 2"
_symmetry_group_IT_number 38
_symmetry_cell_setting 'orthorhombic'
loop_
_space_group_symop_operation_xyz
x,y,z
-x,-y,z
-x,y,z
x,-y,z
x,1/2+y,1/2+z
-x,1/2-y,1/2+z
-x,1/2+y,1/2+z
x,1/2-y,1/2+z
loop_
_atom_site_type_symbol
_atom_site_label
_atom_site_fract_x
_atom_site_fract_y
_atom_site_fract_z
Si Si1 0.806901 0.500000 0.093171
Si Si2 0.312577 0.223515 0.590759
Si Si3 0.806652 0.113436 0.479170
Si Si4 0.193698 0.643646 0.788218
Si Si5 0.810370 0.718511 0.281910
Si Si6 0.307290 0.500000 0.295591
Si Si7 0.689538 0.884065 0.903412
Si Si8 0.189282 0.857209 0.090909
O O1 0.749093 0.500000 0.194219
O O2 0.000000 0.500000 0.093640
O O3 0.753219 0.558571 0.039869
O O4 0.500000 0.234111 0.579808
O O5 0.252774 0.174890 0.521241
O O6 0.276052 0.199996 0.690505
O O7 0.223212 0.286496 0.582902
O O8 0.753800 0.109090 0.376221
O O9 0.000000 0.114391 0.480038
O O10 0.236179 0.713225 0.800523
O O11 0.248690 0.624900 0.689749
O O12 0.000000 0.641090 0.785610
O O13 0.767429 0.674703 0.361461
O O14 0.000000 0.717209 0.266034
O O15 0.500000 0.500000 0.296660
O O16 0.253231 0.558892 0.347834
O O17 0.500000 0.878831 0.892867
O O18 0.730292 0.888525 0.007301
O O19 0.000000 0.866799 0.086265
#
# Coordination Sequence:
#
# PCOD9357095 Si02
#       8
#     4   8   8   8   8   4   8   8
#     4  10  22  36  57  84 108 138 183 232 277 326
#     4  11  21  33  52  82 114 146 182 226 275 329
#     4  10  19  35  55  78 108 144 184 229 276 328
#     4   8  17  33  54  77 106 140 175 214 267 325
#     4  10  19  33  54  81 110 145 183 225 276 333
#     4  10  24  42  57  74 108 148 181 222 275 330
#     4  11  22  37  56  80 108 145 187 230 278 330
#     4  10  20  36  56  81 111 145 180 223 276 333
#
# _framework density 19.784666000000001
#
# number of rings (size 3 to 8) (size 9 to 14) (size 15 to 20)
#    0.000    2.000    0.000    5.143    0.000    5.143 
#    0.000    4.286    0.000    1.714    0.000    0.000 
#    0.000    0.000    0.000    0.000    0.000    0.000 
#
# Total GULP energy -156391.318418 kJ/mol
# GULP energy per Si atom -5585.404229 kJ/mol
# Density = 1.973964 g / cm^3
# Si number density = 19.784666 Si / 1000 Ang^3
#
#
#
# Elastic Constant Matrix: (Units=GPa)
#
#
# Indices 1 2 3 4 5 6 
#
# 1 19.8375 1.4561 -2.5175 0.0000 0.0000 0.0000
# 2 1.4561 38.6562 51.8638 0.0000 0.0000 0.0000
# 3 -2.5175 51.8638 170.8575 0.0000 0.0000 0.0000
# 4 0.0000 0.0000 0.0000 33.5960 0.0000 0.0000
# 5 0.0000 0.0000 0.0000 0.0000 -32.0119 0.0000
# 6 0.0000 0.0000 0.0000 0.0000 0.0000 10.6115
#
#
#
# Elastic Compliance Matrix: (Units=1/GPa)
#
#
# Indices 1 2 3 4 5 6 
#
# 1 0.051059 -0.004948 0.002254 0.000000 0.000000 0.000000
# 2 -0.004948 0.044123 -0.013466 0.000000 0.000000 0.000000
# 3 0.002254 -0.013466 0.009974 0.000000 0.000000 0.000000
# 4 0.000000 0.000000 0.000000 0.029765 0.000000 0.000000
# 5 0.000000 0.000000 0.000000 0.000000 -0.031238 0.000000
# 6 0.000000 0.000000 0.000000 0.000000 0.000000 0.094238
#
#
# Mechanical properties :
#
#
# Convention : Reuss Voigt Hill
#
# Bulk Modulus (GPa) = 13.72949 36.77289 25.25119
# Shear Modulus (GPa) = 19.64496 14.34236 16.99366
#
# Velocity S-wave (km/s) = 3.15451 2.69536 2.93393
# Velocity P-wave (km/s) = 4.49694 5.32105 4.92626
#
# Compressibility (1/GPa) = 0.07283589
#
# Stress axis : x y z
#
# Youngs Moduli (GPa) = 19.58524 22.66403 100.26316
#
# Poissons Ratio (x) = 0.11213 -0.22601
# Poissons Ratio (y) = 0.09690 1.35018
# Poissons Ratio (z) = -0.04415 0.30520
#
# Static dielectric constant tensor:
#      x y z
#    x 1.674640 0.000000 0.000000 
#    y 0.000000 1.671820 0.000000 
#    z 0.000000 0.000000 1.714710 
# 
# From -- ./inp_files/12483.got.cif
#   From: 2010.05.17/outbox.cif.g08.bks.cpg/sg38_7_cif.got.tgz:12483.got - 2010.06.03 18:07:57.
