data_PCOD9357327
_publ_section_title
;
Structure prediction by ZEFSAII (Michael W. Deem and Ramdas Pophale) SiO2 
 PCOD9357327
Probable space group: A M M 2
;
_chemical_formula_sum "Si O2"
_cell_formula_units_Z 64
_cell_length_a 8.617523
_cell_length_b 25.758429
_cell_length_c 15.279631
_cell_angle_alpha 90.000000
_cell_angle_beta 90.000000
_cell_angle_gamma 90.000000
_cell_volume 3391.678586
_symmetry_space_group_name_H-M "A M M 2"
_symmetry_group_IT_number 38
_symmetry_cell_setting 'orthorhombic'
loop_
_space_group_symop_operation_xyz
x,y,z
-x,-y,z
-x,y,z
x,-y,z
x,1/2+y,1/2+z
-x,1/2-y,1/2+z
-x,1/2+y,1/2+z
x,1/2-y,1/2+z
loop_
_atom_site_type_symbol
_atom_site_label
_atom_site_fract_x
_atom_site_fract_y
_atom_site_fract_z
Si Si1 0.186438 0.236007 0.165640
Si Si2 0.312394 0.560582 0.617060
Si Si3 0.184037 0.724150 0.459386
Si Si4 0.186499 0.634313 0.766045
Si Si5 0.683798 0.164548 0.443341
Si Si6 0.312982 0.886709 0.934414
Si Si7 0.186269 0.349972 0.137022
Si Si8 0.312731 0.558616 0.255862
O O1 0.244926 0.189283 0.225256
O O2 0.242725 0.294963 0.178733
O O3 0.000000 0.237171 0.176950
O O4 0.215766 0.222504 0.063917
O O5 0.500000 0.563616 0.621522
O O6 0.269465 0.500000 0.614101
O O7 0.241843 0.589843 0.700135
O O8 0.263052 0.589338 0.527465
O O9 0.266909 0.775718 0.425343
O O10 0.241778 0.670110 0.420893
O O11 0.000000 0.730154 0.446257
O O12 0.252493 0.630587 0.863461
O O13 0.000000 0.635125 0.768949
O O14 0.500000 0.160598 0.449593
O O15 0.758342 0.150094 0.536569
O O16 0.500000 0.882167 0.936175
O O17 0.270225 0.923936 0.854176
O O18 0.247723 0.398955 0.189564
O O19 0.000000 0.349400 0.138046
O O20 0.500000 0.559338 0.250712
O O21 0.259635 0.500000 0.237949
#
# Coordination Sequence:
#
# PCOD9357327 Si02
#       8
#     8   8   8   8   8   8   8   8
#     4   8  17  33  54  81 114 150 185 230 287 343
#     4  10  21  38  59  85 121 162 201 244 292 345
#     4  10  19  35  56  84 120 157 193 236 289 344
#     4  11  21  37  59  87 120 157 199 244 294 348
#     4  11  23  39  59  87 120 155 194 241 297 359
#     4  10  20  35  57  87 120 159 200 238 287 350
#     4  10  21  40  62  87 116 152 197 246 299 351
#     4  10  22  40  60  85 119 158 200 246 295 348
#
# _framework density 18.869713000000001
#
# number of rings (size 3 to 8) (size 9 to 14) (size 15 to 20)
#    0.000    2.000    1.250    3.375    1.750    2.500 
#    0.000    1.875    0.000    6.000    0.000    0.000 
#    0.000    0.000    0.000    0.000    0.000    0.000 
#
# Total GULP energy -178723.118707 kJ/mol
# GULP energy per Si atom -5585.097460 kJ/mol
# Density = 1.882676 g / cm^3
# Si number density = 18.869713 Si / 1000 Ang^3
#
#
#
# Elastic Constant Matrix: (Units=GPa)
#
#
# Indices 1 2 3 4 5 6 
#
# 1 29.9352 24.0870 15.3446 0.0000 0.0000 0.0000
# 2 24.0870 111.3670 40.5479 0.0000 0.0000 0.0000
# 3 15.3446 40.5479 66.0836 0.0000 0.0000 0.0000
# 4 0.0000 0.0000 0.0000 29.9387 0.0000 0.0000
# 5 0.0000 0.0000 0.0000 0.0000 21.8513 0.0000
# 6 0.0000 0.0000 0.0000 0.0000 0.0000 25.8837
#
#
#
# Elastic Compliance Matrix: (Units=1/GPa)
#
#
# Indices 1 2 3 4 5 6 
#
# 1 0.041870 -0.007103 -0.005364 0.000000 0.000000 0.000000
# 2 -0.007103 0.012767 -0.006185 0.000000 0.000000 0.000000
# 3 -0.005364 -0.006185 0.020173 0.000000 0.000000 0.000000
# 4 0.000000 0.000000 0.000000 0.033402 0.000000 0.000000
# 5 0.000000 0.000000 0.000000 0.000000 0.045764 0.000000
# 6 0.000000 0.000000 0.000000 0.000000 0.000000 0.038634
#
#
# Mechanical properties :
#
#
# Convention : Reuss Voigt Hill
#
# Bulk Modulus (GPa) = 26.66145 40.81609 33.73877
# Shear Modulus (GPa) = 20.62574 24.02850 22.32712
#
# Velocity S-wave (km/s) = 3.30973 3.57233 3.44354
# Velocity P-wave (km/s) = 5.36337 6.22036 5.80769
#
# Compressibility (1/GPa) = 0.03750733
#
# Stress axis : x y z
#
# Youngs Moduli (GPa) = 23.88322 78.32494 49.57217
#
# Poissons Ratio (x) = 0.55634 0.26591
# Poissons Ratio (y) = 0.16964 0.30658
# Poissons Ratio (z) = 0.12811 0.48440
#
# Static dielectric constant tensor:
#      x y z
#    x 1.639170 0.000000 0.000000 
#    y 0.000000 1.641830 0.000000 
#    z 0.000000 0.000000 1.651580 
# 
# From -- ./inp_files/12729.got.cif
#   From: 2010.05.17/outbox.cif.g08.bks.cpg/sg38_7_cif.got.tgz:12729.got - 2010.06.03 18:07:57.
