data_PCOD9357335
_publ_section_title
;
Structure prediction by ZEFSAII (Michael W. Deem and Ramdas Pophale) SiO2 
 PCOD9357335
Probable space group: A M M 2
;
_chemical_formula_sum "Si O2"
_cell_formula_units_Z 56
_cell_length_a 9.294531
_cell_length_b 20.542481
_cell_length_c 14.548483
_cell_angle_alpha 90.000000
_cell_angle_beta 90.000000
_cell_angle_gamma 90.000000
_cell_volume 2777.781525
_symmetry_space_group_name_H-M "A M M 2"
_symmetry_group_IT_number 38
_symmetry_cell_setting 'orthorhombic'
loop_
_space_group_symop_operation_xyz
x,y,z
-x,-y,z
-x,y,z
x,-y,z
x,1/2+y,1/2+z
-x,1/2-y,1/2+z
-x,1/2+y,1/2+z
x,1/2-y,1/2+z
loop_
_atom_site_type_symbol
_atom_site_label
_atom_site_fract_x
_atom_site_fract_y
_atom_site_fract_z
Si Si1 0.339289 0.500000 0.078790
Si Si2 0.333221 0.688917 0.669575
Si Si3 0.161127 0.890186 0.674046
Si Si4 0.829699 0.576836 0.369086
Si Si5 0.334102 0.427141 0.545655
Si Si6 0.331167 0.000000 0.359095
Si Si7 0.174180 0.357751 0.844001
Si Si8 0.162542 0.724253 0.031442
O O1 0.500000 0.500000 0.114196
O O2 0.259143 0.438006 0.117473
O O3 0.338655 0.500000 0.969662
O O4 0.500000 0.707635 0.687047
O O5 0.327961 0.614351 0.636607
O O6 0.236607 0.687441 0.761391
O O7 0.272862 0.725464 0.578436
O O8 0.213451 0.884272 0.778206
O O9 0.151898 0.825444 0.616554
O O10 0.000000 0.918781 0.680627
O O11 0.793567 0.500000 0.354199
O O12 0.754384 0.600219 0.460683
O O13 0.000000 0.581458 0.381854
O O14 0.500000 0.429445 0.516477
O O15 0.280982 0.500000 0.563182
O O16 0.248976 0.069630 0.339153
O O17 0.500000 0.000000 0.324906
O O18 0.000000 0.365213 0.837222
O O19 0.202527 0.318414 0.940598
O O20 0.000000 0.751367 0.015013
#
# Coordination Sequence:
#
# PCOD9357335 Si02
#       8
#     4   8   8   8   8   4   8   8
#     4  11  21  31  53  90 125 160 201 255 318 378
#     4  11  25  43  65  91 125 167 208 262 327 390
#     4  10  19  35  57  83 121 164 205 253 312 370
#     4   9  17  30  53  83 113 148 192 243 293 349
#     4   9  20  39  59  81 114 155 198 250 312 375
#     4  11  23  39  63  98 137 170 211 273 338 390
#     4  11  24  43  69  98 129 171 223 271 325 389
#     4  10  23  42  64  89 123 166 213 263 311 379
#
# _framework density 20.159972
#
# number of rings (size 3 to 8) (size 9 to 14) (size 15 to 20)
#    0.000    1.857    2.143    1.286    1.000    5.143 
#    0.000    4.286    0.000    0.000    0.000    0.000 
#    0.000    0.000    0.000    0.000    0.000    0.000 
#
# Total GULP energy -155981.746113 kJ/mol
# GULP energy per Si atom -5570.776647 kJ/mol
# Density = 2.011409 g / cm^3
# Si number density = 20.159972 Si / 1000 Ang^3
#
#
#
# Elastic Constant Matrix: (Units=GPa)
#
#
# Indices 1 2 3 4 5 6 
#
# 1 89.0470 36.5171 42.3350 0.0000 0.0000 0.0000
# 2 36.5171 53.8802 29.5534 0.0000 0.0000 0.0000
# 3 42.3350 29.5534 97.7676 0.0000 0.0000 0.0000
# 4 0.0000 0.0000 0.0000 20.3826 0.0000 0.0000
# 5 0.0000 0.0000 0.0000 0.0000 29.4601 0.0000
# 6 0.0000 0.0000 0.0000 0.0000 0.0000 21.7845
#
#
#
# Elastic Compliance Matrix: (Units=1/GPa)
#
#
# Indices 1 2 3 4 5 6 
#
# 1 0.017183 -0.009068 -0.004699 0.000000 0.000000 0.000000
# 2 -0.009068 0.027034 -0.004245 0.000000 0.000000 0.000000
# 3 -0.004699 -0.004245 0.013547 0.000000 0.000000 0.000000
# 4 0.000000 0.000000 0.000000 0.049061 0.000000 0.000000
# 5 0.000000 0.000000 0.000000 0.000000 0.033944 0.000000
# 6 0.000000 0.000000 0.000000 0.000000 0.000000 0.045904
#
#
# Mechanical properties :
#
#
# Convention : Reuss Voigt Hill
#
# Bulk Modulus (GPa) = 46.00224 50.83398 48.41811
# Shear Modulus (GPa) = 21.74434 23.14472 22.44453
#
# Velocity S-wave (km/s) = 3.28775 3.39197 3.34027
# Velocity P-wave (km/s) = 6.10578 6.37265 6.24064
#
# Compressibility (1/GPa) = 0.02173807
#
# Stress axis : x y z
#
# Youngs Moduli (GPa) = 58.19737 36.99029 73.81970
#
# Poissons Ratio (x) = 0.33543 0.34691
# Poissons Ratio (y) = 0.52774 0.31339
# Poissons Ratio (z) = 0.27349 0.15704
#
# Static dielectric constant tensor:
#      x y z
#    x 1.729320 0.000000 0.000000 
#    y 0.000000 1.343500 0.000000 
#    z 0.000000 0.000000 1.704650 
# 
# From -- ./inp_files/12488.got.cif
#   From: 2010.05.17/outbox.cif.g08.bks.cpg/sg38_7_cif.got.tgz:12488.got - 2010.06.03 18:07:57.
