data_PCOD9357267
_publ_section_title
;
Structure prediction by ZEFSAII (Michael W. Deem and Ramdas Pophale) SiO2 
 PCOD9357267
Probable space group: A M M 2
;
_chemical_formula_sum "Si O2"
_cell_formula_units_Z 58
_cell_length_a 7.483175
_cell_length_b 15.636158
_cell_length_c 24.520056
_cell_angle_alpha 90.000000
_cell_angle_beta 90.000000
_cell_angle_gamma 90.000000
_cell_volume 2869.045327
_symmetry_space_group_name_H-M "A M M 2"
_symmetry_group_IT_number 38
_symmetry_cell_setting 'orthorhombic'
loop_
_space_group_symop_operation_xyz
x,y,z
-x,-y,z
-x,y,z
x,-y,z
x,1/2+y,1/2+z
-x,1/2-y,1/2+z
-x,1/2+y,1/2+z
x,1/2-y,1/2+z
loop_
_atom_site_type_symbol
_atom_site_label
_atom_site_fract_x
_atom_site_fract_y
_atom_site_fract_z
Si Si1 0.787341 0.732955 0.975860
Si Si2 0.282370 0.402080 0.660217
Si Si3 0.282229 0.263103 0.749271
Si Si4 0.784840 0.097097 0.563880
Si Si5 0.207908 0.347651 0.862077
Si Si6 0.287427 0.404302 0.189656
Si Si7 0.500000 0.000000 0.353397
Si Si8 0.286179 0.404122 0.536900
O O1 0.731249 0.704662 0.915762
O O2 0.000000 0.723454 0.976590
O O3 0.715275 0.666379 0.021070
O O4 0.752381 0.829401 0.994610
O O5 0.500000 0.400664 0.660472
O O6 0.229635 0.500000 0.672701
O O7 0.224052 0.334606 0.705251
O O8 0.222981 0.381673 0.598391
O O9 0.500000 0.263651 0.749856
O O10 0.217493 0.288712 0.808671
O O11 0.219731 0.170925 0.728022
O O12 0.739184 0.118994 0.626155
O O13 0.000000 0.095248 0.560363
O O14 0.720932 0.000000 0.552658
O O15 0.342874 0.425542 0.853600
O O16 0.000000 0.374915 0.869817
O O17 0.500000 0.408860 0.198311
O O18 0.213606 0.500000 0.197822
O O19 0.500000 0.409338 0.540616
O O20 0.220718 0.500000 0.523343
#
# Coordination Sequence:
#
# PCOD9357267 Si02
#       8
#     8   8   8   8   8   8   2   8
#     4  10  22  38  56  81 118 157 195 248 300 348
#     4   8  15  27  49  80 113 148 194 246 300 358
#     4  10  19  34  57  82 117 162 202 247 304 354
#     4   9  18  33  53  79 114 155 193 236 301 363
#     4  11  26  44  64  92 123 156 205 250 293 359
#     4   9  18  33  53  84 119 154 197 249 299 353
#     4  12  26  48  68  90 118 168 198 248 304 352
#     4   9  18  34  57  86 115 152 197 244 297 358
#
# _framework density 20.215785
#
# number of rings (size 3 to 8) (size 9 to 14) (size 15 to 20)
#    0.000    2.483    0.690    1.862    2.897    2.483 
#    0.000    1.379    0.000    3.310    0.000    0.000 
#    0.000    0.000    0.000    0.000    0.000    0.000 
#
# Total GULP energy -161622.688495 kJ/mol
# GULP energy per Si atom -5573.196155 kJ/mol
# Density = 2.016977 g / cm^3
# Si number density = 20.215785 Si / 1000 Ang^3
#
#
#
# Elastic Constant Matrix: (Units=GPa)
#
#
# Indices 1 2 3 4 5 6 
#
# 1 78.4685 20.2191 15.7721 0.0000 0.0000 0.0000
# 2 20.2191 151.8749 120.2204 0.0000 0.0000 0.0000
# 3 15.7721 120.2204 136.6127 0.0000 0.0000 0.0000
# 4 0.0000 0.0000 0.0000 -14.7180 0.0000 0.0000
# 5 0.0000 0.0000 0.0000 0.0000 17.7923 0.0000
# 6 0.0000 0.0000 0.0000 0.0000 0.0000 7.0258
#
#
#
# Elastic Compliance Matrix: (Units=1/GPa)
#
#
# Indices 1 2 3 4 5 6 
#
# 1 0.013197 -0.001816 0.000074 0.000000 0.000000 0.000000
# 2 -0.001816 0.021951 -0.019108 0.000000 0.000000 0.000000
# 3 0.000074 -0.019108 0.024126 0.000000 0.000000 0.000000
# 4 0.000000 0.000000 0.000000 -0.067944 0.000000 0.000000
# 5 0.000000 0.000000 0.000000 0.000000 0.056204 0.000000
# 6 0.000000 0.000000 0.000000 0.000000 0.000000 0.142332
#
#
# Mechanical properties :
#
#
# Convention : Reuss Voigt Hill
#
# Bulk Modulus (GPa) = 56.89511 75.48660 66.19086
# Shear Modulus (GPa) = 21.05943 16.06967 18.56455
#
# Velocity S-wave (km/s) = 3.23109 2.82247 3.03367
# Velocity P-wave (km/s) = 6.49037 6.93132 6.71447
#
# Compressibility (1/GPa) = 0.01757620
#
# Stress axis : x y z
#
# Youngs Moduli (GPa) = 75.77545 45.55563 41.44859
#
# Poissons Ratio (x) = 0.08271 -0.00307
# Poissons Ratio (y) = 0.13758 0.79198
# Poissons Ratio (z) = -0.00562 0.87046
#
# Static dielectric constant tensor:
#      x y z
#    x 1.761810 0.000000 0.000000 
#    y 0.000000 1.721720 0.000000 
#    z 0.000000 0.000000 1.690710 
# 
# From -- ./inp_files/22058.got.cif
#   From: 2010.05.17/outbox.cif.g08.bks.cpg/sg38_12_cif.got.tgz:22058.got - 2010.06.03 18:07:57.
