data_PCOD9357471
_publ_section_title
;
Structure prediction by ZEFSAII (Michael W. Deem and Ramdas Pophale) SiO2 
 PCOD9357471
Probable space group: A M M 2
;
_chemical_formula_sum "Si O2"
_cell_formula_units_Z 40
_cell_length_a 14.053779
_cell_length_b 14.006846
_cell_length_c 9.840122
_cell_angle_alpha 90.000000
_cell_angle_beta 90.000000
_cell_angle_gamma 90.000000
_cell_volume 1937.019338
_symmetry_space_group_name_H-M "A M M 2"
_symmetry_group_IT_number 38
_symmetry_cell_setting 'orthorhombic'
loop_
_space_group_symop_operation_xyz
x,y,z
-x,-y,z
-x,y,z
x,-y,z
x,1/2+y,1/2+z
-x,1/2-y,1/2+z
-x,1/2+y,1/2+z
x,1/2-y,1/2+z
loop_
_atom_site_type_symbol
_atom_site_label
_atom_site_fract_x
_atom_site_fract_y
_atom_site_fract_z
Si Si1 0.612337 0.000000 0.447371
Si Si2 0.894006 0.713718 0.465846
Si Si3 0.388147 0.339999 0.157949
Si Si4 0.318593 0.500000 0.351233
Si Si5 0.782440 0.707670 0.721040
Si Si6 0.104326 0.500000 0.362042
Si Si7 0.717129 0.000000 0.173623
O O1 0.644173 0.905280 0.529340
O O2 0.500000 0.000000 0.466935
O O3 0.636121 0.000000 0.289430
O O4 0.863289 0.741344 0.616402
O O5 0.814981 0.755541 0.366130
O O6 0.894211 0.598746 0.446225
O O7 0.000000 0.748185 0.432995
O O8 0.500000 0.316117 0.145713
O O9 0.371095 0.408380 0.288502
O O10 0.318811 0.251034 0.176798
O O11 0.209120 0.500000 0.294284
O O12 0.313433 0.500000 0.515062
O O13 0.775520 0.594844 0.706621
O O14 0.000000 0.500000 0.289397
#
# Coordination Sequence:
#
# PCOD9357471 Si02
#       7
#     4   8   8   4   8   4   4
#     4   9  21  39  57  83 120 156 194 251 309 360
#     4  11  23  40  64  92 122 161 202 251 311 372
#     4  10  22  41  65  87 117 164 212 254 303 364
#     4  11  19  42  64  92 120 157 209 251 309 363
#     4  12  22  41  62  89 125 162 204 254 302 367
#     4  10  19  38  65  95 124 157 200 250 310 374
#     4  12  24  37  58  90 122 160 194 250 313 357
#
# _framework density 20.650283000000002
#
# number of rings (size 3 to 8) (size 9 to 14) (size 15 to 20)
#    0.000    1.200    4.000    2.700    0.000    1.600 
#    0.000    6.500    0.000    0.000    0.000    0.000 
#    0.000    0.000    0.000    0.000    0.000    0.000 
#
# Total GULP energy -111614.795915 kJ/mol
# GULP energy per Si atom -5580.739796 kJ/mol
# Density = 2.060328 g / cm^3
# Si number density = 20.650283 Si / 1000 Ang^3
#
#
#
# Elastic Constant Matrix: (Units=GPa)
#
#
# Indices 1 2 3 4 5 6 
#
# 1 97.8010 29.3380 -7.1892 0.0000 0.0000 0.0000
# 2 29.3380 86.7451 19.6779 0.0000 0.0000 0.0000
# 3 -7.1892 19.6779 77.3787 0.0000 0.0000 0.0000
# 4 0.0000 0.0000 0.0000 4.1752 0.0000 0.0000
# 5 0.0000 0.0000 0.0000 0.0000 31.1327 0.0000
# 6 0.0000 0.0000 0.0000 0.0000 0.0000 26.5287
#
#
#
# Elastic Compliance Matrix: (Units=1/GPa)
#
#
# Indices 1 2 3 4 5 6 
#
# 1 0.011730 -0.004473 0.002227 0.000000 0.000000 0.000000
# 2 -0.004473 0.013939 -0.003960 0.000000 0.000000 0.000000
# 3 0.002227 -0.003960 0.014138 0.000000 0.000000 0.000000
# 4 0.000000 0.000000 0.000000 0.239507 0.000000 0.000000
# 5 0.000000 0.000000 0.000000 0.000000 0.032121 0.000000
# 6 0.000000 0.000000 0.000000 0.000000 0.000000 0.037695
#
#
# Mechanical properties :
#
#
# Convention : Reuss Voigt Hill
#
# Bulk Modulus (GPa) = 36.50221 38.39756 37.44988
# Shear Modulus (GPa) = 13.48901 27.04053 20.26477
#
# Velocity S-wave (km/s) = 2.55857 3.62256 3.13602
# Velocity P-wave (km/s) = 5.14229 6.01097 5.59352
#
# Compressibility (1/GPa) = 0.02739560
#
# Stress axis : x y z
#
# Youngs Moduli (GPa) = 85.24991 71.74084 70.73370
#
# Poissons Ratio (x) = 0.32086 -0.15754
# Poissons Ratio (y) = 0.38128 0.28013
# Poissons Ratio (z) = -0.18987 0.28412
#
# Static dielectric constant tensor:
#      x y z
#    x 1.745740 0.000000 0.000000 
#    y 0.000000 1.745270 0.000000 
#    z 0.000000 0.000000 1.718480 
# 
# From -- ./inp_files/5283.got.cif
#   From: 2010.05.17/outbox.cif.g08.bks.cpg/sg38_3_cif.got.tgz:5283.got - 2010.06.03 18:07:57.
