data_PCOD9357129
_publ_section_title
;
Structure prediction by ZEFSAII (Michael W. Deem and Ramdas Pophale) SiO2 
 PCOD9357129
Probable space group: A M M 2
;
_chemical_formula_sum "Si O2"
_cell_formula_units_Z 64
_cell_length_a 7.479169
_cell_length_b 27.201249
_cell_length_c 13.715696
_cell_angle_alpha 90.000000
_cell_angle_beta 90.000000
_cell_angle_gamma 90.000000
_cell_volume 2790.358752
_symmetry_space_group_name_H-M "A M M 2"
_symmetry_group_IT_number 38
_symmetry_cell_setting 'orthorhombic'
loop_
_space_group_symop_operation_xyz
x,y,z
-x,-y,z
-x,y,z
x,-y,z
x,1/2+y,1/2+z
-x,1/2-y,1/2+z
-x,1/2+y,1/2+z
x,1/2-y,1/2+z
loop_
_atom_site_type_symbol
_atom_site_label
_atom_site_fract_x
_atom_site_fract_y
_atom_site_fract_z
Si Si1 0.707004 0.228785 0.520130
Si Si2 0.786008 0.764473 0.816606
Si Si3 0.797163 0.917477 0.131460
Si Si4 0.215913 0.056503 0.344088
Si Si5 0.707463 0.192041 0.164122
Si Si6 0.781982 0.056252 0.915745
Si Si7 0.795547 0.618073 0.025373
Si Si8 0.780802 0.129346 0.742561
O O1 0.500000 0.218154 0.541292
O O2 0.722289 0.263533 0.426989
O O3 0.785664 0.261671 0.606019
O O4 0.796962 0.176446 0.506494
O O5 0.718838 0.712867 0.772672
O O6 0.724277 0.814404 0.763920
O O7 0.000000 0.763831 0.815175
O O8 0.713921 0.934618 0.234143
O O9 0.800462 0.858661 0.141663
O O10 0.719207 0.931162 0.025872
O O11 0.000000 0.937462 0.129680
O O12 0.284930 0.090970 0.431280
O O13 0.000000 0.065163 0.336992
O O14 0.245692 0.000000 0.370449
O O15 0.500000 0.185618 0.136991
O O16 0.000000 0.059427 0.917456
O O17 0.733854 0.000000 0.892752
O O18 0.724579 0.094118 0.831500
O O19 0.719703 0.612475 0.134962
O O20 0.000000 0.599877 0.031769
O O21 0.000000 0.129738 0.740694
#
# Coordination Sequence:
#
# PCOD9357129 Si02
#       8
#     8   8   8   8   8   8   8   8
#     4  11  23  37  54  79 113 149 186 229 279 337
#     4  11  21  35  56  80 111 147 187 233 275 330
#     4  10  19  33  55  82 111 144 187 235 284 338
#     4   9  18  32  53  82 110 139 179 231 288 335
#     4  11  23  37  54  80 113 149 187 226 279 338
#     4   9  17  30  51  80 112 144 182 235 291 336
#     4  10  19  34  55  79 110 146 188 232 278 334
#     4   9  18  31  49  77 109 142 183 229 278 331
#
# _framework density 22.936119000000001
#
# number of rings (size 3 to 8) (size 9 to 14) (size 15 to 20)
#    0.000    2.000    1.250    3.000    0.000    5.500 
#    0.000    2.500    0.000    2.625    0.000    0.000 
#    0.000    0.000    0.000    0.000    0.000    0.000 
#
# Total GULP energy -178702.100176 kJ/mol
# GULP energy per Si atom -5584.440631 kJ/mol
# Density = 2.288392 g / cm^3
# Si number density = 22.936119 Si / 1000 Ang^3
#
#
#
# Elastic Constant Matrix: (Units=GPa)
#
#
# Indices 1 2 3 4 5 6 
#
# 1 73.3891 0.1800 2.7537 0.0000 0.0000 0.0000
# 2 0.1800 106.0812 46.7974 0.0000 0.0000 0.0000
# 3 2.7537 46.7974 148.0949 0.0000 0.0000 0.0000
# 4 0.0000 0.0000 0.0000 29.3615 0.0000 0.0000
# 5 0.0000 0.0000 0.0000 0.0000 -0.3854 0.0000
# 6 0.0000 0.0000 0.0000 0.0000 0.0000 -38.1395
#
#
#
# Elastic Compliance Matrix: (Units=1/GPa)
#
#
# Indices 1 2 3 4 5 6 
#
# 1 0.013636 0.000103 -0.000286 0.000000 0.000000 0.000000
# 2 0.000103 0.010954 -0.003463 0.000000 0.000000 0.000000
# 3 -0.000286 -0.003463 0.007852 0.000000 0.000000 0.000000
# 4 0.000000 0.000000 0.000000 0.034058 0.000000 0.000000
# 5 0.000000 0.000000 0.000000 0.000000 -2.594857 0.000000
# 6 0.000000 0.000000 0.000000 0.000000 0.000000 -0.026220
#
#
# Mechanical properties :
#
#
# Convention : Reuss Voigt Hill
#
# Bulk Modulus (GPa) = 39.76129 47.44749 43.60439
# Shear Modulus (GPa) = -1.96936 16.68961 7.36013
#
# Velocity S-wave (km/s) = -0.92763 2.70044 1.79330
# Velocity P-wave (km/s) = 4.02815 5.51859 4.83119
#
# Compressibility (1/GPa) = 0.02515009
#
# Stress axis : x y z
#
# Youngs Moduli (GPa) = 73.33271 91.28693 127.35295
#
# Poissons Ratio (x) = -0.00941 0.03644
# Poissons Ratio (y) = -0.00756 0.44108
# Poissons Ratio (z) = 0.02098 0.31617
#
# Static dielectric constant tensor:
#      x y z
#    x 1.899540 0.000000 0.000000 
#    y 0.000000 1.794880 0.000000 
#    z 0.000000 0.000000 1.867810 
# 
# From -- ./inp_files/12780.got.cif
#   From: 2010.05.17/outbox.cif.g08.bks.cpg/sg38_7_cif.got.tgz:12780.got - 2010.06.03 18:07:57.
