data_PCOD9357570
_publ_section_title
;
Structure prediction by ZEFSAII (Michael W. Deem and Ramdas Pophale) SiO2 
 PCOD9357570
Probable space group: A M M 2
;
_chemical_formula_sum "Si O2"
_cell_formula_units_Z 64
_cell_length_a 9.499400
_cell_length_b 15.744780
_cell_length_c 23.825804
_cell_angle_alpha 90.000000
_cell_angle_beta 90.000000
_cell_angle_gamma 90.000000
_cell_volume 3563.529323
_symmetry_space_group_name_H-M "A M M 2"
_symmetry_group_IT_number 38
_symmetry_cell_setting 'orthorhombic'
loop_
_space_group_symop_operation_xyz
x,y,z
-x,-y,z
-x,y,z
x,-y,z
x,1/2+y,1/2+z
-x,1/2-y,1/2+z
-x,1/2+y,1/2+z
x,1/2-y,1/2+z
loop_
_atom_site_type_symbol
_atom_site_label
_atom_site_fract_x
_atom_site_fract_y
_atom_site_fract_z
Si Si1 0.667350 0.752046 0.073170
Si Si2 0.170797 0.400263 0.905980
Si Si3 0.332213 0.759040 0.946773
Si Si4 0.659143 0.172523 0.187864
Si Si5 0.328981 0.596535 0.358217
Si Si6 0.337509 0.366173 0.229564
Si Si7 0.154601 0.100387 0.281593
Si Si8 0.166515 0.905002 0.619743
O O1 0.500000 0.733577 0.081140
O O2 0.707691 0.814466 0.124034
O O3 0.754042 0.666052 0.083663
O O4 0.686435 0.788258 0.011157
O O5 0.206486 0.500000 0.916349
O O6 0.249168 0.329773 0.942192
O O7 0.213463 0.374050 0.842175
O O8 0.000000 0.394287 0.909799
O O9 0.500000 0.744389 0.937940
O O10 0.283771 0.830124 0.901825
O O11 0.500000 0.140197 0.187457
O O12 0.660042 0.265887 0.216312
O O13 0.754709 0.117778 0.227654
O O14 0.500000 0.597160 0.359899
O O15 0.283406 0.500000 0.372241
O O16 0.291157 0.616243 0.293334
O O17 0.500000 0.396502 0.223278
O O18 0.236897 0.403041 0.181592
O O19 0.000000 0.139745 0.274745
O O20 0.139686 0.000000 0.287753
O O21 0.000000 0.886909 0.623395
O O22 0.184137 0.000000 0.596244
#
# Coordination Sequence:
#
# PCOD9357570 Si02
#       8
#     8   8   8   8   8   8   8   8
#     4   9  20  36  50  67  95 130 166 203 245 292
#     4   9  19  35  53  75 105 137 165 198 249 309
#     4  10  20  35  54  75 100 132 173 215 248 287
#     4   9  17  30  48  71  96 123 161 206 247 288
#     4   9  17  30  51  78 104 132 167 206 250 299
#     4   9  17  30  50  75 102 130 158 192 242 302
#     4   9  18  32  49  71  99 129 160 195 242 301
#     4  10  20  32  48  73 101 127 159 199 241 290
#
# _framework density 17.959723
#
# number of rings (size 3 to 8) (size 9 to 14) (size 15 to 20)
#    0.000    2.750    0.000    3.000    0.000    6.500 
#    0.000    5.000    0.000    3.375    0.000    0.000 
#    0.000    0.000    0.000    0.000    0.000    0.000 
#
# Total GULP energy -178222.391106 kJ/mol
# GULP energy per Si atom -5569.449722 kJ/mol
# Density = 1.791885 g / cm^3
# Si number density = 17.959723 Si / 1000 Ang^3
#
#
#
# Elastic Constant Matrix: (Units=GPa)
#
#
# Indices 1 2 3 4 5 6 
#
# 1 18.0381 2.4290 15.1604 0.0000 0.0000 0.0000
# 2 2.4290 31.2763 26.1725 0.0000 0.0000 0.0000
# 3 15.1604 26.1725 87.1750 0.0000 0.0000 0.0000
# 4 0.0000 0.0000 0.0000 14.3065 0.0000 0.0000
# 5 0.0000 0.0000 0.0000 0.0000 -4.0529 0.0000
# 6 0.0000 0.0000 0.0000 0.0000 0.0000 22.1203
#
#
#
# Elastic Compliance Matrix: (Units=1/GPa)
#
#
# Indices 1 2 3 4 5 6 
#
# 1 0.065750 0.005959 -0.013224 0.000000 0.000000 0.000000
# 2 0.005959 0.043241 -0.014019 0.000000 0.000000 0.000000
# 3 -0.013224 -0.014019 0.017980 0.000000 0.000000 0.000000
# 4 0.000000 0.000000 0.000000 0.069898 0.000000 0.000000
# 5 0.000000 0.000000 0.000000 0.000000 -0.246739 0.000000
# 6 0.000000 0.000000 0.000000 0.000000 0.000000 0.045207
#
#
# Mechanical properties :
#
#
# Convention : Reuss Voigt Hill
#
# Bulk Modulus (GPa) = 11.84764 24.89035 18.36899
# Shear Modulus (GPa) = 75.71455 12.65662 44.18558
#
# Velocity S-wave (km/s) = 6.49996 2.65754 4.96548
# Velocity P-wave (km/s) = 7.93371 4.82760 6.56694
#
# Compressibility (1/GPa) = 0.08440502
#
# Stress axis : x y z
#
# Youngs Moduli (GPa) = 15.20920 23.12600 55.61823
#
# Poissons Ratio (x) = -0.13782 0.73547
# Poissons Ratio (y) = -0.09064 0.77970
# Poissons Ratio (z) = 0.20112 0.32420
#
# Static dielectric constant tensor:
#      x y z
#    x 1.620510 0.000000 0.000000 
#    y 0.000000 1.627060 0.000000 
#    z 0.000000 0.000000 1.629180 
# 
# From -- ./inp_files/22137.got.cif
#   From: 2010.05.17/outbox.cif.g08.bks.cpg/sg38_12_cif.got.tgz:22137.got - 2010.06.03 18:07:57.
