data_PCOD9357083
_publ_section_title
;
Structure prediction by ZEFSAII (Michael W. Deem and Ramdas Pophale) SiO2 
 PCOD9357083
Probable space group: A M M 2
;
_chemical_formula_sum "Si O2"
_cell_formula_units_Z 56
_cell_length_a 17.273073
_cell_length_b 7.783436
_cell_length_c 21.145822
_cell_angle_alpha 90.000000
_cell_angle_beta 90.000000
_cell_angle_gamma 90.000000
_cell_volume 2842.925895
_symmetry_space_group_name_H-M "A M M 2"
_symmetry_group_IT_number 38
_symmetry_cell_setting 'orthorhombic'
loop_
_space_group_symop_operation_xyz
x,y,z
-x,-y,z
-x,y,z
x,-y,z
x,1/2+y,1/2+z
-x,1/2-y,1/2+z
-x,1/2+y,1/2+z
x,1/2-y,1/2+z
loop_
_atom_site_type_symbol
_atom_site_label
_atom_site_fract_x
_atom_site_fract_y
_atom_site_fract_z
Si Si1 0.332637 0.707167 0.228100
Si Si2 0.500000 0.704182 0.030413
Si Si3 0.755814 0.703624 0.105100
Si Si4 0.086114 0.707032 0.553631
Si Si5 0.751563 0.704939 0.353764
Si Si6 0.500000 0.702413 0.678457
Si Si7 0.087569 0.790091 0.907387
Si Si8 0.665007 0.708775 0.982426
O O1 0.326369 0.500000 0.229484
O O2 0.284813 0.773885 0.167529
O O3 0.293945 0.773369 0.292628
O O4 0.422468 0.745704 0.215583
O O5 0.500000 0.500000 0.020177
O O6 0.500000 0.727475 0.106385
O O7 0.578370 0.770447 0.998266
O O8 0.740699 0.500000 0.105319
O O9 0.846814 0.731567 0.099387
O O10 0.717705 0.771825 0.040703
O O11 0.087014 0.500000 0.553247
O O12 0.100320 0.762248 0.480764
O O13 0.000000 0.764535 0.571420
O O14 0.759418 0.500000 0.345453
O O15 0.839007 0.770837 0.366730
O O16 0.700971 0.734814 0.416431
O O17 0.500000 0.500000 0.671766
O O18 0.000000 0.736722 0.889011
O O19 0.087703 0.000000 0.906636
O O20 0.665143 0.500000 0.982415
#
# Coordination Sequence:
#
# PCOD9357083 Si02
#       8
#     8   4   8   8   8   4   8   8
#     4  10  22  40  58  78 112 152 182 216 279 339
#     4  10  20  39  60  79 109 147 179 221 278 332
#     4  10  19  33  54  79 107 144 182 218 269 329
#     4   9  17  30  51  79 111 144 178 226 280 319
#     4  10  20  35  57  82 109 143 182 226 266 318
#     4  12  24  37  58  85 107 139 187 233 270 318
#     4   8  14  27  49  77 105 133 172 221 268 313
#     4  10  20  34  56  80 107 142 175 220 278 325
#
# _framework density 19.698017
#
# number of rings (size 3 to 8) (size 9 to 14) (size 15 to 20)
#    0.000    2.286    2.857    1.500    0.000    2.571 
#    0.000    2.143    0.000    3.000    0.000    0.000 
#    0.000    0.000    0.000    0.000    0.000    0.000 
#
# Total GULP energy -156221.043939 kJ/mol
# GULP energy per Si atom -5579.322998 kJ/mol
# Density = 1.965318 g / cm^3
# Si number density = 19.698017 Si / 1000 Ang^3
#
#
#
# Elastic Constant Matrix: (Units=GPa)
#
#
# Indices 1 2 3 4 5 6 
#
# 1 196.9052 -3.2871 103.1940 0.0000 0.0000 0.0000
# 2 -3.2871 19.2132 -3.0260 0.0000 0.0000 0.0000
# 3 103.1940 -3.0260 137.2786 0.0000 0.0000 0.0000
# 4 0.0000 0.0000 0.0000 16.7828 0.0000 0.0000
# 5 0.0000 0.0000 0.0000 0.0000 20.5139 0.0000
# 6 0.0000 0.0000 0.0000 0.0000 0.0000 9.8246
#
#
#
# Elastic Compliance Matrix: (Units=1/GPa)
#
#
# Indices 1 2 3 4 5 6 
#
# 1 0.008384 0.000443 -0.006292 0.000000 0.000000 0.000000
# 2 0.000443 0.052252 0.000819 0.000000 0.000000 0.000000
# 3 -0.006292 0.000819 0.012033 0.000000 0.000000 0.000000
# 4 0.000000 0.000000 0.000000 0.059585 0.000000 0.000000
# 5 0.000000 0.000000 0.000000 0.000000 0.048748 0.000000
# 6 0.000000 0.000000 0.000000 0.000000 0.000000 0.101786
#
#
# Mechanical properties :
#
#
# Convention : Reuss Voigt Hill
#
# Bulk Modulus (GPa) = 15.97248 60.79541 38.38395
# Shear Modulus (GPa) = 15.93794 26.52531 21.23163
#
# Velocity S-wave (km/s) = 2.84758 3.67358 3.28663
# Velocity P-wave (km/s) = 4.35177 6.99459 5.82504
#
# Compressibility (1/GPa) = 0.06260767
#
# Stress axis : x y z
#
# Youngs Moduli (GPa) = 119.27951 19.13786 83.10807
#
# Poissons Ratio (x) = -0.00848 0.52294
# Poissons Ratio (y) = -0.05288 -0.06803
# Poissons Ratio (z) = 0.75055 -0.01567
#
# Static dielectric constant tensor:
#      x y z
#    x 1.715410 0.000000 0.000000 
#    y 0.000000 1.741310 0.000000 
#    z 0.000000 0.000000 1.670860 
# 
# From -- ./inp_files/21135.got.cif
#   From: 2010.05.17/outbox.cif.g08.bks.cpg/sg38_11_cif.got.tgz:21135.got - 2010.06.03 18:07:57.
