data_PCOD9357483
_publ_section_title
;
Structure prediction by ZEFSAII (Michael W. Deem and Ramdas Pophale) SiO2 
 PCOD9357483
Probable space group: A M M 2
;
_chemical_formula_sum "Si O2"
_cell_formula_units_Z 48
_cell_length_a 7.487672
_cell_length_b 14.309331
_cell_length_c 24.689634
_cell_angle_alpha 90.000000
_cell_angle_beta 90.000000
_cell_angle_gamma 90.000000
_cell_volume 2645.335703
_symmetry_space_group_name_H-M "A M M 2"
_symmetry_group_IT_number 38
_symmetry_cell_setting 'orthorhombic'
loop_
_space_group_symop_operation_xyz
x,y,z
-x,-y,z
-x,y,z
x,-y,z
x,1/2+y,1/2+z
-x,1/2-y,1/2+z
-x,1/2+y,1/2+z
x,1/2-y,1/2+z
loop_
_atom_site_type_symbol
_atom_site_label
_atom_site_fract_x
_atom_site_fract_y
_atom_site_fract_z
Si Si1 0.217829 0.607611 0.897930
Si Si2 0.781051 0.606353 0.106931
Si Si3 0.288738 0.105691 0.070302
Si Si4 0.218387 0.607022 0.775120
Si Si5 0.785415 0.719208 0.001072
Si Si6 0.792996 0.724768 0.675397
O O1 0.270158 0.500000 0.910015
O O2 0.273101 0.630328 0.836504
O O3 0.279747 0.679312 0.943879
O O4 0.000000 0.608236 0.898178
O O5 0.724077 0.500000 0.113228
O O6 0.717409 0.677950 0.153054
O O7 0.000000 0.607509 0.107107
O O8 0.725223 0.650713 0.049562
O O9 0.500000 0.101478 0.079110
O O10 0.211778 0.154230 0.124203
O O11 0.221982 0.000000 0.062394
O O12 0.258406 0.176077 0.020231
O O13 0.271728 0.500000 0.763703
O O14 0.284644 0.675526 0.728281
O O15 0.000000 0.607725 0.774178
O O16 0.000000 0.714034 0.999851
O O17 0.000000 0.743301 0.688085
#
# Coordination Sequence:
#
# PCOD9357483 Si02
#       6
#     8   8   8   8   8   8
#     4   8  13  22  39  64  90 112 134 164 204 246
#     4   8  13  21  35  57  81 103 131 167 202 234
#     4  10  20  31  42  58  82 110 137 169 211 252
#     4   8  13  21  36  61  89 111 133 166 205 241
#     4   9  16  26  43  63  80 103 137 173 205 243
#     4   9  16  26  43  64  84 110 142 171 199 238
#
# _framework density 18.145146
#
# number of rings (size 3 to 8) (size 9 to 14) (size 15 to 20)
#    0.000    3.333    0.000    3.500    0.000    4.000 
#    0.000    0.000    0.000   14.500    0.000    7.000 
#    0.000    0.000    0.000    0.000    0.000    0.000 
#
# Total GULP energy -133743.695842 kJ/mol
# GULP energy per Si atom -5572.653993 kJ/mol
# Density = 1.810385 g / cm^3
# Si number density = 18.145146 Si / 1000 Ang^3
#
#
#
# Elastic Constant Matrix: (Units=GPa)
#
#
# Indices 1 2 3 4 5 6 
#
# 1 49.1688 -2.1918 -2.5169 0.0000 0.0000 0.0000
# 2 -2.1918 164.8965 83.5349 0.0000 0.0000 0.0000
# 3 -2.5169 83.5349 107.8794 0.0000 0.0000 0.0000
# 4 0.0000 0.0000 0.0000 28.7768 0.0000 0.0000
# 5 0.0000 0.0000 0.0000 0.0000 -20.8527 0.0000
# 6 0.0000 0.0000 0.0000 0.0000 0.0000 163.9955
#
#
#
# Elastic Compliance Matrix: (Units=1/GPa)
#
#
# Indices 1 2 3 4 5 6 
#
# 1 0.020363 0.000049 0.000437 0.000000 0.000000 0.000000
# 2 0.000049 0.009979 -0.007726 0.000000 0.000000 0.000000
# 3 0.000437 -0.007726 0.015262 0.000000 0.000000 0.000000
# 4 0.000000 0.000000 0.000000 0.034750 0.000000 0.000000
# 5 0.000000 0.000000 0.000000 0.000000 -0.047955 0.000000
# 6 0.000000 0.000000 0.000000 0.000000 0.000000 0.006098
#
#
# Mechanical properties :
#
#
# Convention : Reuss Voigt Hill
#
# Bulk Modulus (GPa) = 32.12906 53.28857 42.70882
# Shear Modulus (GPa) = 78.92582 50.59181 64.75881
#
# Velocity S-wave (km/s) = 6.60238 5.28604 5.98054
# Velocity P-wave (km/s) = 8.71016 8.16628 8.44260
#
# Compressibility (1/GPa) = 0.03112447
#
# Stress axis : x y z
#
# Youngs Moduli (GPa) = 49.10947 100.21124 65.52121
#
# Poissons Ratio (x) = -0.00494 -0.02862
# Poissons Ratio (y) = -0.00242 0.50621
# Poissons Ratio (z) = -0.02145 0.77422
#
# Static dielectric constant tensor:
#      x y z
#    x 1.682930 0.000000 0.000000 
#    y 0.000000 1.616100 0.000000 
#    z 0.000000 0.000000 1.616330 
# 
# From -- ./inp_files/19634.got.cif
#   From: 2010.05.17/outbox.cif.g08.bks.cpg/sg38_10_cif.got.tgz:19634.got - 2010.06.03 18:07:57.
