data_PCOD9357353
_publ_section_title
;
Structure prediction by ZEFSAII (Michael W. Deem and Ramdas Pophale) SiO2 
 PCOD9357353
Probable space group: A M M 2
;
_chemical_formula_sum "Si O2"
_cell_formula_units_Z 48
_cell_length_a 8.816050
_cell_length_b 14.066594
_cell_length_c 19.106269
_cell_angle_alpha 90.000000
_cell_angle_beta 90.000000
_cell_angle_gamma 90.000000
_cell_volume 2369.402734
_symmetry_space_group_name_H-M "A M M 2"
_symmetry_group_IT_number 38
_symmetry_cell_setting 'orthorhombic'
loop_
_space_group_symop_operation_xyz
x,y,z
-x,-y,z
-x,y,z
x,-y,z
x,1/2+y,1/2+z
-x,1/2-y,1/2+z
-x,1/2+y,1/2+z
x,1/2-y,1/2+z
loop_
_atom_site_type_symbol
_atom_site_label
_atom_site_fract_x
_atom_site_fract_y
_atom_site_fract_z
Si Si1 0.333013 0.895346 0.211490
Si Si2 0.325555 0.752424 0.585796
Si Si3 0.680910 0.305551 0.349122
Si Si4 0.684919 0.890281 0.699352
Si Si5 0.177237 0.106510 0.353618
Si Si6 0.181042 0.105715 0.980291
O O1 0.500000 0.884761 0.247176
O O2 0.205167 0.891760 0.269896
O O3 0.326020 0.818779 0.151911
O O4 0.328863 0.000000 0.179429
O O5 0.500000 0.768207 0.562811
O O6 0.245711 0.620856 0.402732
O O7 0.263229 0.846485 0.624749
O O8 0.239232 0.693732 0.526800
O O9 0.500000 0.312421 0.351973
O O10 0.728669 0.330646 0.269059
O O11 0.733151 0.200906 0.374693
O O12 0.500000 0.885948 0.697031
O O13 0.729452 0.000000 0.707566
O O14 0.000000 0.116281 0.370264
O O15 0.227901 0.000000 0.376775
O O16 0.000000 0.108459 0.979139
O O17 0.228167 0.000000 0.006009
#
# Coordination Sequence:
#
# PCOD9357353 Si02
#       6
#     8   8   8   8   8   8
#     4   9  16  28  49  78 110 143 187 239 286 338
#     4  10  19  35  58  85 115 151 196 245 296 352
#     4  11  21  38  63  89 119 157 202 249 298 356
#     4   9  18  34  59  90 118 146 190 248 301 349
#     4  10  20  33  52  82 119 155 191 236 294 354
#     4  11  25  42  59  85 122 160 198 244 302 366
#
# _framework density 20.25827
#
# number of rings (size 3 to 8) (size 9 to 14) (size 15 to 20)
#    0.000    2.000    1.667    2.500    0.000    4.333 
#    0.000    2.500    0.000    5.500    0.000    0.000 
#    0.000    0.000    0.000    0.000    0.000    0.000 
#
# Total GULP energy -133740.221901 kJ/mol
# GULP energy per Si atom -5572.509246 kJ/mol
# Density = 2.021216 g / cm^3
# Si number density = 20.258270 Si / 1000 Ang^3
#
#
#
# Elastic Constant Matrix: (Units=GPa)
#
#
# Indices 1 2 3 4 5 6 
#
# 1 38.9345 25.0757 24.7728 0.0000 0.0000 0.0000
# 2 25.0757 119.3279 30.5051 0.0000 0.0000 0.0000
# 3 24.7728 30.5051 72.6710 0.0000 0.0000 0.0000
# 4 0.0000 0.0000 0.0000 24.5920 0.0000 0.0000
# 5 0.0000 0.0000 0.0000 0.0000 80.8995 0.0000
# 6 0.0000 0.0000 0.0000 0.0000 0.0000 22.9442
#
#
#
# Elastic Compliance Matrix: (Units=1/GPa)
#
#
# Indices 1 2 3 4 5 6 
#
# 1 0.035128 -0.004840 -0.009943 0.000000 0.000000 0.000000
# 2 -0.004840 0.010055 -0.002571 0.000000 0.000000 0.000000
# 3 -0.009943 -0.002571 0.018229 0.000000 0.000000 0.000000
# 4 0.000000 0.000000 0.000000 0.040664 0.000000 0.000000
# 5 0.000000 0.000000 0.000000 0.000000 0.012361 0.000000
# 6 0.000000 0.000000 0.000000 0.000000 0.000000 0.043584
#
#
# Mechanical properties :
#
#
# Convention : Reuss Voigt Hill
#
# Bulk Modulus (GPa) = 34.83817 43.51562 39.17689
# Shear Modulus (GPa) = 24.47435 35.72578 30.10006
#
# Velocity S-wave (km/s) = 3.47957 4.20398 3.85881
# Velocity P-wave (km/s) = 5.77733 6.71503 6.26375
#
# Compressibility (1/GPa) = 0.02870415
#
# Stress axis : x y z
#
# Youngs Moduli (GPa) = 28.46755 99.45770 54.85696
#
# Poissons Ratio (x) = 0.48137 0.54544
# Poissons Ratio (y) = 0.13778 0.14102
# Poissons Ratio (z) = 0.28305 0.25568
#
# Static dielectric constant tensor:
#      x y z
#    x 1.689270 0.000000 0.000000 
#    y 0.000000 1.796360 0.000000 
#    z 0.000000 0.000000 1.716010 
# 
# From -- ./inp_files/16630.got.cif
#   From: 2010.05.17/outbox.cif.g08.bks.cpg/sg38_9_cif.got.tgz:16630.got - 2010.06.03 18:07:57.
