data_PCOD9357695
_publ_section_title
;
Structure prediction by ZEFSAII (Michael W. Deem and Ramdas Pophale) SiO2 
 PCOD9357695
Probable space group: A M M 2
;
_chemical_formula_sum "Si O2"
_cell_formula_units_Z 64
_cell_length_a 9.352595
_cell_length_b 7.586385
_cell_length_c 43.059553
_cell_angle_alpha 90.000000
_cell_angle_beta 90.000000
_cell_angle_gamma 90.000000
_cell_volume 3055.178043
_symmetry_space_group_name_H-M "A M M 2"
_symmetry_group_IT_number 38
_symmetry_cell_setting 'orthorhombic'
loop_
_space_group_symop_operation_xyz
x,y,z
-x,-y,z
-x,y,z
x,-y,z
x,1/2+y,1/2+z
-x,1/2-y,1/2+z
-x,1/2+y,1/2+z
x,1/2-y,1/2+z
loop_
_atom_site_type_symbol
_atom_site_label
_atom_site_fract_x
_atom_site_fract_y
_atom_site_fract_z
Si Si1 0.661212 0.709775 0.517860
Si Si2 0.337483 0.211495 0.897467
Si Si3 0.162459 0.288438 0.835254
Si Si4 0.166319 0.788311 0.647235
Si Si5 0.834811 0.712567 0.079558
Si Si6 0.164625 0.283910 0.458009
Si Si7 0.664453 0.716165 0.774754
Si Si8 0.836834 0.709317 0.714931
O O1 0.500000 0.781696 0.517752
O O2 0.650858 0.500000 0.513117
O O3 0.738660 0.736465 0.550628
O O4 0.756900 0.776826 0.489350
O O5 0.500000 0.279414 0.896072
O O6 0.250748 0.249755 0.866251
O O7 0.251917 0.274908 0.927724
O O8 0.345697 0.000000 0.900338
O O9 0.154300 0.500000 0.832497
O O10 0.246156 0.225049 0.804759
O O11 0.000000 0.220655 0.837015
O O12 0.221360 0.727820 0.613555
O O13 0.227587 0.735197 0.680507
O O14 0.000000 0.730072 0.647901
O O15 0.168127 0.000000 0.646891
O O16 0.839111 0.500000 0.080296
O O17 0.000000 0.772767 0.075696
O O18 0.163767 0.500000 0.458002
O O19 0.000000 0.227470 0.456981
O O20 0.500000 0.772194 0.776474
O O21 0.664206 0.500000 0.774763
O O22 0.741111 0.776461 0.743135
O O23 0.848435 0.500000 0.719430
O O24 0.000000 0.781544 0.715673
#
# Coordination Sequence:
#
# PCOD9357695 Si02
#       8
#     8   8   8   8   8   8   8   8
#     4  10  20  33  50  74 102 130 163 204 248 294
#     4  10  20  34  53  77 105 135 165 200 245 296
#     4  10  20  34  53  76 101 131 169 210 248 289
#     4   8  15  29  48  69  94 124 157 194 239 290
#     4   9  18  33  52  73  98 130 167 205 246 294
#     4   9  17  31  52  75  99 130 166 203 245 292
#     4   9  17  30  48  69  95 128 162 198 245 296
#     4   9  16  27  46  71  94 118 155 200 240 283
#
# _framework density 20.948042000000001
#
# number of rings (size 3 to 8) (size 9 to 14) (size 15 to 20)
#    0.000    2.750    0.000    2.625    0.000    6.000 
#    0.000    3.125    0.000    8.625    0.000    0.000 
#    0.000    0.000    0.000    0.000    0.000    0.000 
#
# Total GULP energy -178573.748453 kJ/mol
# GULP energy per Si atom -5580.429639 kJ/mol
# Density = 2.090036 g / cm^3
# Si number density = 20.948042 Si / 1000 Ang^3
#
#
#
# Elastic Constant Matrix: (Units=GPa)
#
#
# Indices 1 2 3 4 5 6 
#
# 1 181.7733 7.1737 132.6962 0.0000 0.0000 0.0000
# 2 7.1737 43.0422 0.1487 0.0000 0.0000 0.0000
# 3 132.6962 0.1487 246.1262 0.0000 0.0000 0.0000
# 4 0.0000 0.0000 0.0000 20.6869 0.0000 0.0000
# 5 0.0000 0.0000 0.0000 0.0000 -110.2114 0.0000
# 6 0.0000 0.0000 0.0000 0.0000 0.0000 9.2974
#
#
#
# Elastic Compliance Matrix: (Units=1/GPa)
#
#
# Indices 1 2 3 4 5 6 
#
# 1 0.009169 -0.001511 -0.004942 0.000000 0.000000 0.000000
# 2 -0.001511 0.023482 0.000800 0.000000 0.000000 0.000000
# 3 -0.004942 0.000800 0.006727 0.000000 0.000000 0.000000
# 4 0.000000 0.000000 0.000000 0.048340 0.000000 0.000000
# 5 0.000000 0.000000 0.000000 0.000000 -0.009073 0.000000
# 6 0.000000 0.000000 0.000000 0.000000 0.000000 0.107557
#
#
# Mechanical properties :
#
#
# Convention : Reuss Voigt Hill
#
# Bulk Modulus (GPa) = 35.62249 83.44210 59.53230
# Shear Modulus (GPa) = 24.17040 6.01613 15.09326
#
# Velocity S-wave (km/s) = 3.40049 1.69651 2.68714
# Velocity P-wave (km/s) = 5.69735 6.61490 6.17320
#
# Compressibility (1/GPa) = 0.02807215
#
# Stress axis : x y z
#
# Youngs Moduli (GPa) = 109.06264 42.58564 148.65132
#
# Poissons Ratio (x) = 0.06435 0.73471
# Poissons Ratio (y) = 0.16480 -0.11899
# Poissons Ratio (z) = 0.53904 -0.03409
#
# Static dielectric constant tensor:
#      x y z
#    x 1.725890 0.000000 0.000000 
#    y 0.000000 1.809980 0.000000 
#    z 0.000000 0.000000 1.738120 
# 
# From -- ./inp_files/24621.got.cif
#   From: 2010.05.17/outbox.cif.g08.bks.cpg/sg38_13_cif.got.tgz:24621.got - 2010.06.03 18:07:57.
