data_PCOD9357397
_publ_section_title
;
Structure prediction by ZEFSAII (Michael W. Deem and Ramdas Pophale) SiO2 
 PCOD9357397
Probable space group: A M M 2
;
_chemical_formula_sum "Si O2"
_cell_formula_units_Z 48
_cell_length_a 7.676004
_cell_length_b 28.422864
_cell_length_c 9.868145
_cell_angle_alpha 90.000000
_cell_angle_beta 90.000000
_cell_angle_gamma 90.000000
_cell_volume 2152.972842
_symmetry_space_group_name_H-M "A M M 2"
_symmetry_group_IT_number 38
_symmetry_cell_setting 'orthorhombic'
loop_
_space_group_symop_operation_xyz
x,y,z
-x,-y,z
-x,y,z
x,-y,z
x,1/2+y,1/2+z
-x,1/2-y,1/2+z
-x,1/2+y,1/2+z
x,1/2-y,1/2+z
loop_
_atom_site_type_symbol
_atom_site_label
_atom_site_fract_x
_atom_site_fract_y
_atom_site_fract_z
Si Si1 0.200297 0.052445 0.261050
Si Si2 0.210191 0.695524 0.115181
Si Si3 0.698493 0.411613 0.042330
Si Si4 0.213378 0.722410 0.419608
Si Si5 0.209939 0.050858 0.827590
Si Si6 0.212597 0.126171 0.047134
O O1 0.197439 0.067351 0.417135
O O2 0.000000 0.048533 0.212813
O O3 0.278058 0.000000 0.245079
O O4 0.275000 0.096326 0.176168
O O5 0.270436 0.712632 0.264660
O O6 0.000000 0.697752 0.119058
O O7 0.256877 0.641816 0.082957
O O8 0.269545 0.729867 0.994063
O O9 0.500000 0.413642 0.998145
O O10 0.725314 0.442094 0.176384
O O11 0.269531 0.678953 0.515387
O O12 0.000000 0.722965 0.415650
O O13 0.265183 0.093945 0.920179
O O14 0.000000 0.052071 0.824383
O O15 0.263862 0.000000 0.882904
O O16 0.000000 0.129062 0.052785
#
# Coordination Sequence:
#
# PCOD9357397 Si02
#       6
#     8   8   8   8   8   8
#     4  10  21  37  60  88 116 150 194 244 293 340
#     4  10  20  37  61  89 115 145 189 241 291 344
#     4  12  25  39  55  80 118 162 197 233 282 343
#     4   9  18  32  59  92 116 141 181 235 292 339
#     4  10  19  35  62  89 112 143 187 242 296 344
#     4   9  17  33  59  91 118 142 182 239 295 347
#
# _framework density 22.294754999999999
#
# number of rings (size 3 to 8) (size 9 to 14) (size 15 to 20)
#    0.000    2.000    1.667    2.500    2.333    4.667 
#    0.000    1.667    0.000    2.000    0.000    0.000 
#    0.000    0.000    0.000    0.000    0.000    0.000 
#
# Total GULP energy -134027.458349 kJ/mol
# GULP energy per Si atom -5584.477431 kJ/mol
# Density = 2.224401 g / cm^3
# Si number density = 22.294755 Si / 1000 Ang^3
#
#
#
# Elastic Constant Matrix: (Units=GPa)
#
#
# Indices 1 2 3 4 5 6 
#
# 1 38.1961 -0.0260 -5.2532 0.0000 0.0000 0.0000
# 2 -0.0260 98.5728 -10.1426 0.0000 0.0000 0.0000
# 3 -5.2532 -10.1426 51.0717 0.0000 0.0000 0.0000
# 4 0.0000 0.0000 0.0000 53.4066 0.0000 0.0000
# 5 0.0000 0.0000 0.0000 0.0000 -44.4819 0.0000
# 6 0.0000 0.0000 0.0000 0.0000 0.0000 -10.1375
#
#
#
# Elastic Compliance Matrix: (Units=1/GPa)
#
#
# Indices 1 2 3 4 5 6 
#
# 1 0.026565 0.000294 0.002791 0.000000 0.000000 0.000000
# 2 0.000294 0.010360 0.002088 0.000000 0.000000 0.000000
# 3 0.002791 0.002088 0.020282 0.000000 0.000000 0.000000
# 4 0.000000 0.000000 0.000000 0.018724 0.000000 0.000000
# 5 0.000000 0.000000 0.000000 0.000000 -0.022481 0.000000
# 6 0.000000 0.000000 0.000000 0.000000 0.000000 -0.098644
#
#
# Mechanical properties :
#
#
# Convention : Reuss Voigt Hill
#
# Bulk Modulus (GPa) = 14.80348 17.44410 16.12379
# Shear Modulus (GPa) = -151.41333 13.30828 -69.05252
#
# Velocity S-wave (km/s) = -8.24996 2.44585 -5.57134
# Velocity P-wave (km/s) = 9.17032 3.97713 5.84282
#
# Compressibility (1/GPa) = 0.06755170
#
# Stress axis : x y z
#
# Youngs Moduli (GPa) = 37.64395 96.52814 49.30490
#
# Poissons Ratio (x) = -0.02840 -0.13760
# Poissons Ratio (y) = -0.01107 -0.10293
# Poissons Ratio (z) = -0.10506 -0.20152
#
# Static dielectric constant tensor:
#      x y z
#    x 1.857740 0.000000 0.000000 
#    y 0.000000 1.693230 0.000000 
#    z 0.000000 0.000000 1.793590 
# 
# From -- ./inp_files/3724.got.cif
#   From: 2010.05.17/outbox.cif.g08.bks.cpg/sg38_2_cif.got.tgz:3724.got - 2010.06.03 18:07:57.
