data_PCOD9357021
_publ_section_title
;
Structure prediction by ZEFSAII (Michael W. Deem and Ramdas Pophale) SiO2 
 PCOD9357021
Probable space group: A M M 2
;
_chemical_formula_sum "Si O2"
_cell_formula_units_Z 64
_cell_length_a 8.341917
_cell_length_b 25.918693
_cell_length_c 15.356107
_cell_angle_alpha 90.000000
_cell_angle_beta 90.000000
_cell_angle_gamma 90.000000
_cell_volume 3320.168245
_symmetry_space_group_name_H-M "A M M 2"
_symmetry_group_IT_number 38
_symmetry_cell_setting 'orthorhombic'
loop_
_space_group_symop_operation_xyz
x,y,z
-x,-y,z
-x,y,z
x,-y,z
x,1/2+y,1/2+z
-x,1/2-y,1/2+z
-x,1/2+y,1/2+z
x,1/2-y,1/2+z
loop_
_atom_site_type_symbol
_atom_site_label
_atom_site_fract_x
_atom_site_fract_y
_atom_site_fract_z
Si Si1 0.804168 0.057886 0.335980
Si Si2 0.804645 0.152030 0.217212
Si Si3 0.809931 0.827237 0.020588
Si Si4 0.810952 0.266300 0.248903
Si Si5 0.312690 0.865032 0.846984
Si Si6 0.193637 0.940693 0.697535
Si Si7 0.687743 0.781398 0.555858
Si Si8 0.193801 0.890320 0.515196
O O1 0.748904 0.102305 0.269955
O O2 0.759030 0.074495 0.433710
O O3 0.000000 0.057690 0.333188
O O4 0.749928 0.000000 0.315574
O O5 0.755549 0.207033 0.258508
O O6 0.000000 0.152201 0.219122
O O7 0.757081 0.152649 0.115671
O O8 0.769975 0.864421 0.941067
O O9 0.000000 0.818524 0.024346
O O10 0.727592 0.771676 0.007088
O O11 0.721436 0.309176 0.304211
O O12 0.784708 0.279280 0.146881
O O13 0.000000 0.269625 0.269280
O O14 0.500000 0.872466 0.858573
O O15 0.247762 0.907189 0.779534
O O16 0.247892 0.914019 0.607406
O O17 0.000000 0.940689 0.695649
O O18 0.247935 0.000000 0.701903
O O19 0.500000 0.783534 0.576183
O O20 0.740015 0.832675 0.506105
O O21 0.000000 0.887637 0.516280
#
# Coordination Sequence:
#
# PCOD9357021 Si02
#       8
#     8   8   8   8   8   8   8   8
#     4   9  17  31  54  86 117 144 186 242 288 332
#     4   8  17  33  54  81 110 146 191 239 290 337
#     4  10  21  38  58  79 113 157 199 243 291 355
#     4  10  19  34  55  80 113 154 195 233 282 351
#     4  12  24  37  56  86 119 152 194 246 303 354
#     4  10  21  38  59  83 115 158 204 242 284 351
#     4  11  21  34  53  83 119 152 190 237 291 346
#     4  10  19  32  55  85 118 156 192 231 285 349
#
# _framework density 19.276130999999999
#
# number of rings (size 3 to 8) (size 9 to 14) (size 15 to 20)
#    0.000    2.000    1.250    4.125    1.750    1.750 
#    0.000    0.625    0.000    4.125    0.000    0.000 
#    0.000    0.000    0.000    0.000    0.000    0.000 
#
# Total GULP energy -178720.335695 kJ/mol
# GULP energy per Si atom -5585.010490 kJ/mol
# Density = 1.923226 g / cm^3
# Si number density = 19.276131 Si / 1000 Ang^3
#
#
#
# Elastic Constant Matrix: (Units=GPa)
#
#
# Indices 1 2 3 4 5 6 
#
# 1 23.2891 14.5093 6.9207 0.0000 0.0000 0.0000
# 2 14.5093 137.5588 58.1055 0.0000 0.0000 0.0000
# 3 6.9207 58.1055 80.3721 0.0000 0.0000 0.0000
# 4 0.0000 0.0000 0.0000 27.5908 0.0000 0.0000
# 5 0.0000 0.0000 0.0000 0.0000 4.0618 0.0000
# 6 0.0000 0.0000 0.0000 0.0000 0.0000 -10.3033
#
#
#
# Elastic Compliance Matrix: (Units=1/GPa)
#
#
# Indices 1 2 3 4 5 6 
#
# 1 0.045982 -0.004575 -0.000652 0.000000 0.000000 0.000000
# 2 -0.004575 0.010921 -0.007501 0.000000 0.000000 0.000000
# 3 -0.000652 -0.007501 0.017921 0.000000 0.000000 0.000000
# 4 0.000000 0.000000 0.000000 0.036244 0.000000 0.000000
# 5 0.000000 0.000000 0.000000 0.000000 0.246194 0.000000
# 6 0.000000 0.000000 0.000000 0.000000 0.000000 -0.097056
#
#
# Mechanical properties :
#
#
# Convention : Reuss Voigt Hill
#
# Bulk Modulus (GPa) = 20.25594 44.47677 32.36636
# Shear Modulus (GPa) = 16.54982 15.04883 15.79933
#
# Velocity S-wave (km/s) = 2.93331 2.79713 2.86603
# Velocity P-wave (km/s) = 4.69079 5.79271 5.27063
#
# Compressibility (1/GPa) = 0.04936823
#
# Stress axis : x y z
#
# Youngs Moduli (GPa) = 21.74751 91.56911 55.79924
#
# Poissons Ratio (x) = 0.41889 0.03639
# Poissons Ratio (y) = 0.09949 0.41857
# Poissons Ratio (z) = 0.01418 0.68689
#
# Static dielectric constant tensor:
#      x y z
#    x 1.649500 0.000000 0.000000 
#    y 0.000000 1.660030 0.000000 
#    z 0.000000 0.000000 1.676360 
# 
# From -- ./inp_files/12807.got.cif
#   From: 2010.05.17/outbox.cif.g08.bks.cpg/sg38_7_cif.got.tgz:12807.got - 2010.06.03 18:07:57.
