data_PCOD9357448
_publ_section_title
;
Structure prediction by ZEFSAII (Michael W. Deem and Ramdas Pophale) SiO2 
 PCOD9357448
Probable space group: A M M 2
;
_chemical_formula_sum "Si O2"
_cell_formula_units_Z 56
_cell_length_a 21.718808
_cell_length_b 8.698353
_cell_length_c 15.835919
_cell_angle_alpha 90.000000
_cell_angle_beta 90.000000
_cell_angle_gamma 90.000000
_cell_volume 2991.687908
_symmetry_space_group_name_H-M "A M M 2"
_symmetry_group_IT_number 38
_symmetry_cell_setting 'orthorhombic'
loop_
_space_group_symop_operation_xyz
x,y,z
-x,-y,z
-x,y,z
x,-y,z
x,1/2+y,1/2+z
-x,1/2-y,1/2+z
-x,1/2+y,1/2+z
x,1/2-y,1/2+z
loop_
_atom_site_type_symbol
_atom_site_label
_atom_site_fract_x
_atom_site_fract_y
_atom_site_fract_z
Si Si1 0.870956 0.684163 0.778290
Si Si2 0.866926 0.814762 0.957717
Si Si3 0.000000 0.185075 0.030406
Si Si4 0.572340 0.684052 0.280390
Si Si5 0.000000 0.682805 0.218808
Si Si6 0.211678 0.687062 0.620149
Si Si7 0.646228 0.684835 0.621924
Si Si8 0.427635 0.684031 0.963437
O O1 0.874213 0.500000 0.776040
O O2 0.849030 0.740064 0.869455
O O3 0.938595 0.751072 0.761112
O O4 0.826108 0.736679 0.702749
O O5 0.863411 0.000000 0.950435
O O6 0.824120 0.764849 0.035596
O O7 0.937674 0.775737 0.980851
O O8 0.000000 0.265056 0.121223
O O9 0.000000 0.000000 0.044400
O O10 0.500000 0.722595 0.267134
O O11 0.577951 0.500000 0.281062
O O12 0.612039 0.753141 0.204856
O O13 0.590365 0.750164 0.371874
O O14 0.000000 0.500000 0.225982
O O15 0.210904 0.500000 0.620291
O O16 0.282494 0.735537 0.621576
O O17 0.644310 0.500000 0.622126
O O18 0.611950 0.746261 0.538906
O O19 0.500000 0.722326 0.976564
O O20 0.421889 0.500000 0.963052
#
# Coordination Sequence:
#
# PCOD9357448 Si02
#       8
#     8   8   4   8   4   8   8   8
#     4  11  22  40  62  85 114 151 192 234 287 342
#     4  10  20  38  61  86 115 149 190 234 287 341
#     4  10  19  36  63  84 112 152 183 229 292 343
#     4  10  21  38  60  87 118 153 196 244 292 344
#     4  12  23  36  59  90 118 144 187 239 288 341
#     4   9  21  40  59  81 116 158 194 233 284 341
#     4  11  22  37  59  87 120 157 197 238 289 348
#     4  10  21  38  60  87 118 152 193 242 295 349
#
# _framework density 18.718529
#
# number of rings (size 3 to 8) (size 9 to 14) (size 15 to 20)
#    0.000    1.714    1.429    3.214    0.000    5.714 
#    0.000    7.143    0.000    0.000    0.000    0.000 
#    0.000    0.000    0.000    0.000    0.000    0.000 
#
# Total GULP energy -156488.317596 kJ/mol
# GULP energy per Si atom -5588.868486 kJ/mol
# Density = 1.867592 g / cm^3
# Si number density = 18.718529 Si / 1000 Ang^3
#
#
#
# Elastic Constant Matrix: (Units=GPa)
#
#
# Indices 1 2 3 4 5 6 
#
# 1 138.7531 43.6251 112.9298 0.0000 0.0000 0.0000
# 2 43.6251 45.3450 53.5403 0.0000 0.0000 0.0000
# 3 112.9298 53.5403 207.2897 0.0000 0.0000 0.0000
# 4 0.0000 0.0000 0.0000 39.0856 0.0000 0.0000
# 5 0.0000 0.0000 0.0000 0.0000 -8.4437 0.0000
# 6 0.0000 0.0000 0.0000 0.0000 0.0000 14.2092
#
#
#
# Elastic Compliance Matrix: (Units=1/GPa)
#
#
# Indices 1 2 3 4 5 6 
#
# 1 0.014165 -0.006497 -0.006039 0.000000 0.000000 0.000000
# 2 -0.006497 0.034710 -0.005425 0.000000 0.000000 0.000000
# 3 -0.006039 -0.005425 0.009515 0.000000 0.000000 0.000000
# 4 0.000000 0.000000 0.000000 0.025585 0.000000 0.000000
# 5 0.000000 0.000000 0.000000 0.000000 -0.118431 0.000000
# 6 0.000000 0.000000 0.000000 0.000000 0.000000 0.070377
#
#
# Mechanical properties :
#
#
# Convention : Reuss Voigt Hill
#
# Bulk Modulus (GPa) = 44.50950 90.17537 67.34244
# Shear Modulus (GPa) = 63.02588 21.05639 42.04113
#
# Velocity S-wave (km/s) = 5.80891 3.35759 4.74430
# Velocity P-wave (km/s) = 8.29585 7.95677 8.12808
#
# Compressibility (1/GPa) = 0.02246711
#
# Stress axis : x y z
#
# Youngs Moduli (GPa) = 70.59838 28.81004 105.09432
#
# Poissons Ratio (x) = 0.18719 0.63462
# Poissons Ratio (y) = 0.45871 0.57018
# Poissons Ratio (z) = 0.42631 0.15631
#
# Static dielectric constant tensor:
#      x y z
#    x 1.631970 0.000000 0.000000 
#    y 0.000000 1.632000 0.000000 
#    z 0.000000 0.000000 1.622380 
# 
# From -- ./inp_files/15578.got.cif
#   From: 2010.05.17/outbox.cif.g08.bks.cpg/sg38_8_cif.got.tgz:15578.got - 2010.06.03 18:07:57.
