data_PCOD9357101
_publ_section_title
;
Structure prediction by ZEFSAII (Michael W. Deem and Ramdas Pophale) SiO2 
 PCOD9357101
Probable space group: A M M 2
;
_chemical_formula_sum "Si O2"
_cell_formula_units_Z 48
_cell_length_a 12.866304
_cell_length_b 24.216418
_cell_length_c 7.878741
_cell_angle_alpha 90.000000
_cell_angle_beta 90.000000
_cell_angle_gamma 90.000000
_cell_volume 2454.824997
_symmetry_space_group_name_H-M "A M M 2"
_symmetry_group_IT_number 38
_symmetry_cell_setting 'orthorhombic'
loop_
_space_group_symop_operation_xyz
x,y,z
-x,-y,z
-x,y,z
x,-y,z
x,1/2+y,1/2+z
-x,1/2-y,1/2+z
-x,1/2+y,1/2+z
x,1/2-y,1/2+z
loop_
_atom_site_type_symbol
_atom_site_label
_atom_site_fract_x
_atom_site_fract_y
_atom_site_fract_z
Si Si1 0.730792 0.436848 0.159540
Si Si2 0.378143 0.676663 0.175193
Si Si3 0.881830 0.916264 0.963445
Si Si4 0.881939 0.702186 0.578852
Si Si5 0.740468 0.273960 0.871138
Si Si6 0.116618 0.565331 0.858670
O O1 0.692330 0.500000 0.128333
O O2 0.649810 0.387844 0.196501
O O3 0.805734 0.438911 0.322891
O O4 0.799922 0.416630 0.998100
O O5 0.500000 0.685698 0.199171
O O6 0.314354 0.718628 0.297246
O O7 0.341335 0.694419 0.986871
O O8 0.000000 0.935597 0.936200
O O9 0.881850 0.849840 0.953862
O O10 0.855266 0.928650 0.160147
O O11 0.794409 0.692167 0.721091
O O12 0.838823 0.755427 0.483906
O O13 0.000000 0.708750 0.642194
O O14 0.108178 0.500000 0.890640
O O15 0.000000 0.589898 0.880076
#
# Coordination Sequence:
#
# PCOD9357101 Si02
#       6
#     8   8   8   8   8   8
#     4  11  22  37  58  86 121 156 197 249 302 362
#     4  11  23  41  62  85 110 153 208 258 305 343
#     4  10  19  33  54  84 120 159 197 235 287 360
#     4  10  19  33  55  87 124 155 185 230 298 370
#     4  10  21  38  60  86 118 151 198 247 300 354
#     4   9  18  32  52  80 115 155 195 233 282 352
#
# _framework density 19.553328
#
# number of rings (size 3 to 8) (size 9 to 14) (size 15 to 20)
#    0.000    1.833    1.667    3.000    0.000    2.000 
#    0.000    1.667    0.000    0.000    0.000    2.333 
#    0.000    0.000    0.000    0.000    0.000    0.000 
#
# Total GULP energy -133830.609246 kJ/mol
# GULP energy per Si atom -5576.275385 kJ/mol
# Density = 1.950882 g / cm^3
# Si number density = 19.553328 Si / 1000 Ang^3
#
#
#
# Elastic Constant Matrix: (Units=GPa)
#
#
# Indices 1 2 3 4 5 6 
#
# 1 98.1035 33.6741 25.6250 0.0000 0.0000 0.0000
# 2 33.6741 78.6041 7.7212 0.0000 0.0000 0.0000
# 3 25.6250 7.7212 48.2528 0.0000 0.0000 0.0000
# 4 0.0000 0.0000 0.0000 22.7054 0.0000 0.0000
# 5 0.0000 0.0000 0.0000 0.0000 17.6647 0.0000
# 6 0.0000 0.0000 0.0000 0.0000 0.0000 -4.3336
#
#
#
# Elastic Compliance Matrix: (Units=1/GPa)
#
#
# Indices 1 2 3 4 5 6 
#
# 1 0.013663 -0.005223 -0.006420 0.000000 0.000000 0.000000
# 2 -0.005223 0.014921 0.000386 0.000000 0.000000 0.000000
# 3 -0.006420 0.000386 0.024072 0.000000 0.000000 0.000000
# 4 0.000000 0.000000 0.000000 0.044042 0.000000 0.000000
# 5 0.000000 0.000000 0.000000 0.000000 0.056610 0.000000
# 6 0.000000 0.000000 0.000000 0.000000 0.000000 -0.230754
#
#
# Mechanical properties :
#
#
# Convention : Reuss Voigt Hill
#
# Bulk Modulus (GPa) = 33.17566 39.88897 36.53231
# Shear Modulus (GPa) = -111.39732 17.73665 -46.83034
#
# Velocity S-wave (km/s) = -7.55610 3.01506 -4.89919
# Velocity P-wave (km/s) = 7.68913 5.70659 3.64400
#
# Compressibility (1/GPa) = 0.03014258
#
# Stress axis : x y z
#
# Youngs Moduli (GPa) = 73.19075 67.01762 41.54223
#
# Poissons Ratio (x) = 0.35001 0.26671
# Poissons Ratio (y) = 0.38224 -0.01603
# Poissons Ratio (z) = 0.46989 -0.02586
#
# Static dielectric constant tensor:
#      x y z
#    x 1.653250 0.000000 0.000000 
#    y 0.000000 1.740560 0.000000 
#    z 0.000000 0.000000 1.711680 
# 
# From -- ./inp_files/4622.got.cif
#   From: 2010.05.17/outbox.cif.g08.bks.cpg/sg38_3_cif.got.tgz:4622.got - 2010.06.03 18:07:57.
