data_PCOD9357814
_publ_section_title
;
Structure prediction by ZEFSAII (Michael W. Deem and Ramdas Pophale) SiO2 
 PCOD9357814
Probable space group: A M M 2
;
_chemical_formula_sum "Si O2"
_cell_formula_units_Z 64
_cell_length_a 24.072073
_cell_length_b 7.540721
_cell_length_c 15.510520
_cell_angle_alpha 90.000000
_cell_angle_beta 90.000000
_cell_angle_gamma 90.000000
_cell_volume 2815.481788
_symmetry_space_group_name_H-M "A M M 2"
_symmetry_group_IT_number 38
_symmetry_cell_setting 'orthorhombic'
loop_
_space_group_symop_operation_xyz
x,y,z
-x,-y,z
-x,y,z
x,-y,z
x,1/2+y,1/2+z
-x,1/2-y,1/2+z
-x,1/2+y,1/2+z
x,1/2-y,1/2+z
loop_
_atom_site_type_symbol
_atom_site_label
_atom_site_fract_x
_atom_site_fract_y
_atom_site_fract_z
Si Si1 0.848275 0.292853 0.905610
Si Si2 0.727888 0.713655 0.944278
Si Si3 0.755522 0.787054 0.643861
Si Si4 0.561282 0.785298 0.063197
Si Si5 0.356389 0.210091 0.714421
Si Si6 0.606019 0.298100 0.386525
Si Si7 0.062897 0.282165 0.766487
Si Si8 0.123475 0.797359 0.100584
O O1 0.842493 0.500000 0.885170
O O2 0.785425 0.219600 0.901975
O O3 0.893124 0.220083 0.838542
O O4 0.868258 0.283260 0.005582
O O5 0.723582 0.500000 0.933522
O O6 0.671206 0.797466 0.911905
O O7 0.735115 0.747483 0.046176
O O8 0.706271 0.719328 0.704920
O O9 0.816820 0.709289 0.648863
O O10 0.760834 0.000000 0.653093
O O11 0.500000 0.729252 0.091962
O O12 0.609816 0.728979 0.126789
O O13 0.562663 0.000000 0.060790
O O14 0.573819 0.717733 0.966927
O O15 0.392538 0.286915 0.792419
O O16 0.350201 0.000000 0.730875
O O17 0.584970 0.500000 0.378446
O O18 0.064419 0.500000 0.765651
O O19 0.080930 0.222014 0.670719
O O20 0.000000 0.229879 0.786738
O O21 0.107936 0.000000 0.084028
#
# Coordination Sequence:
#
# PCOD9357814 Si02
#       8
#     8   8   8   8   8   8   8   8
#     4   9  19  36  55  77 108 147 183 221 272 327
#     4   9  17  31  53  78 109 142 177 221 267 320
#     4   9  18  34  54  78 113 147 178 220 272 328
#     4  10  22  40  58  79 112 148 182 225 271 319
#     4  10  21  37  57  83 110 144 185 223 268 324
#     4  10  21  35  55  83 111 141 177 220 273 323
#     4   9  19  36  56  78 108 148 190 225 267 331
#     4  10  20  33  54  83 109 139 182 230 277 321
#
# _framework density 22.731456999999999
#
# number of rings (size 3 to 8) (size 9 to 14) (size 15 to 20)
#    0.000    2.500    1.250    1.125    1.750    4.250 
#    0.000    2.500    0.000    2.625    0.000    0.000 
#    0.000    0.000    0.000    0.000    0.000    0.000 
#
# Total GULP energy -178647.554972 kJ/mol
# GULP energy per Si atom -5582.736093 kJ/mol
# Density = 2.267972 g / cm^3
# Si number density = 22.731457 Si / 1000 Ang^3
#
#
#
# Elastic Constant Matrix: (Units=GPa)
#
#
# Indices 1 2 3 4 5 6 
#
# 1 67.4803 -10.6745 3.0786 0.0000 0.0000 0.0000
# 2 -10.6745 48.9153 -5.8052 0.0000 0.0000 0.0000
# 3 3.0786 -5.8052 48.6146 0.0000 0.0000 0.0000
# 4 0.0000 0.0000 0.0000 7.5253 0.0000 0.0000
# 5 0.0000 0.0000 0.0000 0.0000 31.4068 0.0000
# 6 0.0000 0.0000 0.0000 0.0000 0.0000 10.2178
#
#
#
# Elastic Compliance Matrix: (Units=1/GPa)
#
#
# Indices 1 2 3 4 5 6 
#
# 1 0.015365 0.003284 -0.000581 0.000000 0.000000 0.000000
# 2 0.003284 0.021439 0.002352 0.000000 0.000000 0.000000
# 3 -0.000581 0.002352 0.020888 0.000000 0.000000 0.000000
# 4 0.000000 0.000000 0.000000 0.132885 0.000000 0.000000
# 5 0.000000 0.000000 0.000000 0.000000 0.031840 0.000000
# 6 0.000000 0.000000 0.000000 0.000000 0.000000 0.097868
#
#
# Mechanical properties :
#
#
# Convention : Reuss Voigt Hill
#
# Bulk Modulus (GPa) = 14.74864 15.35645 15.05255
# Shear Modulus (GPa) = 15.02516 21.72406 18.37461
#
# Velocity S-wave (km/s) = 2.57375 3.09477 2.84621
# Velocity P-wave (km/s) = 3.91594 4.42045 4.17582
#
# Compressibility (1/GPa) = 0.06780286
#
# Stress axis : x y z
#
# Youngs Moduli (GPa) = 65.08233 46.64323 47.87524
#
# Poissons Ratio (x) = -0.15318 0.02781
# Poissons Ratio (y) = -0.21374 -0.11261
# Poissons Ratio (z) = 0.03780 -0.10971
#
# Static dielectric constant tensor:
#      x y z
#    x 1.811410 0.000000 0.000000 
#    y 0.000000 1.857940 0.000000 
#    z 0.000000 0.000000 1.864190 
# 
# From -- ./inp_files/15767.got.cif
#   From: 2010.05.17/outbox.cif.g08.bks.cpg/sg38_8_cif.got.tgz:15767.got - 2010.06.03 18:07:57.
