data_PCOD9357386
_publ_section_title
;
Structure prediction by ZEFSAII (Michael W. Deem and Ramdas Pophale) SiO2 
 PCOD9357386
Probable space group: A M M 2
;
_chemical_formula_sum "Si O2"
_cell_formula_units_Z 64
_cell_length_a 8.739335
_cell_length_b 25.821151
_cell_length_c 15.398954
_cell_angle_alpha 90.000000
_cell_angle_beta 90.000000
_cell_angle_gamma 90.000000
_cell_volume 3474.923166
_symmetry_space_group_name_H-M "A M M 2"
_symmetry_group_IT_number 38
_symmetry_cell_setting 'orthorhombic'
loop_
_space_group_symop_operation_xyz
x,y,z
-x,-y,z
-x,y,z
x,-y,z
x,1/2+y,1/2+z
-x,1/2-y,1/2+z
-x,1/2+y,1/2+z
x,1/2-y,1/2+z
loop_
_atom_site_type_symbol
_atom_site_label
_atom_site_fract_x
_atom_site_fract_y
_atom_site_fract_z
Si Si1 0.320250 0.779351 0.319260
Si Si2 0.315192 0.637065 0.523407
Si Si3 0.183219 0.940015 0.165075
Si Si4 0.684690 0.941093 0.526700
Si Si5 0.685502 0.393592 0.842632
Si Si6 0.685561 0.164664 0.836253
Si Si7 0.679480 0.757776 0.114501
Si Si8 0.818470 0.351923 0.147370
O O1 0.500000 0.779465 0.342804
O O2 0.257692 0.834113 0.351093
O O3 0.259055 0.724103 0.350526
O O4 0.308964 0.776855 0.214545
O O5 0.500000 0.635083 0.531978
O O6 0.243936 0.594504 0.585871
O O7 0.275942 0.632358 0.421923
O O8 0.268051 0.694423 0.555971
O O9 0.249830 0.917925 0.254900
O O10 0.000000 0.937016 0.168033
O O11 0.228677 0.000000 0.155158
O O12 0.500000 0.938429 0.532631
O O13 0.726263 0.925824 0.428002
O O14 0.754129 0.898963 0.591000
O O15 0.732127 0.000000 0.545662
O O16 0.500000 0.392522 0.835388
O O17 0.500000 0.166212 0.827911
O O18 0.752288 0.146019 0.745236
O O19 0.500000 0.747977 0.096343
O O20 0.765105 0.703369 0.107988
O O21 0.000000 0.353564 0.150292
#
# Coordination Sequence:
#
# PCOD9357386 Si02
#       8
#     8   8   8   8   8   8   8   8
#     4   8  14  28  52  83 115 143 175 220 278 333
#     4  10  20  36  62  89 111 147 197 243 287 333
#     4  11  24  39  55  80 121 164 192 228 286 344
#     4  10  22  39  61  87 112 145 194 249 295 334
#     4  10  19  35  61  89 113 146 193 240 283 334
#     4   9  19  36  59  86 116 149 189 242 292 336
#     4   9  17  33  57  84 114 147 184 231 281 333
#     4  11  23  38  57  83 116 156 193 231 287 349
#
# _framework density 18.417674000000002
#
# number of rings (size 3 to 8) (size 9 to 14) (size 15 to 20)
#    0.000    2.250    1.250    2.625    1.750    3.250 
#    0.000    0.625    0.000    0.750    0.000    0.000 
#    0.000    0.000    0.000    0.000    0.000    0.000 
#
# Total GULP energy -178588.239364 kJ/mol
# GULP energy per Si atom -5580.882480 kJ/mol
# Density = 1.837575 g / cm^3
# Si number density = 18.417674 Si / 1000 Ang^3
#
#
#
# Elastic Constant Matrix: (Units=GPa)
#
#
# Indices 1 2 3 4 5 6 
#
# 1 28.5899 39.4019 33.5873 0.0000 0.0000 0.0000
# 2 39.4019 139.2608 79.4141 0.0000 0.0000 0.0000
# 3 33.5873 79.4141 109.1288 0.0000 0.0000 0.0000
# 4 0.0000 0.0000 0.0000 22.3788 0.0000 0.0000
# 5 0.0000 0.0000 0.0000 0.0000 2.8186 0.0000
# 6 0.0000 0.0000 0.0000 0.0000 0.0000 11.9570
#
#
#
# Elastic Compliance Matrix: (Units=1/GPa)
#
#
# Indices 1 2 3 4 5 6 
#
# 1 0.064494 -0.011843 -0.011232 0.000000 0.000000 0.000000
# 2 -0.011843 0.014449 -0.006870 0.000000 0.000000 0.000000
# 3 -0.011232 -0.006870 0.017620 0.000000 0.000000 0.000000
# 4 0.000000 0.000000 0.000000 0.044685 0.000000 0.000000
# 5 0.000000 0.000000 0.000000 0.000000 0.354789 0.000000
# 6 0.000000 0.000000 0.000000 0.000000 0.000000 0.083633
#
#
# Mechanical properties :
#
#
# Convention : Reuss Voigt Hill
#
# Bulk Modulus (GPa) = 27.26729 64.64293 45.95511
# Shear Modulus (GPa) = 7.67128 15.73594 11.70361
#
# Velocity S-wave (km/s) = 2.04309 2.92617 2.52356
# Velocity P-wave (km/s) = 4.51694 6.82577 5.78765
#
# Compressibility (1/GPa) = 0.03667397
#
# Stress axis : x y z
#
# Youngs Moduli (GPa) = 15.50542 69.20879 56.75524
#
# Poissons Ratio (x) = 0.81962 0.63745
# Poissons Ratio (y) = 0.18363 0.38990
# Poissons Ratio (z) = 0.17415 0.47545
#
# Static dielectric constant tensor:
#      x y z
#    x 1.622020 0.000000 0.000000 
#    y 0.000000 1.634170 0.000000 
#    z 0.000000 0.000000 1.628690 
# 
# From -- ./inp_files/12843.got.cif
#   From: 2010.05.17/outbox.cif.g08.bks.cpg/sg38_7_cif.got.tgz:12843.got - 2010.06.03 18:07:57.
