data_PCOD9357711
_publ_section_title
;
Structure prediction by ZEFSAII (Michael W. Deem and Ramdas Pophale) SiO2 
 PCOD9357711
Probable space group: A M M 2
;
_chemical_formula_sum "Si O2"
_cell_formula_units_Z 64
_cell_length_a 13.641299
_cell_length_b 27.613329
_cell_length_c 9.593466
_cell_angle_alpha 90.000000
_cell_angle_beta 90.000000
_cell_angle_gamma 90.000000
_cell_volume 3613.682864
_symmetry_space_group_name_H-M "A M M 2"
_symmetry_group_IT_number 38
_symmetry_cell_setting 'orthorhombic'
loop_
_space_group_symop_operation_xyz
x,y,z
-x,-y,z
-x,y,z
x,-y,z
x,1/2+y,1/2+z
-x,1/2-y,1/2+z
-x,1/2+y,1/2+z
x,1/2-y,1/2+z
loop_
_atom_site_type_symbol
_atom_site_label
_atom_site_fract_x
_atom_site_fract_y
_atom_site_fract_z
Si Si1 0.611960 0.100150 0.844380
Si Si2 0.886884 0.442316 0.460475
Si Si3 0.213324 0.444002 0.180268
Si Si4 0.228316 0.772167 0.102411
Si Si5 0.115296 0.283352 0.872336
Si Si6 0.279312 0.615815 0.617223
Si Si7 0.384106 0.188254 0.639496
Si Si8 0.254501 0.372595 0.931792
O O1 0.500000 0.087361 0.819414
O O2 0.684780 0.064764 0.762553
O O3 0.628748 0.153321 0.774331
O O4 0.637297 0.100241 0.007806
O O5 0.865626 0.500000 0.472560
O O6 0.864887 0.428840 0.298975
O O7 0.816830 0.411673 0.560001
O O8 0.000000 0.434203 0.493511
O O9 0.198490 0.500000 0.146930
O O10 0.217832 0.412294 0.041671
O O11 0.140838 0.770942 0.214053
O O12 0.266698 0.826642 0.098229
O O13 0.316180 0.735797 0.145541
O O14 0.178959 0.754294 0.961436
O O15 0.165524 0.335253 0.903624
O O16 0.000000 0.282549 0.900908
O O17 0.289913 0.607440 0.782378
O O18 0.500000 0.198681 0.624292
O O19 0.340952 0.157297 0.509528
#
# Coordination Sequence:
#
# PCOD9357711 Si02
#       8
#     8   8   8   8   8   8   8   8
#     4   9  18  33  53  76 101 134 175 212 252 305
#     4   9  19  36  56  76  99 132 173 213 256 308
#     4   9  18  35  57  77  99 130 170 216 259 304
#     4  10  20  34  50  75 103 135 179 213 252 309
#     4  10  20  34  50  69 101 139 174 213 255 303
#     4  10  20  33  50  76 109 135 163 211 261 307
#     4   9  18  35  55  74 103 141 179 220 257 296
#     4   9  20  34  50  77 108 136 170 210 262 321
#
# _framework density 17.710464999999999
#
# number of rings (size 3 to 8) (size 9 to 14) (size 15 to 20)
#    0.000    2.625    0.000    1.125    0.000    5.750 
#    0.000    7.500    0.000    1.500    0.000    3.500 
#    0.000    0.000    0.000    0.000    0.000    0.000 
#
# Total GULP energy -178343.713894 kJ/mol
# GULP energy per Si atom -5573.241059 kJ/mol
# Density = 1.767016 g / cm^3
# Si number density = 17.710465 Si / 1000 Ang^3
#
#
#
# Elastic Constant Matrix: (Units=GPa)
#
#
# Indices 1 2 3 4 5 6 
#
# 1 72.7264 7.1164 -2.6575 0.0000 0.0000 0.0000
# 2 7.1164 40.9675 18.8626 0.0000 0.0000 0.0000
# 3 -2.6575 18.8626 92.7296 0.0000 0.0000 0.0000
# 4 0.0000 0.0000 0.0000 16.4066 0.0000 0.0000
# 5 0.0000 0.0000 0.0000 0.0000 14.9840 0.0000
# 6 0.0000 0.0000 0.0000 0.0000 0.0000 17.4949
#
#
#
# Elastic Compliance Matrix: (Units=1/GPa)
#
#
# Indices 1 2 3 4 5 6 
#
# 1 0.014070 -0.002902 0.000993 0.000000 0.000000 0.000000
# 2 -0.002902 0.027530 -0.005683 0.000000 0.000000 0.000000
# 3 0.000993 -0.005683 0.011969 0.000000 0.000000 0.000000
# 4 0.000000 0.000000 0.000000 0.060951 0.000000 0.000000
# 5 0.000000 0.000000 0.000000 0.000000 0.066738 0.000000
# 6 0.000000 0.000000 0.000000 0.000000 0.000000 0.057160
#
#
# Mechanical properties :
#
#
# Convention : Reuss Voigt Hill
#
# Bulk Modulus (GPa) = 26.05075 28.11849 27.08462
# Shear Modulus (GPa) = 18.76904 21.98389 20.37646
#
# Velocity S-wave (km/s) = 3.25894 3.52702 3.39563
# Velocity P-wave (km/s) = 5.37607 5.70068 5.54075
#
# Compressibility (1/GPa) = 0.03838660
#
# Stress axis : x y z
#
# Youngs Moduli (GPa) = 71.07121 36.32360 83.55215
#
# Poissons Ratio (x) = 0.10540 -0.08301
# Poissons Ratio (y) = 0.20622 0.47485
# Poissons Ratio (z) = -0.07061 0.20644
#
# Static dielectric constant tensor:
#      x y z
#    x 1.580730 0.000000 0.000000 
#    y 0.000000 1.599530 0.000000 
#    z 0.000000 0.000000 1.605480 
# 
# From -- ./inp_files/4916.got.cif
#   From: 2010.05.17/outbox.cif.g08.bks.cpg/sg38_3_cif.got.tgz:4916.got - 2010.06.03 18:07:57.
