data_PCOD9357434
_publ_section_title
;
Structure prediction by ZEFSAII (Michael W. Deem and Ramdas Pophale) SiO2 
 PCOD9357434
Probable space group: A M M 2
;
_chemical_formula_sum "Si O2"
_cell_formula_units_Z 64
_cell_length_a 8.618710
_cell_length_b 31.680525
_cell_length_c 12.281004
_cell_angle_alpha 90.000000
_cell_angle_beta 90.000000
_cell_angle_gamma 90.000000
_cell_volume 3353.269901
_symmetry_space_group_name_H-M "A M M 2"
_symmetry_group_IT_number 38
_symmetry_cell_setting 'orthorhombic'
loop_
_space_group_symop_operation_xyz
x,y,z
-x,-y,z
-x,y,z
x,-y,z
x,1/2+y,1/2+z
-x,1/2-y,1/2+z
-x,1/2+y,1/2+z
x,1/2-y,1/2+z
loop_
_atom_site_type_symbol
_atom_site_label
_atom_site_fract_x
_atom_site_fract_y
_atom_site_fract_z
Si Si1 0.316038 0.329937 0.513200
Si Si2 0.685357 0.203053 0.776837
Si Si3 0.813489 0.453695 0.270412
Si Si4 0.187741 0.372665 0.133138
Si Si5 0.312520 0.546881 0.745867
Si Si6 0.316436 0.430697 0.502787
Si Si7 0.815708 0.295447 0.735194
Si Si8 0.187473 0.374326 0.881690
O O1 0.500000 0.321544 0.529223
O O2 0.265942 0.310035 0.398847
O O3 0.296448 0.380236 0.506403
O O4 0.224084 0.311682 0.614809
O O5 0.500000 0.199650 0.771430
O O6 0.755782 0.169508 0.692727
O O7 0.736714 0.250570 0.754038
O O8 0.758577 0.500000 0.232629
O O9 0.756238 0.413918 0.199870
O O10 0.766941 0.447874 0.396105
O O11 0.000000 0.453294 0.263147
O O12 0.000000 0.372754 0.134759
O O13 0.237910 0.374273 0.007391
O O14 0.500000 0.549931 0.746610
O O15 0.268186 0.500000 0.784632
O O16 0.263156 0.551970 0.619582
O O17 0.246718 0.584702 0.817664
O O18 0.500000 0.440021 0.492159
O O19 0.761563 0.331851 0.818991
O O20 0.000000 0.290481 0.747781
O O21 0.000000 0.374977 0.879338
#
# Coordination Sequence:
#
# PCOD9357434 Si02
#       8
#     8   8   8   8   8   8   8   8
#     4  10  21  39  63  90 119 154 195 240 292 350
#     4  11  24  41  62  90 120 153 197 243 294 351
#     4  10  21  36  57  86 118 154 196 242 292 346
#     4  10  22  41  61  84 118 157 198 243 293 347
#     4  10  21  37  59  87 118 154 194 239 293 348
#     4  10  19  36  60  86 119 153 190 237 291 348
#     4  11  24  40  61  89 120 154 197 244 295 351
#     4  10  23  41  60  85 116 155 198 242 291 345
#
# _framework density 19.085849
#
# number of rings (size 3 to 8) (size 9 to 14) (size 15 to 20)
#    0.000    1.750    2.500    1.125    1.750    4.500 
#    0.000    1.250    0.000    0.000    0.000    0.000 
#    0.000    0.000    0.000    0.000    0.000    0.000 
#
# Total GULP energy -178769.416000 kJ/mol
# GULP energy per Si atom -5586.544250 kJ/mol
# Density = 1.904241 g / cm^3
# Si number density = 19.085849 Si / 1000 Ang^3
#
#
#
# Elastic Constant Matrix: (Units=GPa)
#
#
# Indices 1 2 3 4 5 6 
#
# 1 8.1586 22.6544 22.1836 0.0000 0.0000 0.0000
# 2 22.6544 158.1624 86.1382 0.0000 0.0000 0.0000
# 3 22.1836 86.1382 150.5550 0.0000 0.0000 0.0000
# 4 0.0000 0.0000 0.0000 47.9447 0.0000 0.0000
# 5 0.0000 0.0000 0.0000 0.0000 25.4758 0.0000
# 6 0.0000 0.0000 0.0000 0.0000 0.0000 25.1646
#
#
#
# Elastic Compliance Matrix: (Units=1/GPa)
#
#
# Indices 1 2 3 4 5 6 
#
# 1 0.251359 -0.022999 -0.023878 0.000000 0.000000 0.000000
# 2 -0.022999 0.011289 -0.003070 0.000000 0.000000 0.000000
# 3 -0.023878 -0.003070 0.011917 0.000000 0.000000 0.000000
# 4 0.000000 0.000000 0.000000 0.020857 0.000000 0.000000
# 5 0.000000 0.000000 0.000000 0.000000 0.039253 0.000000
# 6 0.000000 0.000000 0.000000 0.000000 0.000000 0.039738
#
#
# Mechanical properties :
#
#
# Convention : Reuss Voigt Hill
#
# Bulk Modulus (GPa) = 5.72505 64.31425 35.01965
# Shear Modulus (GPa) = 9.38912 32.11031 20.74971
#
# Velocity S-wave (km/s) = 2.22038 4.10617 3.30082
# Velocity P-wave (km/s) = 3.09509 7.50009 5.73720
#
# Compressibility (1/GPa) = 0.17467097
#
# Stress axis : x y z
#
# Youngs Moduli (GPa) = 3.97837 88.58295 83.91475
#
# Poissons Ratio (x) = 2.03732 2.00372
# Poissons Ratio (y) = 0.09150 0.25762
# Poissons Ratio (z) = 0.09500 0.27195
#
# Static dielectric constant tensor:
#      x y z
#    x 1.654120 0.000000 0.000000 
#    y 0.000000 1.650310 0.000000 
#    z 0.000000 0.000000 1.638190 
# 
# From -- ./inp_files/8555.got.cif
#   From: 2010.05.17/outbox.cif.g08.bks.cpg/sg38_5_cif.got.tgz:8555.got - 2010.06.03 18:07:57.
