data_PCOD9357489
_publ_section_title
;
Structure prediction by ZEFSAII (Michael W. Deem and Ramdas Pophale) SiO2 
 PCOD9357489
Probable space group: A M M 2
;
_chemical_formula_sum "Si O2"
_cell_formula_units_Z 64
_cell_length_a 14.897873
_cell_length_b 14.303652
_cell_length_c 17.819260
_cell_angle_alpha 90.000000
_cell_angle_beta 90.000000
_cell_angle_gamma 90.000000
_cell_volume 3797.177229
_symmetry_space_group_name_H-M "A M M 2"
_symmetry_group_IT_number 38
_symmetry_cell_setting 'orthorhombic'
loop_
_space_group_symop_operation_xyz
x,y,z
-x,-y,z
-x,y,z
x,-y,z
x,1/2+y,1/2+z
-x,1/2-y,1/2+z
-x,1/2+y,1/2+z
x,1/2-y,1/2+z
loop_
_atom_site_type_symbol
_atom_site_label
_atom_site_fract_x
_atom_site_fract_y
_atom_site_fract_z
Si Si1 0.894513 0.388279 0.968910
Si Si2 0.805317 0.252062 0.225882
Si Si3 0.900782 0.399545 0.640431
Si Si4 0.251754 0.610245 0.844014
Si Si5 0.738581 0.291359 0.062132
Si Si6 0.399105 0.388432 0.968961
Si Si7 0.222900 0.394403 0.494101
Si Si8 0.105272 0.888453 0.844821
O O1 0.889800 0.500000 0.985458
O O2 0.841678 0.375483 0.890110
O O3 0.000000 0.361658 0.967647
O O4 0.832186 0.332445 0.027841
O O5 0.884452 0.186011 0.194693
O O6 0.747118 0.180493 0.275185
O O7 0.753345 0.281993 0.150754
O O8 0.845552 0.332590 0.278275
O O9 0.888832 0.500000 0.680196
O O10 0.836473 0.397744 0.569496
O O11 0.000000 0.395806 0.609217
O O12 0.258066 0.500000 0.824943
O O13 0.333204 0.634731 0.899823
O O14 0.717763 0.195125 0.016139
O O15 0.656269 0.357577 0.041676
O O16 0.500000 0.350326 0.963891
O O17 0.404652 0.500000 0.969016
O O18 0.261098 0.500000 0.483654
O O19 0.160391 0.373039 0.422196
O O20 0.000000 0.861353 0.852092
O O21 0.107572 0.000000 0.830524
#
# Coordination Sequence:
#
# PCOD9357489 Si02
#       8
#     8   8   8   8   8   8   8   8
#     4   9  18  32  50  71  97 133 175 216 253 287
#     4  11  21  30  43  68 101 131 153 189 248 300
#     4   9  17  29  45  65  90 125 169 208 238 272
#     4   9  18  33  52  76 102 125 156 199 247 298
#     4  10  20  32  50  74 100 129 161 197 240 291
#     4   9  18  36  62  83  95 115 153 200 245 289
#     4   9  18  32  48  64  87 126 173 211 234 260
#     4  10  20  31  42  59  88 130 176 211 233 262
#
# _framework density 16.854624999999999
#
# number of rings (size 3 to 8) (size 9 to 14) (size 15 to 20)
#    0.000    2.500    0.000    3.750    0.000    8.000 
#    0.000    3.125    0.000    0.375    0.000    0.000 
#    0.000    0.000    0.000    0.000    0.000    0.000 
#
# Total GULP energy -178182.425597 kJ/mol
# GULP energy per Si atom -5568.200800 kJ/mol
# Density = 1.681626 g / cm^3
# Si number density = 16.854625 Si / 1000 Ang^3
#
#
#
# Elastic Constant Matrix: (Units=GPa)
#
#
# Indices 1 2 3 4 5 6 
#
# 1 76.2655 8.3993 22.0577 0.0000 0.0000 0.0000
# 2 8.3993 39.2350 33.5588 0.0000 0.0000 0.0000
# 3 22.0577 33.5588 89.8187 0.0000 0.0000 0.0000
# 4 0.0000 0.0000 0.0000 21.8248 0.0000 0.0000
# 5 0.0000 0.0000 0.0000 0.0000 2.5353 0.0000
# 6 0.0000 0.0000 0.0000 0.0000 0.0000 46.7260
#
#
#
# Elastic Compliance Matrix: (Units=1/GPa)
#
#
# Indices 1 2 3 4 5 6 
#
# 1 0.014115 -0.000084 -0.003435 0.000000 0.000000 0.000000
# 2 -0.000084 0.037459 -0.013975 0.000000 0.000000 0.000000
# 3 -0.003435 -0.013975 0.017199 0.000000 0.000000 0.000000
# 4 0.000000 0.000000 0.000000 0.045819 0.000000 0.000000
# 5 0.000000 0.000000 0.000000 0.000000 0.394426 0.000000
# 6 0.000000 0.000000 0.000000 0.000000 0.000000 0.021401
#
#
# Mechanical properties :
#
#
# Convention : Reuss Voigt Hill
#
# Bulk Modulus (GPa) = 29.59926 37.03897 33.31911
# Shear Modulus (GPa) = 8.67050 23.63747 16.15398
#
# Velocity S-wave (km/s) = 2.27056 3.74897 3.09921
# Velocity P-wave (km/s) = 4.94708 6.38459 5.71124
#
# Compressibility (1/GPa) = 0.03378463
#
# Stress axis : x y z
#
# Youngs Moduli (GPa) = 70.84770 26.69612 58.14425
#
# Poissons Ratio (x) = 0.00223 0.19973
# Poissons Ratio (y) = 0.00592 0.81257
# Poissons Ratio (z) = 0.24337 0.37308
#
# Static dielectric constant tensor:
#      x y z
#    x 1.564640 0.000000 0.000000 
#    y 0.000000 1.659770 0.000000 
#    z 0.000000 0.000000 1.575370 
# 
# From -- ./inp_files/18505.got.cif
#   From: 2010.05.17/outbox.cif.g08.bks.cpg/sg38_10_cif.got.tgz:18505.got - 2010.06.03 18:07:57.
