data_PCOD9357742
_publ_section_title
;
Structure prediction by ZEFSAII (Michael W. Deem and Ramdas Pophale) SiO2 
 PCOD9357742
Probable space group: A M M 2
;
_chemical_formula_sum "Si O2"
_cell_formula_units_Z 64
_cell_length_a 7.892788
_cell_length_b 14.377042
_cell_length_c 24.907753
_cell_angle_alpha 90.000000
_cell_angle_beta 90.000000
_cell_angle_gamma 90.000000
_cell_volume 2826.405891
_symmetry_space_group_name_H-M "A M M 2"
_symmetry_group_IT_number 38
_symmetry_cell_setting 'orthorhombic'
loop_
_space_group_symop_operation_xyz
x,y,z
-x,-y,z
-x,y,z
x,-y,z
x,1/2+y,1/2+z
-x,1/2-y,1/2+z
-x,1/2+y,1/2+z
x,1/2-y,1/2+z
loop_
_atom_site_type_symbol
_atom_site_label
_atom_site_fract_x
_atom_site_fract_y
_atom_site_fract_z
Si Si1 0.192127 0.111225 0.036560
Si Si2 0.690878 0.889126 0.151664
Si Si3 0.794015 0.390643 0.151848
Si Si4 0.797675 0.104718 0.532200
Si Si5 0.194721 0.103288 0.269747
Si Si6 0.205286 0.801343 0.762053
Si Si7 0.704028 0.602088 0.366153
Si Si8 0.688204 0.741547 0.450462
O O1 0.225523 0.145142 0.097127
O O2 0.000000 0.136446 0.021764
O O3 0.208533 0.000000 0.034205
O O4 0.314231 0.160844 0.995468
O O5 0.500000 0.853316 0.159555
O O6 0.800288 0.882194 0.205192
O O7 0.676017 0.000000 0.143522
O O8 0.752231 0.500000 0.160214
O O9 0.734071 0.365046 0.091615
O O10 0.734781 0.328858 0.202178
O O11 0.000000 0.384509 0.152344
O O12 0.762852 0.172080 0.482710
O O13 0.000000 0.100038 0.537604
O O14 0.733959 0.000000 0.522401
O O15 0.272564 0.202447 0.285669
O O16 0.000000 0.099441 0.288201
O O17 0.270556 0.000000 0.280482
O O18 0.254620 0.879978 0.804287
O O19 0.000000 0.794660 0.760426
O O20 0.500000 0.602196 0.373066
O O21 0.766740 0.500000 0.383429
O O22 0.774640 0.688271 0.400902
O O23 0.500000 0.769486 0.433801
#
# Coordination Sequence:
#
# PCOD9357742 Si02
#       8
#     8   8   8   8   8   8   8   8
#     4  10  20  33  51  77 109 146 189 235 284 343
#     4   9  17  29  46  71 106 146 185 226 274 330
#     4   8  15  30  53  82 114 146 182 231 290 342
#     4   9  19  37  60  86 119 156 193 237 290 349
#     4   9  18  32  49  75 114 154 190 231 280 331
#     4  10  20  34  58  87 113 150 198 243 285 337
#     4  10  23  43  62  82 114 151 186 237 301 356
#     4  11  23  38  58  83 113 151 194 239 293 354
#
# _framework density 22.643598000000001
#
# number of rings (size 3 to 8) (size 9 to 14) (size 15 to 20)
#    0.000    2.500    0.000    2.625    1.750    5.250 
#    0.000    1.250    0.000    3.000    0.000    0.000 
#    0.000    0.000    0.000    0.000    0.000    0.000 
#
# Total GULP energy -178425.225739 kJ/mol
# GULP energy per Si atom -5575.788304 kJ/mol
# Density = 2.259206 g / cm^3
# Si number density = 22.643598 Si / 1000 Ang^3
#
#
#
# Elastic Constant Matrix: (Units=GPa)
#
#
# Indices 1 2 3 4 5 6 
#
# 1 36.0417 8.4803 -1.7912 0.0000 0.0000 0.0000
# 2 8.4803 140.2499 42.3944 0.0000 0.0000 0.0000
# 3 -1.7912 42.3944 76.0499 0.0000 0.0000 0.0000
# 4 0.0000 0.0000 0.0000 20.4047 0.0000 0.0000
# 5 0.0000 0.0000 0.0000 0.0000 20.7473 0.0000
# 6 0.0000 0.0000 0.0000 0.0000 0.0000 11.4224
#
#
#
# Elastic Compliance Matrix: (Units=1/GPa)
#
#
# Indices 1 2 3 4 5 6 
#
# 1 0.028386 -0.002307 0.001955 0.000000 0.000000 0.000000
# 2 -0.002307 0.008763 -0.004939 0.000000 0.000000 0.000000
# 3 0.001955 -0.004939 0.015949 0.000000 0.000000 0.000000
# 4 0.000000 0.000000 0.000000 0.049008 0.000000 0.000000
# 5 0.000000 0.000000 0.000000 0.000000 0.048199 0.000000
# 6 0.000000 0.000000 0.000000 0.000000 0.000000 0.087547
#
#
# Mechanical properties :
#
#
# Convention : Reuss Voigt Hill
#
# Bulk Modulus (GPa) = 23.52182 38.94538 31.23360
# Shear Modulus (GPa) = 19.03995 24.06543 21.55269
#
# Velocity S-wave (km/s) = 2.90289 3.26359 3.08851
# Velocity P-wave (km/s) = 4.65254 5.60696 5.15190
#
# Compressibility (1/GPa) = 0.04251372
#
# Stress axis : x y z
#
# Youngs Moduli (GPa) = 35.22906 114.12118 62.70134
#
# Poissons Ratio (x) = 0.26330 -0.12256
# Poissons Ratio (y) = 0.08128 0.30969
# Poissons Ratio (z) = -0.06886 0.56366
#
# Static dielectric constant tensor:
#      x y z
#    x 1.848180 0.000000 0.000000 
#    y 0.000000 1.919320 0.000000 
#    z 0.000000 0.000000 1.833560 
# 
# From -- ./inp_files/22183.got.cif
#   From: 2010.05.17/outbox.cif.g08.bks.cpg/sg38_12_cif.got.tgz:22183.got - 2010.06.03 18:07:57.
