data_PCOD9357219
_publ_section_title
;
Structure prediction by ZEFSAII (Michael W. Deem and Ramdas Pophale) SiO2 
 PCOD9357219
Probable space group: A M M 2
;
_chemical_formula_sum "Si O2"
_cell_formula_units_Z 64
_cell_length_a 8.930634
_cell_length_b 25.098615
_cell_length_c 15.454598
_cell_angle_alpha 90.000000
_cell_angle_beta 90.000000
_cell_angle_gamma 90.000000
_cell_volume 3464.094738
_symmetry_space_group_name_H-M "A M M 2"
_symmetry_group_IT_number 38
_symmetry_cell_setting 'orthorhombic'
loop_
_space_group_symop_operation_xyz
x,y,z
-x,-y,z
-x,y,z
x,-y,z
x,1/2+y,1/2+z
-x,1/2-y,1/2+z
-x,1/2+y,1/2+z
x,1/2-y,1/2+z
loop_
_atom_site_type_symbol
_atom_site_label
_atom_site_fract_x
_atom_site_fract_y
_atom_site_fract_z
Si Si1 0.677224 0.716818 0.656770
Si Si2 0.178118 0.390153 0.619728
Si Si3 0.320128 0.641489 0.948816
Si Si4 0.322429 0.938789 0.952175
Si Si5 0.178451 0.733237 0.842971
Si Si6 0.322194 0.659571 0.138385
Si Si7 0.320273 0.062470 0.293634
Si Si8 0.822220 0.644137 0.322303
O O1 0.500000 0.706221 0.655375
O O2 0.762581 0.670123 0.607457
O O3 0.737527 0.716259 0.755066
O O4 0.703315 0.776980 0.624659
O O5 0.242360 0.425520 0.542385
O O6 0.240291 0.411694 0.711015
O O7 0.000000 0.390819 0.619949
O O8 0.500000 0.650040 0.945128
O O9 0.238312 0.694785 0.917069
O O10 0.282455 0.595025 0.880713
O O11 0.282718 0.630675 0.048847
O O12 0.500000 0.931653 0.963305
O O13 0.261498 0.898797 0.880121
O O14 0.293725 0.000000 0.927822
O O15 0.210630 0.795785 0.855675
O O16 0.000000 0.727135 0.831472
O O17 0.500000 0.652963 0.155500
O O18 0.232016 0.642463 0.222937
O O19 0.500000 0.066957 0.281020
O O20 0.283117 0.000000 0.300714
O O21 0.000000 0.636056 0.327335
#
# Coordination Sequence:
#
# PCOD9357219 Si02
#       8
#     8   8   8   8   8   8   8   8
#     4  10  19  34  55  82 117 158 197 237 285 346
#     4  12  24  37  57  87 121 156 193 242 299 358
#     4  10  20  35  57  85 117 157 202 245 292 345
#     4  11  25  44  65  87 113 152 203 252 296 352
#     4  10  20  34  54  85 119 153 192 237 293 354
#     4   9  20  37  58  86 119 158 202 243 288 349
#     4  10  21  38  59  83 116 158 201 245 293 350
#     4  10  22  40  61  88 120 155 193 243 305 357
#
# _framework density 18.475247
#
# number of rings (size 3 to 8) (size 9 to 14) (size 15 to 20)
#    0.000    1.750    1.250    3.000    1.750    5.250 
#    0.000    0.625    0.000    2.250    0.000    0.000 
#    0.000    0.000    0.000    0.000    0.000    0.000 
#
# Total GULP energy -178789.780229 kJ/mol
# GULP energy per Si atom -5587.180632 kJ/mol
# Density = 1.843320 g / cm^3
# Si number density = 18.475247 Si / 1000 Ang^3
#
#
#
# Elastic Constant Matrix: (Units=GPa)
#
#
# Indices 1 2 3 4 5 6 
#
# 1 66.0756 61.2112 42.3922 0.0000 0.0000 0.0000
# 2 61.2112 95.1554 55.8402 0.0000 0.0000 0.0000
# 3 42.3922 55.8402 88.2013 0.0000 0.0000 0.0000
# 4 0.0000 0.0000 0.0000 25.4341 0.0000 0.0000
# 5 0.0000 0.0000 0.0000 0.0000 692.9974 0.0000
# 6 0.0000 0.0000 0.0000 0.0000 0.0000 18.8066
#
#
#
# Elastic Compliance Matrix: (Units=1/GPa)
#
#
# Indices 1 2 3 4 5 6 
#
# 1 0.038544 -0.022154 -0.004500 0.000000 0.000000 0.000000
# 2 -0.022154 0.029455 -0.008000 0.000000 0.000000 0.000000
# 3 -0.004500 -0.008000 0.018565 0.000000 0.000000 0.000000
# 4 0.000000 0.000000 0.000000 0.039317 0.000000 0.000000
# 5 0.000000 0.000000 0.000000 0.000000 0.001443 0.000000
# 6 0.000000 0.000000 0.000000 0.000000 0.000000 0.053173
#
#
# Mechanical properties :
#
#
# Convention : Reuss Voigt Hill
#
# Bulk Modulus (GPa) = 57.94842 63.14661 60.54752
# Shear Modulus (GPa) = 19.56511 153.44685 86.50598
#
# Velocity S-wave (km/s) = 3.25774 9.12336 6.85013
# Velocity P-wave (km/s) = 6.75160 12.05131 9.76776
#
# Compressibility (1/GPa) = 0.01725672
#
# Stress axis : x y z
#
# Youngs Moduli (GPa) = 25.94437 33.95031 53.86400
#
# Poissons Ratio (x) = 0.75213 0.24238
# Poissons Ratio (y) = 0.57477 0.43091
# Poissons Ratio (z) = 0.11675 0.27160
#
# Static dielectric constant tensor:
#      x y z
#    x 1.607790 0.000000 0.000000 
#    y 0.000000 1.632070 0.000000 
#    z 0.000000 0.000000 1.627370 
# 
# From -- ./inp_files/12796.got.cif
#   From: 2010.05.17/outbox.cif.g08.bks.cpg/sg38_7_cif.got.tgz:12796.got - 2010.06.03 18:07:57.
