data_PCOD9357439
_publ_section_title
;
Structure prediction by ZEFSAII (Michael W. Deem and Ramdas Pophale) SiO2 
 PCOD9357439
Probable space group: A M M 2
;
_chemical_formula_sum "Si O2"
_cell_formula_units_Z 48
_cell_length_a 7.662213
_cell_length_b 10.261690
_cell_length_c 28.979968
_cell_angle_alpha 90.000000
_cell_angle_beta 90.000000
_cell_angle_gamma 90.000000
_cell_volume 2278.615320
_symmetry_space_group_name_H-M "A M M 2"
_symmetry_group_IT_number 38
_symmetry_cell_setting 'orthorhombic'
loop_
_space_group_symop_operation_xyz
x,y,z
-x,-y,z
-x,y,z
x,-y,z
x,1/2+y,1/2+z
-x,1/2-y,1/2+z
-x,1/2+y,1/2+z
x,1/2-y,1/2+z
loop_
_atom_site_type_symbol
_atom_site_label
_atom_site_fract_x
_atom_site_fract_y
_atom_site_fract_z
Si Si1 0.295153 0.649640 0.354730
Si Si2 0.285804 0.347914 0.933018
Si Si3 0.291460 0.261693 0.034216
Si Si4 0.288962 0.000000 0.700685
Si Si5 0.206851 0.000000 0.088585
Si Si6 0.201876 0.256381 0.755926
Si Si7 0.286300 0.500000 0.095222
Si Si8 0.785495 0.000000 0.195236
O O1 0.500000 0.635954 0.365188
O O2 0.223636 0.500000 0.353462
O O3 0.223760 0.749298 0.393121
O O4 0.281726 0.719511 0.305179
O O5 0.500000 0.349677 0.931995
O O6 0.232376 0.500000 0.928097
O O7 0.228635 0.289380 0.982395
O O8 0.500000 0.276332 0.031422
O O9 0.256965 0.125127 0.058495
O O10 0.224771 0.373689 0.068063
O O11 0.219824 0.872701 0.725665
O O12 0.232856 0.000000 0.647877
O O13 0.500000 0.000000 0.703647
O O14 0.275486 0.000000 0.141692
O O15 0.000000 0.000000 0.093146
O O16 0.272444 0.374483 0.724788
O O17 0.000000 0.286531 0.765137
O O18 0.500000 0.500000 0.095196
O O19 0.000000 0.000000 0.193790
#
# Coordination Sequence:
#
# PCOD9357439 Si02
#       8
#     8   8   8   4   4   8   4   4
#     4  10  21  36  56  85 118 146 181 232 286 337
#     4   9  18  34  59  88 115 146 185 228 281 342
#     4  10  19  36  61  87 114 148 189 233 278 336
#     4  11  21  35  56  85 118 146 179 233 290 337
#     4  11  23  39  56  81 118 156 191 235 282 333
#     4  11  22  39  60  81 109 151 196 235 279 339
#     4   9  18  33  58  89 115 140 180 237 288 329
#     4   9  22  41  58  79 113 154 196 235 280 337
#
# _framework density 21.065424
#
# number of rings (size 3 to 8) (size 9 to 14) (size 15 to 20)
#    0.000    2.000    1.667    2.000    2.333    0.000 
#    0.000    5.833    0.000    1.000    0.000    0.000 
#    0.000    0.000    0.000    0.000    0.000    0.000 
#
# Total GULP energy -133989.598294 kJ/mol
# GULP energy per Si atom -5582.899929 kJ/mol
# Density = 2.101748 g / cm^3
# Si number density = 21.065424 Si / 1000 Ang^3
#
#
#
# Elastic Constant Matrix: (Units=GPa)
#
#
# Indices 1 2 3 4 5 6 
#
# 1 34.7743 -10.5559 -4.3094 0.0000 0.0000 0.0000
# 2 -10.5559 199.3727 116.9402 0.0000 0.0000 0.0000
# 3 -4.3094 116.9402 216.3325 0.0000 0.0000 0.0000
# 4 0.0000 0.0000 0.0000 69.6641 0.0000 0.0000
# 5 0.0000 0.0000 0.0000 0.0000 -18.8292 0.0000
# 6 0.0000 0.0000 0.0000 0.0000 0.0000 19.9130
#
#
#
# Elastic Compliance Matrix: (Units=1/GPa)
#
#
# Indices 1 2 3 4 5 6 
#
# 1 0.029247 0.001767 -0.000373 0.000000 0.000000 0.000000
# 2 0.001767 0.007451 -0.003993 0.000000 0.000000 0.000000
# 3 -0.000373 -0.003993 0.006773 0.000000 0.000000 0.000000
# 4 0.000000 0.000000 0.000000 0.014355 0.000000 0.000000
# 5 0.000000 0.000000 0.000000 0.000000 -0.053109 0.000000
# 6 0.000000 0.000000 0.000000 0.000000 0.000000 0.050219
#
#
# Mechanical properties :
#
#
# Convention : Reuss Voigt Hill
#
# Bulk Modulus (GPa) = 26.12651 72.73656 49.43153
# Shear Modulus (GPa) = 68.59639 37.37655 52.98647
#
# Velocity S-wave (km/s) = 5.71263 4.21682 5.02075
# Velocity P-wave (km/s) = 7.47942 7.63627 7.55825
#
# Compressibility (1/GPa) = 0.03827530
#
# Stress axis : x y z
#
# Youngs Moduli (GPa) = 34.19145 134.20886 147.63879
#
# Poissons Ratio (x) = -0.23715 0.05501
# Poissons Ratio (y) = -0.06042 0.58945
# Poissons Ratio (z) = 0.01274 0.53583
#
# Static dielectric constant tensor:
#      x y z
#    x 1.818570 0.000000 0.000000 
#    y 0.000000 1.648230 0.000000 
#    z 0.000000 0.000000 1.733850 
# 
# From -- ./inp_files/24453.got.cif
#   From: 2010.05.17/outbox.cif.g08.bks.cpg/sg38_13_cif.got.tgz:24453.got - 2010.06.03 18:07:57.
