data_PCOD9357509
_publ_section_title
;
Structure prediction by ZEFSAII (Michael W. Deem and Ramdas Pophale) SiO2 
 PCOD9357509
Probable space group: A M M 2
;
_chemical_formula_sum "Si O2"
_cell_formula_units_Z 48
_cell_length_a 15.630205
_cell_length_b 7.464541
_cell_length_c 19.750257
_cell_angle_alpha 90.000000
_cell_angle_beta 90.000000
_cell_angle_gamma 90.000000
_cell_volume 2304.308029
_symmetry_space_group_name_H-M "A M M 2"
_symmetry_group_IT_number 38
_symmetry_cell_setting 'orthorhombic'
loop_
_space_group_symop_operation_xyz
x,y,z
-x,-y,z
-x,y,z
x,-y,z
x,1/2+y,1/2+z
-x,1/2-y,1/2+z
-x,1/2+y,1/2+z
x,1/2-y,1/2+z
loop_
_atom_site_type_symbol
_atom_site_label
_atom_site_fract_x
_atom_site_fract_y
_atom_site_fract_z
Si Si1 0.255911 0.789122 0.334370
Si Si2 0.902515 0.281709 0.582999
Si Si3 0.402614 0.784560 0.433332
Si Si4 0.902820 0.783968 0.929247
Si Si5 0.248631 0.279964 0.680916
Si Si6 0.403623 0.713573 0.588435
O O1 0.333394 0.714701 0.379977
O O2 0.168137 0.771927 0.375843
O O3 0.248476 0.717735 0.258348
O O4 0.273824 0.000000 0.326749
O O5 0.901729 0.500000 0.582822
O O6 0.881175 0.225442 0.506030
O O7 0.833814 0.222196 0.637846
O O8 0.000000 0.226596 0.597697
O O9 0.500000 0.718604 0.423051
O O10 0.377015 0.743720 0.510617
O O11 0.405121 0.000000 0.427877
O O12 0.000000 0.724306 0.913849
O O13 0.903740 0.000000 0.929834
O O14 0.247548 0.500000 0.680656
O O15 0.333312 0.220205 0.640900
O O16 0.500000 0.785992 0.596883
O O17 0.408259 0.500000 0.597898
#
# Coordination Sequence:
#
# PCOD9357509 Si02
#       6
#     8   8   8   8   8   8
#     4  10  20  31  46  71  99 127 157 190 234 285
#     4   8  14  26  45  66  86 113 150 187 223 266
#     4   9  18  32  48  67  95 129 160 192 234 283
#     4   9  18  33  52  71  92 122 158 195 237 282
#     4   9  17  28  43  67  96 120 146 186 233 275
#     4   9  17  30  50  72  90 115 157 203 237 269
#
# _framework density 20.830549999999999
#
# number of rings (size 3 to 8) (size 9 to 14) (size 15 to 20)
#    0.000    3.000    0.000    2.000    0.000    3.667 
#    0.000    5.833    0.000    1.000    0.000    4.667 
#    0.000    0.000    0.000    0.000    0.000    0.000 
#
# Total GULP energy -133957.652153 kJ/mol
# GULP energy per Si atom -5581.568840 kJ/mol
# Density = 2.078314 g / cm^3
# Si number density = 20.830550 Si / 1000 Ang^3
#
#
#
# Elastic Constant Matrix: (Units=GPa)
#
#
# Indices 1 2 3 4 5 6 
#
# 1 150.0069 -0.5655 150.1181 0.0000 0.0000 0.0000
# 2 -0.5655 59.0440 0.4053 0.0000 0.0000 0.0000
# 3 150.1181 0.4053 215.6329 0.0000 0.0000 0.0000
# 4 0.0000 0.0000 0.0000 38.1536 0.0000 0.0000
# 5 0.0000 0.0000 0.0000 0.0000 -15.7615 0.0000
# 6 0.0000 0.0000 0.0000 0.0000 0.0000 3.6830
#
#
#
# Elastic Compliance Matrix: (Units=1/GPa)
#
#
# Indices 1 2 3 4 5 6 
#
# 1 0.021985 0.000316 -0.015306 0.000000 0.000000 0.000000
# 2 0.000316 0.016941 -0.000252 0.000000 0.000000 0.000000
# 3 -0.015306 -0.000252 0.015293 0.000000 0.000000 0.000000
# 4 0.000000 0.000000 0.000000 0.026210 0.000000 0.000000
# 5 0.000000 0.000000 0.000000 0.000000 -0.063446 0.000000
# 6 0.000000 0.000000 0.000000 0.000000 0.000000 0.271520
#
#
# Mechanical properties :
#
#
# Convention : Reuss Voigt Hill
#
# Bulk Modulus (GPa) = 42.13012 80.51108 61.32060
# Shear Modulus (GPa) = 15.29526 23.53008 19.41267
#
# Velocity S-wave (km/s) = 2.71268 3.36459 3.05607
# Velocity P-wave (km/s) = 5.48458 7.33678 6.47723
#
# Compressibility (1/GPa) = 0.02373599
#
# Stress axis : x y z
#
# Youngs Moduli (GPa) = 45.48633 59.02740 65.38749
#
# Poissons Ratio (x) = -0.01863 1.00080
# Poissons Ratio (y) = -0.01436 0.01645
# Poissons Ratio (z) = 0.69620 0.01485
#
# Static dielectric constant tensor:
#      x y z
#    x 1.731850 0.000000 0.000000 
#    y 0.000000 1.805440 0.000000 
#    z 0.000000 0.000000 1.704310 
# 
# From -- ./inp_files/14482.got.cif
#   From: 2010.05.17/outbox.cif.g08.bks.cpg/sg38_8_cif.got.tgz:14482.got - 2010.06.03 18:07:57.
