data_PCOD9357036
_publ_section_title
;
Structure prediction by ZEFSAII (Michael W. Deem and Ramdas Pophale) SiO2 
 PCOD9357036
Probable space group: A M M 2
;
_chemical_formula_sum "Si O2"
_cell_formula_units_Z 64
_cell_length_a 8.250591
_cell_length_b 31.124757
_cell_length_c 15.032744
_cell_angle_alpha 90.000000
_cell_angle_beta 90.000000
_cell_angle_gamma 90.000000
_cell_volume 3860.373182
_symmetry_space_group_name_H-M "A M M 2"
_symmetry_group_IT_number 38
_symmetry_cell_setting 'orthorhombic'
loop_
_space_group_symop_operation_xyz
x,y,z
-x,-y,z
-x,y,z
x,-y,z
x,1/2+y,1/2+z
-x,1/2-y,1/2+z
-x,1/2+y,1/2+z
x,1/2-y,1/2+z
loop_
_atom_site_type_symbol
_atom_site_label
_atom_site_fract_x
_atom_site_fract_y
_atom_site_fract_z
Si Si1 0.697057 0.703122 0.078560
Si Si2 0.693785 0.549020 0.284812
Si Si3 0.693661 0.211622 0.186569
Si Si4 0.809929 0.364477 0.218834
Si Si5 0.813511 0.133726 0.071299
Si Si6 0.803507 0.548858 0.487583
Si Si7 0.686307 0.674855 0.399432
Si Si8 0.693614 0.723225 0.884395
O O1 0.500000 0.704038 0.077922
O O2 0.752052 0.746769 0.130141
O O3 0.754358 0.661774 0.132838
O O4 0.756117 0.703357 0.976495
O O5 0.500000 0.551452 0.277576
O O6 0.745707 0.500000 0.265901
O O7 0.771397 0.585002 0.222420
O O8 0.740872 0.557948 0.387787
O O9 0.500000 0.217336 0.192652
O O10 0.727641 0.167444 0.135611
O O11 0.759922 0.210811 0.287424
O O12 0.715301 0.344600 0.302789
O O13 0.000000 0.357796 0.232833
O O14 0.000000 0.130930 0.099250
O O15 0.747555 0.085522 0.056057
O O16 0.800282 0.154020 0.972778
O O17 0.755994 0.500000 0.510277
O O18 0.000000 0.550851 0.484238
O O19 0.500000 0.667173 0.427395
O O20 0.712198 0.725621 0.394196
O O21 0.500000 0.714288 0.882578
#
# Coordination Sequence:
#
# PCOD9357036 Si02
#       8
#     8   8   8   8   8   8   8   8
#     4  10  19  34  53  71  95 131 174 211 243 294
#     4  10  20  33  51  74  98 129 169 206 242 294
#     4  10  19  33  52  72  97 133 172 207 249 297
#     4  12  23  33  47  74 105 136 167 203 255 303
#     4  11  21  31  46  74 103 132 168 206 252 301
#     4   9  18  32  48  68  99 134 164 202 252 300
#     4  11  19  32  51  70  97 135 174 208 241 289
#     4   9  18  33  51  71  94 129 174 212 247 285
#
# _framework density 16.578709
#
# number of rings (size 3 to 8) (size 9 to 14) (size 15 to 20)
#    0.000    1.750    3.750    2.250    0.000    1.750 
#    0.000    0.625    0.000    0.000    0.000    0.875 
#    0.000    5.000    0.000    0.000    0.000    0.000 
#
# Total GULP energy -178500.916284 kJ/mol
# GULP energy per Si atom -5578.153634 kJ/mol
# Density = 1.654097 g / cm^3
# Si number density = 16.578709 Si / 1000 Ang^3
#
#
#
# Elastic Constant Matrix: (Units=GPa)
#
#
# Indices 1 2 3 4 5 6 
#
# 1 13.4427 15.0282 0.0263 0.0000 0.0000 0.0000
# 2 15.0282 80.0001 54.9050 0.0000 0.0000 0.0000
# 3 0.0263 54.9050 92.9260 0.0000 0.0000 0.0000
# 4 0.0000 0.0000 0.0000 21.5044 0.0000 0.0000
# 5 0.0000 0.0000 0.0000 0.0000 28.4995 0.0000
# 6 0.0000 0.0000 0.0000 0.0000 0.0000 14.8565
#
#
#
# Elastic Compliance Matrix: (Units=1/GPa)
#
#
# Indices 1 2 3 4 5 6 
#
# 1 0.114892 -0.036267 0.021396 0.000000 0.000000 0.000000
# 2 -0.036267 0.032474 -0.019177 0.000000 0.000000 0.000000
# 3 0.021396 -0.019177 0.022086 0.000000 0.000000 0.000000
# 4 0.000000 0.000000 0.000000 0.046502 0.000000 0.000000
# 5 0.000000 0.000000 0.000000 0.000000 0.035088 0.000000
# 6 0.000000 0.000000 0.000000 0.000000 0.000000 0.067310
#
#
# Mechanical properties :
#
#
# Convention : Reuss Voigt Hill
#
# Bulk Modulus (GPa) = 9.86627 36.25421 23.06024
# Shear Modulus (GPa) = 11.89813 20.73270 16.31542
#
# Velocity S-wave (km/s) = 2.68185 3.54016 3.14047
# Velocity P-wave (km/s) = 3.94384 6.21496 5.20479
#
# Compressibility (1/GPa) = 0.10135545
#
# Stress axis : x y z
#
# Youngs Moduli (GPa) = 8.70385 30.79375 45.27789
#
# Poissons Ratio (x) = 1.11679 -0.96874
# Poissons Ratio (y) = 0.31566 0.86829
# Poissons Ratio (z) = -0.18622 0.59053
#
# Static dielectric constant tensor:
#      x y z
#    x 1.566470 0.000000 0.000000 
#    y 0.000000 1.576700 0.000000 
#    z 0.000000 0.000000 1.551050 
# 
# From -- ./inp_files/13043.got.cif
#   From: 2010.05.17/outbox.cif.g08.bks.cpg/sg38_7_cif.got.tgz:13043.got - 2010.06.03 18:07:57.
