data_PCOD9357653
_publ_section_title
;
Structure prediction by ZEFSAII (Michael W. Deem and Ramdas Pophale) SiO2 
 PCOD9357653
Probable space group: A M M 2
;
_chemical_formula_sum "Si O2"
_cell_formula_units_Z 48
_cell_length_a 8.172520
_cell_length_b 33.591057
_cell_length_c 7.154118
_cell_angle_alpha 90.000000
_cell_angle_beta 90.000000
_cell_angle_gamma 90.000000
_cell_volume 1963.974122
_symmetry_space_group_name_H-M "A M M 2"
_symmetry_group_IT_number 38
_symmetry_cell_setting 'orthorhombic'
loop_
_space_group_symop_operation_xyz
x,y,z
-x,-y,z
-x,y,z
x,-y,z
x,1/2+y,1/2+z
-x,1/2-y,1/2+z
-x,1/2+y,1/2+z
x,1/2-y,1/2+z
loop_
_atom_site_type_symbol
_atom_site_label
_atom_site_fract_x
_atom_site_fract_y
_atom_site_fract_z
Si Si1 0.306599 0.374960 0.840820
Si Si2 0.192011 0.290320 0.540307
Si Si3 0.189272 0.629097 0.414174
Si Si4 0.305634 0.456385 0.418582
Si Si5 0.685693 0.794428 0.443843
Si Si6 0.192122 0.957588 0.345045
O O1 0.500000 0.370109 0.806332
O O2 0.213293 0.373285 0.642111
O O3 0.252693 0.339401 0.977933
O O4 0.278089 0.418614 0.920036
O O5 0.242322 0.324266 0.389464
O O6 0.209515 0.244163 0.489079
O O7 0.307811 0.295026 0.718156
O O8 0.000000 0.297446 0.584475
O O9 0.268334 0.588018 0.341325
O O10 0.000000 0.626619 0.364327
O O11 0.500000 0.456930 0.449780
O O12 0.261203 0.500000 0.331503
O O13 0.217934 0.457037 0.620889
O O14 0.500000 0.789268 0.512245
O O15 0.000000 0.955515 0.385827
O O16 0.259719 0.000000 0.409373
#
# Coordination Sequence:
#
# PCOD9357653 Si02
#       6
#     8   8   8   8   8   8
#     4   9  16  25  38  56  79 109 143 178 218 263
#     4  10  20  33  49  69  93 122 156 193 233 276
#     4   9  16  25  38  56  79 109 143 178 218 263
#     4   9  15  21  31  49  74 105 139 173 211 257
#     4  10  20  33  49  69  93 122 156 193 233 276
#     4   9  15  21  31  49  74 105 139 173 211 257
#
# _framework density 24.440238999999998
#
# number of rings (size 3 to 8) (size 9 to 14) (size 15 to 20)
#    0.000    2.667    0.000    5.000    0.000    6.000 
#    0.000    0.000    0.000    0.000    0.000    0.000 
#    0.000    1.333    0.000    4.333    0.000   18.667 
#
# Total GULP energy -133745.557809 kJ/mol
# GULP energy per Si atom -5572.731575 kJ/mol
# Density = 2.438461 g / cm^3
# Si number density = 24.440239 Si / 1000 Ang^3
#
#
#
# Elastic Constant Matrix: (Units=GPa)
#
#
# Indices 1 2 3 4 5 6 
#
# 1 63.2934 34.6021 -13.8036 0.0000 0.0000 0.0000
# 2 34.6021 239.9842 -33.8537 0.0000 0.0000 0.0000
# 3 -13.8036 -33.8537 30.7531 0.0000 0.0000 0.0000
# 4 0.0000 0.0000 0.0000 -3.4898 0.0000 0.0000
# 5 0.0000 0.0000 0.0000 0.0000 -0.2559 0.0000
# 6 0.0000 0.0000 0.0000 0.0000 0.0000 44.3713
#
#
#
# Elastic Compliance Matrix: (Units=1/GPa)
#
#
# Indices 1 2 3 4 5 6 
#
# 1 0.018103 -0.001733 0.006218 0.000000 0.000000 0.000000
# 2 -0.001733 0.005099 0.004835 0.000000 0.000000 0.000000
# 3 0.006218 0.004835 0.040630 0.000000 0.000000 0.000000
# 4 0.000000 0.000000 0.000000 -0.286546 0.000000 0.000000
# 5 0.000000 0.000000 0.000000 0.000000 -3.907351 0.000000
# 6 0.000000 0.000000 0.000000 0.000000 0.000000 0.022537
#
#
# Mechanical properties :
#
#
# Convention : Reuss Voigt Hill
#
# Bulk Modulus (GPa) = 12.12535 34.21336 23.16935
# Shear Modulus (GPa) = -1.21991 31.26418 15.02214
#
# Velocity S-wave (km/s) = -0.70726 3.58048 2.48190
# Velocity P-wave (km/s) = 2.07486 5.57874 4.20876
#
# Compressibility (1/GPa) = 0.08247188
#
# Stress axis : x y z
#
# Youngs Moduli (GPa) = 55.23972 196.12125 24.61208
#
# Poissons Ratio (x) = 0.33989 -0.15303
# Poissons Ratio (y) = 0.09573 -0.11900
# Poissons Ratio (z) = -0.34347 -0.94826
#
# Static dielectric constant tensor:
#      x y z
#    x 1.830560 0.000000 0.000000 
#    y 0.000000 2.168980 0.000000 
#    z 0.000000 0.000000 2.040390 
# 
# From -- ./inp_files/8383.got.cif
#   From: 2010.05.17/outbox.cif.g08.bks.cpg/sg38_5_cif.got.tgz:8383.got - 2010.06.03 18:07:57.
