data_PCOD9357323
_publ_section_title
;
Structure prediction by ZEFSAII (Michael W. Deem and Ramdas Pophale) SiO2 
 PCOD9357323
Probable space group: A M M 2
;
_chemical_formula_sum "Si O2"
_cell_formula_units_Z 56
_cell_length_a 15.289163
_cell_length_b 14.480360
_cell_length_c 12.877836
_cell_angle_alpha 90.000000
_cell_angle_beta 90.000000
_cell_angle_gamma 90.000000
_cell_volume 2851.057393
_symmetry_space_group_name_H-M "A M M 2"
_symmetry_group_IT_number 38
_symmetry_cell_setting 'orthorhombic'
loop_
_space_group_symop_operation_xyz
x,y,z
-x,-y,z
-x,y,z
x,-y,z
x,1/2+y,1/2+z
-x,1/2-y,1/2+z
-x,1/2+y,1/2+z
x,1/2-y,1/2+z
loop_
_atom_site_type_symbol
_atom_site_label
_atom_site_fract_x
_atom_site_fract_y
_atom_site_fract_z
Si Si1 0.399136 0.100107 0.560050
Si Si2 0.824885 0.106685 0.404904
Si Si3 0.101937 0.106981 0.855582
Si Si4 0.367562 0.604303 0.825487
Si Si5 0.783453 0.793227 0.027069
Si Si6 0.602029 0.711099 0.616606
Si Si7 0.097711 0.715252 0.722816
O O1 0.500000 0.088532 0.587066
O O2 0.397162 0.133875 0.440528
O O3 0.368441 0.182187 0.631763
O O4 0.354499 0.000000 0.564074
O O5 0.736477 0.102613 0.336965
O O6 0.802565 0.186267 0.490421
O O7 0.893987 0.150910 0.325143
O O8 0.844057 0.000000 0.438024
O O9 0.110845 0.179650 0.761770
O O10 0.000000 0.114919 0.890779
O O11 0.117428 0.000000 0.828749
O O12 0.168181 0.142841 0.943137
O O13 0.399659 0.500000 0.812065
O O14 0.394903 0.662278 0.727205
O O15 0.680925 0.820078 0.040869
O O16 0.830885 0.807485 0.136829
O O17 0.500000 0.706755 0.579673
O O18 0.000000 0.706124 0.679008
#
# Coordination Sequence:
#
# PCOD9357323 Si02
#       7
#     8   8   8   8   8   8   8
#     4   9  18  34  56  80 107 143 188 234 279 331
#     4  10  21  37  59  86 116 148 187 236 286 338
#     4   9  20  39  60  83 113 150 188 225 276 344
#     4  10  19  35  56  78 107 146 189 230 277 333
#     4  11  21  36  59  85 117 148 191 235 282 335
#     4  11  22  34  55  85 116 150 192 240 286 331
#     4  10  21  38  60  86 117 150 185 233 285 338
#
# _framework density 19.641835
#
# number of rings (size 3 to 8) (size 9 to 14) (size 15 to 20)
#    0.000    2.000    2.857    0.857    0.000    3.429 
#    0.000    0.000    0.000    0.857    0.000    2.000 
#    0.000    0.000    0.000    0.000    0.000    0.000 
#
# Total GULP energy -155868.936038 kJ/mol
# GULP energy per Si atom -5566.747716 kJ/mol
# Density = 1.959713 g / cm^3
# Si number density = 19.641835 Si / 1000 Ang^3
#
#
#
# Elastic Constant Matrix: (Units=GPa)
#
#
# Indices 1 2 3 4 5 6 
#
# 1 84.1925 -2.2996 3.5802 0.0000 0.0000 0.0000
# 2 -2.2996 65.6488 14.6201 0.0000 0.0000 0.0000
# 3 3.5802 14.6201 39.0681 0.0000 0.0000 0.0000
# 4 0.0000 0.0000 0.0000 20.8541 0.0000 0.0000
# 5 0.0000 0.0000 0.0000 0.0000 13.6838 0.0000
# 6 0.0000 0.0000 0.0000 0.0000 0.0000 18.2078
#
#
#
# Elastic Compliance Matrix: (Units=1/GPa)
#
#
# Indices 1 2 3 4 5 6 
#
# 1 0.011955 0.000723 -0.001366 0.000000 0.000000 0.000000
# 2 0.000723 0.016661 -0.006301 0.000000 0.000000 0.000000
# 3 -0.001366 -0.006301 0.028080 0.000000 0.000000 0.000000
# 4 0.000000 0.000000 0.000000 0.047952 0.000000 0.000000
# 5 0.000000 0.000000 0.000000 0.000000 0.073079 0.000000
# 6 0.000000 0.000000 0.000000 0.000000 0.000000 0.054922
#
#
# Mechanical properties :
#
#
# Convention : Reuss Voigt Hill
#
# Bulk Modulus (GPa) = 23.36043 24.52342 23.94193
# Shear Modulus (GPa) = 19.17126 22.08304 20.62715
#
# Velocity S-wave (km/s) = 3.12756 3.35668 3.24414
# Velocity P-wave (km/s) = 4.99612 5.24742 5.12331
#
# Compressibility (1/GPa) = 0.04280743
#
# Stress axis : x y z
#
# Youngs Moduli (GPa) = 83.64432 60.01970 35.61308
#
# Poissons Ratio (x) = -0.04340 0.04865
# Poissons Ratio (y) = -0.06048 0.22441
# Poissons Ratio (z) = 0.11427 0.37820
#
# Static dielectric constant tensor:
#      x y z
#    x 1.740760 0.000000 0.000000 
#    y 0.000000 1.823840 0.000000 
#    z 0.000000 0.000000 1.655160 
# 
# From -- ./inp_files/10113.got.cif
#   From: 2010.05.17/outbox.cif.g08.bks.cpg/sg38_6_cif.got.tgz:10113.got - 2010.06.03 18:07:57.
