data_PCOD9357348
_publ_section_title
;
Structure prediction by ZEFSAII (Michael W. Deem and Ramdas Pophale) SiO2 
 PCOD9357348
Probable space group: A M M 2
;
_chemical_formula_sum "Si O2"
_cell_formula_units_Z 40
_cell_length_a 7.680233
_cell_length_b 29.304719
_cell_length_c 8.142213
_cell_angle_alpha 90.000000
_cell_angle_beta 90.000000
_cell_angle_gamma 90.000000
_cell_volume 1832.544023
_symmetry_space_group_name_H-M "A M M 2"
_symmetry_group_IT_number 38
_symmetry_cell_setting 'orthorhombic'
loop_
_space_group_symop_operation_xyz
x,y,z
-x,-y,z
-x,y,z
x,-y,z
x,1/2+y,1/2+z
-x,1/2-y,1/2+z
-x,1/2+y,1/2+z
x,1/2-y,1/2+z
loop_
_atom_site_type_symbol
_atom_site_label
_atom_site_fract_x
_atom_site_fract_y
_atom_site_fract_z
Si Si1 0.713174 0.388060 0.281980
Si Si2 0.704866 0.296610 0.117613
Si Si3 0.286957 0.947293 0.468624
Si Si4 0.699900 0.900234 0.139235
Si Si5 0.801882 0.802451 0.245315
O O1 0.500000 0.388989 0.289152
O O2 0.763349 0.335719 0.244200
O O3 0.777875 0.405551 0.457946
O O4 0.768409 0.418252 0.126784
O O5 0.500000 0.303910 0.087353
O O6 0.731187 0.246012 0.185229
O O7 0.794166 0.302833 0.942372
O O8 0.500000 0.944941 0.467443
O O9 0.222769 0.925355 0.297839
O O10 0.237415 0.000000 0.481388
O O11 0.500000 0.916336 0.129089
O O12 0.701958 0.846314 0.178055
O O13 0.000000 0.806675 0.188824
#
# Coordination Sequence:
#
# PCOD9357348 Si02
#       5
#     8   8   8   8   8
#     4   9  18  32  54  83 113 148 192 239 290 349
#     4  11  21  37  58  81 114 159 203 243 291 360
#     4   9  17  31  54  87 121 149 190 251 304 347
#     4  10  19  35  58  83 115 157 198 238 295 363
#     4  12  24  37  55  85 120 154 196 250 302 354
#
# _framework density 21.827579
#
# number of rings (size 3 to 8) (size 9 to 14) (size 15 to 20)
#    0.000    1.800    2.000    3.600    0.000    2.400 
#    0.000    5.000    0.000    0.600    0.000    0.000 
#    0.000    0.000    0.000    0.000    0.000    0.000 
#
# Total GULP energy -111771.413927 kJ/mol
# GULP energy per Si atom -5588.570696 kJ/mol
# Density = 2.177790 g / cm^3
# Si number density = 21.827579 Si / 1000 Ang^3
#
#
#
# Elastic Constant Matrix: (Units=GPa)
#
#
# Indices 1 2 3 4 5 6 
#
# 1 47.4731 -2.7575 -3.2323 0.0000 0.0000 0.0000
# 2 -2.7575 68.4076 22.0499 0.0000 0.0000 0.0000
# 3 -3.2323 22.0499 145.0773 0.0000 0.0000 0.0000
# 4 0.0000 0.0000 0.0000 25.6013 0.0000 0.0000
# 5 0.0000 0.0000 0.0000 0.0000 -1.5101 0.0000
# 6 0.0000 0.0000 0.0000 0.0000 0.0000 -23.8365
#
#
#
# Elastic Compliance Matrix: (Units=1/GPa)
#
#
# Indices 1 2 3 4 5 6 
#
# 1 0.021132 0.000736 0.000359 0.000000 0.000000 0.000000
# 2 0.000736 0.015397 -0.002324 0.000000 0.000000 0.000000
# 3 0.000359 -0.002324 0.007254 0.000000 0.000000 0.000000
# 4 0.000000 0.000000 0.000000 0.039061 0.000000 0.000000
# 5 0.000000 0.000000 0.000000 0.000000 -0.662186 0.000000
# 6 0.000000 0.000000 0.000000 0.000000 0.000000 -0.041952
#
#
# Mechanical properties :
#
#
# Convention : Reuss Voigt Hill
#
# Bulk Modulus (GPa) = 24.19819 32.56424 28.38122
# Shear Modulus (GPa) = -8.26361 16.37744 4.05692
#
# Velocity S-wave (km/s) = -1.94784 2.74215 1.36479
# Velocity P-wave (km/s) = 2.45995 4.99771 3.93881
#
# Compressibility (1/GPa) = 0.04132540
#
# Stress axis : x y z
#
# Youngs Moduli (GPa) = 47.32214 64.94792 137.85393
#
# Poissons Ratio (x) = -0.04781 -0.04948
# Poissons Ratio (y) = -0.03484 0.32034
# Poissons Ratio (z) = -0.01698 0.15092
#
# Static dielectric constant tensor:
#      x y z
#    x 1.829860 0.000000 0.000000 
#    y 0.000000 1.752480 0.000000 
#    z 0.000000 0.000000 1.785840 
# 
# From -- ./inp_files/3445.got.cif
#   From: 2010.05.17/outbox.cif.g08.bks.cpg/sg38_2_cif.got.tgz:3445.got - 2010.06.03 18:07:57.
