data_PCOD9357656
_publ_section_title
;
Structure prediction by ZEFSAII (Michael W. Deem and Ramdas Pophale) SiO2 
 PCOD9357656
Probable space group: A M M 2
;
_chemical_formula_sum "Si O2"
_cell_formula_units_Z 56
_cell_length_a 14.641342
_cell_length_b 9.085855
_cell_length_c 24.739800
_cell_angle_alpha 90.000000
_cell_angle_beta 90.000000
_cell_angle_gamma 90.000000
_cell_volume 3291.113586
_symmetry_space_group_name_H-M "A M M 2"
_symmetry_group_IT_number 38
_symmetry_cell_setting 'orthorhombic'
loop_
_space_group_symop_operation_xyz
x,y,z
-x,-y,z
-x,y,z
x,-y,z
x,1/2+y,1/2+z
-x,1/2-y,1/2+z
-x,1/2+y,1/2+z
x,1/2-y,1/2+z
loop_
_atom_site_type_symbol
_atom_site_label
_atom_site_fract_x
_atom_site_fract_y
_atom_site_fract_z
Si Si1 0.000000 0.666076 0.252610
Si Si2 0.810846 0.824287 0.250727
Si Si3 0.107139 0.676979 0.935032
Si Si4 0.188761 0.824343 0.124913
Si Si5 0.245409 0.174053 0.852528
Si Si6 0.393575 0.673978 0.443388
Si Si7 0.000000 0.334425 0.122420
Si Si8 0.741333 0.825151 0.524074
O O1 0.090434 0.756483 0.265611
O O2 0.000000 0.500000 0.275074
O O3 0.000000 0.653359 0.187491
O O4 0.791863 0.787130 0.187837
O O5 0.745526 0.752310 0.294851
O O6 0.812972 0.000000 0.255439
O O7 0.111556 0.500000 0.926945
O O8 0.161130 0.756255 0.886410
O O9 0.000000 0.717891 0.939098
O O10 0.167410 0.710757 0.988560
O O11 0.256414 0.755972 0.081349
O O12 0.091028 0.754118 0.109590
O O13 0.184860 0.000000 0.120797
O O14 0.335234 0.196727 0.888943
O O15 0.230297 0.000000 0.845638
O O16 0.500000 0.709029 0.437366
O O17 0.385143 0.500000 0.456995
O O18 0.343445 0.769300 0.488806
O O19 0.000000 0.500000 0.099082
O O20 0.739482 0.000000 0.531551
#
# Coordination Sequence:
#
# PCOD9357656 Si02
#       8
#     4   8   8   8   8   8   4   8
#     4   9  17  29  45  66  93 132 181 221 250 286
#     4  10  20  33  49  70 103 143 179 214 256 305
#     4   9  19  34  49  68 100 140 173 206 256 310
#     4  10  20  33  49  72 103 142 183 217 254 307
#     4  10  20  33  52  78 103 130 173 218 259 309
#     4   9  19  38  61  81 103 132 166 211 268 325
#     4   9  17  29  45  66  95 134 179 221 256 290
#     4  10  20  33  53  80 106 135 174 217 262 310
#
# _framework density 17.015516999999999
#
# number of rings (size 3 to 8) (size 9 to 14) (size 15 to 20)
#    0.000    2.429    0.000    2.143    2.000    5.143 
#    0.000    0.000    0.000    0.857    0.000    4.000 
#    0.000    0.000    0.000    0.000    0.000    0.000 
#
# Total GULP energy -156164.954246 kJ/mol
# GULP energy per Si atom -5577.319794 kJ/mol
# Density = 1.697679 g / cm^3
# Si number density = 17.015517 Si / 1000 Ang^3
#
#
#
# Elastic Constant Matrix: (Units=GPa)
#
#
# Indices 1 2 3 4 5 6 
#
# 1 87.9051 38.5706 39.7492 0.0000 0.0000 0.0000
# 2 38.5706 74.0541 65.2453 0.0000 0.0000 0.0000
# 3 39.7492 65.2453 115.7647 0.0000 0.0000 0.0000
# 4 0.0000 0.0000 0.0000 30.6136 0.0000 0.0000
# 5 0.0000 0.0000 0.0000 0.0000 11.9916 0.0000
# 6 0.0000 0.0000 0.0000 0.0000 0.0000 21.5349
#
#
#
# Elastic Compliance Matrix: (Units=1/GPa)
#
#
# Indices 1 2 3 4 5 6 
#
# 1 0.014871 -0.006449 -0.001471 0.000000 0.000000 0.000000
# 2 -0.006449 0.029620 -0.014479 0.000000 0.000000 0.000000
# 3 -0.001471 -0.014479 0.017304 0.000000 0.000000 0.000000
# 4 0.000000 0.000000 0.000000 0.032665 0.000000 0.000000
# 5 0.000000 0.000000 0.000000 0.000000 0.083392 0.000000
# 6 0.000000 0.000000 0.000000 0.000000 0.000000 0.046436
#
#
# Mechanical properties :
#
#
# Convention : Reuss Voigt Hill
#
# Bulk Modulus (GPa) = 58.84088 62.76154 60.80121
# Shear Modulus (GPa) = 18.19820 21.77193 19.98506
#
# Velocity S-wave (km/s) = 3.27388 3.58094 3.43084
# Velocity P-wave (km/s) = 6.99620 7.35272 7.17667
#
# Compressibility (1/GPa) = 0.01699499
#
# Stress axis : x y z
#
# Youngs Moduli (GPa) = 67.24531 33.76146 57.79001
#
# Poissons Ratio (x) = 0.21773 0.08503
# Poissons Ratio (y) = 0.43367 0.83676
# Poissons Ratio (z) = 0.09895 0.48884
#
# Static dielectric constant tensor:
#      x y z
#    x 1.557670 0.000000 0.000000 
#    y 0.000000 1.568540 0.000000 
#    z 0.000000 0.000000 1.601180 
# 
# From -- ./inp_files/21117.got.cif
#   From: 2010.05.17/outbox.cif.g08.bks.cpg/sg38_11_cif.got.tgz:21117.got - 2010.06.03 18:07:57.
