data_PCOD9357227
_publ_section_title
;
Structure prediction by ZEFSAII (Michael W. Deem and Ramdas Pophale) SiO2 
 PCOD9357227
Probable space group: A M M 2
;
_chemical_formula_sum "Si O2"
_cell_formula_units_Z 48
_cell_length_a 10.134762
_cell_length_b 31.144328
_cell_length_c 8.199576
_cell_angle_alpha 90.000000
_cell_angle_beta 90.000000
_cell_angle_gamma 90.000000
_cell_volume 2588.117054
_symmetry_space_group_name_H-M "A M M 2"
_symmetry_group_IT_number 38
_symmetry_cell_setting 'orthorhombic'
loop_
_space_group_symop_operation_xyz
x,y,z
-x,-y,z
-x,y,z
x,-y,z
x,1/2+y,1/2+z
-x,1/2-y,1/2+z
-x,1/2+y,1/2+z
x,1/2-y,1/2+z
loop_
_atom_site_type_symbol
_atom_site_label
_atom_site_fract_x
_atom_site_fract_y
_atom_site_fract_z
Si Si1 0.787050 0.687289 0.370540
Si Si2 0.845196 0.274662 0.016131
Si Si3 0.152834 0.549775 0.356362
Si Si4 0.857709 0.117036 0.118148
Si Si5 0.357342 0.385495 0.209812
Si Si6 0.652899 0.343432 0.858693
O O1 0.841028 0.707275 0.201112
O O2 0.784793 0.727089 0.494802
O O3 0.864759 0.650548 0.467527
O O4 0.662965 0.659040 0.310266
O O5 0.000000 0.274180 0.964927
O O6 0.749797 0.304190 0.906553
O O7 0.190458 0.500000 0.353180
O O8 0.158681 0.570511 0.537024
O O9 0.245830 0.580186 0.250161
O O10 0.000000 0.553376 0.303799
O O11 0.731207 0.130847 0.220518
O O12 0.000000 0.119487 0.206559
O O13 0.500000 0.403688 0.251111
O O14 0.351780 0.372046 0.021841
O O15 0.500000 0.331822 0.818420
#
# Coordination Sequence:
#
# PCOD9357227 Si02
#       6
#     8   8   8   8   8   8
#     4  10  21  34  53  79 106 136 177 224 265 309
#     4  11  20  33  54  78 105 138 181 224 267 316
#     4   9  19  36  59  86 111 135 169 215 264 316
#     4  10  19  34  56  79 106 139 175 214 261 315
#     4   9  20  38  57  78 107 142 178 216 263 317
#     4  10  22  37  52  75 108 143 179 220 263 308
#
# _framework density 18.546302000000001
#
# number of rings (size 3 to 8) (size 9 to 14) (size 15 to 20)
#    0.000    2.167    0.000    3.000    0.000    9.000 
#    0.000    4.167    0.000    3.000    0.000    0.000 
#    0.000    0.000    0.000    0.000    0.000    0.000 
#
# Total GULP energy -133607.898910 kJ/mol
# GULP energy per Si atom -5566.995788 kJ/mol
# Density = 1.850409 g / cm^3
# Si number density = 18.546302 Si / 1000 Ang^3
#
#
#
# Elastic Constant Matrix: (Units=GPa)
#
#
# Indices 1 2 3 4 5 6 
#
# 1 106.2590 51.0776 46.4214 0.0000 0.0000 0.0000
# 2 51.0776 118.1128 18.3455 0.0000 0.0000 0.0000
# 3 46.4214 18.3455 49.3440 0.0000 0.0000 0.0000
# 4 0.0000 0.0000 0.0000 15.6344 0.0000 0.0000
# 5 0.0000 0.0000 0.0000 0.0000 14.1966 0.0000
# 6 0.0000 0.0000 0.0000 0.0000 0.0000 14.9819
#
#
#
# Elastic Compliance Matrix: (Units=1/GPa)
#
#
# Indices 1 2 3 4 5 6 
#
# 1 0.019117 -0.005809 -0.015825 0.000000 0.000000 0.000000
# 2 -0.005809 0.010751 0.001468 0.000000 0.000000 0.000000
# 3 -0.015825 0.001468 0.034608 0.000000 0.000000 0.000000
# 4 0.000000 0.000000 0.000000 0.063962 0.000000 0.000000
# 5 0.000000 0.000000 0.000000 0.000000 0.070439 0.000000
# 6 0.000000 0.000000 0.000000 0.000000 0.000000 0.066747
#
#
# Mechanical properties :
#
#
# Convention : Reuss Voigt Hill
#
# Bulk Modulus (GPa) = 41.41923 56.15609 48.78766
# Shear Modulus (GPa) = 15.92347 19.48733 17.70540
#
# Velocity S-wave (km/s) = 2.93333 3.24503 3.09311
# Velocity P-wave (km/s) = 5.81841 6.66220 6.25455
#
# Compressibility (1/GPa) = 0.02414338
#
# Stress axis : x y z
#
# Youngs Moduli (GPa) = 52.31045 93.01842 28.89547
#
# Poissons Ratio (x) = 0.54035 0.45726
# Poissons Ratio (y) = 0.30387 -0.04242
# Poissons Ratio (z) = 0.82780 -0.13655
#
# Static dielectric constant tensor:
#      x y z
#    x 1.666330 0.000000 0.000000 
#    y 0.000000 1.624880 0.000000 
#    z 0.000000 0.000000 1.667860 
# 
# From -- ./inp_files/3782.got.cif
#   From: 2010.05.17/outbox.cif.g08.bks.cpg/sg38_2_cif.got.tgz:3782.got - 2010.06.03 18:07:57.
