data_PCOD9357301
_publ_section_title
;
Structure prediction by ZEFSAII (Michael W. Deem and Ramdas Pophale) SiO2 
 PCOD9357301
Probable space group: A M M 2
;
_chemical_formula_sum "Si O2"
_cell_formula_units_Z 48
_cell_length_a 8.823260
_cell_length_b 23.561827
_cell_length_c 11.949667
_cell_angle_alpha 90.000000
_cell_angle_beta 90.000000
_cell_angle_gamma 90.000000
_cell_volume 2484.241674
_symmetry_space_group_name_H-M "A M M 2"
_symmetry_group_IT_number 38
_symmetry_cell_setting 'orthorhombic'
loop_
_space_group_symop_operation_xyz
x,y,z
-x,-y,z
-x,y,z
x,-y,z
x,1/2+y,1/2+z
-x,1/2-y,1/2+z
-x,1/2+y,1/2+z
x,1/2-y,1/2+z
loop_
_atom_site_type_symbol
_atom_site_label
_atom_site_fract_x
_atom_site_fract_y
_atom_site_fract_z
Si Si1 0.827194 0.933169 0.741210
Si Si2 0.684515 0.434878 0.858417
Si Si3 0.677602 0.642885 0.064124
Si Si4 0.818905 0.267496 0.223625
Si Si5 0.680271 0.649238 0.671347
Si Si6 0.177184 0.652138 0.429900
O O1 0.707934 0.903691 0.660355
O O2 0.810870 0.907255 0.864173
O O3 0.000000 0.917186 0.704478
O O4 0.813426 0.000000 0.739157
O O5 0.500000 0.436818 0.865561
O O6 0.737796 0.500000 0.874652
O O7 0.726118 0.407327 0.739224
O O8 0.733981 0.389178 0.952500
O O9 0.500000 0.655531 0.051076
O O10 0.759260 0.698479 0.114083
O O11 0.753545 0.204756 0.226437
O O12 0.774195 0.302021 0.335890
O O13 0.000000 0.266737 0.219202
O O14 0.500000 0.653976 0.679583
O O15 0.730363 0.650362 0.542980
O O16 0.000000 0.662986 0.456187
#
# Coordination Sequence:
#
# PCOD9357301 Si02
#       6
#     8   8   8   8   8   8
#     4   9  18  34  56  82 114 151 189 233 286 338
#     4   9  20  38  57  83 121 158 190 233 291 345
#     4  10  19  34  59  89 115 147 192 241 291 345
#     4  10  22  40  60  83 114 150 190 241 298 351
#     4  11  23  37  58  85 114 151 193 239 288 349
#     4   9  20  38  56  79 111 149 188 233 287 342
#
# _framework density 19.321791000000001
#
# number of rings (size 3 to 8) (size 9 to 14) (size 15 to 20)
#    0.000    2.333    0.000    3.000    2.333    5.000 
#    0.000    2.500    0.000    5.500    0.000    0.000 
#    0.000    0.000    0.000    0.000    0.000    0.000 
#
# Total GULP energy -133877.970099 kJ/mol
# GULP energy per Si atom -5578.248754 kJ/mol
# Density = 1.927781 g / cm^3
# Si number density = 19.321791 Si / 1000 Ang^3
#
#
#
# Elastic Constant Matrix: (Units=GPa)
#
#
# Indices 1 2 3 4 5 6 
#
# 1 27.9295 8.4864 20.8821 0.0000 0.0000 0.0000
# 2 8.4864 61.1169 17.2008 0.0000 0.0000 0.0000
# 3 20.8821 17.2008 86.4048 0.0000 0.0000 0.0000
# 4 0.0000 0.0000 0.0000 14.4640 0.0000 0.0000
# 5 0.0000 0.0000 0.0000 0.0000 47.6626 0.0000
# 6 0.0000 0.0000 0.0000 0.0000 0.0000 17.9405
#
#
#
# Elastic Compliance Matrix: (Units=1/GPa)
#
#
# Indices 1 2 3 4 5 6 
#
# 1 0.044330 -0.003327 -0.010051 0.000000 0.000000 0.000000
# 2 -0.003327 0.017583 -0.002696 0.000000 0.000000 0.000000
# 3 -0.010051 -0.002696 0.014539 0.000000 0.000000 0.000000
# 4 0.000000 0.000000 0.000000 0.069137 0.000000 0.000000
# 5 0.000000 0.000000 0.000000 0.000000 0.020981 0.000000
# 6 0.000000 0.000000 0.000000 0.000000 0.000000 0.055740
#
#
# Mechanical properties :
#
#
# Convention : Reuss Voigt Hill
#
# Bulk Modulus (GPa) = 22.57135 29.84330 26.20732
# Shear Modulus (GPa) = 18.57168 24.60554 21.58861
#
# Velocity S-wave (km/s) = 3.10365 3.57243 3.34626
# Velocity P-wave (km/s) = 4.95487 5.70046 5.34069
#
# Compressibility (1/GPa) = 0.04430396
#
# Stress axis : x y z
#
# Youngs Moduli (GPa) = 22.55791 56.87363 68.77874
#
# Poissons Ratio (x) = 0.18920 0.69132
# Poissons Ratio (y) = 0.07504 0.18545
# Poissons Ratio (z) = 0.22674 0.15335
#
# Static dielectric constant tensor:
#      x y z
#    x 1.670340 0.000000 0.000000 
#    y 0.000000 1.672970 0.000000 
#    z 0.000000 0.000000 1.676600 
# 
# From -- ./inp_files/8145.got.cif
#   From: 2010.05.17/outbox.cif.g08.bks.cpg/sg38_5_cif.got.tgz:8145.got - 2010.06.03 18:07:57.
