data_PCOD9357432
_publ_section_title
;
Structure prediction by ZEFSAII (Michael W. Deem and Ramdas Pophale) SiO2 
 PCOD9357432
Probable space group: A M M 2
;
_chemical_formula_sum "Si O2"
_cell_formula_units_Z 40
_cell_length_a 8.347721
_cell_length_b 26.581582
_cell_length_c 9.206307
_cell_angle_alpha 90.000000
_cell_angle_beta 90.000000
_cell_angle_gamma 90.000000
_cell_volume 2042.839294
_symmetry_space_group_name_H-M "A M M 2"
_symmetry_group_IT_number 38
_symmetry_cell_setting 'orthorhombic'
loop_
_space_group_symop_operation_xyz
x,y,z
-x,-y,z
-x,y,z
x,-y,z
x,1/2+y,1/2+z
-x,1/2-y,1/2+z
-x,1/2+y,1/2+z
x,1/2-y,1/2+z
loop_
_atom_site_type_symbol
_atom_site_label
_atom_site_fract_x
_atom_site_fract_y
_atom_site_fract_z
Si Si1 0.306207 0.899873 0.668650
Si Si2 0.306094 0.301350 0.672693
Si Si3 0.695786 0.000000 0.837980
Si Si4 0.307908 0.500000 0.672756
Si Si5 0.304230 0.200302 0.837553
Si Si6 0.809753 0.099308 0.337731
O O1 0.500000 0.899813 0.669976
O O2 0.252233 0.849450 0.751403
O O3 0.251669 0.900425 0.502803
O O4 0.252282 0.949820 0.753807
O O5 0.500000 0.301274 0.672629
O O6 0.252540 0.251087 0.756477
O O7 0.252683 0.300784 0.505114
O O8 0.250537 0.351153 0.754730
O O9 0.500000 0.000000 0.838284
O O10 0.748166 0.000000 0.005346
O O11 0.500000 0.500000 0.671488
O O12 0.251114 0.450274 0.755407
O O13 0.500000 0.200303 0.837406
O O14 0.000000 0.098989 0.338491
#
# Coordination Sequence:
#
# PCOD9357432 Si02
#       6
#     8   8   4   4   8   8
#     4  10  19  36  60  87 115 149 190 236 285 339
#     4  10  19  36  60  86 113 149 193 241 289 337
#     4   9  19  35  62  92 112 135 182 237 288 340
#     4  11  22  41  66  88 110 145 188 235 284 338
#     4   9  18  33  60  90 114 144 195 248 287 331
#     4  12  25  39  55  84 120 154 189 231 281 341
#
# _framework density 19.580590000000001
#
# number of rings (size 3 to 8) (size 9 to 14) (size 15 to 20)
#    0.000    1.800    0.000    5.100    0.000    7.200 
#    0.000    9.000    0.000    0.000    0.000    0.000 
#    0.000    0.000    0.000    0.000    0.000    0.000 
#
# Total GULP energy -111801.498200 kJ/mol
# GULP energy per Si atom -5590.074910 kJ/mol
# Density = 1.953602 g / cm^3
# Si number density = 19.580590 Si / 1000 Ang^3
#
#
#
# Elastic Constant Matrix: (Units=GPa)
#
#
# Indices 1 2 3 4 5 6 
#
# 1 25.1416 29.2729 27.0908 0.0000 0.0000 0.0000
# 2 29.2729 251.1531 156.3489 0.0000 0.0000 0.0000
# 3 27.0908 156.3489 248.2564 0.0000 0.0000 0.0000
# 4 0.0000 0.0000 0.0000 47.5617 0.0000 0.0000
# 5 0.0000 0.0000 0.0000 0.0000 -13.0254 0.0000
# 6 0.0000 0.0000 0.0000 0.0000 0.0000 -0.3907
#
#
#
# Elastic Compliance Matrix: (Units=1/GPa)
#
#
# Indices 1 2 3 4 5 6 
#
# 1 0.047151 -0.003771 -0.002770 0.000000 0.000000 0.000000
# 2 -0.003771 0.006851 -0.003903 0.000000 0.000000 0.000000
# 3 -0.002770 -0.003903 0.006789 0.000000 0.000000 0.000000
# 4 0.000000 0.000000 0.000000 0.021025 0.000000 0.000000
# 5 0.000000 0.000000 0.000000 0.000000 -0.076773 0.000000
# 6 0.000000 0.000000 0.000000 0.000000 0.000000 -2.559332
#
#
# Mechanical properties :
#
#
# Convention : Reuss Voigt Hill
#
# Bulk Modulus (GPa) = 25.06197 105.55292 65.30744
# Shear Modulus (GPa) = -1.98405 27.61835 12.81715
#
# Velocity S-wave (km/s) = -1.00771 3.75973 2.56126
# Velocity P-wave (km/s) = 3.38721 8.53647 6.49402
#
# Compressibility (1/GPa) = 0.03990109
#
# Stress axis : x y z
#
# Youngs Moduli (GPa) = 21.20868 145.96489 147.30659
#
# Poissons Ratio (x) = 0.55043 0.40809
# Poissons Ratio (y) = 0.07998 0.57496
# Poissons Ratio (z) = 0.05876 0.56972
#
# Static dielectric constant tensor:
#      x y z
#    x 1.665210 0.000000 0.000000 
#    y 0.000000 1.643040 0.000000 
#    z 0.000000 0.000000 1.653730 
# 
# From -- ./inp_files/3347.got.cif
#   From: 2010.05.17/outbox.cif.g08.bks.cpg/sg38_2_cif.got.tgz:3347.got - 2010.06.03 18:07:57.
