data_PCOD9357956
_publ_section_title
;
Structure prediction by ZEFSAII (Michael W. Deem and Ramdas Pophale) SiO2 
 PCOD9357956
Probable space group: A M M 2
;
_chemical_formula_sum "Si O2"
_cell_formula_units_Z 56
_cell_length_a 7.600339
_cell_length_b 19.535813
_cell_length_c 16.530322
_cell_angle_alpha 90.000000
_cell_angle_beta 90.000000
_cell_angle_gamma 90.000000
_cell_volume 2454.402398
_symmetry_space_group_name_H-M "A M M 2"
_symmetry_group_IT_number 38
_symmetry_cell_setting 'orthorhombic'
loop_
_space_group_symop_operation_xyz
x,y,z
-x,-y,z
-x,y,z
x,-y,z
x,1/2+y,1/2+z
-x,1/2-y,1/2+z
-x,1/2+y,1/2+z
x,1/2-y,1/2+z
loop_
_atom_site_type_symbol
_atom_site_label
_atom_site_fract_x
_atom_site_fract_y
_atom_site_fract_z
Si Si1 0.707120 0.923383 0.307850
Si Si2 0.786875 0.648035 0.639920
Si Si3 0.212692 0.420534 0.471053
Si Si4 0.287232 0.788439 0.388337
Si Si5 0.210206 0.711912 0.073737
Si Si6 0.795585 0.423438 0.150144
Si Si7 0.297796 0.844886 0.807722
O O1 0.500000 0.928493 0.326410
O O2 0.723544 0.893039 0.217646
O O3 0.780350 0.863719 0.365393
O O4 0.782347 0.000000 0.313852
O O5 0.733578 0.611037 0.556759
O O6 0.724334 0.726494 0.630584
O O7 0.000000 0.647866 0.643172
O O8 0.259692 0.500000 0.467999
O O9 0.289567 0.381802 0.394310
O O10 0.000000 0.414629 0.465806
O O11 0.500000 0.787797 0.382257
O O12 0.241111 0.770730 0.480242
O O13 0.221609 0.730493 0.326027
O O14 0.283634 0.637133 0.095340
O O15 0.000000 0.709421 0.086197
O O16 0.718386 0.500000 0.146920
O O17 0.790543 0.391941 0.240362
O O18 0.000000 0.429861 0.126744
O O19 0.500000 0.837964 0.782059
#
# Coordination Sequence:
#
# PCOD9357956 Si02
#       7
#     8   8   8   8   8   8   8
#     4  10  22  39  58  82 114 151 188 228 279 335
#     4  10  20  36  58  84 112 144 187 233 277 331
#     4  10  20  34  54  80 113 150 184 226 280 332
#     4  10  22  39  58  83 115 149 186 232 281 329
#     4  10  21  38  61  86 111 146 191 233 276 333
#     4  10  22  39  58  83 116 150 185 231 284 331
#     4  11  22  36  56  83 113 147 189 231 274 332
#
# _framework density 22.816146
#
# number of rings (size 3 to 8) (size 9 to 14) (size 15 to 20)
#    0.000    1.857    1.429    2.143    0.000    6.571 
#    0.000    0.000    0.000    0.000    0.000    0.000 
#    0.000    0.000    0.000    0.000    0.000    0.000 
#
# Total GULP energy -156496.264457 kJ/mol
# GULP energy per Si atom -5589.152302 kJ/mol
# Density = 2.276422 g / cm^3
# Si number density = 22.816146 Si / 1000 Ang^3
#
#
#
# Elastic Constant Matrix: (Units=GPa)
#
#
# Indices 1 2 3 4 5 6 
#
# 1 49.8152 11.6797 -15.5172 0.0000 0.0000 0.0000
# 2 11.6797 174.9578 1.7395 0.0000 0.0000 0.0000
# 3 -15.5172 1.7395 33.5166 0.0000 0.0000 0.0000
# 4 0.0000 0.0000 0.0000 27.7801 0.0000 0.0000
# 5 0.0000 0.0000 0.0000 0.0000 2.7893 0.0000
# 6 0.0000 0.0000 0.0000 0.0000 0.0000 33.2578
#
#
#
# Elastic Compliance Matrix: (Units=1/GPa)
#
#
# Indices 1 2 3 4 5 6 
#
# 1 0.023958 -0.001711 0.011181 0.000000 0.000000 0.000000
# 2 -0.001711 0.005841 -0.001095 0.000000 0.000000 0.000000
# 3 0.011181 -0.001095 0.035069 0.000000 0.000000 0.000000
# 4 0.000000 0.000000 0.000000 0.035997 0.000000 0.000000
# 5 0.000000 0.000000 0.000000 0.000000 0.358515 0.000000
# 6 0.000000 0.000000 0.000000 0.000000 0.000000 0.030068
#
#
# Mechanical properties :
#
#
# Convention : Reuss Voigt Hill
#
# Bulk Modulus (GPa) = 12.25225 28.23262 20.24244
# Shear Modulus (GPa) = 10.00192 30.12461 20.06327
#
# Velocity S-wave (km/s) = 2.09600 3.63756 2.96859
# Velocity P-wave (km/s) = 3.35250 5.48118 4.54327
#
# Compressibility (1/GPa) = 0.08161763
#
# Stress axis : x y z
#
# Youngs Moduli (GPa) = 41.73986 171.21116 28.51520
#
# Poissons Ratio (x) = 0.29286 -0.31882
# Poissons Ratio (y) = 0.07140 0.03123
# Poissons Ratio (z) = -0.46667 0.18748
#
# Static dielectric constant tensor:
#      x y z
#    x 1.876420 0.000000 0.000000 
#    y 0.000000 1.888440 0.000000 
#    z 0.000000 0.000000 1.788380 
# 
# From -- ./inp_files/12386.got.cif
#   From: 2010.05.17/outbox.cif.g08.bks.cpg/sg38_7_cif.got.tgz:12386.got - 2010.06.03 18:07:57.
