data_PCOD9357066
_publ_section_title
;
Structure prediction by ZEFSAII (Michael W. Deem and Ramdas Pophale) SiO2 
 PCOD9357066
Probable space group: A M M 2
;
_chemical_formula_sum "Si O2"
_cell_formula_units_Z 48
_cell_length_a 15.631486
_cell_length_b 8.542762
_cell_length_c 19.480782
_cell_angle_alpha 90.000000
_cell_angle_beta 90.000000
_cell_angle_gamma 90.000000
_cell_volume 2601.386964
_symmetry_space_group_name_H-M "A M M 2"
_symmetry_group_IT_number 38
_symmetry_cell_setting 'orthorhombic'
loop_
_space_group_symop_operation_xyz
x,y,z
-x,-y,z
-x,y,z
x,-y,z
x,1/2+y,1/2+z
-x,1/2-y,1/2+z
-x,1/2+y,1/2+z
x,1/2-y,1/2+z
loop_
_atom_site_type_symbol
_atom_site_label
_atom_site_fract_x
_atom_site_fract_y
_atom_site_fract_z
Si Si1 0.341201 0.689571 0.554910
Si Si2 0.654943 0.689957 0.397815
Si Si3 0.150308 0.688108 0.399686
Si Si4 0.500000 0.689274 0.648446
Si Si5 0.500000 0.810061 0.802653
Si Si6 0.000000 0.312407 0.804995
Si Si7 0.151675 0.686499 0.052619
Si Si8 0.000000 0.687941 0.646259
O O1 0.334948 0.500000 0.556399
O O2 0.364484 0.734907 0.476550
O O3 0.415227 0.739108 0.606944
O O4 0.247756 0.757783 0.570109
O O5 0.653644 0.500000 0.396315
O O6 0.752330 0.738374 0.382596
O O7 0.583843 0.744186 0.344456
O O8 0.147398 0.500000 0.400928
O O9 0.131254 0.748421 0.476475
O O10 0.082654 0.751189 0.345572
O O11 0.500000 0.500000 0.649300
O O12 0.500000 0.751386 0.725310
O O13 0.500000 0.000000 0.802441
O O14 0.000000 0.500000 0.806699
O O15 0.000000 0.261161 0.725698
O O16 0.148128 0.500000 0.050859
O O17 0.083174 0.750577 0.106420
O O18 0.000000 0.500000 0.644184
#
# Coordination Sequence:
#
# PCOD9357066 Si02
#       8
#     8   8   8   4   4   4   8   4
#     4   9  18  36  59  80 105 142 188 230 272 323
#     4   8  16  32  56  80 100 134 181 221 257 309
#     4  10  20  37  60  83 110 145 184 224 274 333
#     4  10  21  35  53  79 111 146 182 222 272 332
#     4  10  19  33  53  79 111 142 176 220 270 324
#     4  11  24  39  56  81 111 143 182 229 278 325
#     4  11  22  37  59  86 113 142 185 235 277 324
#     4  11  24  41  58  79 113 153 186 223 278 335
#
# _framework density 18.451695000000001
#
# number of rings (size 3 to 8) (size 9 to 14) (size 15 to 20)
#    0.000    2.167    0.000    4.500    0.000    5.333 
#    0.000    7.500    0.000    1.000    0.000    0.000 
#    0.000    0.000    0.000    0.000    0.000    0.000 
#
# Total GULP energy -134022.723860 kJ/mol
# GULP energy per Si atom -5584.280161 kJ/mol
# Density = 1.840970 g / cm^3
# Si number density = 18.451695 Si / 1000 Ang^3
#
#
#
# Elastic Constant Matrix: (Units=GPa)
#
#
# Indices 1 2 3 4 5 6 
#
# 1 165.2378 41.0223 149.5949 0.0000 0.0000 0.0000
# 2 41.0223 50.6849 43.4656 0.0000 0.0000 0.0000
# 3 149.5949 43.4656 182.8537 0.0000 0.0000 0.0000
# 4 0.0000 0.0000 0.0000 29.3824 0.0000 0.0000
# 5 0.0000 0.0000 0.0000 0.0000 -9.1012 0.0000
# 6 0.0000 0.0000 0.0000 0.0000 0.0000 17.4040
#
#
#
# Elastic Compliance Matrix: (Units=1/GPa)
#
#
# Indices 1 2 3 4 5 6 
#
# 1 0.023746 -0.003214 -0.018663 0.000000 0.000000 0.000000
# 2 -0.003214 0.025217 -0.003364 0.000000 0.000000 0.000000
# 3 -0.018663 -0.003364 0.021537 0.000000 0.000000 0.000000
# 4 0.000000 0.000000 0.000000 0.034034 0.000000 0.000000
# 5 0.000000 0.000000 0.000000 0.000000 -0.109875 0.000000
# 6 0.000000 0.000000 0.000000 0.000000 0.000000 0.057458
#
#
# Mechanical properties :
#
#
# Convention : Reuss Voigt Hill
#
# Bulk Modulus (GPa) = 49.95963 96.32690 73.14326
# Shear Modulus (GPa) = 45.75793 18.51660 32.13726
#
# Velocity S-wave (km/s) = 4.98524 3.17127 4.17789
# Velocity P-wave (km/s) = 7.76347 8.10725 7.93722
#
# Compressibility (1/GPa) = 0.02001616
#
# Stress axis : x y z
#
# Youngs Moduli (GPa) = 42.11291 39.65648 46.43247
#
# Poissons Ratio (x) = 0.12747 0.86655
# Poissons Ratio (y) = 0.13537 0.15622
# Poissons Ratio (z) = 0.78593 0.13342
#
# Static dielectric constant tensor:
#      x y z
#    x 1.625560 0.000000 0.000000 
#    y 0.000000 1.630950 0.000000 
#    z 0.000000 0.000000 1.604330 
# 
# From -- ./inp_files/18267.got.cif
#   From: 2010.05.17/outbox.cif.g08.bks.cpg/sg38_10_cif.got.tgz:18267.got - 2010.06.03 18:07:57.
