data_PCOD9357120
_publ_section_title
;
Structure prediction by ZEFSAII (Michael W. Deem and Ramdas Pophale) SiO2 
 PCOD9357120
Probable space group: A M M 2
;
_chemical_formula_sum "Si O2"
_cell_formula_units_Z 56
_cell_length_a 15.593815
_cell_length_b 18.894544
_cell_length_c 10.047963
_cell_angle_alpha 90.000000
_cell_angle_beta 90.000000
_cell_angle_gamma 90.000000
_cell_volume 2960.511960
_symmetry_space_group_name_H-M "A M M 2"
_symmetry_group_IT_number 38
_symmetry_cell_setting 'orthorhombic'
loop_
_space_group_symop_operation_xyz
x,y,z
-x,-y,z
-x,y,z
x,-y,z
x,1/2+y,1/2+z
-x,1/2-y,1/2+z
-x,1/2+y,1/2+z
x,1/2-y,1/2+z
loop_
_atom_site_type_symbol
_atom_site_label
_atom_site_fract_x
_atom_site_fract_y
_atom_site_fract_z
Si Si1 0.308534 0.284568 0.032400
Si Si2 0.099431 0.578809 0.135757
Si Si3 0.896822 0.680508 0.370989
Si Si4 0.597450 0.695241 0.301752
Si Si5 0.595718 0.583772 0.518652
Si Si6 0.223565 0.855785 0.106645
Si Si7 0.159588 0.845928 0.388258
O O1 0.369897 0.307342 0.151354
O O2 0.247945 0.227177 0.105165
O O3 0.351992 0.244919 0.906638
O O4 0.250033 0.343468 0.966366
O O5 0.138754 0.500000 0.150763
O O6 0.130393 0.641271 0.234238
O O7 0.000000 0.572094 0.172076
O O8 0.103448 0.606574 0.985098
O O9 0.841957 0.639558 0.483515
O O10 0.873218 0.764295 0.375128
O O11 0.000000 0.675863 0.390800
O O12 0.500000 0.720367 0.300348
O O13 0.601962 0.619267 0.373462
O O14 0.500000 0.606862 0.571521
O O15 0.595436 0.500000 0.513287
O O16 0.682983 0.607939 0.592008
O O17 0.176015 0.874937 0.241813
#
# Coordination Sequence:
#
# PCOD9357120 Si02
#       7
#     8   8   8   8   8   8   8
#     4  10  19  34  50  84 117 143 185 240 291 346
#     4  10  23  41  59  85 122 160 197 245 308 366
#     4  10  21  38  62  89 121 161 206 250 299 366
#     4  10  19  33  55  80 112 150 188 239 300 349
#     4   9  20  38  59  82 111 154 203 246 296 361
#     4  10  21  35  57  86 117 151 196 248 295 348
#     4  11  21  35  58  87 119 157 200 247 299 359
#
# _framework density 18.915645999999999
#
# number of rings (size 3 to 8) (size 9 to 14) (size 15 to 20)
#    0.000    2.000    1.429    2.571    4.000    4.000 
#    0.000    0.000    0.000    1.714    0.000    2.000 
#    0.000    0.000    0.000    0.000    0.000    0.000 
#
# Total GULP energy -155911.077380 kJ/mol
# GULP energy per Si atom -5568.252764 kJ/mol
# Density = 1.887259 g / cm^3
# Si number density = 18.915646 Si / 1000 Ang^3
#
#
#
# Elastic Constant Matrix: (Units=GPa)
#
#
# Indices 1 2 3 4 5 6 
#
# 1 85.3684 15.8170 38.7341 0.0000 0.0000 0.0000
# 2 15.8170 57.9588 16.7372 0.0000 0.0000 0.0000
# 3 38.7341 16.7372 106.7770 0.0000 0.0000 0.0000
# 4 0.0000 0.0000 0.0000 10.5626 0.0000 0.0000
# 5 0.0000 0.0000 0.0000 0.0000 34.2990 0.0000
# 6 0.0000 0.0000 0.0000 0.0000 0.0000 16.7144
#
#
#
# Elastic Compliance Matrix: (Units=1/GPa)
#
#
# Indices 1 2 3 4 5 6 
#
# 1 0.014368 -0.002530 -0.004815 0.000000 0.000000 0.000000
# 2 -0.002530 0.018517 -0.001985 0.000000 0.000000 0.000000
# 3 -0.004815 -0.001985 0.011423 0.000000 0.000000 0.000000
# 4 0.000000 0.000000 0.000000 0.094674 0.000000 0.000000
# 5 0.000000 0.000000 0.000000 0.000000 0.029155 0.000000
# 6 0.000000 0.000000 0.000000 0.000000 0.000000 0.059829
#
#
# Mechanical properties :
#
#
# Convention : Reuss Voigt Hill
#
# Bulk Modulus (GPa) = 38.99032 43.63121 41.31076
# Shear Modulus (GPa) = 19.59432 24.23625 21.91529
#
# Velocity S-wave (km/s) = 3.22200 3.58338 3.40748
# Velocity P-wave (km/s) = 5.87360 6.34327 6.11295
#
# Compressibility (1/GPa) = 0.02564739
#
# Stress axis : x y z
#
# Youngs Moduli (GPa) = 69.60101 54.00357 87.54119
#
# Poissons Ratio (x) = 0.13665 0.42154
# Poissons Ratio (y) = 0.17612 0.17374
# Poissons Ratio (z) = 0.33515 0.10718
#
# Static dielectric constant tensor:
#      x y z
#    x 1.715670 0.000000 0.000000 
#    y 0.000000 1.676000 0.000000 
#    z 0.000000 0.000000 1.670890 
# 
# From -- ./inp_files/5728.got.cif
#   From: 2010.05.17/outbox.cif.g08.bks.cpg/sg38_3_cif.got.tgz:5728.got - 2010.06.03 18:07:57.
