data_PCOD9357302
_publ_section_title
;
Structure prediction by ZEFSAII (Michael W. Deem and Ramdas Pophale) SiO2 
 PCOD9357302
Probable space group: A M M 2
;
_chemical_formula_sum "Si O2"
_cell_formula_units_Z 64
_cell_length_a 14.849048
_cell_length_b 20.570490
_cell_length_c 11.512435
_cell_angle_alpha 90.000000
_cell_angle_beta 90.000000
_cell_angle_gamma 90.000000
_cell_volume 3516.498522
_symmetry_space_group_name_H-M "A M M 2"
_symmetry_group_IT_number 38
_symmetry_cell_setting 'orthorhombic'
loop_
_space_group_symop_operation_xyz
x,y,z
-x,-y,z
-x,y,z
x,-y,z
x,1/2+y,1/2+z
-x,1/2-y,1/2+z
-x,1/2+y,1/2+z
x,1/2-y,1/2+z
loop_
_atom_site_type_symbol
_atom_site_label
_atom_site_fract_x
_atom_site_fract_y
_atom_site_fract_z
Si Si1 0.398744 0.872393 0.006040
Si Si2 0.234965 0.653215 0.144853
Si Si3 0.219988 0.421776 0.905790
Si Si4 0.399636 0.421991 0.769159
Si Si5 0.396355 0.425808 0.256740
Si Si6 0.101653 0.791234 0.819558
Si Si7 0.772912 0.793809 0.038071
Si Si8 0.102037 0.853758 0.215660
O O1 0.500000 0.844834 0.001367
O O2 0.387622 0.902978 0.134046
O O3 0.391094 0.920688 0.896899
O O4 0.320574 0.820512 0.990758
O O5 0.323869 0.621921 0.200663
O O6 0.154690 0.657867 0.238760
O O7 0.210665 0.612110 0.030499
O O8 0.247923 0.728224 0.108032
O O9 0.219255 0.500000 0.915292
O O10 0.315791 0.400146 0.847940
O O11 0.142214 0.397233 0.818824
O O12 0.500000 0.398794 0.805546
O O13 0.400144 0.500000 0.775518
O O14 0.500000 0.409972 0.224773
O O15 0.378056 0.500000 0.220308
O O16 0.158567 0.779112 0.934852
O O17 0.096976 0.721343 0.756830
O O18 0.000000 0.812421 0.845030
O O19 0.823950 0.848778 0.114054
O O20 0.000000 0.873319 0.182652
#
# Coordination Sequence:
#
# PCOD9357302 Si02
#       8
#     8   8   8   8   8   8   8   8
#     4  10  19  34  59  89 116 148 193 241 288 338
#     4  11  23  37  59  87 118 152 193 238 284 351
#     4  11  22  37  57  84 118 155 190 231 286 346
#     4   9  18  34  57  84 114 151 195 238 281 338
#     4  10  21  38  60  85 117 160 203 239 280 337
#     4  10  21  39  63  86 110 148 194 245 290 337
#     4  11  20  37  62  86 117 146 186 240 296 346
#     4  10  21  37  58  85 112 146 193 236 286 344
#
# _framework density 18.199922000000001
#
# number of rings (size 3 to 8) (size 9 to 14) (size 15 to 20)
#    0.000    1.750    3.750    1.125    0.000    3.750 
#    0.000    1.250    0.000    1.125    0.000    0.000 
#    0.000    0.000    0.000    0.000    0.000    0.000 
#
# Total GULP energy -178416.096537 kJ/mol
# GULP energy per Si atom -5575.503017 kJ/mol
# Density = 1.815850 g / cm^3
# Si number density = 18.199922 Si / 1000 Ang^3
#
#
#
# Elastic Constant Matrix: (Units=GPa)
#
#
# Indices 1 2 3 4 5 6 
#
# 1 137.3011 41.6520 20.6081 0.0000 0.0000 0.0000
# 2 41.6520 45.3674 5.0332 0.0000 0.0000 0.0000
# 3 20.6081 5.0332 33.1354 0.0000 0.0000 0.0000
# 4 0.0000 0.0000 0.0000 26.4918 0.0000 0.0000
# 5 0.0000 0.0000 0.0000 0.0000 14.9262 0.0000
# 6 0.0000 0.0000 0.0000 0.0000 0.0000 14.0923
#
#
#
# Elastic Compliance Matrix: (Units=1/GPa)
#
#
# Indices 1 2 3 4 5 6 
#
# 1 0.010963 -0.009468 -0.005380 0.000000 0.000000 0.000000
# 2 -0.009468 0.030598 0.001241 0.000000 0.000000 0.000000
# 3 -0.005380 0.001241 0.033337 0.000000 0.000000 0.000000
# 4 0.000000 0.000000 0.000000 0.037748 0.000000 0.000000
# 5 0.000000 0.000000 0.000000 0.000000 0.066996 0.000000
# 6 0.000000 0.000000 0.000000 0.000000 0.000000 0.070961
#
#
# Mechanical properties :
#
#
# Convention : Reuss Voigt Hill
#
# Bulk Modulus (GPa) = 20.97208 38.93228 29.95218
# Shear Modulus (GPa) = 17.02354 21.00278 19.01316
#
# Velocity S-wave (km/s) = 3.06169 3.40075 3.23566
# Velocity P-wave (km/s) = 4.90375 6.07108 5.51837
#
# Compressibility (1/GPa) = 0.04768243
#
# Stress axis : x y z
#
# Youngs Moduli (GPa) = 91.21454 32.68227 29.99691
#
# Poissons Ratio (x) = 0.30945 0.16139
# Poissons Ratio (y) = 0.86366 -0.03723
# Poissons Ratio (z) = 0.49075 -0.04056
#
# Static dielectric constant tensor:
#      x y z
#    x 1.638770 0.000000 0.000000 
#    y 0.000000 1.591880 0.000000 
#    z 0.000000 0.000000 1.638980 
# 
# From -- ./inp_files/9590.got.cif
#   From: 2010.05.17/outbox.cif.g08.bks.cpg/sg38_5_cif.got.tgz:9590.got - 2010.06.03 18:07:57.
