data_PCOD9357355
_publ_section_title
;
Structure prediction by ZEFSAII (Michael W. Deem and Ramdas Pophale) SiO2 
 PCOD9357355
Probable space group: A M M 2
;
_chemical_formula_sum "Si O2"
_cell_formula_units_Z 58
_cell_length_a 17.859310
_cell_length_b 7.378172
_cell_length_c 20.801140
_cell_angle_alpha 90.000000
_cell_angle_beta 90.000000
_cell_angle_gamma 90.000000
_cell_volume 2740.946685
_symmetry_space_group_name_H-M "A M M 2"
_symmetry_group_IT_number 38
_symmetry_cell_setting 'orthorhombic'
loop_
_space_group_symop_operation_xyz
x,y,z
-x,-y,z
-x,y,z
x,-y,z
x,1/2+y,1/2+z
-x,1/2-y,1/2+z
-x,1/2+y,1/2+z
x,1/2-y,1/2+z
loop_
_atom_site_type_symbol
_atom_site_label
_atom_site_fract_x
_atom_site_fract_y
_atom_site_fract_z
Si Si1 0.500000 0.500000 0.125000
Si Si2 0.721256 0.280612 0.772996
Si Si3 0.244111 0.279291 0.053659
Si Si4 0.627313 0.291118 0.654702
Si Si5 0.111366 0.790964 0.738238
Si Si6 0.919072 0.219904 0.881020
Si Si7 0.919304 0.721370 0.096100
Si Si8 0.751341 0.290985 0.914468
O O1 0.565429 0.657833 0.127864
O O2 0.724791 0.500000 0.774304
O O3 0.653591 0.231119 0.726294
O O4 0.798825 0.217034 0.741485
O O5 0.722204 0.213638 0.846766
O O6 0.244326 0.500000 0.054187
O O7 0.298966 0.217168 0.109755
O O8 0.158113 0.220151 0.063953
O O9 0.271151 0.215105 0.983455
O O10 0.602438 0.500000 0.657983
O O11 0.084689 0.716309 0.806545
O O12 0.084956 0.716391 0.670472
O O13 0.087510 0.000000 0.738419
O O14 0.842193 0.285558 0.912175
O O15 0.000000 0.274727 0.908147
O O16 0.915522 0.000000 0.881532
O O17 0.917931 0.500000 0.095728
O O18 0.000000 0.777744 0.068739
O O19 0.727461 0.500000 0.914344
#
# Coordination Sequence:
#
# PCOD9357355 Si02
#       8
#     2   8   8   8   8   8   8   8
#     4  12  26  44  72 106 130 152 194 246 316 378
#     4   9  18  33  54  84 115 151 195 245 298 361
#     4  10  19  35  58  86 121 166 212 256 305 363
#     4  11  23  41  69  99 129 160 197 250 304 370
#     4   9  15  25  46  70 101 144 200 251 308 359
#     4   9  17  28  42  66 104 149 200 261 314 353
#     4   9  16  25  43  74 111 152 208 266 309 351
#     4   9  19  33  52  80 113 157 207 246 300 363
#
# _framework density 21.160571999999998
#
# number of rings (size 3 to 8) (size 9 to 14) (size 15 to 20)
#    0.000    2.483    2.069    0.621    0.966    3.034 
#    0.000    1.379    0.000    3.310    0.000    0.000 
#    0.000    0.000    0.000    0.000    0.000    0.000 
#
# Total GULP energy -161593.109501 kJ/mol
# GULP energy per Si atom -5572.176190 kJ/mol
# Density = 2.111241 g / cm^3
# Si number density = 21.160572 Si / 1000 Ang^3
#
#
#
# Elastic Constant Matrix: (Units=GPa)
#
#
# Indices 1 2 3 4 5 6 
#
# 1 76.1822 12.9998 19.7894 0.0000 0.0000 0.0000
# 2 12.9998 92.0507 4.5893 0.0000 0.0000 0.0000
# 3 19.7894 4.5893 109.1156 0.0000 0.0000 0.0000
# 4 0.0000 0.0000 0.0000 3.6370 0.0000 0.0000
# 5 0.0000 0.0000 0.0000 0.0000 -3.1635 0.0000
# 6 0.0000 0.0000 0.0000 0.0000 0.0000 -243.6888
#
#
#
# Elastic Compliance Matrix: (Units=1/GPa)
#
#
# Indices 1 2 3 4 5 6 
#
# 1 0.014088 -0.001866 -0.002477 0.000000 0.000000 0.000000
# 2 -0.001866 0.011134 -0.000130 0.000000 0.000000 0.000000
# 3 -0.002477 -0.000130 0.009619 0.000000 0.000000 0.000000
# 4 0.000000 0.000000 0.000000 0.274949 0.000000 0.000000
# 5 0.000000 0.000000 0.000000 0.000000 -0.316101 0.000000
# 6 0.000000 0.000000 0.000000 0.000000 0.000000 -0.004104
#
#
# Mechanical properties :
#
#
# Convention : Reuss Voigt Hill
#
# Bulk Modulus (GPa) = 38.61608 39.12284 38.86946
# Shear Modulus (GPa) = 698.11139 -32.64507 332.73316
#
# Velocity S-wave (km/s) = 18.18317 -3.93202 12.55322
# Velocity P-wave (km/s) = 21.42721 1.44420 15.11687
#
# Compressibility (1/GPa) = 0.02589595
#
# Stress axis : x y z
#
# Youngs Moduli (GPa) = 70.98144 89.81823 103.95867
#
# Poissons Ratio (x) = 0.16761 0.25746
# Poissons Ratio (y) = 0.13246 0.01350
# Poissons Ratio (z) = 0.17579 0.01166
#
# Static dielectric constant tensor:
#      x y z
#    x 1.719010 0.000000 0.000000 
#    y 0.000000 1.800720 0.000000 
#    z 0.000000 0.000000 1.791700 
# 
# From -- ./inp_files/22792.got.cif
#   From: 2010.05.17/outbox.cif.g08.bks.cpg/sg38_12_cif.got.tgz:22792.got - 2010.06.03 18:07:57.
