data_PCOD9357020
_publ_section_title
;
Structure prediction by ZEFSAII (Michael W. Deem and Ramdas Pophale) SiO2 
 PCOD9357020
Probable space group: A M M 2
;
_chemical_formula_sum "Si O2"
_cell_formula_units_Z 64
_cell_length_a 14.700438
_cell_length_b 18.957680
_cell_length_c 12.335781
_cell_angle_alpha 90.000000
_cell_angle_beta 90.000000
_cell_angle_gamma 90.000000
_cell_volume 3437.811924
_symmetry_space_group_name_H-M "A M M 2"
_symmetry_group_IT_number 38
_symmetry_cell_setting 'orthorhombic'
loop_
_space_group_symop_operation_xyz
x,y,z
-x,-y,z
-x,y,z
x,-y,z
x,1/2+y,1/2+z
-x,1/2-y,1/2+z
-x,1/2+y,1/2+z
x,1/2-y,1/2+z
loop_
_atom_site_type_symbol
_atom_site_label
_atom_site_fract_x
_atom_site_fract_y
_atom_site_fract_z
Si Si1 0.601086 0.583375 0.613040
Si Si2 0.783594 0.168539 0.082785
Si Si3 0.102294 0.578166 0.012313
Si Si4 0.106753 0.304786 0.362955
Si Si5 0.340682 0.582040 0.855789
Si Si6 0.847832 0.644594 0.808287
Si Si7 0.602930 0.416830 0.101674
Si Si8 0.772983 0.328692 0.157648
O O1 0.500000 0.606181 0.575700
O O2 0.611516 0.500000 0.588200
O O3 0.688893 0.626028 0.570534
O O4 0.603685 0.589379 0.744672
O O5 0.844204 0.134581 0.179455
O O6 0.761016 0.246736 0.128255
O O7 0.842958 0.176500 0.974861
O O8 0.134337 0.500000 0.041193
O O9 0.168151 0.635076 0.063442
O O10 0.000000 0.588078 0.052773
O O11 0.102869 0.588013 0.883231
O O12 0.113209 0.220567 0.340822
O O13 0.166675 0.336604 0.265426
O O14 0.000000 0.324679 0.362232
O O15 0.307785 0.500000 0.856885
O O16 0.257441 0.635648 0.843274
O O17 0.388221 0.593390 0.971029
O O18 0.500000 0.400333 0.134465
O O19 0.619904 0.500000 0.121517
O O20 0.677486 0.368916 0.159661
#
# Coordination Sequence:
#
# PCOD9357020 Si02
#       8
#     8   8   8   8   8   8   8   8
#     4   9  18  34  57  85 116 151 192 237 291 356
#     4  10  22  37  59  86 115 153 198 242 293 346
#     4  11  21  34  57  87 117 151 194 245 296 345
#     4  11  23  39  58  79 111 156 202 243 288 352
#     4   9  15  28  52  84 120 151 180 225 287 351
#     4  10  19  33  55  85 117 148 187 239 295 339
#     4  10  19  32  55  85 116 152 191 236 291 345
#     4  11  22  38  57  83 120 155 196 239 293 350
#
# _framework density 18.616491
#
# number of rings (size 3 to 8) (size 9 to 14) (size 15 to 20)
#    0.000    1.875    2.500    1.875    0.000    5.000 
#    0.000    1.875    0.000    4.125    0.000    0.000 
#    0.000    0.000    0.000    0.000    0.000    0.000 
#
# Total GULP energy -178416.013541 kJ/mol
# GULP energy per Si atom -5575.500423 kJ/mol
# Density = 1.857412 g / cm^3
# Si number density = 18.616491 Si / 1000 Ang^3
#
#
#
# Elastic Constant Matrix: (Units=GPa)
#
#
# Indices 1 2 3 4 5 6 
#
# 1 140.5048 44.2611 54.1062 0.0000 0.0000 0.0000
# 2 44.2611 47.5977 18.8549 0.0000 0.0000 0.0000
# 3 54.1062 18.8549 90.0778 0.0000 0.0000 0.0000
# 4 0.0000 0.0000 0.0000 19.9908 0.0000 0.0000
# 5 0.0000 0.0000 0.0000 0.0000 13.7422 0.0000
# 6 0.0000 0.0000 0.0000 0.0000 0.0000 31.1336
#
#
#
# Elastic Compliance Matrix: (Units=1/GPa)
#
#
# Indices 1 2 3 4 5 6 
#
# 1 0.012026 -0.009074 -0.005324 0.000000 0.000000 0.000000
# 2 -0.009074 0.029755 -0.000778 0.000000 0.000000 0.000000
# 3 -0.005324 -0.000778 0.014462 0.000000 0.000000 0.000000
# 4 0.000000 0.000000 0.000000 0.050023 0.000000 0.000000
# 5 0.000000 0.000000 0.000000 0.000000 0.072769 0.000000
# 6 0.000000 0.000000 0.000000 0.000000 0.000000 0.032120
#
#
# Mechanical properties :
#
#
# Convention : Reuss Voigt Hill
#
# Bulk Modulus (GPa) = 38.62262 56.95829 47.79045
# Shear Modulus (GPa) = 19.98903 23.70385 21.84644
#
# Velocity S-wave (km/s) = 3.28033 3.57216 3.42935
# Velocity P-wave (km/s) = 5.92781 6.90477 6.43486
#
# Compressibility (1/GPa) = 0.02589157
#
# Stress axis : x y z
#
# Youngs Moduli (GPa) = 83.15466 33.60750 69.14491
#
# Poissons Ratio (x) = 0.30494 0.36814
# Poissons Ratio (y) = 0.75452 0.05380
# Poissons Ratio (z) = 0.44273 0.02615
#
# Static dielectric constant tensor:
#      x y z
#    x 1.657500 0.000000 0.000000 
#    y 0.000000 1.628620 0.000000 
#    z 0.000000 0.000000 1.666860 
# 
# From -- ./inp_files/10243.got.cif
#   From: 2010.05.17/outbox.cif.g08.bks.cpg/sg38_6_cif.got.tgz:10243.got - 2010.06.03 18:07:57.
