data_PCOD9357456
_publ_section_title
;
Structure prediction by ZEFSAII (Michael W. Deem and Ramdas Pophale) SiO2 
 PCOD9357456
Probable space group: A M M 2
;
_chemical_formula_sum "Si O2"
_cell_formula_units_Z 40
_cell_length_a 17.278254
_cell_length_b 8.362888
_cell_length_c 15.013968
_cell_angle_alpha 90.000000
_cell_angle_beta 90.000000
_cell_angle_gamma 90.000000
_cell_volume 2169.459867
_symmetry_space_group_name_H-M "A M M 2"
_symmetry_group_IT_number 38
_symmetry_cell_setting 'orthorhombic'
loop_
_space_group_symop_operation_xyz
x,y,z
-x,-y,z
-x,y,z
x,-y,z
x,1/2+y,1/2+z
-x,1/2-y,1/2+z
-x,1/2+y,1/2+z
x,1/2-y,1/2+z
loop_
_atom_site_type_symbol
_atom_site_label
_atom_site_fract_x
_atom_site_fract_y
_atom_site_fract_z
Si Si1 0.295055 0.693823 0.598430
Si Si2 0.413366 0.192917 0.247934
Si Si3 0.000000 0.808630 0.952167
Si Si4 0.119778 0.308843 0.097003
Si Si5 0.000000 0.694856 0.246859
Si Si6 0.586629 0.807053 0.948769
O O1 0.292840 0.500000 0.598334
O O2 0.345219 0.747753 0.683460
O O3 0.208079 0.754939 0.598118
O O4 0.345322 0.747511 0.513413
O O5 0.500000 0.244881 0.219173
O O6 0.401778 0.249774 0.348391
O O7 0.413400 0.000000 0.246140
O O8 0.000000 0.749497 0.849466
O O9 0.073666 0.753684 0.010508
O O10 0.000000 0.000000 0.949296
O O11 0.115574 0.500000 0.094879
O O12 0.073603 0.255541 0.186358
O O13 0.000000 0.500000 0.249911
O O14 0.500000 0.755365 0.977625
O O15 0.586680 0.000000 0.950214
#
# Coordination Sequence:
#
# PCOD9357456 Si02
#       6
#     8   8   4   8   4   8
#     4  10  20  34  52  75 104 139 175 211 256 308
#     4   9  18  33  52  74 102 136 176 221 263 302
#     4  10  19  37  62  81 100 133 171 204 248 308
#     4  10  21  37  54  79 110 135 166 210 256 302
#     4   8  18  37  58  75  98 133 165 198 248 306
#     4   9  18  33  52  73 100 137 179 218 258 307
#
# _framework density 18.43777
#
# number of rings (size 3 to 8) (size 9 to 14) (size 15 to 20)
#    0.000    2.600    0.000    2.100    0.000    5.600 
#    0.000   12.000    0.000    6.000    0.000    0.000 
#    0.000    0.000    0.000    0.000    0.000    0.000 
#
# Total GULP energy -111544.943194 kJ/mol
# GULP energy per Si atom -5577.247160 kJ/mol
# Density = 1.839581 g / cm^3
# Si number density = 18.437770 Si / 1000 Ang^3
#
#
#
# Elastic Constant Matrix: (Units=GPa)
#
#
# Indices 1 2 3 4 5 6 
#
# 1 209.3166 28.2319 119.9275 0.0000 0.0000 0.0000
# 2 28.2319 19.1893 22.8221 0.0000 0.0000 0.0000
# 3 119.9275 22.8221 160.2337 0.0000 0.0000 0.0000
# 4 0.0000 0.0000 0.0000 24.2315 0.0000 0.0000
# 5 0.0000 0.0000 0.0000 0.0000 29.4774 0.0000
# 6 0.0000 0.0000 0.0000 0.0000 0.0000 24.8527
#
#
#
# Elastic Compliance Matrix: (Units=1/GPa)
#
#
# Indices 1 2 3 4 5 6 
#
# 1 0.008948 -0.006260 -0.005806 0.000000 0.000000 0.000000
# 2 -0.006260 0.067120 -0.004875 0.000000 0.000000 0.000000
# 3 -0.005806 -0.004875 0.011280 0.000000 0.000000 0.000000
# 4 0.000000 0.000000 0.000000 0.041269 0.000000 0.000000
# 5 0.000000 0.000000 0.000000 0.000000 0.033924 0.000000
# 6 0.000000 0.000000 0.000000 0.000000 0.000000 0.040237
#
#
# Mechanical properties :
#
#
# Convention : Reuss Voigt Hill
#
# Bulk Modulus (GPa) = 18.70280 81.18916 49.94598
# Shear Modulus (GPa) = 19.64780 30.22951 24.93866
#
# Velocity S-wave (km/s) = 3.26794 4.05352 3.68174
# Velocity P-wave (km/s) = 4.94014 8.12636 6.72468
#
# Compressibility (1/GPa) = 0.05346794
#
# Stress axis : x y z
#
# Youngs Moduli (GPa) = 111.75554 14.89873 88.64928
#
# Poissons Ratio (x) = 0.09327 0.51466
# Poissons Ratio (y) = 0.69959 0.43212
# Poissons Ratio (z) = 0.64881 0.07262
#
# Static dielectric constant tensor:
#      x y z
#    x 1.620080 0.000000 0.000000 
#    y 0.000000 1.640140 0.000000 
#    z 0.000000 0.000000 1.626420 
# 
# From -- ./inp_files/14284.got.cif
#   From: 2010.05.17/outbox.cif.g08.bks.cpg/sg38_8_cif.got.tgz:14284.got - 2010.06.03 18:07:57.
