data_PCOD9357060
_publ_section_title
;
Structure prediction by ZEFSAII (Michael W. Deem and Ramdas Pophale) SiO2 
 PCOD9357060
Probable space group: A M M 2
;
_chemical_formula_sum "Si O2"
_cell_formula_units_Z 54
_cell_length_a 7.457784
_cell_length_b 20.931368
_cell_length_c 13.112508
_cell_angle_alpha 90.000000
_cell_angle_beta 90.000000
_cell_angle_gamma 90.000000
_cell_volume 2046.883759
_symmetry_space_group_name_H-M "A M M 2"
_symmetry_group_IT_number 38
_symmetry_cell_setting 'orthorhombic'
loop_
_space_group_symop_operation_xyz
x,y,z
-x,-y,z
-x,y,z
x,-y,z
x,1/2+y,1/2+z
-x,1/2-y,1/2+z
-x,1/2+y,1/2+z
x,1/2-y,1/2+z
loop_
_atom_site_type_symbol
_atom_site_label
_atom_site_fract_x
_atom_site_fract_y
_atom_site_fract_z
Si Si1 0.215249 0.888025 0.529890
Si Si2 0.201012 0.748688 0.325391
Si Si3 0.291072 0.394312 0.811554
Si Si4 0.500000 0.662457 0.371473
Si Si5 0.217443 0.251191 0.591791
Si Si6 0.786955 0.073391 0.757352
Si Si7 0.500000 0.500000 0.517279
Si Si8 0.205318 0.099070 0.088427
O O1 0.274463 0.921887 0.425281
O O2 0.277110 0.813693 0.534966
O O3 0.264638 0.918944 0.637883
O O4 0.000000 0.887894 0.526835
O O5 0.203235 0.824935 0.323945
O O6 0.343971 0.716291 0.396783
O O7 0.256758 0.732249 0.209778
O O8 0.000000 0.727511 0.347578
O O9 0.500000 0.387145 0.788842
O O10 0.211556 0.422666 0.707799
O O11 0.658674 0.616020 0.325536
O O12 0.267889 0.326457 0.586645
O O13 0.000000 0.252685 0.581833
O O14 0.000000 0.089322 0.765450
O O15 0.763860 0.000000 0.787626
O O16 0.344254 0.555948 0.528200
O O17 0.000000 0.094682 0.052405
#
# Coordination Sequence:
#
# PCOD9357060 Si02
#       8
#     8   8   8   4   8   8   2   8
#     4  10  19  34  55  79 112 152 185 225 276 325
#     4  10  19  33  53  77 107 140 175 225 285 330
#     4  11  21  35  51  82 116 147 187 228 273 328
#     4  12  19  31  55  78 100 139 186 231 274 322
#     4   8  16  32  55  79 104 138 180 223 278 328
#     4  10  22  38  53  78 114 152 192 227 266 322
#     4  12  22  38  58  82 108 144 200 220 268 332
#     4  10  21  39  58  79 113 147 181 232 273 321
#
# _framework density 26.381565999999999
#
# number of rings (size 3 to 8) (size 9 to 14) (size 15 to 20)
#    0.000    1.926    2.963    3.111    1.037    0.000 
#    2.667    0.000    0.000    0.000    0.000    0.000 
#    8.889    0.000    5.333    0.000    0.000    0.000 
#
# Total GULP energy -150389.031245 kJ/mol
# GULP energy per Si atom -5569.964120 kJ/mol
# Density = 2.632152 g / cm^3
# Si number density = 26.381566 Si / 1000 Ang^3
#
#
#
# Elastic Constant Matrix: (Units=GPa)
#
#
# Indices 1 2 3 4 5 6 
#
# 1 156.1810 43.5201 -18.6218 0.0000 0.0000 0.0000
# 2 43.5201 124.9640 18.8631 0.0000 0.0000 0.0000
# 3 -18.6218 18.8631 102.9756 0.0000 0.0000 0.0000
# 4 0.0000 0.0000 0.0000 13.0060 0.0000 0.0000
# 5 0.0000 0.0000 0.0000 0.0000 75.8008 0.0000
# 6 0.0000 0.0000 0.0000 0.0000 0.0000 37.1216
#
#
#
# Elastic Compliance Matrix: (Units=1/GPa)
#
#
# Indices 1 2 3 4 5 6 
#
# 1 0.007425 -0.002868 0.001868 0.000000 0.000000 0.000000
# 2 -0.002868 0.009337 -0.002229 0.000000 0.000000 0.000000
# 3 0.001868 -0.002229 0.010457 0.000000 0.000000 0.000000
# 4 0.000000 0.000000 0.000000 0.076888 0.000000 0.000000
# 5 0.000000 0.000000 0.000000 0.000000 0.013192 0.000000
# 6 0.000000 0.000000 0.000000 0.000000 0.000000 0.026939
#
#
# Mechanical properties :
#
#
# Convention : Reuss Voigt Hill
#
# Bulk Modulus (GPa) = 48.16548 52.40480 50.28514
# Shear Modulus (GPa) = 31.72267 47.87628 39.79948
#
# Velocity S-wave (km/s) = 3.47141 4.26462 3.88830
# Velocity P-wave (km/s) = 5.86212 6.64505 6.26582
#
# Compressibility (1/GPa) = 0.02076176
#
# Stress axis : x y z
#
# Youngs Moduli (GPa) = 134.68685 107.09543 95.62841
#
# Poissons Ratio (x) = 0.30711 -0.17863
# Poissons Ratio (y) = 0.38624 0.21316
# Poissons Ratio (z) = -0.25159 0.23872
#
# Static dielectric constant tensor:
#      x y z
#    x 1.988170 0.000000 0.000000 
#    y 0.000000 2.227110 0.000000 
#    z 0.000000 0.000000 2.235170 
# 
# From -- ./inp_files/17136.got.cif
#   From: 2010.05.17/outbox.cif.g08.bks.cpg/sg38_9_cif.got.tgz:17136.got - 2010.06.03 18:07:57.
