data_PCOD9357454
_publ_section_title
;
Structure prediction by ZEFSAII (Michael W. Deem and Ramdas Pophale) SiO2 
 PCOD9357454
Probable space group: A M M 2
;
_chemical_formula_sum "Si O2"
_cell_formula_units_Z 40
_cell_length_a 8.522967
_cell_length_b 26.176878
_cell_length_c 9.673589
_cell_angle_alpha 90.000000
_cell_angle_beta 90.000000
_cell_angle_gamma 90.000000
_cell_volume 2158.222856
_symmetry_space_group_name_H-M "A M M 2"
_symmetry_group_IT_number 38
_symmetry_cell_setting 'orthorhombic'
loop_
_space_group_symop_operation_xyz
x,y,z
-x,-y,z
-x,y,z
x,-y,z
x,1/2+y,1/2+z
-x,1/2-y,1/2+z
-x,1/2+y,1/2+z
x,1/2-y,1/2+z
loop_
_atom_site_type_symbol
_atom_site_label
_atom_site_fract_x
_atom_site_fract_y
_atom_site_fract_z
Si Si1 0.689084 0.500000 0.545040
Si Si2 0.813624 0.294327 0.026110
Si Si3 0.689100 0.595129 0.037654
Si Si4 0.812364 0.406789 0.726769
Si Si5 0.686534 0.705230 0.718211
Si Si6 0.309131 0.000000 0.725777
O O1 0.500000 0.500000 0.549110
O O2 0.751390 0.450420 0.625127
O O3 0.741105 0.500000 0.384998
O O4 0.756654 0.349696 0.078734
O O5 0.765281 0.249129 0.127632
O O6 0.000000 0.295609 0.005607
O O7 0.730687 0.286614 0.878416
O O8 0.500000 0.597787 0.035254
O O9 0.739399 0.550382 0.141433
O O10 0.747698 0.584024 0.882008
O O11 0.750747 0.351047 0.682164
O O12 0.000000 0.406528 0.731424
O O13 0.500000 0.706445 0.700709
O O14 0.500000 0.000000 0.725853
#
# Coordination Sequence:
#
# PCOD9357454 Si02
#       6
#     4   8   8   8   8   4
#     4  11  22  39  58  82 114 151 190 235 286 342
#     4  11  22  38  58  86 119 152 189 239 291 339
#     4  10  19  37  61  85 111 149 193 234 280 342
#     4  11  22  38  58  85 115 149 190 236 285 340
#     4  11  22  39  61  86 114 153 196 236 283 346
#     4   9  21  37  58  84 112 143 186 235 280 330
#
# _framework density 18.533767999999998
#
# number of rings (size 3 to 8) (size 9 to 14) (size 15 to 20)
#    0.000    1.400    0.000    9.300    0.000    2.400 
#    0.000   11.500    0.000    0.000    0.000    0.000 
#    0.000    0.000    0.000    0.000    0.000    0.000 
#
# Total GULP energy -111811.993310 kJ/mol
# GULP energy per Si atom -5590.599666 kJ/mol
# Density = 1.849158 g / cm^3
# Si number density = 18.533768 Si / 1000 Ang^3
#
#
#
# Elastic Constant Matrix: (Units=GPa)
#
#
# Indices 1 2 3 4 5 6 
#
# 1 75.6045 0.7493 3.5608 0.0000 0.0000 0.0000
# 2 0.7493 146.9153 91.2318 0.0000 0.0000 0.0000
# 3 3.5608 91.2318 83.9246 0.0000 0.0000 0.0000
# 4 0.0000 0.0000 0.0000 39.6256 0.0000 0.0000
# 5 0.0000 0.0000 0.0000 0.0000 -8.3285 0.0000
# 6 0.0000 0.0000 0.0000 0.0000 0.0000 164.7434
#
#
#
# Elastic Compliance Matrix: (Units=1/GPa)
#
#
# Indices 1 2 3 4 5 6 
#
# 1 0.013289 0.000869 -0.001508 0.000000 0.000000 0.000000
# 2 0.000869 0.021004 -0.022869 0.000000 0.000000 0.000000
# 3 -0.001508 -0.022869 0.036840 0.000000 0.000000 0.000000
# 4 0.000000 0.000000 0.000000 0.025236 0.000000 0.000000
# 5 0.000000 0.000000 0.000000 0.000000 -0.120070 0.000000
# 6 0.000000 0.000000 0.000000 0.000000 0.000000 0.006070
#
#
# Mechanical properties :
#
#
# Convention : Reuss Voigt Hill
#
# Bulk Modulus (GPa) = 41.46762 55.28091 48.37426
# Shear Modulus (GPa) = 133.60076 53.26827 93.43451
#
# Velocity S-wave (km/s) = 8.49950 5.36690 7.10792
# Velocity P-wave (km/s) = 10.89700 8.26418 9.67061
#
# Compressibility (1/GPa) = 0.02411520
#
# Stress axis : x y z
#
# Youngs Moduli (GPa) = 75.24929 47.61100 27.14456
#
# Poissons Ratio (x) = -0.04137 0.04094
# Poissons Ratio (y) = -0.06539 0.62077
# Poissons Ratio (z) = 0.11351 1.08882
#
# Static dielectric constant tensor:
#      x y z
#    x 1.618950 0.000000 0.000000 
#    y 0.000000 1.622440 0.000000 
#    z 0.000000 0.000000 1.610300 
# 
# From -- ./inp_files/3500.got.cif
#   From: 2010.05.17/outbox.cif.g08.bks.cpg/sg38_2_cif.got.tgz:3500.got - 2010.06.03 18:07:57.
