data_PCOD9357978
_publ_section_title
;
Structure prediction by ZEFSAII (Michael W. Deem and Ramdas Pophale) SiO2 
 PCOD9357978
Probable space group: A M M 2
;
_chemical_formula_sum "Si O2"
_cell_formula_units_Z 48
_cell_length_a 7.506161
_cell_length_b 19.301647
_cell_length_c 14.853719
_cell_angle_alpha 90.000000
_cell_angle_beta 90.000000
_cell_angle_gamma 90.000000
_cell_volume 2152.025672
_symmetry_space_group_name_H-M "A M M 2"
_symmetry_group_IT_number 38
_symmetry_cell_setting 'orthorhombic'
loop_
_space_group_symop_operation_xyz
x,y,z
-x,-y,z
-x,y,z
x,-y,z
x,1/2+y,1/2+z
-x,1/2-y,1/2+z
-x,1/2+y,1/2+z
x,1/2-y,1/2+z
loop_
_atom_site_type_symbol
_atom_site_label
_atom_site_fract_x
_atom_site_fract_y
_atom_site_fract_z
Si Si1 0.284765 0.500000 0.821010
Si Si2 0.209178 0.848811 0.564549
Si Si3 0.715505 0.891698 0.171867
Si Si4 0.713678 0.758572 0.729265
Si Si5 0.205389 0.574533 0.473210
Si Si6 0.796555 0.500000 0.026914
Si Si7 0.792038 0.726244 0.436455
O O1 0.500000 0.500000 0.831214
O O2 0.234258 0.566124 0.760844
O O3 0.203033 0.500000 0.918822
O O4 0.226037 0.821097 0.665968
O O5 0.283798 0.788733 0.497792
O O6 0.000000 0.854909 0.540523
O O7 0.285894 0.926042 0.554445
O O8 0.500000 0.895461 0.165000
O O9 0.770876 0.812356 0.180994
O O10 0.791251 0.923721 0.081447
O O11 0.500000 0.759052 0.732759
O O12 0.780326 0.757539 0.831085
O O13 0.283766 0.500000 0.444297
O O14 0.287739 0.648984 0.447972
O O15 0.000000 0.574985 0.441380
O O16 0.000000 0.500000 0.062604
O O17 0.000000 0.720203 0.463234
#
# Coordination Sequence:
#
# PCOD9357978 Si02
#       7
#     4   8   8   8   8   4   8
#     4  10  20  34  54  83 118 151 180 223 288 348
#     4  10  21  40  62  84 114 151 191 238 287 336
#     4  10  20  34  54  82 116 149 182 224 281 341
#     4  11  23  37  58  87 115 151 195 236 281 338
#     4  10  20  35  57  85 113 144 185 232 280 331
#     4  10  22  38  58  85 112 145 192 239 282 330
#     4  10  21  38  60  84 114 152 191 234 286 340
#
# _framework density 22.304566999999999
#
# number of rings (size 3 to 8) (size 9 to 14) (size 15 to 20)
#    0.000    1.833    2.500    1.500    0.000    3.333 
#    1.500    0.000    0.000    0.000    0.000    0.000 
#    0.000    0.000    0.000    0.000    0.000    0.000 
#
# Total GULP energy -134024.546499 kJ/mol
# GULP energy per Si atom -5584.356104 kJ/mol
# Density = 2.225380 g / cm^3
# Si number density = 22.304567 Si / 1000 Ang^3
#
#
#
# Elastic Constant Matrix: (Units=GPa)
#
#
# Indices 1 2 3 4 5 6 
#
# 1 62.4145 17.2492 -9.5028 0.0000 0.0000 0.0000
# 2 17.2492 180.0125 16.1943 0.0000 0.0000 0.0000
# 3 -9.5028 16.1943 54.0434 0.0000 0.0000 0.0000
# 4 0.0000 0.0000 0.0000 33.9862 0.0000 0.0000
# 5 0.0000 0.0000 0.0000 0.0000 36.3002 0.0000
# 6 0.0000 0.0000 0.0000 0.0000 0.0000 47.9301
#
#
#
# Elastic Compliance Matrix: (Units=1/GPa)
#
#
# Indices 1 2 3 4 5 6 
#
# 1 0.017112 -0.001963 0.003597 0.000000 0.000000 0.000000
# 2 -0.001963 0.005934 -0.002123 0.000000 0.000000 0.000000
# 3 0.003597 -0.002123 0.019772 0.000000 0.000000 0.000000
# 4 0.000000 0.000000 0.000000 0.029424 0.000000 0.000000
# 5 0.000000 0.000000 0.000000 0.000000 0.027548 0.000000
# 6 0.000000 0.000000 0.000000 0.000000 0.000000 0.020864
#
#
# Mechanical properties :
#
#
# Convention : Reuss Voigt Hill
#
# Bulk Modulus (GPa) = 23.90058 38.26128 31.08093
# Shear Modulus (GPa) = 36.87851 41.81193 39.34522
#
# Velocity S-wave (km/s) = 4.07062 4.33435 4.20455
# Velocity P-wave (km/s) = 5.72993 6.49923 6.12667
#
# Compressibility (1/GPa) = 0.04183998
#
# Stress axis : x y z
#
# Youngs Moduli (GPa) = 58.43774 168.51089 50.57532
#
# Poissons Ratio (x) = 0.33085 -0.18193
# Poissons Ratio (y) = 0.11473 0.10740
# Poissons Ratio (z) = -0.21022 0.35783
#
# Static dielectric constant tensor:
#      x y z
#    x 1.828050 0.000000 0.000000 
#    y 0.000000 1.882100 0.000000 
#    z 0.000000 0.000000 1.743150 
# 
# From -- ./inp_files/12060.got.cif
#   From: 2010.05.17/outbox.cif.g08.bks.cpg/sg38_7_cif.got.tgz:12060.got - 2010.06.03 18:07:57.
