data_PCOD9357942
_publ_section_title
;
Structure prediction by ZEFSAII (Michael W. Deem and Ramdas Pophale) SiO2 
 PCOD9357942
Probable space group: A M M 2
;
_chemical_formula_sum "Si O2"
_cell_formula_units_Z 64
_cell_length_a 15.041457
_cell_length_b 9.623717
_cell_length_c 20.843397
_cell_angle_alpha 90.000000
_cell_angle_beta 90.000000
_cell_angle_gamma 90.000000
_cell_volume 3017.180210
_symmetry_space_group_name_H-M "A M M 2"
_symmetry_group_IT_number 38
_symmetry_cell_setting 'orthorhombic'
loop_
_space_group_symop_operation_xyz
x,y,z
-x,-y,z
-x,y,z
x,-y,z
x,1/2+y,1/2+z
-x,1/2-y,1/2+z
-x,1/2+y,1/2+z
x,1/2-y,1/2+z
loop_
_atom_site_type_symbol
_atom_site_label
_atom_site_fract_x
_atom_site_fract_y
_atom_site_fract_z
Si Si1 0.108877 0.158703 0.533890
Si Si2 0.609065 0.158029 0.587986
Si Si3 0.892090 0.661567 0.180374
Si Si4 0.352247 0.343127 0.844557
Si Si5 0.396610 0.155823 0.202638
Si Si6 0.896470 0.845687 0.919052
Si Si7 0.607473 0.658609 0.466814
Si Si8 0.850969 0.342390 0.801554
O O1 0.134076 0.194316 0.606918
O O2 0.143485 0.260569 0.478710
O O3 0.000000 0.158631 0.532847
O O4 0.136112 0.000000 0.519932
O O5 0.500000 0.152799 0.588013
O O6 0.640717 0.233011 0.653047
O O7 0.636989 0.250793 0.527693
O O8 0.640667 0.000000 0.583424
O O9 0.867896 0.500000 0.193621
O O10 0.855220 0.766783 0.233096
O O11 0.000000 0.668934 0.183882
O O12 0.383802 0.500000 0.861264
O O13 0.394454 0.300542 0.776656
O O14 0.368246 0.237513 0.901652
O O15 0.249101 0.350532 0.827130
O O16 0.500000 0.142059 0.184617
O O17 0.356257 0.000000 0.198266
O O18 0.895222 0.755887 0.854503
O O19 0.000000 0.861724 0.935511
O O20 0.857969 0.000000 0.909897
O O21 0.500000 0.653989 0.469750
O O22 0.639871 0.500000 0.469086
O O23 0.886800 0.500000 0.798705
#
# Coordination Sequence:
#
# PCOD9357942 Si02
#       8
#     8   8   8   8   8   8   8   8
#     4   8  15  30  53  79 104 130 165 212 262 309
#     4   9  17  30  51  79 108 135 166 208 255 303
#     4   9  18  34  56  80 105 134 169 210 258 311
#     4  10  22  38  53  73 104 141 178 214 256 306
#     4   9  17  32  55  78 100 130 169 213 259 305
#     4  10  20  34  54  79 105 135 173 215 259 309
#     4  10  20  34  55  82 107 133 170 214 258 306
#     4  11  23  36  51  74 105 140 178 217 255 302
#
# _framework density 21.211857999999999
#
# number of rings (size 3 to 8) (size 9 to 14) (size 15 to 20)
#    0.000    2.500    0.000    3.000    0.000    7.250 
#    0.000    3.750    0.000    3.000    0.000    0.000 
#    0.000    0.000    0.000    0.000    0.000    0.000 
#
# Total GULP energy -178658.258510 kJ/mol
# GULP energy per Si atom -5583.070578 kJ/mol
# Density = 2.116358 g / cm^3
# Si number density = 21.211858 Si / 1000 Ang^3
#
#
#
# Elastic Constant Matrix: (Units=GPa)
#
#
# Indices 1 2 3 4 5 6 
#
# 1 21.7326 -0.3775 -12.2292 0.0000 0.0000 0.0000
# 2 -0.3775 190.1868 132.9591 0.0000 0.0000 0.0000
# 3 -12.2292 132.9591 153.7911 0.0000 0.0000 0.0000
# 4 0.0000 0.0000 0.0000 39.0388 0.0000 0.0000
# 5 0.0000 0.0000 0.0000 0.0000 -27.3281 0.0000
# 6 0.0000 0.0000 0.0000 0.0000 0.0000 6.2175
#
#
#
# Elastic Compliance Matrix: (Units=1/GPa)
#
#
# Indices 1 2 3 4 5 6 
#
# 1 0.051603 -0.006993 0.010149 0.000000 0.000000 0.000000
# 2 -0.006993 0.014239 -0.012866 0.000000 0.000000 0.000000
# 3 0.010149 -0.012866 0.018433 0.000000 0.000000 0.000000
# 4 0.000000 0.000000 0.000000 0.025616 0.000000 0.000000
# 5 0.000000 0.000000 0.000000 0.000000 -0.036592 0.000000
# 6 0.000000 0.000000 0.000000 0.000000 0.000000 0.160835
#
#
# Mechanical properties :
#
#
# Convention : Reuss Voigt Hill
#
# Bulk Modulus (GPa) = 15.41903 67.37947 41.39925
# Shear Modulus (GPa) = 18.17053 19.94285 19.05669
#
# Velocity S-wave (km/s) = 2.92998 3.06955 3.00058
# Velocity P-wave (km/s) = 4.32796 6.66310 5.61819
#
# Compressibility (1/GPa) = 0.06485492
#
# Stress axis : x y z
#
# Youngs Moduli (GPa) = 19.37863 70.23103 54.25175
#
# Poissons Ratio (x) = 0.49110 -0.55059
# Poissons Ratio (y) = 0.13551 0.69800
# Poissons Ratio (z) = -0.19667 0.90359
#
# Static dielectric constant tensor:
#      x y z
#    x 1.766560 0.000000 0.000000 
#    y 0.000000 1.767280 0.000000 
#    z 0.000000 0.000000 1.726820 
# 
# From -- ./inp_files/21399.got.cif
#   From: 2010.05.17/outbox.cif.g08.bks.cpg/sg38_11_cif.got.tgz:21399.got - 2010.06.03 18:07:57.
