data_PCOD9357839
_publ_section_title
;
Structure prediction by ZEFSAII (Michael W. Deem and Ramdas Pophale) SiO2 
 PCOD9357839
Probable space group: A M M 2
;
_chemical_formula_sum "Si O2"
_cell_formula_units_Z 56
_cell_length_a 14.859672
_cell_length_b 18.881998
_cell_length_c 8.350006
_cell_angle_alpha 90.000000
_cell_angle_beta 90.000000
_cell_angle_gamma 90.000000
_cell_volume 2342.847163
_symmetry_space_group_name_H-M "A M M 2"
_symmetry_group_IT_number 38
_symmetry_cell_setting 'orthorhombic'
loop_
_space_group_symop_operation_xyz
x,y,z
-x,-y,z
-x,y,z
x,-y,z
x,1/2+y,1/2+z
-x,1/2-y,1/2+z
-x,1/2+y,1/2+z
x,1/2-y,1/2+z
loop_
_atom_site_type_symbol
_atom_site_label
_atom_site_fract_x
_atom_site_fract_y
_atom_site_fract_z
Si Si1 0.902902 0.579069 0.027850
Si Si2 0.296071 0.600640 0.916454
Si Si3 0.128625 0.214403 0.746703
Si Si4 0.699145 0.393793 0.567001
Si Si5 0.397407 0.900862 0.739026
Si Si6 0.097624 0.855676 0.080302
Si Si7 0.324343 0.770831 0.607806
O O1 0.898140 0.500000 0.106662
O O2 0.904602 0.647296 0.142555
O O3 0.000000 0.579594 0.940870
O O4 0.810328 0.585124 0.929898
O O5 0.329897 0.578187 0.742157
O O6 0.345669 0.574133 0.077557
O O7 0.311559 0.684978 0.942167
O O8 0.099213 0.294991 0.716032
O O9 0.233297 0.214098 0.705181
O O10 0.105060 0.194566 0.925165
O O11 0.656380 0.419525 0.400977
O O12 0.808584 0.398237 0.570014
O O13 0.670390 0.311215 0.574687
O O14 0.500000 0.923824 0.747933
O O15 0.396945 0.815545 0.706555
O O16 0.000000 0.892286 0.076708
#
# Coordination Sequence:
#
# PCOD9357839 Si02
#       7
#     8   8   8   8   8   8   8
#     4  10  20  36  60  87 118 158 201 241 288 355
#     4   9  21  35  55  80 112 152 190 244 287 344
#     4  10  20  34  51  81 117 154 196 237 294 352
#     4  11  19  34  52  77 118 154 190 235 295 351
#     4  10  21  35  52  79 111 147 196 245 294 354
#     4  11  21  31  51  84 118 153 195 239 291 356
#     4   8  18  33  47  72 110 149 183 233 283 344
#
# _framework density 23.902539999999998
#
# number of rings (size 3 to 8) (size 9 to 14) (size 15 to 20)
#    0.857    1.286    1.429    2.143   10.000    1.714 
#    0.000    0.000    0.000    3.857    0.000    8.000 
#    0.000    0.000    0.000    0.000    0.000    0.000 
#
# Total GULP energy -156065.882651 kJ/mol
# GULP energy per Si atom -5573.781523 kJ/mol
# Density = 2.384814 g / cm^3
# Si number density = 23.902540 Si / 1000 Ang^3
#
#
#
# Elastic Constant Matrix: (Units=GPa)
#
#
# Indices 1 2 3 4 5 6 
#
# 1 161.7567 24.4147 73.3258 0.0000 0.0000 0.0000
# 2 24.4147 118.9313 11.9528 0.0000 0.0000 0.0000
# 3 73.3258 11.9528 183.7663 0.0000 0.0000 0.0000
# 4 0.0000 0.0000 0.0000 -51.1099 0.0000 0.0000
# 5 0.0000 0.0000 0.0000 0.0000 -0.0953 0.0000
# 6 0.0000 0.0000 0.0000 0.0000 0.0000 -13.3769
#
#
#
# Elastic Compliance Matrix: (Units=1/GPa)
#
#
# Indices 1 2 3 4 5 6 
#
# 1 0.007738 -0.001287 -0.003004 0.000000 0.000000 0.000000
# 2 -0.001287 0.008677 -0.000051 0.000000 0.000000 0.000000
# 3 -0.003004 -0.000051 0.006644 0.000000 0.000000 0.000000
# 4 0.000000 0.000000 0.000000 -0.019566 0.000000 0.000000
# 5 0.000000 0.000000 0.000000 0.000000-10.489811 0.000000
# 6 0.000000 0.000000 0.000000 0.000000 0.000000 -0.074756
#
#
# Mechanical properties :
#
#
# Convention : Reuss Voigt Hill
#
# Bulk Modulus (GPa) = 69.56031 75.98231 72.77131
# Shear Modulus (GPa) = -0.47404 10.73430 5.13013
#
# Velocity S-wave (km/s) = -0.44582 2.12146 1.46660
# Velocity P-wave (km/s) = 5.37585 6.15290 5.77746
#
# Compressibility (1/GPa) = 0.01437602
#
# Stress axis : x y z
#
# Youngs Moduli (GPa) = 129.23207 115.24105 150.52026
#
# Poissons Ratio (x) = 0.14827 0.45215
# Poissons Ratio (y) = 0.16627 0.00768
# Poissons Ratio (z) = 0.38820 0.00588
#
# Static dielectric constant tensor:
#      x y z
#    x 1.899690 0.000000 0.000000 
#    y 0.000000 1.939740 0.000000 
#    z 0.000000 0.000000 1.951770 
# 
# From -- ./inp_files/5732.got.cif
#   From: 2010.05.17/outbox.cif.g08.bks.cpg/sg38_3_cif.got.tgz:5732.got - 2010.06.03 18:07:57.
