data_PCOD9357225
_publ_section_title
;
Structure prediction by ZEFSAII (Michael W. Deem and Ramdas Pophale) SiO2 
 PCOD9357225
Probable space group: A M M 2
;
_chemical_formula_sum "Si O2"
_cell_formula_units_Z 64
_cell_length_a 18.590539
_cell_length_b 12.838503
_cell_length_c 14.133226
_cell_angle_alpha 90.000000
_cell_angle_beta 90.000000
_cell_angle_gamma 90.000000
_cell_volume 3373.243344
_symmetry_space_group_name_H-M "A M M 2"
_symmetry_group_IT_number 38
_symmetry_cell_setting 'orthorhombic'
loop_
_space_group_symop_operation_xyz
x,y,z
-x,-y,z
-x,y,z
x,-y,z
x,1/2+y,1/2+z
-x,1/2-y,1/2+z
-x,1/2+y,1/2+z
x,1/2-y,1/2+z
loop_
_atom_site_type_symbol
_atom_site_label
_atom_site_fract_x
_atom_site_fract_y
_atom_site_fract_z
Si Si1 0.683487 0.731003 0.695670
Si Si2 0.584914 0.624566 0.068046
Si Si3 0.417210 0.874847 0.350258
Si Si4 0.081316 0.376625 0.899411
Si Si5 0.773513 0.378528 0.535650
Si Si6 0.919666 0.885618 0.752565
Si Si7 0.079758 0.774118 0.081583
Si Si8 0.198641 0.722638 0.345506
O O1 0.635783 0.814630 0.639579
O O2 0.634182 0.672390 0.771889
O O3 0.719371 0.655333 0.618463
O O4 0.747416 0.779886 0.758171
O O5 0.500000 0.647202 0.083977
O O6 0.594086 0.500000 0.077153
O O7 0.601547 0.653401 0.958723
O O8 0.500000 0.842939 0.333703
O O9 0.414335 0.000000 0.345476
O O10 0.089887 0.500000 0.914685
O O11 0.150281 0.328037 0.846047
O O12 0.000000 0.361953 0.857294
O O13 0.081751 0.309394 0.995715
O O14 0.765131 0.500000 0.512703
O O15 0.854636 0.352666 0.570287
O O16 0.763173 0.303848 0.444197
O O17 0.911773 0.796194 0.674947
O O18 0.861186 0.866626 0.832001
O O19 0.000000 0.879595 0.792717
O O20 0.911371 0.000000 0.708592
O O21 0.000000 0.822245 0.082327
#
# Coordination Sequence:
#
# PCOD9357225 Si02
#       8
#     8   8   8   8   8   8   8   8
#     4  12  22  38  59  87 120 159 190 227 285 349
#     4   9  20  40  65  93 120 147 188 239 287 338
#     4   9  19  38  64  90 115 147 190 235 278 335
#     4   9  18  34  56  79 107 146 197 259 312 348
#     4  11  24  40  55  81 119 158 194 242 293 346
#     4  10  19  34  56  78 104 144 196 248 292 342
#     4   9  18  36  57  80 105 141 197 252 300 353
#     4  11  23  37  54  81 118 156 199 239 290 353
#
# _framework density 18.972837999999999
#
# number of rings (size 3 to 8) (size 9 to 14) (size 15 to 20)
#    0.000    2.000    1.250    3.375    0.000    4.250 
#    0.000    1.875    0.000    0.000    0.000    5.250 
#    0.000    0.000    0.000    0.000    0.000    0.000 
#
# Total GULP energy -178545.489405 kJ/mol
# GULP energy per Si atom -5579.546544 kJ/mol
# Density = 1.892966 g / cm^3
# Si number density = 18.972838 Si / 1000 Ang^3
#
#
#
# Elastic Constant Matrix: (Units=GPa)
#
#
# Indices 1 2 3 4 5 6 
#
# 1 110.3207 43.6386 63.8051 0.0000 0.0000 0.0000
# 2 43.6386 68.3993 24.8435 0.0000 0.0000 0.0000
# 3 63.8051 24.8435 91.4927 0.0000 0.0000 0.0000
# 4 0.0000 0.0000 0.0000 24.2303 0.0000 0.0000
# 5 0.0000 0.0000 0.0000 0.0000 24.3699 0.0000
# 6 0.0000 0.0000 0.0000 0.0000 0.0000 20.3746
#
#
#
# Elastic Compliance Matrix: (Units=1/GPa)
#
#
# Indices 1 2 3 4 5 6 
#
# 1 0.018317 -0.007818 -0.010651 0.000000 0.000000 0.000000
# 2 -0.007818 0.019556 0.000142 0.000000 0.000000 0.000000
# 3 -0.010651 0.000142 0.018319 0.000000 0.000000 0.000000
# 4 0.000000 0.000000 0.000000 0.041271 0.000000 0.000000
# 5 0.000000 0.000000 0.000000 0.000000 0.041034 0.000000
# 6 0.000000 0.000000 0.000000 0.000000 0.000000 0.049081
#
#
# Mechanical properties :
#
#
# Convention : Reuss Voigt Hill
#
# Bulk Modulus (GPa) = 51.18165 59.42078 55.30122
# Shear Modulus (GPa) = 21.66893 22.98999 22.32946
#
# Velocity S-wave (km/s) = 3.38317 3.48477 3.43434
# Velocity P-wave (km/s) = 6.50353 6.89771 6.70352
#
# Compressibility (1/GPa) = 0.01953825
#
# Stress axis : x y z
#
# Youngs Moduli (GPa) = 54.59402 51.13467 54.58732
#
# Poissons Ratio (x) = 0.39975 0.58142
# Poissons Ratio (y) = 0.42679 -0.00773
# Poissons Ratio (z) = 0.58149 -0.00724
#
# Static dielectric constant tensor:
#      x y z
#    x 1.708030 0.000000 0.000000 
#    y 0.000000 1.634510 0.000000 
#    z 0.000000 0.000000 1.672690 
# 
# From -- ./inp_files/15280.got.cif
#   From: 2010.05.17/outbox.cif.g08.bks.cpg/sg38_8_cif.got.tgz:15280.got - 2010.06.03 18:07:57.
