data_PCOD9357516
_publ_section_title
;
Structure prediction by ZEFSAII (Michael W. Deem and Ramdas Pophale) SiO2 
 PCOD9357516
Probable space group: A M M 2
;
_chemical_formula_sum "Si O2"
_cell_formula_units_Z 64
_cell_length_a 8.957890
_cell_length_b 30.781840
_cell_length_c 14.709983
_cell_angle_alpha 90.000000
_cell_angle_beta 90.000000
_cell_angle_gamma 90.000000
_cell_volume 4056.135666
_symmetry_space_group_name_H-M "A M M 2"
_symmetry_group_IT_number 38
_symmetry_cell_setting 'orthorhombic'
loop_
_space_group_symop_operation_xyz
x,y,z
-x,-y,z
-x,y,z
x,-y,z
x,1/2+y,1/2+z
-x,1/2-y,1/2+z
-x,1/2+y,1/2+z
x,1/2-y,1/2+z
loop_
_atom_site_type_symbol
_atom_site_label
_atom_site_fract_x
_atom_site_fract_y
_atom_site_fract_z
Si Si1 0.324080 0.368734 0.331140
Si Si2 0.173740 0.277042 0.007288
Si Si3 0.677217 0.949256 0.104009
Si Si4 0.680340 0.789555 0.702322
Si Si5 0.821892 0.549732 0.405177
Si Si6 0.679244 0.202847 0.316906
Si Si7 0.831102 0.173175 0.997054
Si Si8 0.824548 0.370062 0.694267
O O1 0.500000 0.376167 0.322382
O O2 0.276821 0.333342 0.256207
O O3 0.239791 0.414524 0.335905
O O4 0.286571 0.346013 0.427155
O O5 0.257947 0.294585 0.918748
O O6 0.000000 0.290039 0.005875
O O7 0.248312 0.289042 0.102929
O O8 0.180243 0.224796 0.000437
O O9 0.500000 0.941505 0.097009
O O10 0.749510 0.916598 0.176175
O O11 0.701444 0.000000 0.126636
O O12 0.751346 0.941865 0.004918
O O13 0.500000 0.788529 0.695288
O O14 0.724695 0.746580 0.760530
O O15 0.783474 0.500000 0.380354
O O16 0.000000 0.553059 0.412919
O O17 0.500000 0.201693 0.317915
O O18 0.744065 0.160679 0.266631
O O19 0.810736 0.154428 0.097348
O O20 0.000000 0.161348 0.966417
O O21 0.000000 0.374397 0.715076
#
# Coordination Sequence:
#
# PCOD9357516 Si02
#       8
#     8   8   8   8   8   8   8   8
#     4  11  21  33  51  75 102 136 177 214 254 306
#     4  11  22  36  53  73 101 137 177 220 257 298
#     4  10  20  33  50  74 103 136 173 212 257 308
#     4  10  22  36  51  74 102 136 174 212 256 306
#     4  10  20  33  49  72 103 137 171 210 258 309
#     4  11  22  36  53  74 104 139 175 215 257 305
#     4  10  20  31  47  72 104 138 172 212 254 298
#     4  11  21  34  51  76 105 138 178 213 256 307
#
# _framework density 15.778565
#
# number of rings (size 3 to 8) (size 9 to 14) (size 15 to 20)
#    0.000    1.500    3.750    2.250    0.000    4.000 
#    0.000    0.000    0.000    0.000    0.000    0.875 
#    0.000    3.000    0.000    0.000    0.000    0.000 
#
# Total GULP energy -178646.122478 kJ/mol
# GULP energy per Si atom -5582.691327 kJ/mol
# Density = 1.574265 g / cm^3
# Si number density = 15.778565 Si / 1000 Ang^3
#
#
#
# Elastic Constant Matrix: (Units=GPa)
#
#
# Indices 1 2 3 4 5 6 
#
# 1 67.1804 48.7422 47.4250 0.0000 0.0000 0.0000
# 2 48.7422 109.2813 53.5145 0.0000 0.0000 0.0000
# 3 47.4250 53.5145 93.9702 0.0000 0.0000 0.0000
# 4 0.0000 0.0000 0.0000 25.0127 0.0000 0.0000
# 5 0.0000 0.0000 0.0000 0.0000 631.2491 0.0000
# 6 0.0000 0.0000 0.0000 0.0000 0.0000 25.5723
#
#
#
# Elastic Compliance Matrix: (Units=1/GPa)
#
#
# Indices 1 2 3 4 5 6 
#
# 1 0.026845 -0.007404 -0.009332 0.000000 0.000000 0.000000
# 2 -0.007404 0.014731 -0.004653 0.000000 0.000000 0.000000
# 3 -0.009332 -0.004653 0.018001 0.000000 0.000000 0.000000
# 4 0.000000 0.000000 0.000000 0.039980 0.000000 0.000000
# 5 0.000000 0.000000 0.000000 0.000000 0.001584 0.000000
# 6 0.000000 0.000000 0.000000 0.000000 0.000000 0.039105
#
#
# Mechanical properties :
#
#
# Convention : Reuss Voigt Hill
#
# Bulk Modulus (GPa) = 59.52193 63.31060 61.41626
# Shear Modulus (GPa) = 26.50808 144.41684 85.46246
#
# Velocity S-wave (km/s) = 4.10323 9.57737 7.36758
# Velocity P-wave (km/s) = 7.76234 12.74805 10.55383
#
# Compressibility (1/GPa) = 0.01680053
#
# Stress axis : x y z
#
# Youngs Moduli (GPa) = 37.25158 67.88240 55.55285
#
# Poissons Ratio (x) = 0.50258 0.51840
# Poissons Ratio (y) = 0.27580 0.25848
# Poissons Ratio (z) = 0.34762 0.31584
#
# Static dielectric constant tensor:
#      x y z
#    x 1.303460 0.000000 0.000000 
#    y 0.000000 1.540180 0.000000 
#    z 0.000000 0.000000 1.492130 
# 
# From -- ./inp_files/8674.got.cif
#   From: 2010.05.17/outbox.cif.g08.bks.cpg/sg38_5_cif.got.tgz:8674.got - 2010.06.03 18:07:57.
