data_PCOD9357362
_publ_section_title
;
Structure prediction by ZEFSAII (Michael W. Deem and Ramdas Pophale) SiO2 
 PCOD9357362
Probable space group: A M M 2
;
_chemical_formula_sum "Si O2"
_cell_formula_units_Z 48
_cell_length_a 17.658832
_cell_length_b 7.638333
_cell_length_c 16.267122
_cell_angle_alpha 90.000000
_cell_angle_beta 90.000000
_cell_angle_gamma 90.000000
_cell_volume 2194.175122
_symmetry_space_group_name_H-M "A M M 2"
_symmetry_group_IT_number 38
_symmetry_cell_setting 'orthorhombic'
loop_
_space_group_symop_operation_xyz
x,y,z
-x,-y,z
-x,y,z
x,-y,z
x,1/2+y,1/2+z
-x,1/2-y,1/2+z
-x,1/2+y,1/2+z
x,1/2-y,1/2+z
loop_
_atom_site_type_symbol
_atom_site_label
_atom_site_fract_x
_atom_site_fract_y
_atom_site_fract_z
Si Si1 0.841227 0.710220 0.508470
Si Si2 0.322145 0.284842 0.763280
Si Si3 0.414322 0.209991 0.422600
Si Si4 0.000000 0.297607 0.091539
Si Si5 0.839278 0.203028 0.320940
Si Si6 0.000000 0.698583 0.773915
Si Si7 0.685148 0.210058 0.082628
O O1 0.838236 0.500000 0.502028
O O2 0.923718 0.759945 0.541372
O O3 0.828169 0.787511 0.418335
O O4 0.771557 0.769111 0.565788
O O5 0.322449 0.500000 0.766035
O O6 0.373173 0.224984 0.839666
O O7 0.235848 0.224774 0.778911
O O8 0.344625 0.229073 0.671414
O O9 0.500000 0.277350 0.429881
O O10 0.365718 0.245984 0.504082
O O11 0.418069 0.000000 0.415024
O O12 0.000000 0.500000 0.115083
O O13 0.000000 0.191549 0.175853
O O14 0.921005 0.283479 0.301002
O O15 0.843751 0.000000 0.293480
O O16 0.000000 0.500000 0.809788
O O17 0.687815 0.000000 0.087222
#
# Coordination Sequence:
#
# PCOD9357362 Si02
#       7
#     8   8   8   4   8   4   8
#     4  11  22  37  58  85 119 153 196 250 300 346
#     4   9  18  35  59  84 115 156 199 237 286 354
#     4  10  21  38  60  86 118 155 196 246 299 354
#     4  12  25  38  55  81 115 159 205 243 292 353
#     4  10  19  35  59  84 114 154 197 240 293 359
#     4  10  21  36  55  81 113 149 195 251 298 343
#     4  10  21  38  62  90 118 155 197 243 297 354
#
# _framework density 21.876104999999999
#
# number of rings (size 3 to 8) (size 9 to 14) (size 15 to 20)
#    0.000    1.833    1.667    2.750    0.000    5.667 
#    0.000    3.333    0.000    0.000    0.000    0.000 
#    0.000    0.000    0.000    0.000    0.000    0.000 
#
# Total GULP energy -134076.719217 kJ/mol
# GULP energy per Si atom -5586.529967 kJ/mol
# Density = 2.182631 g / cm^3
# Si number density = 21.876105 Si / 1000 Ang^3
#
#
#
# Elastic Constant Matrix: (Units=GPa)
#
#
# Indices 1 2 3 4 5 6 
#
# 1 165.6540 7.1109 81.6307 0.0000 0.0000 0.0000
# 2 7.1109 47.9815 -6.8962 0.0000 0.0000 0.0000
# 3 81.6307 -6.8962 170.9319 0.0000 0.0000 0.0000
# 4 0.0000 0.0000 0.0000 29.9593 0.0000 0.0000
# 5 0.0000 0.0000 0.0000 0.0000 5.2769 0.0000
# 6 0.0000 0.0000 0.0000 0.0000 0.0000 19.2420
#
#
#
# Elastic Compliance Matrix: (Units=1/GPa)
#
#
# Indices 1 2 3 4 5 6 
#
# 1 0.008039 -0.001753 -0.003910 0.000000 0.000000 0.000000
# 2 -0.001753 0.021345 0.001698 0.000000 0.000000 0.000000
# 3 -0.003910 0.001698 0.007786 0.000000 0.000000 0.000000
# 4 0.000000 0.000000 0.000000 0.033379 0.000000 0.000000
# 5 0.000000 0.000000 0.000000 0.000000 0.189505 0.000000
# 6 0.000000 0.000000 0.000000 0.000000 0.000000 0.051970
#
#
# Mechanical properties :
#
#
# Convention : Reuss Voigt Hill
#
# Bulk Modulus (GPa) = 34.19868 60.91759 47.55813
# Shear Modulus (GPa) = 15.16535 31.07710 23.12123
#
# Velocity S-wave (km/s) = 2.63580 3.77317 3.25455
# Velocity P-wave (km/s) = 4.99300 6.84759 5.99248
#
# Compressibility (1/GPa) = 0.02924090
#
# Stress axis : x y z
#
# Youngs Moduli (GPa) = 124.40095 46.84870 128.43727
#
# Poissons Ratio (x) = 0.08214 0.50214
# Poissons Ratio (y) = 0.21810 -0.21814
# Poissons Ratio (z) = 0.48636 -0.07957
#
# Static dielectric constant tensor:
#      x y z
#    x 1.799430 0.000000 0.000000 
#    y 0.000000 1.849980 0.000000 
#    z 0.000000 0.000000 1.770880 
# 
# From -- ./inp_files/15002.got.cif
#   From: 2010.05.17/outbox.cif.g08.bks.cpg/sg38_8_cif.got.tgz:15002.got - 2010.06.03 18:07:57.
