data_PCOD9357398
_publ_section_title
;
Structure prediction by ZEFSAII (Michael W. Deem and Ramdas Pophale) SiO2 
 PCOD9357398
Probable space group: A M M 2
;
_chemical_formula_sum "Si O2"
_cell_formula_units_Z 48
_cell_length_a 8.292662
_cell_length_b 28.309359
_cell_length_c 10.021485
_cell_angle_alpha 90.000000
_cell_angle_beta 90.000000
_cell_angle_gamma 90.000000
_cell_volume 2352.643274
_symmetry_space_group_name_H-M "A M M 2"
_symmetry_group_IT_number 38
_symmetry_cell_setting 'orthorhombic'
loop_
_space_group_symop_operation_xyz
x,y,z
-x,-y,z
-x,y,z
x,-y,z
x,1/2+y,1/2+z
-x,1/2-y,1/2+z
-x,1/2+y,1/2+z
x,1/2-y,1/2+z
loop_
_atom_site_type_symbol
_atom_site_label
_atom_site_fract_x
_atom_site_fract_y
_atom_site_fract_z
Si Si1 0.192911 0.446993 0.658670
Si Si2 0.306171 0.279456 0.752951
Si Si3 0.195385 0.593893 0.379526
Si Si4 0.806655 0.800538 0.952877
Si Si5 0.806270 0.946543 0.599356
Si Si6 0.687265 0.877238 0.372356
O O1 0.228859 0.500000 0.703732
O O2 0.228464 0.440317 0.503181
O O3 0.289505 0.408643 0.740765
O O4 0.000000 0.438948 0.677917
O O5 0.500000 0.279799 0.754665
O O6 0.245578 0.234157 0.833910
O O7 0.253651 0.283716 0.598523
O O8 0.246364 0.325693 0.834766
O O9 0.252134 0.646446 0.418088
O O10 0.256257 0.572760 0.241030
O O11 0.000000 0.596880 0.368243
O O12 0.000000 0.801654 0.959637
O O13 0.767520 0.907802 0.488145
O O14 0.000000 0.949712 0.607376
O O15 0.746819 0.000000 0.570517
O O16 0.500000 0.871898 0.406191
#
# Coordination Sequence:
#
# PCOD9357398 Si02
#       6
#     8   8   8   8   8   8
#     4  10  19  35  62  90 117 153 196 247 303 356
#     4  11  25  44  63  89 126 166 201 249 316 379
#     4   9  19  37  61  91 121 149 192 249 303 356
#     4  11  23  41  67  96 121 156 206 260 305 362
#     4  10  21  38  61  89 122 161 203 250 304 358
#     4  11  24  40  58  84 122 164 201 244 298 357
#
# _framework density 20.402584000000001
#
# number of rings (size 3 to 8) (size 9 to 14) (size 15 to 20)
#    0.000    1.667    1.667    2.500    2.333    6.667 
#    0.000    1.667    0.000    2.000    0.000    0.000 
#    0.000    0.000    0.000    0.000    0.000    0.000 
#
# Total GULP energy -134050.227933 kJ/mol
# GULP energy per Si atom -5585.426164 kJ/mol
# Density = 2.035615 g / cm^3
# Si number density = 20.402584 Si / 1000 Ang^3
#
#
#
# Elastic Constant Matrix: (Units=GPa)
#
#
# Indices 1 2 3 4 5 6 
#
# 1 23.0648 9.8034 4.0609 0.0000 0.0000 0.0000
# 2 9.8034 72.6217 -3.3871 0.0000 0.0000 0.0000
# 3 4.0609 -3.3871 77.3442 0.0000 0.0000 0.0000
# 4 0.0000 0.0000 0.0000 57.4996 0.0000 0.0000
# 5 0.0000 0.0000 0.0000 0.0000 818.4750 0.0000
# 6 0.0000 0.0000 0.0000 0.0000 0.0000 15.6608
#
#
#
# Elastic Compliance Matrix: (Units=1/GPa)
#
#
# Indices 1 2 3 4 5 6 
#
# 1 0.046561 -0.006413 -0.002725 0.000000 0.000000 0.000000
# 2 -0.006413 0.014681 0.000980 0.000000 0.000000 0.000000
# 3 -0.002725 0.000980 0.013115 0.000000 0.000000 0.000000
# 4 0.000000 0.000000 0.000000 0.017391 0.000000 0.000000
# 5 0.000000 0.000000 0.000000 0.000000 0.001222 0.000000
# 6 0.000000 0.000000 0.000000 0.000000 0.000000 0.063854
#
#
# Mechanical properties :
#
#
# Convention : Reuss Voigt Hill
#
# Bulk Modulus (GPa) = 17.22915 21.55389 19.39152
# Shear Modulus (GPa) = 25.97551 189.16396 107.56974
#
# Velocity S-wave (km/s) = 3.57199 9.63934 7.26898
# Velocity P-wave (km/s) = 5.04729 11.59640 8.94292
#
# Compressibility (1/GPa) = 0.05804115
#
# Stress axis : x y z
#
# Youngs Moduli (GPa) = 21.47699 68.11371 76.24728
#
# Poissons Ratio (x) = 0.43678 0.20781
# Poissons Ratio (y) = 0.13772 -0.07469
# Poissons Ratio (z) = 0.05854 -0.06673
#
# Static dielectric constant tensor:
#      x y z
#    x 1.378660 0.000000 0.000000 
#    y 0.000000 1.535020 0.000000 
#    z 0.000000 0.000000 1.704230 
# 
# From -- ./inp_files/3768.got.cif
#   From: 2010.05.17/outbox.cif.g08.bks.cpg/sg38_2_cif.got.tgz:3768.got - 2010.06.03 18:07:57.
