data_PCOD9357418
_publ_section_title
;
Structure prediction by ZEFSAII (Michael W. Deem and Ramdas Pophale) SiO2 
 PCOD9357418
Probable space group: A M M 2
;
_chemical_formula_sum "Si O2"
_cell_formula_units_Z 40
_cell_length_a 8.489375
_cell_length_b 26.237540
_cell_length_c 9.704977
_cell_angle_alpha 90.000000
_cell_angle_beta 90.000000
_cell_angle_gamma 90.000000
_cell_volume 2161.689645
_symmetry_space_group_name_H-M "A M M 2"
_symmetry_group_IT_number 38
_symmetry_cell_setting 'orthorhombic'
loop_
_space_group_symop_operation_xyz
x,y,z
-x,-y,z
-x,y,z
x,-y,z
x,1/2+y,1/2+z
-x,1/2-y,1/2+z
-x,1/2+y,1/2+z
x,1/2-y,1/2+z
loop_
_atom_site_type_symbol
_atom_site_label
_atom_site_fract_x
_atom_site_fract_y
_atom_site_fract_z
Si Si1 0.812435 0.000000 0.443240
Si Si2 0.310501 0.906518 0.623201
Si Si3 0.691328 0.906713 0.941149
Si Si4 0.814154 0.795719 0.637380
Si Si5 0.691438 0.000000 0.131760
Si Si6 0.687527 0.291378 0.442608
O O1 0.749246 0.049538 0.523484
O O2 0.753252 0.000000 0.286411
O O3 0.000000 0.000000 0.446006
O O4 0.500000 0.904799 0.619612
O O5 0.261483 0.916934 0.782514
O O6 0.244126 0.850939 0.585912
O O7 0.500000 0.907174 0.941243
O O8 0.739146 0.849179 0.979295
O O9 0.743657 0.950142 0.046151
O O10 0.772875 0.751448 0.530726
O O11 0.725500 0.785517 0.781211
O O12 0.000000 0.797698 0.663009
O O13 0.500000 0.000000 0.135445
O O14 0.500000 0.287323 0.464084
#
# Coordination Sequence:
#
# PCOD9357418 Si02
#       6
#     4   8   8   8   4   8
#     4  12  25  38  52  82 120 150 183 230 282 336
#     4  10  20  39  63  84 107 146 192 233 280 344
#     4   8  17  34  60  85 105 136 189 238 272 322
#     4  11  22  37  57  86 118 149 187 240 294 338
#     4  10  19  36  58  82 110 144 185 234 284 332
#     4  10  20  37  58  83 114 154 197 235 279 344
#
# _framework density 18.504042999999999
#
# number of rings (size 3 to 8) (size 9 to 14) (size 15 to 20)
#    0.000    2.000    0.000    5.700    0.000    3.200 
#    0.000   13.000    0.000    0.000    0.000    0.000 
#    0.000    0.000    0.000    0.000    0.000    0.000 
#
# Total GULP energy -111700.559506 kJ/mol
# GULP energy per Si atom -5585.027975 kJ/mol
# Density = 1.846193 g / cm^3
# Si number density = 18.504043 Si / 1000 Ang^3
#
#
#
# Elastic Constant Matrix: (Units=GPa)
#
#
# Indices 1 2 3 4 5 6 
#
# 1 51.7302 16.7595 7.1436 0.0000 0.0000 0.0000
# 2 16.7595 157.4224 97.5505 0.0000 0.0000 0.0000
# 3 7.1436 97.5505 91.2686 0.0000 0.0000 0.0000
# 4 0.0000 0.0000 0.0000 35.9564 0.0000 0.0000
# 5 0.0000 0.0000 0.0000 0.0000 3.0552 0.0000
# 6 0.0000 0.0000 0.0000 0.0000 0.0000 18.0698
#
#
#
# Elastic Compliance Matrix: (Units=1/GPa)
#
#
# Indices 1 2 3 4 5 6 
#
# 1 0.020159 -0.003460 0.002121 0.000000 0.000000 0.000000
# 2 -0.003460 0.019406 -0.020471 0.000000 0.000000 0.000000
# 3 0.002121 -0.020471 0.032670 0.000000 0.000000 0.000000
# 4 0.000000 0.000000 0.000000 0.027811 0.000000 0.000000
# 5 0.000000 0.000000 0.000000 0.000000 0.327312 0.000000
# 6 0.000000 0.000000 0.000000 0.000000 0.000000 0.055341
#
#
# Mechanical properties :
#
#
# Convention : Reuss Voigt Hill
#
# Bulk Modulus (GPa) = 34.94704 60.36983 47.65844
# Shear Modulus (GPa) = 9.33081 23.34745 16.33913
#
# Velocity S-wave (km/s) = 2.24801 3.55596 2.97476
# Velocity P-wave (km/s) = 5.06608 7.03959 6.13274
#
# Compressibility (1/GPa) = 0.02861473
#
# Stress axis : x y z
#
# Youngs Moduli (GPa) = 49.60488 51.53059 30.60868
#
# Poissons Ratio (x) = 0.17831 -0.06491
# Poissons Ratio (y) = 0.17165 0.62658
# Poissons Ratio (z) = -0.10519 1.05487
#
# Static dielectric constant tensor:
#      x y z
#    x 1.616990 0.000000 0.000000 
#    y 0.000000 1.627400 0.000000 
#    z 0.000000 0.000000 1.606310 
# 
# From -- ./inp_files/3501.got.cif
#   From: 2010.05.17/outbox.cif.g08.bks.cpg/sg38_2_cif.got.tgz:3501.got - 2010.06.03 18:07:57.
