data_PCOD9357211
_publ_section_title
;
Structure prediction by ZEFSAII (Michael W. Deem and Ramdas Pophale) SiO2 
 PCOD9357211
Probable space group: A M M 2
;
_chemical_formula_sum "Si O2"
_cell_formula_units_Z 56
_cell_length_a 22.547917
_cell_length_b 8.586125
_cell_length_c 15.282640
_cell_angle_alpha 90.000000
_cell_angle_beta 90.000000
_cell_angle_gamma 90.000000
_cell_volume 2958.707395
_symmetry_space_group_name_H-M "A M M 2"
_symmetry_group_IT_number 38
_symmetry_cell_setting 'orthorhombic'
loop_
_space_group_symop_operation_xyz
x,y,z
-x,-y,z
-x,y,z
x,-y,z
x,1/2+y,1/2+z
-x,1/2-y,1/2+z
-x,1/2+y,1/2+z
x,1/2-y,1/2+z
loop_
_atom_site_type_symbol
_atom_site_label
_atom_site_fract_x
_atom_site_fract_y
_atom_site_fract_z
Si Si1 0.871281 0.810574 0.727350
Si Si2 0.648589 0.813800 0.888893
Si Si3 0.215417 0.189832 0.880069
Si Si4 0.873738 0.313659 0.531520
Si Si5 0.431610 0.685799 0.736258
Si Si6 0.431838 0.314310 0.043304
Si Si7 0.000000 0.321589 0.025739
Si Si8 0.000000 0.821369 0.739127
O O1 0.819201 0.761779 0.792369
O O2 0.863263 0.753658 0.628376
O O3 0.935855 0.752727 0.761864
O O4 0.874104 0.000000 0.725669
O O5 0.716683 0.758590 0.884604
O O6 0.613438 0.767153 0.801696
O O7 0.648558 0.000000 0.898212
O O8 0.613393 0.740992 0.969977
O O9 0.215691 0.000000 0.879789
O O10 0.176353 0.238826 0.963369
O O11 0.872988 0.500000 0.536375
O O12 0.939047 0.261195 0.500118
O O13 0.500000 0.730911 0.756296
O O14 0.427028 0.500000 0.746018
O O15 0.420153 0.733755 0.636263
O O16 0.500000 0.276311 0.017382
O O17 0.428165 0.500000 0.054206
O O18 0.000000 0.500000 0.996404
O O19 0.000000 0.323006 0.132582
O O20 0.000000 0.000000 0.771188
#
# Coordination Sequence:
#
# PCOD9357211 Si02
#       8
#     8   8   8   8   8   8   4   4
#     4   9  17  34  55  75 103 140 178 217 265 322
#     4  11  22  37  56  81 116 154 189 227 272 326
#     4   9  21  37  53  77 110 148 187 219 260 323
#     4  10  19  34  55  80 107 136 175 226 274 314
#     4  10  21  38  60  86 113 142 181 230 282 334
#     4  10  21  38  60  86 113 143 184 232 280 331
#     4   9  17  32  53  79 106 136 174 217 271 329
#     4   7  12  24  49  75  92 120 166 213 255 303
#
# _framework density 18.927184
#
# number of rings (size 3 to 8) (size 9 to 14) (size 15 to 20)
#    0.000    2.429    0.000    3.214    0.000    5.143 
#    0.000   10.714    0.000    0.000    0.000    0.000 
#    0.000    0.000    0.000    0.000    0.000    0.000 
#
# Total GULP energy -156278.947282 kJ/mol
# GULP energy per Si atom -5581.390974 kJ/mol
# Density = 1.888410 g / cm^3
# Si number density = 18.927184 Si / 1000 Ang^3
#
#
#
# Elastic Constant Matrix: (Units=GPa)
#
#
# Indices 1 2 3 4 5 6 
#
# 1 142.5870 12.4619 67.4987 0.0000 0.0000 0.0000
# 2 12.4619 24.3672 3.9093 0.0000 0.0000 0.0000
# 3 67.4987 3.9093 76.5031 0.0000 0.0000 0.0000
# 4 0.0000 0.0000 0.0000 29.6185 0.0000 0.0000
# 5 0.0000 0.0000 0.0000 0.0000 -37.5134 0.0000
# 6 0.0000 0.0000 0.0000 0.0000 0.0000 23.0873
#
#
#
# Elastic Compliance Matrix: (Units=1/GPa)
#
#
# Indices 1 2 3 4 5 6 
#
# 1 0.012551 -0.004681 -0.010835 0.000000 0.000000 0.000000
# 2 -0.004681 0.043124 0.001926 0.000000 0.000000 0.000000
# 3 -0.010835 0.001926 0.022533 0.000000 0.000000 0.000000
# 4 0.000000 0.000000 0.000000 0.033763 0.000000 0.000000
# 5 0.000000 0.000000 0.000000 0.000000 -0.026657 0.000000
# 6 0.000000 0.000000 0.000000 0.000000 0.000000 0.043314
#
#
# Mechanical properties :
#
#
# Convention : Reuss Voigt Hill
#
# Bulk Modulus (GPa) = 19.59685 45.68858 32.64271
# Shear Modulus (GPa) = 28.93253 13.67764 21.30508
#
# Velocity S-wave (km/s) = 3.91400 2.69112 3.35869
# Velocity P-wave (km/s) = 5.54997 5.81788 5.68550
#
# Compressibility (1/GPa) = 0.05102862
#
# Stress axis : x y z
#
# Youngs Moduli (GPa) = 79.67180 23.18917 44.38002
#
# Poissons Ratio (x) = 0.10854 0.48086
# Poissons Ratio (y) = 0.37293 -0.08549
# Poissons Ratio (z) = 0.86324 -0.04467
#
# Static dielectric constant tensor:
#      x y z
#    x 1.659900 0.000000 0.000000 
#    y 0.000000 1.645530 0.000000 
#    z 0.000000 0.000000 1.636150 
# 
# From -- ./inp_files/15586.got.cif
#   From: 2010.05.17/outbox.cif.g08.bks.cpg/sg38_8_cif.got.tgz:15586.got - 2010.06.03 18:07:57.
