data_PCOD9357577
_publ_section_title
;
Structure prediction by ZEFSAII (Michael W. Deem and Ramdas Pophale) SiO2 
 PCOD9357577
Probable space group: A M M 2
;
_chemical_formula_sum "Si O2"
_cell_formula_units_Z 56
_cell_length_a 9.305405
_cell_length_b 23.690648
_cell_length_c 13.165958
_cell_angle_alpha 90.000000
_cell_angle_beta 90.000000
_cell_angle_gamma 90.000000
_cell_volume 2902.449586
_symmetry_space_group_name_H-M "A M M 2"
_symmetry_group_IT_number 38
_symmetry_cell_setting 'orthorhombic'
loop_
_space_group_symop_operation_xyz
x,y,z
-x,-y,z
-x,y,z
x,-y,z
x,1/2+y,1/2+z
-x,1/2-y,1/2+z
-x,1/2+y,1/2+z
x,1/2-y,1/2+z
loop_
_atom_site_type_symbol
_atom_site_label
_atom_site_fract_x
_atom_site_fract_y
_atom_site_fract_z
Si Si1 0.169101 0.067118 0.839930
Si Si2 0.667144 0.834457 0.747636
Si Si3 0.671787 0.433734 0.776141
Si Si4 0.833542 0.733377 0.649611
Si Si5 0.333930 0.767718 0.960687
Si Si6 0.833533 0.832854 0.363152
Si Si7 0.662357 0.068381 0.043452
O O1 0.257152 0.105367 0.761452
O O2 0.230161 0.081200 0.952248
O O3 0.000000 0.079858 0.834741
O O4 0.189367 0.000000 0.823820
O O5 0.500000 0.838790 0.718663
O O6 0.754458 0.792196 0.675593
O O7 0.673511 0.805066 0.859128
O O8 0.500000 0.425934 0.787884
O O9 0.703584 0.500000 0.790225
O O10 0.758844 0.393138 0.849935
O O11 0.705644 0.417906 0.658630
O O12 0.748573 0.706086 0.556090
O O13 0.827461 0.696479 0.751750
O O14 0.000000 0.741919 0.623268
O O15 0.500000 0.758650 0.985869
O O16 0.254708 0.709086 0.934885
O O17 0.000000 0.836774 0.393255
O O18 0.500000 0.090618 0.022744
O O19 0.651447 0.000000 0.044045
#
# Coordination Sequence:
#
# PCOD9357577 Si02
#       7
#     8   8   8   8   8   8   8
#     4  10  20  32  48  73 106 141 175 215 263 313
#     4  10  21  36  55  80 106 139 181 219 258 311
#     4   9  18  32  50  73 104 141 178 217 259 307
#     4  10  21  37  56  79 108 139 172 219 270 315
#     4  10  21  37  57  79 104 138 178 221 263 311
#     4  10  21  35  53  80 109 140 176 216 264 316
#     4   8  15  28  44  65  96 135 175 210 249 300
#
# _framework density 19.294046999999999
#
# number of rings (size 3 to 8) (size 9 to 14) (size 15 to 20)
#    0.000    2.429    0.000    3.000    2.000    5.143 
#    0.000    1.429    0.000    0.857    0.000    0.000 
#    0.000    0.000    0.000    0.000    0.000    0.000 
#
# Total GULP energy -156342.391731 kJ/mol
# GULP energy per Si atom -5583.656848 kJ/mol
# Density = 1.925013 g / cm^3
# Si number density = 19.294047 Si / 1000 Ang^3
#
#
#
# Elastic Constant Matrix: (Units=GPa)
#
#
# Indices 1 2 3 4 5 6 
#
# 1 113.5189 46.6612 20.0664 0.0000 0.0000 0.0000
# 2 46.6612 82.4838 0.0596 0.0000 0.0000 0.0000
# 3 20.0664 0.0596 30.0532 0.0000 0.0000 0.0000
# 4 0.0000 0.0000 0.0000 26.6437 0.0000 0.0000
# 5 0.0000 0.0000 0.0000 0.0000 25.7647 0.0000
# 6 0.0000 0.0000 0.0000 0.0000 0.0000 28.3377
#
#
#
# Elastic Compliance Matrix: (Units=1/GPa)
#
#
# Indices 1 2 3 4 5 6 
#
# 1 0.013556 -0.007662 -0.009036 0.000000 0.000000 0.000000
# 2 -0.007662 0.016454 0.005083 0.000000 0.000000 0.000000
# 3 -0.009036 0.005083 0.039298 0.000000 0.000000 0.000000
# 4 0.000000 0.000000 0.000000 0.037532 0.000000 0.000000
# 5 0.000000 0.000000 0.000000 0.000000 0.038813 0.000000
# 6 0.000000 0.000000 0.000000 0.000000 0.000000 0.035289
#
#
# Mechanical properties :
#
#
# Convention : Reuss Voigt Hill
#
# Bulk Modulus (GPa) = 21.70222 39.95894 30.83058
# Shear Modulus (GPa) = 22.77590 26.76712 24.77151
#
# Velocity S-wave (km/s) = 3.43951 3.72872 3.58703
# Velocity P-wave (km/s) = 5.20060 6.26844 5.75932
#
# Compressibility (1/GPa) = 0.04607824
#
# Stress axis : x y z
#
# Youngs Moduli (GPa) = 73.76933 60.77433 25.44688
#
# Poissons Ratio (x) = 0.46565 0.22994
# Poissons Ratio (y) = 0.56522 -0.12935
# Poissons Ratio (z) = 0.66658 -0.30893
#
# Static dielectric constant tensor:
#      x y z
#    x 1.650930 0.000000 0.000000 
#    y 0.000000 1.690530 0.000000 
#    z 0.000000 0.000000 1.674880 
# 
# From -- ./inp_files/12362.got.cif
#   From: 2010.05.17/outbox.cif.g08.bks.cpg/sg38_7_cif.got.tgz:12362.got - 2010.06.03 18:07:57.
