data_PCOD9357161
_publ_section_title
;
Structure prediction by ZEFSAII (Michael W. Deem and Ramdas Pophale) SiO2 
 PCOD9357161
Probable space group: A M M 2
;
_chemical_formula_sum "Si O2"
_cell_formula_units_Z 48
_cell_length_a 7.877474
_cell_length_b 19.001082
_cell_length_c 15.027064
_cell_angle_alpha 90.000000
_cell_angle_beta 90.000000
_cell_angle_gamma 90.000000
_cell_volume 2249.258895
_symmetry_space_group_name_H-M "A M M 2"
_symmetry_group_IT_number 38
_symmetry_cell_setting 'orthorhombic'
loop_
_space_group_symop_operation_xyz
x,y,z
-x,-y,z
-x,y,z
x,-y,z
x,1/2+y,1/2+z
-x,1/2-y,1/2+z
-x,1/2+y,1/2+z
x,1/2-y,1/2+z
loop_
_atom_site_type_symbol
_atom_site_label
_atom_site_fract_x
_atom_site_fract_y
_atom_site_fract_z
Si Si1 0.297831 0.346602 0.847420
Si Si2 0.300430 0.230810 0.990059
Si Si3 0.698099 0.075766 0.956663
Si Si4 0.205556 0.608797 0.262733
Si Si5 0.793938 0.000000 0.615026
Si Si6 0.797413 0.500000 0.914631
Si Si7 0.200266 0.244819 0.189979
O O1 0.500000 0.340896 0.847101
O O2 0.231146 0.291364 0.923504
O O3 0.253747 0.426889 0.869333
O O4 0.234480 0.322907 0.750341
O O5 0.500000 0.224357 0.968075
O O6 0.224348 0.151709 0.982029
O O7 0.283452 0.249412 0.093603
O O8 0.500000 0.076178 0.984058
O O9 0.711247 0.077301 0.849926
O O10 0.771167 0.000000 0.987197
O O11 0.254168 0.567150 0.173869
O O12 0.256177 0.689377 0.250270
O O13 0.000000 0.603429 0.272954
O O14 0.727109 0.000000 0.515574
O O15 0.000000 0.000000 0.610407
O O16 0.000000 0.500000 0.919261
O O17 0.000000 0.252240 0.174895
#
# Coordination Sequence:
#
# PCOD9357161 Si02
#       7
#     8   8   8   8   4   4   8
#     4  11  23  42  65  89 123 164 207 255 312 373
#     4  10  22  40  62  88 122 162 205 252 304 368
#     4  10  20  36  58  86 119 155 195 241 295 353
#     4  10  19  33  56  85 118 152 190 237 299 362
#     4   9  18  33  55  86 121 154 187 239 306 366
#     4  11  23  41  63  88 123 160 203 257 310 366
#     4  11  23  38  61  91 120 159 208 256 308 364
#
# _framework density 21.340361999999999
#
# number of rings (size 3 to 8) (size 9 to 14) (size 15 to 20)
#    0.000    1.667    2.500    2.250    0.000    4.000 
#    1.500    1.667    0.000    0.000    0.000    0.000 
#    0.000    0.000    0.000    0.000    0.000    0.000 
#
# Total GULP energy -133966.262915 kJ/mol
# GULP energy per Si atom -5581.927621 kJ/mol
# Density = 2.129179 g / cm^3
# Si number density = 21.340362 Si / 1000 Ang^3
#
#
#
# Elastic Constant Matrix: (Units=GPa)
#
#
# Indices 1 2 3 4 5 6 
#
# 1 30.1332 -0.2076 -10.1505 0.0000 0.0000 0.0000
# 2 -0.2076 124.6799 6.0076 0.0000 0.0000 0.0000
# 3 -10.1505 6.0076 45.7954 0.0000 0.0000 0.0000
# 4 0.0000 0.0000 0.0000 31.2058 0.0000 0.0000
# 5 0.0000 0.0000 0.0000 0.0000 40.2179 0.0000
# 6 0.0000 0.0000 0.0000 0.0000 0.0000 5.3813
#
#
#
# Elastic Compliance Matrix: (Units=1/GPa)
#
#
# Indices 1 2 3 4 5 6 
#
# 1 0.035877 -0.000325 0.007995 0.000000 0.000000 0.000000
# 2 -0.000325 0.008075 -0.001131 0.000000 0.000000 0.000000
# 3 0.007995 -0.001131 0.023757 0.000000 0.000000 0.000000
# 4 0.000000 0.000000 0.000000 0.032045 0.000000 0.000000
# 5 0.000000 0.000000 0.000000 0.000000 0.024865 0.000000
# 6 0.000000 0.000000 0.000000 0.000000 0.000000 0.185830
#
#
# Mechanical properties :
#
#
# Convention : Reuss Voigt Hill
#
# Bulk Modulus (GPa) = 12.37873 21.32306 16.85089
# Shear Modulus (GPa) = 15.41785 29.02493 22.22139
#
# Velocity S-wave (km/s) = 2.69080 3.69195 3.23039
# Velocity P-wave (km/s) = 3.93282 5.30920 4.67197
#
# Compressibility (1/GPa) = 0.08078375
#
# Stress axis : x y z
#
# Youngs Moduli (GPa) = 27.87318 123.84652 42.09338
#
# Poissons Ratio (x) = 0.04031 -0.33653
# Poissons Ratio (y) = 0.00907 0.04762
# Poissons Ratio (z) = -0.22284 0.14012
#
# Static dielectric constant tensor:
#      x y z
#    x 1.767830 0.000000 0.000000 
#    y 0.000000 1.833430 0.000000 
#    z 0.000000 0.000000 1.741090 
# 
# From -- ./inp_files/12061.got.cif
#   From: 2010.05.17/outbox.cif.g08.bks.cpg/sg38_7_cif.got.tgz:12061.got - 2010.06.03 18:07:57.
