data_PCOD9357583
_publ_section_title
;
Structure prediction by ZEFSAII (Michael W. Deem and Ramdas Pophale) SiO2 
 PCOD9357583
Probable space group: A M M 2
;
_chemical_formula_sum "Si O2"
_cell_formula_units_Z 58
_cell_length_a 15.657599
_cell_length_b 7.854587
_cell_length_c 25.732461
_cell_angle_alpha 90.000000
_cell_angle_beta 90.000000
_cell_angle_gamma 90.000000
_cell_volume 3164.680303
_symmetry_space_group_name_H-M "A M M 2"
_symmetry_group_IT_number 38
_symmetry_cell_setting 'orthorhombic'
loop_
_space_group_symop_operation_xyz
x,y,z
-x,-y,z
-x,y,z
x,-y,z
x,1/2+y,1/2+z
-x,1/2-y,1/2+z
-x,1/2+y,1/2+z
x,1/2-y,1/2+z
loop_
_atom_site_type_symbol
_atom_site_label
_atom_site_fract_x
_atom_site_fract_y
_atom_site_fract_z
Si Si1 0.500000 0.500000 0.064101
Si Si2 0.594048 0.703071 0.719518
Si Si3 0.176125 0.197050 0.070244
Si Si4 0.626811 0.295005 0.598004
Si Si5 0.223280 0.205028 0.756626
Si Si6 0.097415 0.203916 0.846430
Si Si7 0.906624 0.698503 0.171430
Si Si8 0.902916 0.703398 0.963851
O O1 0.573038 0.654065 0.067303
O O2 0.500000 0.772073 0.734571
O O3 0.589273 0.500000 0.721702
O O4 0.610278 0.746310 0.658920
O O5 0.677221 0.751108 0.752354
O O6 0.274223 0.229150 0.084312
O O7 0.116391 0.293695 0.110938
O O8 0.158483 0.000000 0.080171
O O9 0.155627 0.235666 0.010697
O O10 0.606841 0.500000 0.590463
O O11 0.168177 0.267321 0.805877
O O12 0.171070 0.269364 0.705891
O O13 0.221601 0.000000 0.757238
O O14 0.121747 0.241379 0.905877
O O15 0.000000 0.269364 0.837574
O O16 0.093152 0.000000 0.840237
O O17 0.912169 0.500000 0.186059
O O18 0.000000 0.775459 0.181694
O O19 0.904330 0.500000 0.964840
O O20 0.000000 0.766950 0.972712
#
# Coordination Sequence:
#
# PCOD9357583 Si02
#       8
#     2   8   8   8   8   8   8   8
#     4  12  22  32  64  78 106 160 186 232 300 338
#     4  10  20  35  51  73 109 145 179 232 282 324
#     4  11  22  35  52  77 112 147 182 228 277 332
#     4  10  22  36  52  83 116 144 190 238 279 343
#     4  10  20  32  53  80 108 140 184 225 272 337
#     4   9  18  35  56  79 108 142 181 227 280 333
#     4  10  20  32  48  74 112 150 183 221 266 330
#     4  10  21  36  55  79 107 141 188 237 273 326
#
# _framework density 18.327285
#
# number of rings (size 3 to 8) (size 9 to 14) (size 15 to 20)
#    0.000    1.931    2.069    1.862    2.897    5.241 
#    0.000    0.000    0.000    2.483    1.793    0.000 
#    0.000    0.000    0.000    0.000    0.000    0.000 
#
# Total GULP energy -161447.374055 kJ/mol
# GULP energy per Si atom -5567.150829 kJ/mol
# Density = 1.828557 g / cm^3
# Si number density = 18.327285 Si / 1000 Ang^3
#
#
#
# Elastic Constant Matrix: (Units=GPa)
#
#
# Indices 1 2 3 4 5 6 
#
# 1 147.5256 20.8177 67.5727 0.0000 0.0000 0.0000
# 2 20.8177 38.3634 -0.5370 0.0000 0.0000 0.0000
# 3 67.5727 -0.5370 79.8802 0.0000 0.0000 0.0000
# 4 0.0000 0.0000 0.0000 17.7983 0.0000 0.0000
# 5 0.0000 0.0000 0.0000 0.0000 29.2949 0.0000
# 6 0.0000 0.0000 0.0000 0.0000 0.0000 19.6942
#
#
#
# Elastic Compliance Matrix: (Units=1/GPa)
#
#
# Indices 1 2 3 4 5 6 
#
# 1 0.012728 -0.007058 -0.010814 0.000000 0.000000 0.000000
# 2 -0.007058 0.029983 0.006172 0.000000 0.000000 0.000000
# 3 -0.010814 0.006172 0.021708 0.000000 0.000000 0.000000
# 4 0.000000 0.000000 0.000000 0.056185 0.000000 0.000000
# 5 0.000000 0.000000 0.000000 0.000000 0.034136 0.000000
# 6 0.000000 0.000000 0.000000 0.000000 0.000000 0.050776
#
#
# Mechanical properties :
#
#
# Convention : Reuss Voigt Hill
#
# Bulk Modulus (GPa) = 24.37911 49.05288 36.71599
# Shear Modulus (GPa) = 20.61096 25.21853 22.91475
#
# Velocity S-wave (km/s) = 3.35715 3.71349 3.53981
# Velocity P-wave (km/s) = 5.32525 6.72381 6.06498
#
# Compressibility (1/GPa) = 0.04101873
#
# Stress axis : x y z
#
# Youngs Moduli (GPa) = 78.56811 33.35231 46.06542
#
# Poissons Ratio (x) = 0.23540 0.49816
# Poissons Ratio (y) = 0.55454 -0.28432
# Poissons Ratio (z) = 0.84965 -0.20585
#
# Static dielectric constant tensor:
#      x y z
#    x 1.659530 0.000000 0.000000 
#    y 0.000000 1.669340 0.000000 
#    z 0.000000 0.000000 1.622250 
# 
# From -- ./inp_files/22795.got.cif
#   From: 2010.05.17/outbox.cif.g08.bks.cpg/sg38_12_cif.got.tgz:22795.got - 2010.06.03 18:07:57.
