data_PCOD9357102
_publ_section_title
;
Structure prediction by ZEFSAII (Michael W. Deem and Ramdas Pophale) SiO2 
 PCOD9357102
Probable space group: A M M 2
;
_chemical_formula_sum "Si O2"
_cell_formula_units_Z 44
_cell_length_a 14.806827
_cell_length_b 16.524246
_cell_length_c 8.732424
_cell_angle_alpha 90.000000
_cell_angle_beta 90.000000
_cell_angle_gamma 90.000000
_cell_volume 2136.576605
_symmetry_space_group_name_H-M "A M M 2"
_symmetry_group_IT_number 38
_symmetry_cell_setting 'orthorhombic'
loop_
_space_group_symop_operation_xyz
x,y,z
-x,-y,z
-x,y,z
x,-y,z
x,1/2+y,1/2+z
-x,1/2-y,1/2+z
-x,1/2+y,1/2+z
x,1/2-y,1/2+z
loop_
_atom_site_type_symbol
_atom_site_label
_atom_site_fract_x
_atom_site_fract_y
_atom_site_fract_z
Si Si1 0.595691 0.000000 0.638211
Si Si2 0.603187 0.597195 0.690371
Si Si3 0.781839 0.320501 0.201829
Si Si4 0.785865 0.340916 0.837197
Si Si5 0.105164 0.500000 0.851263
Si Si6 0.799609 0.000000 0.664310
Si Si7 0.596897 0.840723 0.845179
O O1 0.591669 0.077064 0.747692
O O2 0.500000 0.000000 0.545824
O O3 0.699440 0.000000 0.579595
O O4 0.500000 0.612238 0.744144
O O5 0.613256 0.500000 0.676645
O O6 0.684220 0.632344 0.790407
O O7 0.611059 0.636555 0.521477
O O8 0.829162 0.239206 0.259802
O O9 0.804277 0.413537 0.251969
O O10 0.682890 0.300753 0.269909
O O11 0.784509 0.325441 0.019284
O O12 0.846291 0.418655 0.795892
O O13 0.000000 0.500000 0.818363
O O14 0.124567 0.500000 0.034745
O O15 0.500000 0.798256 0.829589
#
# Coordination Sequence:
#
# PCOD9357102 Si02
#       7
#     4   8   8   8   4   4   8
#     4   8  12  23  47  81 118 154 196 238 274 331
#     4  10  19  33  54  85 124 166 208 252 295 346
#     4  10  21  36  58  87 123 157 202 249 294 352
#     4  11  22  40  60  91 122 160 204 247 303 359
#     4  10  22  43  67  87 114 152 194 248 314 373
#     4   8  18  36  58  88 120 156 198 234 294 356
#     4   9  16  29  51  81 119 165 209 241 285 337
#
# _framework density 20.593692000000001
#
# number of rings (size 3 to 8) (size 9 to 14) (size 15 to 20)
#    0.000    2.364    1.818    1.091    0.000    1.455 
#    0.000    6.364    0.000    0.000    0.000   43.273 
#    0.000    0.000    0.000    0.000    0.000    0.000 
#
# Total GULP energy -122549.834486 kJ/mol
# GULP energy per Si atom -5570.447022 kJ/mol
# Density = 2.054682 g / cm^3
# Si number density = 20.593692 Si / 1000 Ang^3
#
#
#
# Elastic Constant Matrix: (Units=GPa)
#
#
# Indices 1 2 3 4 5 6 
#
# 1 62.1319 42.6236 10.4154 0.0000 0.0000 0.0000
# 2 42.6236 175.9626 31.9978 0.0000 0.0000 0.0000
# 3 10.4154 31.9978 57.5634 0.0000 0.0000 0.0000
# 4 0.0000 0.0000 0.0000 55.0657 0.0000 0.0000
# 5 0.0000 0.0000 0.0000 0.0000 -19.3219 0.0000
# 6 0.0000 0.0000 0.0000 0.0000 0.0000 8.3822
#
#
#
# Elastic Compliance Matrix: (Units=1/GPa)
#
#
# Indices 1 2 3 4 5 6 
#
# 1 0.019354 -0.004507 -0.000997 0.000000 0.000000 0.000000
# 2 -0.004507 0.007372 -0.003282 0.000000 0.000000 0.000000
# 3 -0.000997 -0.003282 0.019377 0.000000 0.000000 0.000000
# 4 0.000000 0.000000 0.000000 0.018160 0.000000 0.000000
# 5 0.000000 0.000000 0.000000 0.000000 -0.051755 0.000000
# 6 0.000000 0.000000 0.000000 0.000000 0.000000 0.119300
#
#
# Mechanical properties :
#
#
# Convention : Reuss Voigt Hill
#
# Bulk Modulus (GPa) = 35.04968 51.74792 43.39880
# Shear Modulus (GPa) = 31.46854 22.86663 27.16758
#
# Velocity S-wave (km/s) = 3.91329 3.33584 3.63605
# Velocity P-wave (km/s) = 6.12168 6.32611 6.22474
#
# Compressibility (1/GPa) = 0.02853093
#
# Stress axis : x y z
#
# Youngs Moduli (GPa) = 51.66998 135.65653 51.60779
#
# Poissons Ratio (x) = 0.61138 0.05143
# Poissons Ratio (y) = 0.23287 0.16939
# Poissons Ratio (z) = 0.05149 0.44525
#
# Static dielectric constant tensor:
#      x y z
#    x 1.845380 0.000000 0.000000 
#    y 0.000000 1.686290 0.000000 
#    z 0.000000 0.000000 1.719030 
# 
# From -- ./inp_files/5423.got.cif
#   From: 2010.05.17/outbox.cif.g08.bks.cpg/sg38_3_cif.got.tgz:5423.got - 2010.06.03 18:07:57.
