data_PCOD9357816
_publ_section_title
;
Structure prediction by ZEFSAII (Michael W. Deem and Ramdas Pophale) SiO2 
 PCOD9357816
Probable space group: A M M 2
;
_chemical_formula_sum "Si O2"
_cell_formula_units_Z 58
_cell_length_a 7.721742
_cell_length_b 26.812921
_cell_length_c 13.348970
_cell_angle_alpha 90.000000
_cell_angle_beta 90.000000
_cell_angle_gamma 90.000000
_cell_volume 2763.803564
_symmetry_space_group_name_H-M "A M M 2"
_symmetry_group_IT_number 38
_symmetry_cell_setting 'orthorhombic'
loop_
_space_group_symop_operation_xyz
x,y,z
-x,-y,z
-x,y,z
x,-y,z
x,1/2+y,1/2+z
-x,1/2-y,1/2+z
-x,1/2+y,1/2+z
x,1/2-y,1/2+z
loop_
_atom_site_type_symbol
_atom_site_label
_atom_site_fract_x
_atom_site_fract_y
_atom_site_fract_z
Si Si1 0.791838 0.155626 0.869040
Si Si2 0.210838 0.681647 0.590716
Si Si3 0.796033 0.554751 0.877104
Si Si4 0.795085 0.213898 0.675416
Si Si5 0.707958 0.556242 0.264006
Si Si6 0.000000 0.000000 0.091944
Si Si7 0.692525 0.073277 0.153689
Si Si8 0.293159 0.616174 0.068270
O O1 0.722548 0.188781 0.776649
O O2 0.750122 0.097764 0.847113
O O3 0.000000 0.158998 0.867857
O O4 0.731542 0.175612 0.975552
O O5 0.273925 0.732779 0.640996
O O6 0.273717 0.632045 0.644900
O O7 0.000000 0.682057 0.591688
O O8 0.752282 0.500000 0.919806
O O9 0.702515 0.560554 0.771608
O O10 0.000000 0.555437 0.852817
O O11 0.758962 0.595253 0.960970
O O12 0.771785 0.171558 0.591347
O O13 0.000000 0.220634 0.691653
O O14 0.500000 0.553389 0.258104
O O15 0.774089 0.500000 0.281331
O O16 0.771284 0.579865 0.158270
O O17 0.153903 0.043211 0.100091
O O18 0.500000 0.061449 0.115151
O O19 0.500000 0.616753 0.074093
#
# Coordination Sequence:
#
# PCOD9357816 Si02
#       8
#     8   8   8   8   8   2   8   8
#     4   9  19  36  58  83 113 153 201 248 306 370
#     4  10  21  40  61  87 122 159 203 256 308 368
#     4  11  21  37  57  85 123 163 204 256 310 372
#     4   9  19  37  60  84 116 162 207 254 314 369
#     4   9  18  34  52  76 113 153 195 249 305 363
#     4  12  22  48  64  90 128 166 206 260 302 366
#     4  12  24  41  66  92 125 167 208 252 308 370
#     4  10  20  33  54  84 117 155 203 255 313 376
#
# _framework density 20.985572999999999
#
# number of rings (size 3 to 8) (size 9 to 14) (size 15 to 20)
#    0.000    1.931    2.069    1.448    0.000    4.414 
#    1.241    2.759    0.000    0.000    0.000    0.000 
#    0.000    0.000    0.000    0.000    0.000    0.000 
#
# Total GULP energy -161723.805225 kJ/mol
# GULP energy per Si atom -5576.682939 kJ/mol
# Density = 2.093781 g / cm^3
# Si number density = 20.985573 Si / 1000 Ang^3
#
#
#
# Elastic Constant Matrix: (Units=GPa)
#
#
# Indices 1 2 3 4 5 6 
#
# 1 72.2094 25.1048 2.7744 0.0000 0.0000 0.0000
# 2 25.1048 192.2813 39.3911 0.0000 0.0000 0.0000
# 3 2.7744 39.3911 40.6887 0.0000 0.0000 0.0000
# 4 0.0000 0.0000 0.0000 16.2026 0.0000 0.0000
# 5 0.0000 0.0000 0.0000 0.0000 8.4703 0.0000
# 6 0.0000 0.0000 0.0000 0.0000 0.0000 -10.1561
#
#
#
# Elastic Compliance Matrix: (Units=1/GPa)
#
#
# Indices 1 2 3 4 5 6 
#
# 1 0.014543 -0.002115 0.001056 0.000000 0.000000 0.000000
# 2 -0.002115 0.006795 -0.006434 0.000000 0.000000 0.000000
# 3 0.001056 -0.006434 0.030734 0.000000 0.000000 0.000000
# 4 0.000000 0.000000 0.000000 0.061719 0.000000 0.000000
# 5 0.000000 0.000000 0.000000 0.000000 0.118060 0.000000
# 6 0.000000 0.000000 0.000000 0.000000 0.000000 -0.098463
#
#
# Mechanical properties :
#
#
# Convention : Reuss Voigt Hill
#
# Bulk Modulus (GPa) = 26.96453 48.85776 37.91115
# Shear Modulus (GPa) = 31.10692 18.76395 24.93544
#
# Velocity S-wave (km/s) = 3.85424 2.99345 3.45079
# Velocity P-wave (km/s) = 5.71698 5.93968 5.82940
#
# Compressibility (1/GPa) = 0.03708575
#
# Stress axis : x y z
#
# Youngs Moduli (GPa) = 68.75964 147.16780 32.53759
#
# Poissons Ratio (x) = 0.31129 -0.03436
# Poissons Ratio (y) = 0.14544 0.20935
# Poissons Ratio (z) = -0.07261 0.94688
#
# Static dielectric constant tensor:
#      x y z
#    x 1.772760 0.000000 0.000000 
#    y 0.000000 1.735770 0.000000 
#    z 0.000000 0.000000 1.762970 
# 
# From -- ./inp_files/12652.got.cif
#   From: 2010.05.17/outbox.cif.g08.bks.cpg/sg38_7_cif.got.tgz:12652.got - 2010.06.03 18:07:57.
