data_PCOD9357960
_publ_section_title
;
Structure prediction by ZEFSAII (Michael W. Deem and Ramdas Pophale) SiO2 
 PCOD9357960
Probable space group: A M M 2
;
_chemical_formula_sum "Si O2"
_cell_formula_units_Z 64
_cell_length_a 9.124945
_cell_length_b 15.617767
_cell_length_c 23.430174
_cell_angle_alpha 90.000000
_cell_angle_beta 90.000000
_cell_angle_gamma 90.000000
_cell_volume 3339.063734
_symmetry_space_group_name_H-M "A M M 2"
_symmetry_group_IT_number 38
_symmetry_cell_setting 'orthorhombic'
loop_
_space_group_symop_operation_xyz
x,y,z
-x,-y,z
-x,y,z
x,-y,z
x,1/2+y,1/2+z
-x,1/2-y,1/2+z
-x,1/2+y,1/2+z
x,1/2-y,1/2+z
loop_
_atom_site_type_symbol
_atom_site_label
_atom_site_fract_x
_atom_site_fract_y
_atom_site_fract_z
Si Si1 0.831757 0.831022 0.739600
Si Si2 0.676546 0.402188 0.906127
Si Si3 0.326336 0.268169 0.129192
Si Si4 0.174781 0.899795 0.956217
Si Si5 0.661658 0.100635 0.842283
Si Si6 0.167617 0.638579 0.788287
Si Si7 0.325019 0.735946 0.000861
Si Si8 0.824608 0.905270 0.160957
O O1 0.762325 0.819078 0.677424
O O2 0.731669 0.886484 0.780801
O O3 0.829932 0.738275 0.770681
O O4 0.000000 0.860086 0.736713
O O5 0.500000 0.399793 0.905140
O O6 0.720701 0.500000 0.920671
O O7 0.735727 0.380502 0.843156
O O8 0.725011 0.331426 0.952570
O O9 0.500000 0.270882 0.141259
O O10 0.300595 0.298826 0.064718
O O11 0.267953 0.170633 0.133819
O O12 0.230433 0.872714 0.893018
O O13 0.000000 0.895269 0.959369
O O14 0.215854 0.000000 0.967187
O O15 0.247472 0.827962 0.995454
O O16 0.500000 0.141657 0.847008
O O17 0.645659 0.000000 0.850944
O O18 0.210523 0.594279 0.728691
O O19 0.000000 0.613997 0.801411
O O20 0.500000 0.749059 0.994056
O O21 0.000000 0.886578 0.156522
O O22 0.798535 0.000000 0.136925
#
# Coordination Sequence:
#
# PCOD9357960 Si02
#       8
#     8   8   8   8   8   8   8   8
#     4  10  20  35  55  78 106 140 175 215 267 324
#     4  10  21  36  54  77 104 136 176 221 267 314
#     4  10  21  36  53  74 101 136 181 227 269 317
#     4  10  21  36  56  84 115 146 181 222 271 329
#     4  10  20  34  54  81 111 140 172 215 268 325
#     4   9  18  32  51  77 106 134 164 202 254 315
#     4  10  22  39  56  75 105 146 187 228 275 325
#     4   9  18  33  52  75 106 140 169 204 259 324
#
# _framework density 19.167048999999999
#
# number of rings (size 3 to 8) (size 9 to 14) (size 15 to 20)
#    0.000    2.250    0.000    3.375    0.000    9.000 
#    0.000    3.125    0.000    2.250    0.000    0.000 
#    0.000    0.000    0.000    0.000    0.000    0.000 
#
# Total GULP energy -178504.114640 kJ/mol
# GULP energy per Si atom -5578.253582 kJ/mol
# Density = 1.912342 g / cm^3
# Si number density = 19.167049 Si / 1000 Ang^3
#
#
#
# Elastic Constant Matrix: (Units=GPa)
#
#
# Indices 1 2 3 4 5 6 
#
# 1 47.2499 17.7604 28.1475 0.0000 0.0000 0.0000
# 2 17.7604 32.5999 20.9374 0.0000 0.0000 0.0000
# 3 28.1475 20.9374 80.5591 0.0000 0.0000 0.0000
# 4 0.0000 0.0000 0.0000 11.6580 0.0000 0.0000
# 5 0.0000 0.0000 0.0000 0.0000 127.3140 0.0000
# 6 0.0000 0.0000 0.0000 0.0000 0.0000 21.6545
#
#
#
# Elastic Compliance Matrix: (Units=1/GPa)
#
#
# Indices 1 2 3 4 5 6 
#
# 1 0.029942 -0.011515 -0.007469 0.000000 0.000000 0.000000
# 2 -0.011515 0.041250 -0.006697 0.000000 0.000000 0.000000
# 3 -0.007469 -0.006697 0.016764 0.000000 0.000000 0.000000
# 4 0.000000 0.000000 0.000000 0.085778 0.000000 0.000000
# 5 0.000000 0.000000 0.000000 0.000000 0.007855 0.000000
# 6 0.000000 0.000000 0.000000 0.000000 0.000000 0.046180
#
#
# Mechanical properties :
#
#
# Convention : Reuss Voigt Hill
#
# Bulk Modulus (GPa) = 27.32835 32.67770 30.00302
# Shear Modulus (GPa) = 17.16277 38.36288 27.76283
#
# Velocity S-wave (km/s) = 2.99562 4.47867 3.81000
# Velocity P-wave (km/s) = 5.12386 6.62046 5.91965
#
# Compressibility (1/GPa) = 0.03659204
#
# Stress axis : x y z
#
# Youngs Moduli (GPa) = 33.39813 24.24246 59.65322
#
# Poissons Ratio (x) = 0.27916 0.44554
# Poissons Ratio (y) = 0.38459 0.39952
# Poissons Ratio (z) = 0.24945 0.16236
#
# Static dielectric constant tensor:
#      x y z
#    x 1.658920 0.000000 0.000000 
#    y 0.000000 1.715210 0.000000 
#    z 0.000000 0.000000 1.665630 
# 
# From -- ./inp_files/22191.got.cif
#   From: 2010.05.17/outbox.cif.g08.bks.cpg/sg38_12_cif.got.tgz:22191.got - 2010.06.03 18:07:57.
