data_PCOD9357187
_publ_section_title
;
Structure prediction by ZEFSAII (Michael W. Deem and Ramdas Pophale) SiO2 
 PCOD9357187
Probable space group: A M M 2
;
_chemical_formula_sum "Si O2"
_cell_formula_units_Z 44
_cell_length_a 8.277421
_cell_length_b 18.787924
_cell_length_c 15.645289
_cell_angle_alpha 90.000000
_cell_angle_beta 90.000000
_cell_angle_gamma 90.000000
_cell_volume 2433.085828
_symmetry_space_group_name_H-M "A M M 2"
_symmetry_group_IT_number 38
_symmetry_cell_setting 'orthorhombic'
loop_
_space_group_symop_operation_xyz
x,y,z
-x,-y,z
-x,y,z
x,-y,z
x,1/2+y,1/2+z
-x,1/2-y,1/2+z
-x,1/2+y,1/2+z
x,1/2-y,1/2+z
loop_
_atom_site_type_symbol
_atom_site_label
_atom_site_fract_x
_atom_site_fract_y
_atom_site_fract_z
Si Si1 0.182961 0.131333 0.149680
Si Si2 0.311841 0.000000 0.044707
Si Si3 0.500000 0.225050 0.895589
Si Si4 0.500000 0.174683 0.236274
Si Si5 0.181486 0.657245 0.320544
Si Si6 0.173796 0.295721 0.125944
Si Si7 0.184313 0.000000 0.860619
Si Si8 0.500000 0.210478 0.580589
O O1 0.333220 0.133319 0.216034
O O2 0.180854 0.210685 0.108917
O O3 0.000000 0.120204 0.183774
O O4 0.225903 0.069998 0.082441
O O5 0.500000 0.000000 0.069742
O O6 0.297415 0.000000 0.942834
O O7 0.500000 0.291644 0.830010
O O8 0.334137 0.183719 0.874201
O O9 0.500000 0.245270 0.994090
O O10 0.500000 0.238957 0.165392
O O11 0.182846 0.694566 0.228274
O O12 0.202405 0.572635 0.308979
O O13 0.000000 0.669345 0.357643
O O14 0.331629 0.330540 0.085879
O O15 0.000000 0.322997 0.096967
O O16 0.000000 0.000000 0.894770
#
# Coordination Sequence:
#
# PCOD9357187 Si02
#       8
#     8   4   4   4   8   8   4   4
#     4  10  19  34  53  72 103 149 184 223 271 318
#     4  12  24  34  50  83 123 151 185 225 285 355
#     4  12  22  33  59  82 114 147 183 243 291 333
#     4  10  20  37  50  81 110 141 195 234 274 337
#     4  10  21  37  54  77 113 156 192 230 277 333
#     4   9  18  35  56  74 104 146 194 235 270 324
#     4  10  24  36  48  80 120 154 189 228 282 351
#     4  10  20  32  51  81 108 138 180 233 289 322
#
# _framework density 18.084029000000001
#
# number of rings (size 3 to 8) (size 9 to 14) (size 15 to 20)
#    0.000    1.818    4.545    0.818    6.364    0.727 
#    0.000    0.000    0.000    0.000    0.000    2.545 
#    0.000    2.909    0.000    0.000    0.000    0.000 
#
# Total GULP energy -122534.143714 kJ/mol
# GULP energy per Si atom -5569.733805 kJ/mol
# Density = 1.804287 g / cm^3
# Si number density = 18.084029 Si / 1000 Ang^3
#
#
#
# Elastic Constant Matrix: (Units=GPa)
#
#
# Indices 1 2 3 4 5 6 
#
# 1 184.0461 3.4595 20.0873 0.0000 0.0000 0.0000
# 2 3.4595 38.2100 23.0915 0.0000 0.0000 0.0000
# 3 20.0873 23.0915 35.1763 0.0000 0.0000 0.0000
# 4 0.0000 0.0000 0.0000 3.6399 0.0000 0.0000
# 5 0.0000 0.0000 0.0000 0.0000 16.9350 0.0000
# 6 0.0000 0.0000 0.0000 0.0000 0.0000 17.3775
#
#
#
# Elastic Compliance Matrix: (Units=1/GPa)
#
#
# Indices 1 2 3 4 5 6 
#
# 1 0.005936 0.002505 -0.005034 0.000000 0.000000 0.000000
# 2 0.002505 0.044438 -0.030602 0.000000 0.000000 0.000000
# 3 -0.005034 -0.030602 0.051391 0.000000 0.000000 0.000000
# 4 0.000000 0.000000 0.000000 0.274733 0.000000 0.000000
# 5 0.000000 0.000000 0.000000 0.000000 0.059049 0.000000
# 6 0.000000 0.000000 0.000000 0.000000 0.000000 0.057546
#
#
# Mechanical properties :
#
#
# Convention : Reuss Voigt Hill
#
# Bulk Modulus (GPa) = 28.16626 38.96764 33.56695
# Shear Modulus (GPa) = 8.75366 21.64341 15.19854
#
# Velocity S-wave (km/s) = 2.20251 3.46327 2.90218
# Velocity P-wave (km/s) = 4.69863 6.13084 5.46188
#
# Compressibility (1/GPa) = 0.03550347
#
# Stress axis : x y z
#
# Youngs Moduli (GPa) = 168.47105 22.50329 19.45857
#
# Poissons Ratio (x) = -0.05636 0.09795
# Poissons Ratio (y) = -0.42196 0.59546
# Poissons Ratio (z) = 0.84804 0.68864
#
# Static dielectric constant tensor:
#      x y z
#    x 1.735310 0.000000 0.000000 
#    y 0.000000 1.610590 0.000000 
#    z 0.000000 0.000000 1.581620 
# 
# From -- ./inp_files/11978.got.cif
#   From: 2010.05.17/outbox.cif.g08.bks.cpg/sg38_6_cif.got.tgz:11978.got - 2010.06.03 18:07:57.
