data_PCOD9357411
_publ_section_title
;
Structure prediction by ZEFSAII (Michael W. Deem and Ramdas Pophale) SiO2 
 PCOD9357411
Probable space group: A M M 2
;
_chemical_formula_sum "Si O2"
_cell_formula_units_Z 58
_cell_length_a 23.500162
_cell_length_b 7.690918
_cell_length_c 14.977574
_cell_angle_alpha 90.000000
_cell_angle_beta 90.000000
_cell_angle_gamma 90.000000
_cell_volume 2707.014058
_symmetry_space_group_name_H-M "A M M 2"
_symmetry_group_IT_number 38
_symmetry_cell_setting 'orthorhombic'
loop_
_space_group_symop_operation_xyz
x,y,z
-x,-y,z
-x,y,z
x,-y,z
x,1/2+y,1/2+z
-x,1/2-y,1/2+z
-x,1/2+y,1/2+z
x,1/2-y,1/2+z
loop_
_atom_site_type_symbol
_atom_site_label
_atom_site_fract_x
_atom_site_fract_y
_atom_site_fract_z
Si Si1 0.361013 0.210104 0.995080
Si Si2 0.848894 0.696449 0.398407
Si Si3 0.563485 0.709569 0.652364
Si Si4 0.061758 0.811649 0.542882
Si Si5 0.764290 0.704995 0.037138
Si Si6 0.339407 0.708243 0.295476
Si Si7 0.214493 0.713326 0.232180
Si Si8 0.000000 0.500000 0.621206
O O1 0.356518 0.274638 0.893647
O O2 0.362742 0.000000 0.992485
O O3 0.413163 0.270293 0.056063
O O4 0.302737 0.264519 0.043468
O O5 0.869838 0.500000 0.386741
O O6 0.891389 0.785670 0.467362
O O7 0.789253 0.697324 0.452134
O O8 0.833175 0.772690 0.302221
O O9 0.500000 0.774817 0.672007
O O10 0.561016 0.500000 0.649359
O O11 0.610745 0.754669 0.725564
O O12 0.000000 0.815375 0.494277
O O13 0.049787 0.653865 0.610047
O O14 0.070782 0.000000 0.586941
O O15 0.774627 0.500000 0.024810
O O16 0.793252 0.763251 0.129326
O O17 0.333814 0.500000 0.301619
O O18 0.277362 0.772682 0.263709
O O19 0.214338 0.500000 0.234547
#
# Coordination Sequence:
#
# PCOD9357411 Si02
#       8
#     8   8   8   8   8   8   8   2
#     4  10  20  36  56  76 102 139 176 215 270 333
#     4  11  19  35  57  80 112 152 189 226 281 339
#     4  10  22  38  55  77 106 136 172 222 274 325
#     4   9  17  31  53  84 114 151 200 241 280 340
#     4  11  21  33  51  81 112 142 179 229 279 330
#     4  10  19  36  57  78 102 136 179 216 263 328
#     4   9  19  33  52  78 111 144 178 223 278 332
#     4   8  14  32  52  82 112 160 194 234 298 326
#
# _framework density 21.425819000000001
#
# number of rings (size 3 to 8) (size 9 to 14) (size 15 to 20)
#    0.414    1.655    3.448    0.828    0.000    1.379 
#    0.000    4.138    0.000    0.828    0.000    1.931 
#    0.000    0.000    0.000    0.000    0.000    0.000 
#
# Total GULP energy -161473.739333 kJ/mol
# GULP energy per Si atom -5568.059977 kJ/mol
# Density = 2.137705 g / cm^3
# Si number density = 21.425819 Si / 1000 Ang^3
#
#
#
# Elastic Constant Matrix: (Units=GPa)
#
#
# Indices 1 2 3 4 5 6 
#
# 1 38.9243 -7.5040 -21.5491 0.0000 0.0000 0.0000
# 2 -7.5040 70.8026 -0.2003 0.0000 0.0000 0.0000
# 3 -21.5491 -0.2003 75.9850 0.0000 0.0000 0.0000
# 4 0.0000 0.0000 0.0000 9.2686 0.0000 0.0000
# 5 0.0000 0.0000 0.0000 0.0000 -12.2796 0.0000
# 6 0.0000 0.0000 0.0000 0.0000 0.0000 24.0441
#
#
#
# Elastic Compliance Matrix: (Units=1/GPa)
#
#
# Indices 1 2 3 4 5 6 
#
# 1 0.031245 0.003337 0.008870 0.000000 0.000000 0.000000
# 2 0.003337 0.014480 0.000984 0.000000 0.000000 0.000000
# 3 0.008870 0.000984 0.015678 0.000000 0.000000 0.000000
# 4 0.000000 0.000000 0.000000 0.107891 0.000000 0.000000
# 5 0.000000 0.000000 0.000000 0.000000 -0.081436 0.000000
# 6 0.000000 0.000000 0.000000 0.000000 0.000000 0.041590
#
#
# Mechanical properties :
#
#
# Convention : Reuss Voigt Hill
#
# Bulk Modulus (GPa) = 11.39155 14.13388 12.76272
# Shear Modulus (GPa) = 37.78451 18.53763 28.16107
#
# Velocity S-wave (km/s) = 4.20396 2.94462 3.62933
# Velocity P-wave (km/s) = 5.37519 4.26287 4.85102
#
# Compressibility (1/GPa) = 0.08778437
#
# Stress axis : x y z
#
# Youngs Moduli (GPa) = 32.00563 69.05988 63.78167
#
# Poissons Ratio (x) = -0.23042 -0.56572
# Poissons Ratio (y) = -0.10679 -0.06279
# Poissons Ratio (z) = -0.28388 -0.06798
#
# Static dielectric constant tensor:
#      x y z
#    x 1.807540 0.000000 0.000000 
#    y 0.000000 1.835240 0.000000 
#    z 0.000000 0.000000 1.765880 
# 
# From -- ./inp_files/15653.got.cif
#   From: 2010.05.17/outbox.cif.g08.bks.cpg/sg38_8_cif.got.tgz:15653.got - 2010.06.03 18:07:57.
