data_PCOD9357882
_publ_section_title
;
Structure prediction by ZEFSAII (Michael W. Deem and Ramdas Pophale) SiO2 
 PCOD9357882
Probable space group: A M M 2
;
_chemical_formula_sum "Si O2"
_cell_formula_units_Z 40
_cell_length_a 9.035271
_cell_length_b 26.316653
_cell_length_c 9.835181
_cell_angle_alpha 90.000000
_cell_angle_beta 90.000000
_cell_angle_gamma 90.000000
_cell_volume 2338.590569
_symmetry_space_group_name_H-M "A M M 2"
_symmetry_group_IT_number 38
_symmetry_cell_setting 'orthorhombic'
loop_
_space_group_symop_operation_xyz
x,y,z
-x,-y,z
-x,y,z
x,-y,z
x,1/2+y,1/2+z
-x,1/2-y,1/2+z
-x,1/2+y,1/2+z
x,1/2-y,1/2+z
loop_
_atom_site_type_symbol
_atom_site_label
_atom_site_fract_x
_atom_site_fract_y
_atom_site_fract_z
Si Si1 0.823872 0.829645 0.853710
Si Si2 0.677737 0.559272 0.858411
Si Si3 0.676486 0.719313 0.855734
Si Si4 0.324250 0.362438 0.624231
Si Si5 0.176638 0.138391 0.552402
O O1 0.746301 0.774707 0.850018
O O2 0.790951 0.857936 0.712198
O O3 0.000000 0.822677 0.863284
O O4 0.764188 0.858802 0.985306
O O5 0.500000 0.564531 0.876450
O O6 0.714427 0.500000 0.851155
O O7 0.714715 0.589897 0.720370
O O8 0.758329 0.588552 0.980238
O O9 0.500000 0.722295 0.875881
O O10 0.703732 0.687486 0.717219
O O11 0.748411 0.686017 0.975657
O O12 0.500000 0.364161 0.596289
O O13 0.000000 0.140755 0.533124
#
# Coordination Sequence:
#
# PCOD9357882 Si02
#       5
#     8   8   8   8   8
#     4  11  22  33  48  75 110 142 171 207 251 301
#     4   9  19  38  61  80  98 126 169 217 261 307
#     4  10  20  34  53  76 103 139 179 213 249 298
#     4   9  19  34  53  77 103 133 170 211 255 304
#     4  10  21  35  52  77 107 138 172 209 252 304
#
# _framework density 17.104319
#
# number of rings (size 3 to 8) (size 9 to 14) (size 15 to 20)
#    0.000    2.200    0.000    4.200    0.000   10.800 
#    0.000    1.000    0.000    3.600    0.000    0.000 
#    0.000    0.000    0.000    0.000    0.000    0.000 
#
# Total GULP energy -111666.082992 kJ/mol
# GULP energy per Si atom -5583.304150 kJ/mol
# Density = 1.706539 g / cm^3
# Si number density = 17.104319 Si / 1000 Ang^3
#
#
#
# Elastic Constant Matrix: (Units=GPa)
#
#
# Indices 1 2 3 4 5 6 
#
# 1 65.7323 57.8382 85.2481 0.0000 0.0000 0.0000
# 2 57.8382 132.9973 81.4829 0.0000 0.0000 0.0000
# 3 85.2481 81.4829 165.0597 0.0000 0.0000 0.0000
# 4 0.0000 0.0000 0.0000 2.5678 0.0000 0.0000
# 5 0.0000 0.0000 0.0000 0.0000 32.6096 0.0000
# 6 0.0000 0.0000 0.0000 0.0000 0.0000 11.7638
#
#
#
# Elastic Compliance Matrix: (Units=1/GPa)
#
#
# Indices 1 2 3 4 5 6 
#
# 1 0.052552 -0.008924 -0.022736 0.000000 0.000000 0.000000
# 2 -0.008924 0.012295 -0.001460 0.000000 0.000000 0.000000
# 3 -0.022736 -0.001460 0.018522 0.000000 0.000000 0.000000
# 4 0.000000 0.000000 0.000000 0.389442 0.000000 0.000000
# 5 0.000000 0.000000 0.000000 0.000000 0.030666 0.000000
# 6 0.000000 0.000000 0.000000 0.000000 0.000000 0.085007
#
#
# Mechanical properties :
#
#
# Convention : Reuss Voigt Hill
#
# Bulk Modulus (GPa) = 58.38620 90.32529 74.35575
# Shear Modulus (GPa) = 7.57080 18.66956 13.12018
#
# Velocity S-wave (km/s) = 2.10615 3.30739 2.77260
# Velocity P-wave (km/s) = 6.33435 8.21634 7.33594
#
# Compressibility (1/GPa) = 0.01712733
#
# Stress axis : x y z
#
# Youngs Moduli (GPa) = 19.02879 81.33646 53.99124
#
# Poissons Ratio (x) = 0.72588 1.22753
# Poissons Ratio (y) = 0.16982 0.07883
# Poissons Ratio (z) = 0.43263 0.11876
#
# Static dielectric constant tensor:
#      x y z
#    x 1.569630 0.000000 0.000000 
#    y 0.000000 1.553770 0.000000 
#    z 0.000000 0.000000 1.572790 
# 
# From -- ./inp_files/3296.got.cif
#   From: 2010.05.17/outbox.cif.g08.bks.cpg/sg38_2_cif.got.tgz:3296.got - 2010.06.03 18:07:57.
