data_PCOD9357997
_publ_section_title
;
Structure prediction by ZEFSAII (Michael W. Deem and Ramdas Pophale) SiO2 
 PCOD9357997
Probable space group: A M M 2
;
_chemical_formula_sum "Si O2"
_cell_formula_units_Z 56
_cell_length_a 21.203363
_cell_length_b 7.924773
_cell_length_c 15.512421
_cell_angle_alpha 90.000000
_cell_angle_beta 90.000000
_cell_angle_gamma 90.000000
_cell_volume 2606.580622
_symmetry_space_group_name_H-M "A M M 2"
_symmetry_group_IT_number 38
_symmetry_cell_setting 'orthorhombic'
loop_
_space_group_symop_operation_xyz
x,y,z
-x,-y,z
-x,y,z
x,-y,z
x,1/2+y,1/2+z
-x,1/2-y,1/2+z
-x,1/2+y,1/2+z
x,1/2-y,1/2+z
loop_
_atom_site_type_symbol
_atom_site_label
_atom_site_fract_x
_atom_site_fract_y
_atom_site_fract_z
Si Si1 0.840556 0.795797 0.604760
Si Si2 0.700387 0.800876 0.268663
Si Si3 0.432377 0.797421 0.350795
Si Si4 0.707730 0.815000 0.582202
Si Si5 0.168251 0.704414 0.304321
Si Si6 0.928452 0.203283 0.951039
Si Si7 0.567363 0.692537 0.545903
O O1 0.774745 0.727917 0.561895
O O2 0.846461 0.740969 0.705011
O O3 0.897324 0.748061 0.542541
O O4 0.835384 0.000000 0.606233
O O5 0.632247 0.752396 0.304627
O O6 0.712798 0.687653 0.185565
O O7 0.761580 0.770636 0.327238
O O8 0.698021 0.000000 0.245314
O O9 0.500000 0.761602 0.306426
O O10 0.433645 0.708078 0.442725
O O11 0.429963 0.000000 0.365520
O O12 0.637065 0.752171 0.568640
O O13 0.708789 0.000000 0.542005
O O14 0.169529 0.500000 0.305504
O O15 0.116713 0.763384 0.373329
O O16 0.000000 0.266588 0.943879
O O17 0.930222 0.000000 0.945013
O O18 0.500000 0.773494 0.574901
O O19 0.565017 0.500000 0.575164
#
# Coordination Sequence:
#
# PCOD9357997 Si02
#       7
#     8   8   8   8   8   8   8
#     4   9  20  38  59  84 115 150 191 235 282 339
#     4  10  20  34  55  82 109 141 185 234 280 331
#     4   9  19  35  52  73 106 146 183 225 279 332
#     4  10  21  37  56  79 109 145 186 230 282 341
#     4   9  20  39  59  82 115 155 191 232 285 345
#     4  10  22  39  60  88 118 150 190 232 283 346
#     4  10  21  35  52  77 108 143 186 234 281 331
#
# _framework density 21.484086999999999
#
# number of rings (size 3 to 8) (size 9 to 14) (size 15 to 20)
#    0.000    2.429    0.000    2.143    2.000    6.857 
#    0.000    2.857    0.000    0.000    0.000    0.000 
#    0.000    0.000    0.000    0.000    0.000    0.000 
#
# Total GULP energy -155989.567867 kJ/mol
# GULP energy per Si atom -5571.055995 kJ/mol
# Density = 2.143519 g / cm^3
# Si number density = 21.484087 Si / 1000 Ang^3
#
#
#
# Elastic Constant Matrix: (Units=GPa)
#
#
# Indices 1 2 3 4 5 6 
#
# 1 200.2076 10.6488 48.6867 0.0000 0.0000 0.0000
# 2 10.6488 20.3051 -1.9286 0.0000 0.0000 0.0000
# 3 48.6867 -1.9286 52.9795 0.0000 0.0000 0.0000
# 4 0.0000 0.0000 0.0000 22.0981 0.0000 0.0000
# 5 0.0000 0.0000 0.0000 0.0000 66.1773 0.0000
# 6 0.0000 0.0000 0.0000 0.0000 0.0000 28.1330
#
#
#
# Elastic Compliance Matrix: (Units=1/GPa)
#
#
# Indices 1 2 3 4 5 6 
#
# 1 0.006764 -0.004152 -0.006367 0.000000 0.000000 0.000000
# 2 -0.004152 0.051968 0.005707 0.000000 0.000000 0.000000
# 3 -0.006367 0.005707 0.024934 0.000000 0.000000 0.000000
# 4 0.000000 0.000000 0.000000 0.045253 0.000000 0.000000
# 5 0.000000 0.000000 0.000000 0.000000 0.015111 0.000000
# 6 0.000000 0.000000 0.000000 0.000000 0.000000 0.035545
#
#
# Mechanical properties :
#
#
# Convention : Reuss Voigt Hill
#
# Bulk Modulus (GPa) = 13.50569 43.14511 28.32540
# Shear Modulus (GPa) = 23.37759 37.68737 30.53248
#
# Velocity S-wave (km/s) = 3.30227 4.19286 3.77393
# Velocity P-wave (km/s) = 4.56508 6.60046 5.67477
#
# Compressibility (1/GPa) = 0.07404289
#
# Stress axis : x y z
#
# Youngs Moduli (GPa) = 147.84127 19.24253 40.10561
#
# Poissons Ratio (x) = 0.07990 0.25536
# Poissons Ratio (y) = 0.61384 -0.22890
# Poissons Ratio (z) = 0.94132 -0.10982
#
# Static dielectric constant tensor:
#      x y z
#    x 1.880640 0.000000 0.000000 
#    y 0.000000 1.805310 0.000000 
#    z 0.000000 0.000000 1.769200 
# 
# From -- ./inp_files/15446.got.cif
#   From: 2010.05.17/outbox.cif.g08.bks.cpg/sg38_8_cif.got.tgz:15446.got - 2010.06.03 18:07:57.
