data_PCOD9357969
_publ_section_title
;
Structure prediction by ZEFSAII (Michael W. Deem and Ramdas Pophale) SiO2 
 PCOD9357969
Probable space group: A M M 2
;
_chemical_formula_sum "Si O2"
_cell_formula_units_Z 56
_cell_length_a 8.779501
_cell_length_b 14.555264
_cell_length_c 23.567048
_cell_angle_alpha 90.000000
_cell_angle_beta 90.000000
_cell_angle_gamma 90.000000
_cell_volume 3011.584866
_symmetry_space_group_name_H-M "A M M 2"
_symmetry_group_IT_number 38
_symmetry_cell_setting 'orthorhombic'
loop_
_space_group_symop_operation_xyz
x,y,z
-x,-y,z
-x,y,z
x,-y,z
x,1/2+y,1/2+z
-x,1/2-y,1/2+z
-x,1/2+y,1/2+z
x,1/2-y,1/2+z
loop_
_atom_site_type_symbol
_atom_site_label
_atom_site_fract_x
_atom_site_fract_y
_atom_site_fract_z
Si Si1 0.178029 0.610039 0.741810
Si Si2 0.320769 0.390388 0.310094
Si Si3 0.818463 0.780206 0.913503
Si Si4 0.685511 0.896549 0.680366
Si Si5 0.317976 0.894288 0.365036
Si Si6 0.184081 0.393761 0.524376
Si Si7 0.682357 0.792093 0.133167
O O1 0.188320 0.500000 0.733292
O O2 0.249679 0.629632 0.803223
O O3 0.265820 0.659423 0.691266
O O4 0.000000 0.635685 0.741319
O O5 0.500000 0.365560 0.314078
O O6 0.308335 0.500000 0.319485
O O7 0.230072 0.335711 0.357350
O O8 0.269034 0.373665 0.245300
O O9 0.744245 0.679984 0.908947
O O10 0.000000 0.771148 0.915082
O O11 0.767915 0.837937 0.968410
O O12 0.500000 0.898584 0.681225
O O13 0.731696 0.814505 0.639082
O O14 0.737147 0.000000 0.666459
O O15 0.500000 0.889257 0.361988
O O16 0.274593 0.000000 0.377765
O O17 0.234445 0.500000 0.521951
O O18 0.245273 0.344129 0.580254
O O19 0.000000 0.393760 0.526053
O O20 0.500000 0.795466 0.128769
#
# Coordination Sequence:
#
# PCOD9357969 Si02
#       7
#     8   8   8   8   8   8   8
#     4  10  20  34  54  81 114 149 180 215 267 328
#     4   9  17  31  54  82 111 143 177 217 270 330
#     4  11  22  36  56  79 106 143 184 227 277 330
#     4   8  16  32  52  76 107 139 169 207 261 320
#     4  10  21  37  57  82 112 143 178 223 272 325
#     4  10  23  42  58  74 104 145 183 221 269 325
#     4  11  21  33  55  83 108 140 184 231 274 317
#
# _framework density 18.594860000000001
#
# number of rings (size 3 to 8) (size 9 to 14) (size 15 to 20)
#    0.000    2.143    0.000    4.286    0.000    6.857 
#    0.000    1.429    0.000    6.000    0.000    0.000 
#    0.000    0.000    0.000    0.000    0.000    0.000 
#
# Total GULP energy -156367.402384 kJ/mol
# GULP energy per Si atom -5584.550085 kJ/mol
# Density = 1.855254 g / cm^3
# Si number density = 18.594860 Si / 1000 Ang^3
#
#
#
# Elastic Constant Matrix: (Units=GPa)
#
#
# Indices 1 2 3 4 5 6 
#
# 1 24.3009 31.0392 23.3697 0.0000 0.0000 0.0000
# 2 31.0392 135.4727 99.6307 0.0000 0.0000 0.0000
# 3 23.3697 99.6307 89.1708 0.0000 0.0000 0.0000
# 4 0.0000 0.0000 0.0000 33.9624 0.0000 0.0000
# 5 0.0000 0.0000 0.0000 0.0000 31.4701 0.0000
# 6 0.0000 0.0000 0.0000 0.0000 0.0000 25.5981
#
#
#
# Elastic Compliance Matrix: (Units=1/GPa)
#
#
# Indices 1 2 3 4 5 6 
#
# 1 0.058239 -0.011882 -0.001987 0.000000 0.000000 0.000000
# 2 -0.011882 0.043823 -0.045850 0.000000 0.000000 0.000000
# 3 -0.001987 -0.045850 0.062963 0.000000 0.000000 0.000000
# 4 0.000000 0.000000 0.000000 0.029444 0.000000 0.000000
# 5 0.000000 0.000000 0.000000 0.000000 0.031776 0.000000
# 6 0.000000 0.000000 0.000000 0.000000 0.000000 0.039065
#
#
# Mechanical properties :
#
#
# Convention : Reuss Voigt Hill
#
# Bulk Modulus (GPa) = 21.93610 61.89152 41.91381
# Shear Modulus (GPa) = 12.50172 24.53310 18.51741
#
# Velocity S-wave (km/s) = 2.59573 3.63622 3.15911
# Velocity P-wave (km/s) = 4.56138 7.14045 5.99133
#
# Compressibility (1/GPa) = 0.04558696
#
# Stress axis : x y z
#
# Youngs Moduli (GPa) = 17.17075 22.81895 15.88225
#
# Poissons Ratio (x) = 0.27113 0.03157
# Poissons Ratio (y) = 0.20402 0.72820
# Poissons Ratio (z) = 0.03413 1.04624
#
# Static dielectric constant tensor:
#      x y z
#    x 1.624960 0.000000 0.000000 
#    y 0.000000 1.668740 0.000000 
#    z 0.000000 0.000000 1.606080 
# 
# From -- ./inp_files/19754.got.cif
#   From: 2010.05.17/outbox.cif.g08.bks.cpg/sg38_10_cif.got.tgz:19754.got - 2010.06.03 18:07:57.
