data_PCOD9357958
_publ_section_title
;
Structure prediction by ZEFSAII (Michael W. Deem and Ramdas Pophale) SiO2 
 PCOD9357958
Probable space group: A M M 2
;
_chemical_formula_sum "Si O2"
_cell_formula_units_Z 48
_cell_length_a 8.152234
_cell_length_b 23.524834
_cell_length_c 12.008876
_cell_angle_alpha 90.000000
_cell_angle_beta 90.000000
_cell_angle_gamma 90.000000
_cell_volume 2303.061658
_symmetry_space_group_name_H-M "A M M 2"
_symmetry_group_IT_number 38
_symmetry_cell_setting 'orthorhombic'
loop_
_space_group_symop_operation_xyz
x,y,z
-x,-y,z
-x,y,z
x,-y,z
x,1/2+y,1/2+z
-x,1/2-y,1/2+z
-x,1/2+y,1/2+z
x,1/2-y,1/2+z
loop_
_atom_site_type_symbol
_atom_site_label
_atom_site_fract_x
_atom_site_fract_y
_atom_site_fract_z
Si Si1 0.198798 0.144564 0.170280
Si Si2 0.690757 0.933524 0.353323
Si Si3 0.197946 0.857342 0.914427
Si Si4 0.799456 0.266362 0.857867
Si Si5 0.693989 0.936155 0.727059
Si Si6 0.814854 0.352875 0.036064
O O1 0.270840 0.089429 0.230998
O O2 0.250056 0.197297 0.249691
O O3 0.000000 0.142611 0.172790
O O4 0.250773 0.146834 0.042654
O O5 0.500000 0.921531 0.382079
O O6 0.805816 0.898562 0.435992
O O7 0.717883 0.000000 0.363800
O O8 0.252607 0.798788 0.855497
O O9 0.257006 0.912010 0.847346
O O10 0.000000 0.858069 0.912747
O O11 0.000000 0.267965 0.861417
O O12 0.742642 0.297696 0.972320
O O13 0.500000 0.940758 0.720769
O O14 0.742532 0.887406 0.638923
O O15 0.762638 0.000000 0.704794
O O16 0.000000 0.337702 0.068355
#
# Coordination Sequence:
#
# PCOD9357958 Si02
#       6
#     8   8   8   8   8   8
#     4   9  19  35  55  83 113 144 188 237 283 339
#     4  10  20  34  54  80 113 152 188 229 285 340
#     4  10  21  37  61  86 112 150 195 241 287 346
#     4   8  17  34  59  88 115 142 180 235 297 346
#     4  11  25  42  57  80 120 163 199 239 292 349
#     4  10  20  36  62  90 114 146 190 241 290 342
#
# _framework density 20.841823000000002
#
# number of rings (size 3 to 8) (size 9 to 14) (size 15 to 20)
#    0.000    2.333    0.000    3.000    2.333    6.000 
#    0.000    7.500    0.000    0.000    0.000    0.000 
#    0.000    0.000    0.000    0.000    0.000    0.000 
#
# Total GULP energy -133885.006114 kJ/mol
# GULP energy per Si atom -5578.541921 kJ/mol
# Density = 2.079439 g / cm^3
# Si number density = 20.841823 Si / 1000 Ang^3
#
#
#
# Elastic Constant Matrix: (Units=GPa)
#
#
# Indices 1 2 3 4 5 6 
#
# 1 9.8677 1.2801 1.7210 0.0000 0.0000 0.0000
# 2 1.2801 59.0265 9.4648 0.0000 0.0000 0.0000
# 3 1.7210 9.4648 89.6168 0.0000 0.0000 0.0000
# 4 0.0000 0.0000 0.0000 10.4710 0.0000 0.0000
# 5 0.0000 0.0000 0.0000 0.0000 -72.0344 0.0000
# 6 0.0000 0.0000 0.0000 0.0000 0.0000 32.2627
#
#
#
# Elastic Compliance Matrix: (Units=1/GPa)
#
#
# Indices 1 2 3 4 5 6 
#
# 1 0.101897 -0.001929 -0.001753 0.000000 0.000000 0.000000
# 2 -0.001929 0.017270 -0.001787 0.000000 0.000000 0.000000
# 3 -0.001753 -0.001787 0.011381 0.000000 0.000000 0.000000
# 4 0.000000 0.000000 0.000000 0.095502 0.000000 0.000000
# 5 0.000000 0.000000 0.000000 0.000000 -0.013882 0.000000
# 6 0.000000 0.000000 0.000000 0.000000 0.000000 0.030996
#
#
# Mechanical properties :
#
#
# Convention : Reuss Voigt Hill
#
# Bulk Modulus (GPa) = 8.36048 20.38252 14.37150
# Shear Modulus (GPa) = 17.00853 3.87621 10.44237
#
# Velocity S-wave (km/s) = 2.85980 1.36523 2.24080
# Velocity P-wave (km/s) = 3.86326 3.50514 3.68855
#
# Compressibility (1/GPa) = 0.11961040
#
# Stress axis : x y z
#
# Youngs Moduli (GPa) = 9.81384 57.90423 87.86566
#
# Poissons Ratio (x) = 0.11168 0.15404
# Poissons Ratio (y) = 0.01893 0.15701
# Poissons Ratio (z) = 0.01720 0.10347
#
# Static dielectric constant tensor:
#      x y z
#    x 1.760290 0.000000 0.000000 
#    y 0.000000 1.758400 0.000000 
#    z 0.000000 0.000000 1.765290 
# 
# From -- ./inp_files/8140.got.cif
#   From: 2010.05.17/outbox.cif.g08.bks.cpg/sg38_5_cif.got.tgz:8140.got - 2010.06.03 18:07:57.
