data_PCOD9357163
_publ_section_title
;
Structure prediction by ZEFSAII (Michael W. Deem and Ramdas Pophale) SiO2 
 PCOD9357163
Probable space group: A M M 2
;
_chemical_formula_sum "Si O2"
_cell_formula_units_Z 64
_cell_length_a 8.278881
_cell_length_b 29.265817
_cell_length_c 13.097360
_cell_angle_alpha 90.000000
_cell_angle_beta 90.000000
_cell_angle_gamma 90.000000
_cell_volume 3173.335993
_symmetry_space_group_name_H-M "A M M 2"
_symmetry_group_IT_number 38
_symmetry_cell_setting 'orthorhombic'
loop_
_space_group_symop_operation_xyz
x,y,z
-x,-y,z
-x,y,z
x,-y,z
x,1/2+y,1/2+z
-x,1/2-y,1/2+z
-x,1/2+y,1/2+z
x,1/2-y,1/2+z
loop_
_atom_site_type_symbol
_atom_site_label
_atom_site_fract_x
_atom_site_fract_y
_atom_site_fract_z
Si Si1 0.688245 0.581294 0.834750
Si Si2 0.808743 0.950539 0.128684
Si Si3 0.195152 0.447494 0.267780
Si Si4 0.197311 0.196631 0.493818
Si Si5 0.308806 0.616073 0.453291
Si Si6 0.195457 0.093646 0.549991
Si Si7 0.195768 0.296352 0.555645
Si Si8 0.811783 0.822052 0.276281
O O1 0.500000 0.593538 0.836536
O O2 0.722232 0.549738 0.738058
O O3 0.795216 0.625220 0.805717
O O4 0.739947 0.567977 0.948922
O O5 0.000000 0.945256 0.145394
O O6 0.780951 0.000000 0.078400
O O7 0.750652 0.911115 0.053766
O O8 0.251174 0.500000 0.284672
O O9 0.245234 0.411959 0.355701
O O10 0.247651 0.428823 0.156447
O O11 0.000000 0.448620 0.267362
O O12 0.247103 0.147277 0.538976
O O13 0.244778 0.243512 0.547140
O O14 0.256719 0.201612 0.376990
O O15 0.000000 0.195112 0.492515
O O16 0.500000 0.615300 0.450335
O O17 0.252093 0.668337 0.468837
O O18 0.000000 0.092609 0.546670
O O19 0.259016 0.313383 0.665523
O O20 0.000000 0.298241 0.553585
O O21 0.000000 0.809208 0.269440
#
# Coordination Sequence:
#
# PCOD9357163 Si02
#       8
#     8   8   8   8   8   8   8   8
#     4  11  21  34  56  85 118 152 186 231 293 355
#     4  11  23  39  60  84 111 146 191 241 291 347
#     4  10  22  41  65  90 118 158 205 251 301 361
#     4   8  16  31  54  86 114 148 201 254 296 342
#     4  12  25  39  57  84 119 155 195 245 304 365
#     4   9  19  38  62  86 118 156 202 250 292 347
#     4  10  19  33  57  83 112 154 203 250 298 353
#     4   9  17  32  54  78 112 153 194 240 290 344
#
# _framework density 20.168049
#
# number of rings (size 3 to 8) (size 9 to 14) (size 15 to 20)
#    0.000    2.000    1.250    3.750    0.000    4.750 
#    0.000    7.500    0.000    1.500    0.000    0.000 
#    0.000    0.000    0.000    0.000    0.000    0.000 
#
# Total GULP energy -178431.460189 kJ/mol
# GULP energy per Si atom -5575.983131 kJ/mol
# Density = 2.012215 g / cm^3
# Si number density = 20.168049 Si / 1000 Ang^3
#
#
#
# Elastic Constant Matrix: (Units=GPa)
#
#
# Indices 1 2 3 4 5 6 
#
# 1 26.8002 4.7848 11.2964 0.0000 0.0000 0.0000
# 2 4.7848 51.6606 21.4994 0.0000 0.0000 0.0000
# 3 11.2964 21.4994 109.8083 0.0000 0.0000 0.0000
# 4 0.0000 0.0000 0.0000 25.4544 0.0000 0.0000
# 5 0.0000 0.0000 0.0000 0.0000 5.2113 0.0000
# 6 0.0000 0.0000 0.0000 0.0000 0.0000 -19.2149
#
#
#
# Elastic Compliance Matrix: (Units=1/GPa)
#
#
# Indices 1 2 3 4 5 6 
#
# 1 0.039218 -0.002127 -0.003618 0.000000 0.000000 0.000000
# 2 -0.002127 0.021190 -0.003930 0.000000 0.000000 0.000000
# 3 -0.003618 -0.003930 0.010248 0.000000 0.000000 0.000000
# 4 0.000000 0.000000 0.000000 0.039286 0.000000 0.000000
# 5 0.000000 0.000000 0.000000 0.000000 0.191890 0.000000
# 6 0.000000 0.000000 0.000000 0.000000 0.000000 -0.052043
#
#
# Mechanical properties :
#
#
# Convention : Reuss Voigt Hill
#
# Bulk Modulus (GPa) = 19.49068 29.27003 24.38036
# Shear Modulus (GPa) = 17.46784 12.33606 14.90195
#
# Velocity S-wave (km/s) = 2.94618 2.47587 2.72120
# Velocity P-wave (km/s) = 4.61068 4.76632 4.68915
#
# Compressibility (1/GPa) = 0.05130657
#
# Stress axis : x y z
#
# Youngs Moduli (GPa) = 25.49855 47.19293 97.57589
#
# Poissons Ratio (x) = 0.10036 0.35304
# Poissons Ratio (y) = 0.05423 0.38347
# Poissons Ratio (z) = 0.09226 0.18547
#
# Static dielectric constant tensor:
#      x y z
#    x 1.702660 0.000000 0.000000 
#    y 0.000000 1.746020 0.000000 
#    z 0.000000 0.000000 1.736990 
# 
# From -- ./inp_files/8639.got.cif
#   From: 2010.05.17/outbox.cif.g08.bks.cpg/sg38_5_cif.got.tgz:8639.got - 2010.06.03 18:07:57.
