data_PCOD9357002
_publ_section_title
;
Structure prediction by ZEFSAII (Michael W. Deem and Ramdas Pophale) SiO2 
 PCOD9357002
Probable space group: A M M 2
;
_chemical_formula_sum "Si O2"
_cell_formula_units_Z 64
_cell_length_a 7.584546
_cell_length_b 25.220630
_cell_length_c 13.887126
_cell_angle_alpha 90.000000
_cell_angle_beta 90.000000
_cell_angle_gamma 90.000000
_cell_volume 2656.427065
_symmetry_space_group_name_H-M "A M M 2"
_symmetry_group_IT_number 38
_symmetry_cell_setting 'orthorhombic'
loop_
_space_group_symop_operation_xyz
x,y,z
-x,-y,z
-x,y,z
x,-y,z
x,1/2+y,1/2+z
-x,1/2-y,1/2+z
-x,1/2+y,1/2+z
x,1/2-y,1/2+z
loop_
_atom_site_type_symbol
_atom_site_label
_atom_site_fract_x
_atom_site_fract_y
_atom_site_fract_z
Si Si1 0.210023 0.222664 0.478460
Si Si2 0.715918 0.557742 0.567897
Si Si3 0.291124 0.337016 0.458343
Si Si4 0.786171 0.219713 0.253297
Si Si5 0.796476 0.942893 0.670960
Si Si6 0.797403 0.166909 0.738582
Si Si7 0.293145 0.104607 0.479481
Si Si8 0.706492 0.397671 0.761800
O O1 0.261988 0.281252 0.513705
O O2 0.268454 0.221448 0.366067
O O3 0.273798 0.165664 0.515379
O O4 0.000000 0.220801 0.482352
O O5 0.500000 0.559172 0.568531
O O6 0.768876 0.500000 0.529831
O O7 0.773142 0.609632 0.509705
O O8 0.777081 0.564879 0.678286
O O9 0.500000 0.341894 0.442244
O O10 0.200802 0.331986 0.354533
O O11 0.723059 0.275482 0.209202
O O12 0.722321 0.162331 0.221189
O O13 0.000000 0.219829 0.248612
O O14 0.712170 0.889019 0.711286
O O15 0.794139 0.933802 0.556334
O O16 0.000000 0.943794 0.704302
O O17 0.717100 0.000000 0.695400
O O18 0.000000 0.166076 0.702411
O O19 0.500000 0.092342 0.477995
O O20 0.219793 0.100764 0.370365
O O21 0.500000 0.409631 0.772101
#
# Coordination Sequence:
#
# PCOD9357002 Si02
#       8
#     8   8   8   8   8   8   8   8
#     4   9  17  32  54  78 108 144 175 209 262 327
#     4   9  19  35  52  73 104 141 179 215 257 313
#     4  10  19  32  54  82 108 136 174 223 271 313
#     4   8  15  29  50  75 102 130 163 207 259 313
#     4  10  22  39  56  75 104 145 188 224 266 327
#     4   9  19  36  55  76 104 140 177 213 263 326
#     4  10  20  34  55  83 110 136 174 226 274 315
#     4   9  18  33  54  77 102 135 172 211 258 313
#
# _framework density 24.092513
#
# number of rings (size 3 to 8) (size 9 to 14) (size 15 to 20)
#    0.000    2.750    0.000    1.875    0.000    6.250 
#    0.000    5.000    0.000    3.000    0.000    0.000 
#    0.000    0.000    0.000    0.000    0.000    0.000 
#
# Total GULP energy -178617.369653 kJ/mol
# GULP energy per Si atom -5581.792802 kJ/mol
# Density = 2.403768 g / cm^3
# Si number density = 24.092513 Si / 1000 Ang^3
#
#
#
# Elastic Constant Matrix: (Units=GPa)
#
#
# Indices 1 2 3 4 5 6 
#
# 1 63.2036 -8.7879 -12.9558 0.0000 0.0000 0.0000
# 2 -8.7879 137.1025 20.0696 0.0000 0.0000 0.0000
# 3 -12.9558 20.0696 46.8442 0.0000 0.0000 0.0000
# 4 0.0000 0.0000 0.0000 27.0359 0.0000 0.0000
# 5 0.0000 0.0000 0.0000 0.0000 5.9657 0.0000
# 6 0.0000 0.0000 0.0000 0.0000 0.0000 3.3195
#
#
#
# Elastic Compliance Matrix: (Units=1/GPa)
#
#
# Indices 1 2 3 4 5 6 
#
# 1 0.016796 0.000423 0.004464 0.000000 0.000000 0.000000
# 2 0.000423 0.007793 -0.003222 0.000000 0.000000 0.000000
# 3 0.004464 -0.003222 0.023962 0.000000 0.000000 0.000000
# 4 0.000000 0.000000 0.000000 0.036988 0.000000 0.000000
# 5 0.000000 0.000000 0.000000 0.000000 0.167624 0.000000
# 6 0.000000 0.000000 0.000000 0.000000 0.000000 0.301254
#
#
# Mechanical properties :
#
#
# Convention : Reuss Voigt Hill
#
# Bulk Modulus (GPa) = 19.27470 27.08912 23.18191
# Shear Modulus (GPa) = 8.79696 23.85252 16.32474
#
# Velocity S-wave (km/s) = 1.91292 3.14990 2.60587
# Velocity P-wave (km/s) = 3.59119 4.94948 4.32400
#
# Compressibility (1/GPa) = 0.05188149
#
# Stress axis : x y z
#
# Youngs Moduli (GPa) = 59.53889 128.32828 41.73241
#
# Poissons Ratio (x) = -0.05430 -0.18629
# Poissons Ratio (y) = -0.02519 0.13444
# Poissons Ratio (z) = -0.26578 0.41342
#
# Static dielectric constant tensor:
#      x y z
#    x 1.851200 0.000000 0.000000 
#    y 0.000000 1.944000 0.000000 
#    z 0.000000 0.000000 1.963260 
# 
# From -- ./inp_files/12789.got.cif
#   From: 2010.05.17/outbox.cif.g08.bks.cpg/sg38_7_cif.got.tgz:12789.got - 2010.06.03 18:07:57.
