data_PCOD9357209
_publ_section_title
;
Structure prediction by ZEFSAII (Michael W. Deem and Ramdas Pophale) SiO2 
 PCOD9357209
Probable space group: A M M 2
;
_chemical_formula_sum "Si O2"
_cell_formula_units_Z 64
_cell_length_a 9.345436
_cell_length_b 28.236455
_cell_length_c 12.864348
_cell_angle_alpha 90.000000
_cell_angle_beta 90.000000
_cell_angle_gamma 90.000000
_cell_volume 3394.669661
_symmetry_space_group_name_H-M "A M M 2"
_symmetry_group_IT_number 38
_symmetry_cell_setting 'orthorhombic'
loop_
_space_group_symop_operation_xyz
x,y,z
-x,-y,z
-x,y,z
x,-y,z
x,1/2+y,1/2+z
-x,1/2-y,1/2+z
-x,1/2+y,1/2+z
x,1/2-y,1/2+z
loop_
_atom_site_type_symbol
_atom_site_label
_atom_site_fract_x
_atom_site_fract_y
_atom_site_fract_z
Si Si1 0.831415 0.699518 0.021220
Si Si2 0.170380 0.589088 0.971108
Si Si3 0.827428 0.625129 0.558502
Si Si4 0.174003 0.054068 0.241852
Si Si5 0.834149 0.051810 0.877068
Si Si6 0.330215 0.209693 0.956834
Si Si7 0.339068 0.183125 0.719023
Si Si8 0.337877 0.428826 0.172769
O O1 0.777934 0.703220 0.140359
O O2 0.000000 0.708753 0.012629
O O3 0.804855 0.645865 0.981181
O O4 0.739571 0.738644 0.962258
O O5 0.214160 0.569587 0.858572
O O6 0.000000 0.581573 0.983252
O O7 0.252423 0.564498 0.066060
O O8 0.782394 0.594022 0.658451
O O9 0.795255 0.592021 0.458800
O O10 0.747221 0.674294 0.537581
O O11 0.000000 0.632438 0.563150
O O12 0.000000 0.053372 0.237819
O O13 0.221932 0.000000 0.219793
O O14 0.741512 0.051869 0.773647
O O15 0.000000 0.059197 0.847360
O O16 0.823774 0.000000 0.928454
O O17 0.500000 0.211055 0.976158
O O18 0.307295 0.190873 0.839614
O O19 0.500000 0.202092 0.697469
O O20 0.341918 0.127498 0.694382
O O21 0.500000 0.445651 0.164495
#
# Coordination Sequence:
#
# PCOD9357209 Si02
#       8
#     8   8   8   8   8   8   8   8
#     4  10  21  35  54  83 114 149 194 244 293 342
#     4   9  19  36  57  82 114 150 191 237 288 342
#     4  10  20  35  57  84 113 148 194 241 287 341
#     4   9  18  35  60  87 117 154 194 240 294 352
#     4  10  20  33  52  80 112 144 182 230 284 341
#     4  11  22  37  57  82 114 152 195 237 293 357
#     4   9  19  36  55  75 106 147 185 228 283 342
#     4  10  19  34  55  79 108 143 184 229 281 339
#
# _framework density 18.853085
#
# number of rings (size 3 to 8) (size 9 to 14) (size 15 to 20)
#    0.000    2.250    1.250    1.500    0.000    5.250 
#    0.000    3.125    0.000    1.875    0.000    0.000 
#    0.000    0.000    0.000    0.000    0.000    0.000 
#
# Total GULP energy -178510.501698 kJ/mol
# GULP energy per Si atom -5578.453178 kJ/mol
# Density = 1.881017 g / cm^3
# Si number density = 18.853085 Si / 1000 Ang^3
#
#
#
# Elastic Constant Matrix: (Units=GPa)
#
#
# Indices 1 2 3 4 5 6 
#
# 1 43.7611 27.7291 31.6148 0.0000 0.0000 0.0000
# 2 27.7291 40.7753 12.9330 0.0000 0.0000 0.0000
# 3 31.6148 12.9330 84.1741 0.0000 0.0000 0.0000
# 4 0.0000 0.0000 0.0000 18.7612 0.0000 0.0000
# 5 0.0000 0.0000 0.0000 0.0000 18.3484 0.0000
# 6 0.0000 0.0000 0.0000 0.0000 0.0000 10.7935
#
#
#
# Elastic Compliance Matrix: (Units=1/GPa)
#
#
# Indices 1 2 3 4 5 6 
#
# 1 0.054346 -0.032045 -0.015488 0.000000 0.000000 0.000000
# 2 -0.032045 0.044677 0.005171 0.000000 0.000000 0.000000
# 3 -0.015488 0.005171 0.016903 0.000000 0.000000 0.000000
# 4 0.000000 0.000000 0.000000 0.053302 0.000000 0.000000
# 5 0.000000 0.000000 0.000000 0.000000 0.054501 0.000000
# 6 0.000000 0.000000 0.000000 0.000000 0.000000 0.092648
#
#
# Mechanical properties :
#
#
# Convention : Reuss Voigt Hill
#
# Bulk Modulus (GPa) = 32.04975 34.80714 33.42844
# Shear Modulus (GPa) = 12.15069 16.00954 14.08012
#
# Velocity S-wave (km/s) = 2.54144 2.91722 2.73579
# Velocity P-wave (km/s) = 5.06444 5.46345 5.26772
#
# Compressibility (1/GPa) = 0.03120149
#
# Stress axis : x y z
#
# Youngs Moduli (GPa) = 18.40069 22.38310 59.16226
#
# Poissons Ratio (x) = 0.71727 0.91630
# Poissons Ratio (y) = 0.58965 -0.30595
# Poissons Ratio (z) = 0.28499 -0.11575
#
# Static dielectric constant tensor:
#      x y z
#    x 1.636740 0.000000 0.000000 
#    y 0.000000 1.670510 0.000000 
#    z 0.000000 0.000000 1.635120 
# 
# From -- ./inp_files/8602.got.cif
#   From: 2010.05.17/outbox.cif.g08.bks.cpg/sg38_5_cif.got.tgz:8602.got - 2010.06.03 18:07:57.
