data_PCOD9357408
_publ_section_title
;
Structure prediction by ZEFSAII (Michael W. Deem and Ramdas Pophale) SiO2 
 PCOD9357408
Probable space group: A M M 2
;
_chemical_formula_sum "Si O2"
_cell_formula_units_Z 64
_cell_length_a 18.571729
_cell_length_b 19.753551
_cell_length_c 8.576145
_cell_angle_alpha 90.000000
_cell_angle_beta 90.000000
_cell_angle_gamma 90.000000
_cell_volume 3146.223937
_symmetry_space_group_name_H-M "A M M 2"
_symmetry_group_IT_number 38
_symmetry_cell_setting 'orthorhombic'
loop_
_space_group_symop_operation_xyz
x,y,z
-x,-y,z
-x,y,z
x,-y,z
x,1/2+y,1/2+z
-x,1/2-y,1/2+z
-x,1/2+y,1/2+z
x,1/2-y,1/2+z
loop_
_atom_site_type_symbol
_atom_site_label
_atom_site_fract_x
_atom_site_fract_y
_atom_site_fract_z
Si Si1 0.917643 0.296270 0.693860
Si Si2 0.329130 0.270595 0.652170
Si Si3 0.283604 0.846631 0.445685
Si Si4 0.782604 0.076620 0.919436
Si Si5 0.916315 0.340772 0.334592
Si Si6 0.171644 0.923429 0.283694
Si Si7 0.580414 0.079651 0.594581
Si Si8 0.635150 0.153561 0.867800
O O1 0.915903 0.311745 0.510847
O O2 0.888799 0.221495 0.729480
O O3 0.882183 0.360071 0.778290
O O4 0.000000 0.292507 0.747466
O O5 0.277609 0.220861 0.551450
O O6 0.287055 0.317095 0.771695
O O7 0.373656 0.219239 0.758758
O O8 0.376308 0.318007 0.540221
O O9 0.224837 0.904989 0.426452
O O10 0.357924 0.880426 0.501736
O O11 0.857380 0.100054 0.840973
O O12 0.717901 0.126724 0.872231
O O13 0.763815 0.000000 0.874187
O O14 0.793561 0.077071 0.108035
O O15 0.000000 0.359566 0.297438
O O16 0.142602 0.000000 0.302277
O O17 0.500000 0.100314 0.547149
O O18 0.590809 0.096629 0.778422
O O19 0.588628 0.000000 0.569186
#
# Coordination Sequence:
#
# PCOD9357408 Si02
#       8
#     8   8   8   8   8   8   8   8
#     4   9  19  34  53  77 105 143 187 231 280 333
#     4   9  20  33  57  86 107 148 179 229 290 327
#     4  10  19  36  56  84 114 141 190 233 280 335
#     4  10  20  32  53  82 112 147 185 235 286 331
#     4   9  19  34  53  77 105 143 187 231 280 333
#     4  10  20  32  53  82 112 147 185 235 286 331
#     4  10  22  41  62  82 113 155 189 227 282 346
#     4  10  19  36  56  84 114 141 190 233 280 335
#
# _framework density 20.341846
#
# number of rings (size 3 to 8) (size 9 to 14) (size 15 to 20)
#    0.000    2.375    1.250    0.750    3.500    0.500 
#    2.250   13.125    0.000    1.500    0.000    3.500 
#    0.000    0.000    0.000    0.000    0.000    0.000 
#
# Total GULP energy -178279.829462 kJ/mol
# GULP energy per Si atom -5571.244671 kJ/mol
# Density = 2.029555 g / cm^3
# Si number density = 20.341846 Si / 1000 Ang^3
#
#
#
# Elastic Constant Matrix: (Units=GPa)
#
#
# Indices 1 2 3 4 5 6 
#
# 1 52.0879 16.9722 7.4615 0.0000 0.0000 0.0000
# 2 16.9722 74.2328 15.5695 0.0000 0.0000 0.0000
# 3 7.4615 15.5695 46.6453 0.0000 0.0000 0.0000
# 4 0.0000 0.0000 0.0000 27.6731 0.0000 0.0000
# 5 0.0000 0.0000 0.0000 0.0000 20.3243 0.0000
# 6 0.0000 0.0000 0.0000 0.0000 0.0000 18.4503
#
#
#
# Elastic Compliance Matrix: (Units=1/GPa)
#
#
# Indices 1 2 3 4 5 6 
#
# 1 0.020896 -0.004383 -0.001879 0.000000 0.000000 0.000000
# 2 -0.004383 0.015405 -0.004441 0.000000 0.000000 0.000000
# 3 -0.001879 -0.004441 0.023221 0.000000 0.000000 0.000000
# 4 0.000000 0.000000 0.000000 0.036136 0.000000 0.000000
# 5 0.000000 0.000000 0.000000 0.000000 0.049202 0.000000
# 6 0.000000 0.000000 0.000000 0.000000 0.000000 0.054200
#
#
# Mechanical properties :
#
#
# Convention : Reuss Voigt Hill
#
# Bulk Modulus (GPa) = 26.23650 28.10804 27.17227
# Shear Modulus (GPa) = 21.44342 22.15372 21.79857
#
# Velocity S-wave (km/s) = 3.25029 3.30369 3.27710
# Velocity P-wave (km/s) = 5.19728 5.32919 5.26365
#
# Compressibility (1/GPa) = 0.03811485
#
# Stress axis : x y z
#
# Youngs Moduli (GPa) = 47.85656 64.91522 43.06395
#
# Poissons Ratio (x) = 0.28454 0.08094
# Poissons Ratio (y) = 0.20977 0.19123
# Poissons Ratio (z) = 0.08994 0.28827
#
# Static dielectric constant tensor:
#      x y z
#    x 1.752700 0.000000 0.000000 
#    y 0.000000 1.738380 0.000000 
#    z 0.000000 0.000000 1.765530 
# 
# From -- ./inp_files/6474.got.cif
#   From: 2010.05.17/outbox.cif.g08.bks.cpg/sg38_4_cif.got.tgz:6474.got - 2010.06.03 18:07:57.
