data_PCOD9357589
_publ_section_title
;
Structure prediction by ZEFSAII (Michael W. Deem and Ramdas Pophale) SiO2 
 PCOD9357589
Probable space group: A M M 2
;
_chemical_formula_sum "Si O2"
_cell_formula_units_Z 64
_cell_length_a 8.819639
_cell_length_b 30.803554
_cell_length_c 14.919587
_cell_angle_alpha 90.000000
_cell_angle_beta 90.000000
_cell_angle_gamma 90.000000
_cell_volume 4053.297093
_symmetry_space_group_name_H-M "A M M 2"
_symmetry_group_IT_number 38
_symmetry_cell_setting 'orthorhombic'
loop_
_space_group_symop_operation_xyz
x,y,z
-x,-y,z
-x,y,z
x,-y,z
x,1/2+y,1/2+z
-x,1/2-y,1/2+z
-x,1/2+y,1/2+z
x,1/2-y,1/2+z
loop_
_atom_site_type_symbol
_atom_site_label
_atom_site_fract_x
_atom_site_fract_y
_atom_site_fract_z
Si Si1 0.317956 0.049735 0.947710
Si Si2 0.319731 0.710250 0.843913
Si Si3 0.824720 0.277377 0.033821
Si Si4 0.181862 0.707843 0.235538
Si Si5 0.320744 0.635305 0.355440
Si Si6 0.825483 0.326722 0.530326
Si Si7 0.818862 0.550285 0.644709
Si Si8 0.318846 0.365880 0.708786
O O1 0.500000 0.053271 0.961616
O O2 0.276236 0.085224 0.873122
O O3 0.282854 0.000000 0.923112
O O4 0.238882 0.059072 0.043061
O O5 0.500000 0.716641 0.840878
O O6 0.245627 0.751211 0.791953
O O7 0.283139 0.665629 0.791783
O O8 0.265025 0.708120 0.946157
O O9 0.766505 0.290809 0.131979
O O10 0.823707 0.225135 0.033345
O O11 0.000000 0.291652 0.025433
O O12 0.233457 0.663356 0.282059
O O13 0.000000 0.711458 0.236678
O O14 0.500000 0.637690 0.338132
O O15 0.280228 0.657611 0.450048
O O16 0.763163 0.344861 0.623105
O O17 0.000000 0.340832 0.515202
O O18 0.780590 0.500000 0.664355
O O19 0.741277 0.584944 0.710085
O O20 0.000000 0.555128 0.647274
O O21 0.500000 0.365915 0.695744
#
# Coordination Sequence:
#
# PCOD9357589 Si02
#       8
#     8   8   8   8   8   8   8   8
#     4   9  18  32  49  70 100 135 167 204 251 301
#     4  11  23  35  52  75 100 131 170 212 251 296
#     4  10  22  37  52  70  97 135 174 211 252 294
#     4  11  22  36  52  72 100 135 172 207 250 300
#     4  11  21  32  49  75 102 134 172 208 250 299
#     4  11  20  31  49  72 101 137 173 209 245 291
#     4  10  20  32  49  74 101 132 170 209 250 299
#     4  11  22  34  49  74 103 137 172 206 254 305
#
# _framework density 15.789614
#
# number of rings (size 3 to 8) (size 9 to 14) (size 15 to 20)
#    0.000    1.500    3.750    2.250    0.000    4.250 
#    0.000    0.000    0.000    0.000    0.000    0.875 
#    0.000    3.000    0.000    0.000    0.000    0.000 
#
# Total GULP energy -178592.648187 kJ/mol
# GULP energy per Si atom -5581.020256 kJ/mol
# Density = 1.575368 g / cm^3
# Si number density = 15.789614 Si / 1000 Ang^3
#
#
#
# Elastic Constant Matrix: (Units=GPa)
#
#
# Indices 1 2 3 4 5 6 
#
# 1 39.9859 33.5394 28.8124 0.0000 0.0000 0.0000
# 2 33.5394 104.5217 49.4930 0.0000 0.0000 0.0000
# 3 28.8124 49.4930 102.4042 0.0000 0.0000 0.0000
# 4 0.0000 0.0000 0.0000 20.3115 0.0000 0.0000
# 5 0.0000 0.0000 0.0000 0.0000 9.3502 0.0000
# 6 0.0000 0.0000 0.0000 0.0000 0.0000 20.6802
#
#
#
# Elastic Compliance Matrix: (Units=1/GPa)
#
#
# Indices 1 2 3 4 5 6 
#
# 1 0.036892 -0.008978 -0.006041 0.000000 0.000000 0.000000
# 2 -0.008978 0.014591 -0.004526 0.000000 0.000000 0.000000
# 3 -0.006041 -0.004526 0.013652 0.000000 0.000000 0.000000
# 4 0.000000 0.000000 0.000000 0.049233 0.000000 0.000000
# 5 0.000000 0.000000 0.000000 0.000000 0.106950 0.000000
# 6 0.000000 0.000000 0.000000 0.000000 0.000000 0.048355
#
#
# Mechanical properties :
#
#
# Convention : Reuss Voigt Hill
#
# Bulk Modulus (GPa) = 38.39318 52.28905 45.34112
# Shear Modulus (GPa) = 15.75071 19.07285 17.41178
#
# Velocity S-wave (km/s) = 3.16181 3.47931 3.32435
# Velocity P-wave (km/s) = 6.13984 7.02345 6.59645
#
# Compressibility (1/GPa) = 0.02604629
#
# Stress axis : x y z
#
# Youngs Moduli (GPa) = 27.10623 68.53332 73.24675
#
# Poissons Ratio (x) = 0.61526 0.44248
# Poissons Ratio (y) = 0.24335 0.33153
# Poissons Ratio (z) = 0.16375 0.31020
#
# Static dielectric constant tensor:
#      x y z
#    x 1.537160 0.000000 0.000000 
#    y 0.000000 1.550410 0.000000 
#    z 0.000000 0.000000 1.505000 
# 
# From -- ./inp_files/13058.got.cif
#   From: 2010.05.17/outbox.cif.g08.bks.cpg/sg38_7_cif.got.tgz:13058.got - 2010.06.03 18:07:57.
