data_PCOD9357436
_publ_section_title
;
Structure prediction by ZEFSAII (Michael W. Deem and Ramdas Pophale) SiO2 
 PCOD9357436
Probable space group: A M M 2
;
_chemical_formula_sum "Si O2"
_cell_formula_units_Z 48
_cell_length_a 15.763932
_cell_length_b 16.526221
_cell_length_c 9.691915
_cell_angle_alpha 90.000000
_cell_angle_beta 90.000000
_cell_angle_gamma 90.000000
_cell_volume 2524.920484
_symmetry_space_group_name_H-M "A M M 2"
_symmetry_group_IT_number 38
_symmetry_cell_setting 'orthorhombic'
loop_
_space_group_symop_operation_xyz
x,y,z
-x,-y,z
-x,y,z
x,-y,z
x,1/2+y,1/2+z
-x,1/2-y,1/2+z
-x,1/2+y,1/2+z
x,1/2-y,1/2+z
loop_
_atom_site_type_symbol
_atom_site_label
_atom_site_fract_x
_atom_site_fract_y
_atom_site_fract_z
Si Si1 0.330808 0.858873 0.138000
Si Si2 0.691319 0.331797 0.141858
Si Si3 0.769823 0.093231 0.375024
Si Si4 0.210113 0.591739 0.400392
Si Si5 0.500000 0.595837 0.500427
Si Si6 0.500000 0.597122 0.171717
Si Si7 0.902985 0.401262 0.637950
O O1 0.308860 0.764773 0.147643
O O2 0.315664 0.899422 0.284657
O O3 0.421748 0.864778 0.074589
O O4 0.274194 0.907536 0.029094
O O5 0.739875 0.363684 0.278615
O O6 0.593069 0.365349 0.128560
O O7 0.749253 0.359002 0.013141
O O8 0.842190 0.123378 0.266521
O O9 0.788543 0.000000 0.408344
O O10 0.192353 0.500000 0.353957
O O11 0.129009 0.626181 0.485213
O O12 0.500000 0.500000 0.523247
O O13 0.500000 0.608674 0.337162
O O14 0.500000 0.500000 0.141845
O O15 0.898364 0.500000 0.634119
O O16 0.000000 0.377622 0.661703
#
# Coordination Sequence:
#
# PCOD9357436 Si02
#       7
#     8   8   8   8   4   4   8
#     4  11  22  37  56  81 110 148 194 238 281 336
#     4  12  23  37  55  85 119 151 188 238 293 335
#     4  10  21  36  57  83 114 148 184 233 290 343
#     4  10  19  36  61  82 109 151 195 230 277 348
#     4  11  21  37  61  81 104 151 211 249 272 327
#     4  11  23  37  57  79 112 153 195 241 284 327
#     4   8  16  34  61  89 113 144 190 240 284 337
#
# _framework density 19.010498999999999
#
# number of rings (size 3 to 8) (size 9 to 14) (size 15 to 20)
#    0.000    1.667    1.667    5.500    0.000    0.667 
#    0.000    2.500    0.000   20.000    0.000    0.000 
#    0.000    0.000    0.000    0.000    0.000    0.167 
#
# Total GULP energy -133655.255146 kJ/mol
# GULP energy per Si atom -5568.968964 kJ/mol
# Density = 1.896723 g / cm^3
# Si number density = 19.010499 Si / 1000 Ang^3
#
#
#
# Elastic Constant Matrix: (Units=GPa)
#
#
# Indices 1 2 3 4 5 6 
#
# 1 96.2991 30.2119 27.3714 0.0000 0.0000 0.0000
# 2 30.2119 59.1723 23.4760 0.0000 0.0000 0.0000
# 3 27.3714 23.4760 99.4613 0.0000 0.0000 0.0000
# 4 0.0000 0.0000 0.0000 -13.8100 0.0000 0.0000
# 5 0.0000 0.0000 0.0000 0.0000 47.5663 0.0000
# 6 0.0000 0.0000 0.0000 0.0000 0.0000 4.2548
#
#
#
# Elastic Compliance Matrix: (Units=1/GPa)
#
#
# Indices 1 2 3 4 5 6 
#
# 1 0.012780 -0.005660 -0.002181 0.000000 0.000000 0.000000
# 2 -0.005660 0.021152 -0.003435 0.000000 0.000000 0.000000
# 3 -0.002181 -0.003435 0.011465 0.000000 0.000000 0.000000
# 4 0.000000 0.000000 0.000000 -0.072411 0.000000 0.000000
# 5 0.000000 0.000000 0.000000 0.000000 0.021023 0.000000
# 6 0.000000 0.000000 0.000000 0.000000 0.000000 0.235030
#
#
# Mechanical properties :
#
#
# Convention : Reuss Voigt Hill
#
# Bulk Modulus (GPa) = 43.77219 46.33903 45.05561
# Shear Modulus (GPa) = 19.28960 19.19377 19.24168
#
# Velocity S-wave (km/s) = 3.18886 3.18093 3.18490
# Velocity P-wave (km/s) = 6.05258 6.15788 6.10546
#
# Compressibility (1/GPa) = 0.02284556
#
# Stress axis : x y z
#
# Youngs Moduli (GPa) = 78.24789 47.27602 87.22070
#
# Poissons Ratio (x) = 0.26757 0.19024
# Poissons Ratio (y) = 0.44287 0.29961
# Poissons Ratio (z) = 0.17067 0.16240
#
# Static dielectric constant tensor:
#      x y z
#    x 1.618030 0.000000 0.000000 
#    y 0.000000 1.652220 0.000000 
#    z 0.000000 0.000000 1.643270 
# 
# From -- ./inp_files/5491.got.cif
#   From: 2010.05.17/outbox.cif.g08.bks.cpg/sg38_3_cif.got.tgz:5491.got - 2010.06.03 18:07:57.
