data_PCOD9357692
_publ_section_title
;
Structure prediction by ZEFSAII (Michael W. Deem and Ramdas Pophale) SiO2 
 PCOD9357692
Probable space group: A M M 2
;
_chemical_formula_sum "Si O2"
_cell_formula_units_Z 64
_cell_length_a 14.405541
_cell_length_b 8.943974
_cell_length_c 31.647772
_cell_angle_alpha 90.000000
_cell_angle_beta 90.000000
_cell_angle_gamma 90.000000
_cell_volume 4077.587057
_symmetry_space_group_name_H-M "A M M 2"
_symmetry_group_IT_number 38
_symmetry_cell_setting 'orthorhombic'
loop_
_space_group_symop_operation_xyz
x,y,z
-x,-y,z
-x,y,z
x,-y,z
x,1/2+y,1/2+z
-x,1/2-y,1/2+z
-x,1/2+y,1/2+z
x,1/2-y,1/2+z
loop_
_atom_site_type_symbol
_atom_site_label
_atom_site_fract_x
_atom_site_fract_y
_atom_site_fract_z
Si Si1 0.716770 0.678903 0.422280
Si Si2 0.387326 0.827722 0.755534
Si Si3 0.389634 0.178328 0.343765
Si Si4 0.284912 0.821777 0.588387
Si Si5 0.892826 0.822010 0.460314
Si Si6 0.609640 0.821621 0.009423
Si Si7 0.610821 0.822120 0.167342
Si Si8 0.107303 0.677878 0.553062
O O1 0.722661 0.500000 0.418624
O O2 0.665737 0.747077 0.381917
O O3 0.817831 0.749652 0.429488
O O4 0.657561 0.713472 0.464693
O O5 0.500000 0.827205 0.755576
O O6 0.359413 0.745656 0.798643
O O7 0.359727 0.742818 0.712817
O O8 0.356675 0.000000 0.755089
O O9 0.500000 0.209343 0.348908
O O10 0.377414 0.000000 0.343863
O O11 0.341679 0.766162 0.547276
O O12 0.335138 0.757221 0.629613
O O13 0.182005 0.754554 0.583108
O O14 0.282255 0.000000 0.589494
O O15 0.880134 0.747060 0.506324
O O16 0.000000 0.796352 0.447650
O O17 0.878035 0.000000 0.463841
O O18 0.500000 0.789962 0.007814
O O19 0.621317 0.000000 0.017008
O O20 0.500000 0.794970 0.162383
O O21 0.625283 0.000000 0.165895
O O22 0.123674 0.500000 0.550942
O O23 0.000000 0.703258 0.565356
#
# Coordination Sequence:
#
# PCOD9357692 Si02
#       8
#     8   8   8   8   8   8   8   8
#     4  11  21  33  51  73  99 134 173 209 250 298
#     4   9  17  31  51  74 100 129 166 211 255 297
#     4  10  20  33  50  73 103 137 172 209 251 299
#     4  12  23  33  49  73 101 133 169 208 252 299
#     4  10  20  34  52  74  99 127 163 209 257 301
#     4  10  21  35  48  65  96 137 175 207 243 291
#     4  10  20  34  52  73 101 136 172 209 250 297
#     4  10  20  35  54  73  95 127 167 209 253 300
#
# _framework density 15.695557000000001
#
# number of rings (size 3 to 8) (size 9 to 14) (size 15 to 20)
#    0.000    1.750    1.250    4.125    0.000    7.250 
#    0.000    0.000    0.000    0.000    0.000    0.875 
#    0.000    7.000    0.000    0.000    0.000    0.000 
#
# Total GULP energy -178691.039623 kJ/mol
# GULP energy per Si atom -5584.094988 kJ/mol
# Density = 1.565983 g / cm^3
# Si number density = 15.695557 Si / 1000 Ang^3
#
#
#
# Elastic Constant Matrix: (Units=GPa)
#
#
# Indices 1 2 3 4 5 6 
#
# 1 92.3852 71.0725 69.8305 0.0000 0.0000 0.0000
# 2 71.0725 111.9362 85.2123 0.0000 0.0000 0.0000
# 3 69.8305 85.2123 145.4666 0.0000 0.0000 0.0000
# 4 0.0000 0.0000 0.0000 31.7683 0.0000 0.0000
# 5 0.0000 0.0000 0.0000 0.0000 6.2738 0.0000
# 6 0.0000 0.0000 0.0000 0.0000 0.0000 23.9767
#
#
#
# Elastic Compliance Matrix: (Units=1/GPa)
#
#
# Indices 1 2 3 4 5 6 
#
# 1 0.022629 -0.011007 -0.004415 0.000000 0.000000 0.000000
# 2 -0.011007 0.021478 -0.007297 0.000000 0.000000 0.000000
# 3 -0.004415 -0.007297 0.013269 0.000000 0.000000 0.000000
# 4 0.000000 0.000000 0.000000 0.031478 0.000000 0.000000
# 5 0.000000 0.000000 0.000000 0.000000 0.159394 0.000000
# 6 0.000000 0.000000 0.000000 0.000000 0.000000 0.041707
#
#
# Mechanical properties :
#
#
# Convention : Reuss Voigt Hill
#
# Bulk Modulus (GPa) = 83.77917 89.11317 86.44617
# Shear Modulus (GPa) = 14.73303 20.64860 17.69082
#
# Velocity S-wave (km/s) = 3.06710 3.63101 3.36091
# Velocity P-wave (km/s) = 8.12628 8.63008 8.38196
#
# Compressibility (1/GPa) = 0.01193614
#
# Stress axis : x y z
#
# Youngs Moduli (GPa) = 44.19026 46.55997 75.36501
#
# Poissons Ratio (x) = 0.51249 0.33276
# Poissons Ratio (y) = 0.48640 0.54997
# Poissons Ratio (z) = 0.19512 0.33977
#
# Static dielectric constant tensor:
#      x y z
#    x 1.518570 0.000000 0.000000 
#    y 0.000000 1.521290 0.000000 
#    z 0.000000 0.000000 1.495450 
# 
# From -- ./inp_files/25065.got.cif
#   From: 2010.05.17/outbox.cif.g08.bks.cpg/sg38_13_cif.got.tgz:25065.got - 2010.06.03 18:07:57.
