data_PCOD9357726
_publ_section_title
;
Structure prediction by ZEFSAII (Michael W. Deem and Ramdas Pophale) SiO2 
 PCOD9357726
Probable space group: A M M 2
;
_chemical_formula_sum "Si O2"
_cell_formula_units_Z 48
_cell_length_a 7.494458
_cell_length_b 9.479911
_cell_length_c 31.683650
_cell_angle_alpha 90.000000
_cell_angle_beta 90.000000
_cell_angle_gamma 90.000000
_cell_volume 2251.021781
_symmetry_space_group_name_H-M "A M M 2"
_symmetry_group_IT_number 38
_symmetry_cell_setting 'orthorhombic'
loop_
_space_group_symop_operation_xyz
x,y,z
-x,-y,z
-x,y,z
x,-y,z
x,1/2+y,1/2+z
-x,1/2-y,1/2+z
-x,1/2+y,1/2+z
x,1/2-y,1/2+z
loop_
_atom_site_type_symbol
_atom_site_label
_atom_site_fract_x
_atom_site_fract_y
_atom_site_fract_z
Si Si1 0.214069 0.660464 0.941770
Si Si2 0.288350 0.341218 0.779864
Si Si3 0.218432 0.662095 0.522624
Si Si4 0.214884 0.660443 0.198245
Si Si5 0.713782 0.840164 0.858181
Si Si6 0.782576 0.162415 0.603251
O O1 0.282178 0.500000 0.939314
O O2 0.251987 0.748866 0.899796
O O3 0.000000 0.652070 0.945701
O O4 0.278508 0.744764 0.982900
O O5 0.500000 0.352107 0.787350
O O6 0.214866 0.500000 0.780698
O O7 0.265923 0.267112 0.734818
O O8 0.215595 0.241996 0.817097
O O9 0.274940 0.500000 0.519018
O O10 0.276439 0.734121 0.566316
O O11 0.000000 0.662493 0.522476
O O12 0.276361 0.500000 0.207467
O O13 0.275081 0.699085 0.150868
O O14 0.000000 0.656593 0.197142
O O15 0.500000 0.850533 0.853690
O O16 0.783250 0.000000 0.861698
O O17 0.000000 0.164694 0.603168
O O18 0.730564 0.000000 0.594746
#
# Coordination Sequence:
#
# PCOD9357726 Si02
#       6
#     8   8   8   8   8   8
#     4  10  20  33  51  76 104 133 165 202 245 291
#     4  10  21  36  53  73  98 130 167 204 245 296
#     4   9  16  26  43  69 100 132 165 201 242 288
#     4   9  18  32  51  76 103 131 165 205 248 292
#     4  10  21  37  56  75  96 127 166 205 248 298
#     4   8  14  26  44  67  97 130 162 198 242 292
#
# _framework density 21.323651000000002
#
# number of rings (size 3 to 8) (size 9 to 14) (size 15 to 20)
#    0.000    2.667    0.000    3.000    0.000    6.667 
#    0.000    1.667    0.000    1.000    0.000    4.667 
#    0.000    0.000    0.000    0.000    0.000    0.000 
#
# Total GULP energy -134047.864727 kJ/mol
# GULP energy per Si atom -5585.327697 kJ/mol
# Density = 2.127512 g / cm^3
# Si number density = 21.323651 Si / 1000 Ang^3
#
#
#
# Elastic Constant Matrix: (Units=GPa)
#
#
# Indices 1 2 3 4 5 6 
#
# 1 57.8179 8.2049 -0.8398 0.0000 0.0000 0.0000
# 2 8.2049 231.9378 151.6852 0.0000 0.0000 0.0000
# 3 -0.8398 151.6852 191.2016 0.0000 0.0000 0.0000
# 4 0.0000 0.0000 0.0000 33.9886 0.0000 0.0000
# 5 0.0000 0.0000 0.0000 0.0000 32.7050 0.0000
# 6 0.0000 0.0000 0.0000 0.0000 0.0000 11.2690
#
#
#
# Elastic Compliance Matrix: (Units=1/GPa)
#
#
# Indices 1 2 3 4 5 6 
#
# 1 0.017510 -0.001392 0.001181 0.000000 0.000000 0.000000
# 2 -0.001392 0.009071 -0.007202 0.000000 0.000000 0.000000
# 3 0.001181 -0.007202 0.010949 0.000000 0.000000 0.000000
# 4 0.000000 0.000000 0.000000 0.029422 0.000000 0.000000
# 5 0.000000 0.000000 0.000000 0.000000 0.030576 0.000000
# 6 0.000000 0.000000 0.000000 0.000000 0.000000 0.088739
#
#
# Mechanical properties :
#
#
# Convention : Reuss Voigt Hill
#
# Bulk Modulus (GPa) = 44.04473 88.78423 66.41448
# Shear Modulus (GPa) = 23.96222 37.05298 30.50760
#
# Velocity S-wave (km/s) = 3.35586 4.17303 3.78655
# Velocity P-wave (km/s) = 5.97628 8.05890 7.09442
#
# Compressibility (1/GPa) = 0.02270419
#
# Stress axis : x y z
#
# Youngs Moduli (GPa) = 57.10907 110.24069 91.33137
#
# Poissons Ratio (x) = 0.15344 -0.10787
# Poissons Ratio (y) = 0.07949 0.65781
# Poissons Ratio (z) = -0.06745 0.79400
#
# Static dielectric constant tensor:
#      x y z
#    x 1.828180 0.000000 0.000000 
#    y 0.000000 1.745570 0.000000 
#    z 0.000000 0.000000 1.726040 
# 
# From -- ./inp_files/22419.got.cif
#   From: 2010.05.17/outbox.cif.g08.bks.cpg/sg38_12_cif.got.tgz:22419.got - 2010.06.03 18:07:57.
