data_PCOD9357674
_publ_section_title
;
Structure prediction by ZEFSAII (Michael W. Deem and Ramdas Pophale) SiO2 
 PCOD9357674
Probable space group: A M M 2
;
_chemical_formula_sum "Si O2"
_cell_formula_units_Z 64
_cell_length_a 14.350841
_cell_length_b 9.012729
_cell_length_c 31.665234
_cell_angle_alpha 90.000000
_cell_angle_beta 90.000000
_cell_angle_gamma 90.000000
_cell_volume 4095.588992
_symmetry_space_group_name_H-M "A M M 2"
_symmetry_group_IT_number 38
_symmetry_cell_setting 'orthorhombic'
loop_
_space_group_symop_operation_xyz
x,y,z
-x,-y,z
-x,y,z
x,-y,z
x,1/2+y,1/2+z
-x,1/2-y,1/2+z
-x,1/2+y,1/2+z
x,1/2-y,1/2+z
loop_
_atom_site_type_symbol
_atom_site_label
_atom_site_fract_x
_atom_site_fract_y
_atom_site_fract_z
Si Si1 0.611672 0.825273 0.113240
Si Si2 0.107368 0.176322 0.061689
Si Si3 0.389751 0.178761 0.272554
Si Si4 0.710576 0.823305 0.693535
Si Si5 0.388276 0.825373 0.953509
Si Si6 0.107491 0.176161 0.162338
Si Si7 0.386963 0.170692 0.367420
Si Si8 0.290560 0.676492 0.032611
O O1 0.500000 0.812278 0.112945
O O2 0.653594 0.747985 0.154561
O O3 0.654418 0.750781 0.071669
O O4 0.636177 0.000000 0.113752
O O5 0.119752 0.202267 0.112021
O O6 0.184316 0.268632 0.037091
O O7 0.000000 0.212019 0.051262
O O8 0.121145 0.000000 0.054731
O O9 0.500000 0.212978 0.267958
O O10 0.332334 0.260329 0.236626
O O11 0.358939 0.218598 0.320278
O O12 0.380653 0.000000 0.268400
O O13 0.816522 0.769392 0.687216
O O14 0.704037 0.000000 0.691945
O O15 0.500000 0.801376 0.957509
O O16 0.359380 0.771121 0.906850
O O17 0.370768 0.000000 0.958823
O O18 0.336079 0.734407 0.989524
O O19 0.000000 0.210530 0.172728
O O20 0.122154 0.000000 0.169318
O O21 0.500000 0.169741 0.366397
O O22 0.357330 0.000000 0.374279
O O23 0.296465 0.500000 0.035573
#
# Coordination Sequence:
#
# PCOD9357674 Si02
#       8
#     8   8   8   8   8   8   8   8
#     4  11  23  37  50  64  92 135 175 206 239 286
#     4   9  18  34  55  74  94 125 164 205 248 295
#     4   9  18  33  52  72  98 135 172 204 243 292
#     4  12  23  32  47  74 103 131 163 204 249 292
#     4  10  20  33  50  72 100 135 170 203 244 294
#     4   9  18  34  55  73  92 125 166 206 248 295
#     4   8  15  30  51  73  96 124 163 210 252 287
#     4  12  23  33  49  74 101 130 164 205 248 291
#
# _framework density 15.626568000000001
#
# number of rings (size 3 to 8) (size 9 to 14) (size 15 to 20)
#    0.000    2.000    1.250    5.250    0.000    6.000 
#    0.000    2.500    0.000    0.000    0.000    0.875 
#    0.000    1.000    0.000    0.000    0.000    0.000 
#
# Total GULP energy -178610.121610 kJ/mol
# GULP energy per Si atom -5581.566300 kJ/mol
# Density = 1.559100 g / cm^3
# Si number density = 15.626568 Si / 1000 Ang^3
#
#
#
# Elastic Constant Matrix: (Units=GPa)
#
#
# Indices 1 2 3 4 5 6 
#
# 1 79.1413 64.7671 54.6617 0.0000 0.0000 0.0000
# 2 64.7671 102.3672 71.8052 0.0000 0.0000 0.0000
# 3 54.6617 71.8052 118.5818 0.0000 0.0000 0.0000
# 4 0.0000 0.0000 0.0000 26.8412 0.0000 0.0000
# 5 0.0000 0.0000 0.0000 0.0000 3.7799 0.0000
# 6 0.0000 0.0000 0.0000 0.0000 0.0000 9.6751
#
#
#
# Elastic Compliance Matrix: (Units=1/GPa)
#
#
# Indices 1 2 3 4 5 6 
#
# 1 0.027090 -0.014568 -0.003666 0.000000 0.000000 0.000000
# 2 -0.014568 0.024816 -0.008312 0.000000 0.000000 0.000000
# 3 -0.003666 -0.008312 0.015156 0.000000 0.000000 0.000000
# 4 0.000000 0.000000 0.000000 0.037256 0.000000 0.000000
# 5 0.000000 0.000000 0.000000 0.000000 0.264556 0.000000
# 6 0.000000 0.000000 0.000000 0.000000 0.000000 0.103359
#
#
# Mechanical properties :
#
#
# Convention : Reuss Voigt Hill
#
# Bulk Modulus (GPa) = 71.57981 75.83980 73.70981
# Shear Modulus (GPa) = 9.43430 15.31632 12.37531
#
# Velocity S-wave (km/s) = 2.45977 3.13413 2.81720
# Velocity P-wave (km/s) = 7.34665 7.85716 7.60619
#
# Compressibility (1/GPa) = 0.01397042
#
# Stress axis : x y z
#
# Youngs Moduli (GPa) = 36.91434 40.29646 65.98142
#
# Poissons Ratio (x) = 0.58704 0.24188
# Poissons Ratio (y) = 0.53777 0.54841
# Poissons Ratio (z) = 0.13532 0.33493
#
# Static dielectric constant tensor:
#      x y z
#    x 1.514740 0.000000 0.000000 
#    y 0.000000 1.516630 0.000000 
#    z 0.000000 0.000000 1.506440 
# 
# From -- ./inp_files/25110.got.cif
#   From: 2010.05.17/outbox.cif.g08.bks.cpg/sg38_13_cif.got.tgz:25110.got - 2010.06.03 18:07:57.
