data_PCOD9357414
_publ_section_title
;
Structure prediction by ZEFSAII (Michael W. Deem and Ramdas Pophale) SiO2 
 PCOD9357414
Probable space group: A M M 2
;
_chemical_formula_sum "Si O2"
_cell_formula_units_Z 64
_cell_length_a 17.269399
_cell_length_b 18.290912
_cell_length_c 10.570790
_cell_angle_alpha 90.000000
_cell_angle_beta 90.000000
_cell_angle_gamma 90.000000
_cell_volume 3339.027756
_symmetry_space_group_name_H-M "A M M 2"
_symmetry_group_IT_number 38
_symmetry_cell_setting 'orthorhombic'
loop_
_space_group_symop_operation_xyz
x,y,z
-x,-y,z
-x,y,z
x,-y,z
x,1/2+y,1/2+z
-x,1/2-y,1/2+z
-x,1/2+y,1/2+z
x,1/2-y,1/2+z
loop_
_atom_site_type_symbol
_atom_site_label
_atom_site_fract_x
_atom_site_fract_y
_atom_site_fract_z
Si Si1 0.083952 0.584574 0.271840
Si Si2 0.175716 0.779434 0.161104
Si Si3 0.663496 0.303309 0.137091
Si Si4 0.409541 0.414425 0.940821
Si Si5 0.413056 0.349302 0.658530
Si Si6 0.257122 0.582653 0.572781
Si Si7 0.913701 0.767363 0.909479
Si Si8 0.747936 0.918401 0.776734
O O1 0.086283 0.500000 0.314849
O O2 0.081797 0.646080 0.378972
O O3 0.168666 0.595993 0.208767
O O4 0.000000 0.593020 0.202912
O O5 0.254207 0.737170 0.122513
O O6 0.200834 0.863745 0.148501
O O7 0.144193 0.762208 0.300924
O O8 0.114540 0.758659 0.052546
O O9 0.603934 0.237748 0.162855
O O10 0.682700 0.359311 0.249455
O O11 0.638254 0.356489 0.023809
O O12 0.500000 0.411589 0.980843
O O13 0.384955 0.500000 0.948502
O O14 0.406641 0.385459 0.797162
O O15 0.500000 0.362040 0.610643
O O16 0.344442 0.386648 0.580592
O O17 0.254845 0.500000 0.620116
O O18 0.234884 0.583301 0.425493
O O19 0.000000 0.736584 0.891467
O O20 0.722126 0.000000 0.741906
#
# Coordination Sequence:
#
# PCOD9357414 Si02
#       8
#     8   8   8   8   8   8   8   8
#     4   9  17  31  53  79 108 145 189 229 270 327
#     4  11  22  36  59  86 118 149 196 240 288 349
#     4  11  22  35  59  86 117 147 191 239 294 338
#     4  10  22  40  59  81 112 153 197 235 285 359
#     4  10  23  39  59  82 112 151 193 237 286 349
#     4  10  21  36  59  85 115 146 186 238 291 348
#     4  11  22  38  57  84 117 155 192 238 288 340
#     4  10  19  36  57  85 117 148 186 238 289 341
#
# _framework density 19.167255000000001
#
# number of rings (size 3 to 8) (size 9 to 14) (size 15 to 20)
#    0.000    1.750    2.500    1.500    7.000    0.750 
#    0.000    0.625    0.000    3.375    0.000    0.000 
#    0.000    0.000    0.000    0.000    0.000    0.000 
#
# Total GULP energy -178231.829621 kJ/mol
# GULP energy per Si atom -5569.744676 kJ/mol
# Density = 1.912363 g / cm^3
# Si number density = 19.167255 Si / 1000 Ang^3
#
#
#
# Elastic Constant Matrix: (Units=GPa)
#
#
# Indices 1 2 3 4 5 6 
#
# 1 97.2287 28.5410 22.9312 0.0000 0.0000 0.0000
# 2 28.5410 115.9891 17.5813 0.0000 0.0000 0.0000
# 3 22.9312 17.5813 32.4630 0.0000 0.0000 0.0000
# 4 0.0000 0.0000 0.0000 19.4491 0.0000 0.0000
# 5 0.0000 0.0000 0.0000 0.0000 23.1004 0.0000
# 6 0.0000 0.0000 0.0000 0.0000 0.0000 15.6417
#
#
#
# Elastic Compliance Matrix: (Units=1/GPa)
#
#
# Indices 1 2 3 4 5 6 
#
# 1 0.012724 -0.001927 -0.007945 0.000000 0.000000 0.000000
# 2 -0.001927 0.009684 -0.003884 0.000000 0.000000 0.000000
# 3 -0.007945 -0.003884 0.038520 0.000000 0.000000 0.000000
# 4 0.000000 0.000000 0.000000 0.051416 0.000000 0.000000
# 5 0.000000 0.000000 0.000000 0.000000 0.043289 0.000000
# 6 0.000000 0.000000 0.000000 0.000000 0.000000 0.063932
#
#
# Mechanical properties :
#
#
# Convention : Reuss Voigt Hill
#
# Bulk Modulus (GPa) = 29.92421 42.64309 36.28365
# Shear Modulus (GPa) = 19.36367 23.41339 21.38853
#
# Velocity S-wave (km/s) = 3.18189 3.49883 3.34412
# Velocity P-wave (km/s) = 5.39863 6.21439 5.82082
#
# Compressibility (1/GPa) = 0.03341775
#
# Stress axis : x y z
#
# Youngs Moduli (GPa) = 78.58930 103.25980 25.96076
#
# Poissons Ratio (x) = 0.19896 0.20625
# Poissons Ratio (y) = 0.15143 0.10083
# Poissons Ratio (z) = 0.62437 0.40104
#
# Static dielectric constant tensor:
#      x y z
#    x 1.722990 0.000000 0.000000 
#    y 0.000000 1.701180 0.000000 
#    z 0.000000 0.000000 1.642070 
# 
# From -- ./inp_files/10665.got.cif
#   From: 2010.05.17/outbox.cif.g08.bks.cpg/sg38_6_cif.got.tgz:10665.got - 2010.06.03 18:07:57.
