data_PCOD9357228
_publ_section_title
;
Structure prediction by ZEFSAII (Michael W. Deem and Ramdas Pophale) SiO2 
 PCOD9357228
Probable space group: A M M 2
;
_chemical_formula_sum "Si O2"
_cell_formula_units_Z 48
_cell_length_a 7.495055
_cell_length_b 18.903945
_cell_length_c 15.616091
_cell_angle_alpha 90.000000
_cell_angle_beta 90.000000
_cell_angle_gamma 90.000000
_cell_volume 2212.583148
_symmetry_space_group_name_H-M "A M M 2"
_symmetry_group_IT_number 38
_symmetry_cell_setting 'orthorhombic'
loop_
_space_group_symop_operation_xyz
x,y,z
-x,-y,z
-x,y,z
x,-y,z
x,1/2+y,1/2+z
-x,1/2-y,1/2+z
-x,1/2+y,1/2+z
x,1/2-y,1/2+z
loop_
_atom_site_type_symbol
_atom_site_label
_atom_site_fract_x
_atom_site_fract_y
_atom_site_fract_z
Si Si1 0.717744 0.000000 0.302240
Si Si2 0.718929 0.270487 0.225707
Si Si3 0.285923 0.500000 0.606061
Si Si4 0.280992 0.153571 0.366297
Si Si5 0.702760 0.229714 0.532402
Si Si6 0.292874 0.076255 0.786083
Si Si7 0.207042 0.380990 0.472397
O O1 0.775639 0.000000 0.203420
O O2 0.773507 0.073678 0.344973
O O3 0.500000 0.000000 0.302792
O O4 0.500000 0.268318 0.228210
O O5 0.775192 0.209519 0.292484
O O6 0.779273 0.260879 0.127534
O O7 0.779738 0.348895 0.253512
O O8 0.500000 0.500000 0.606318
O O9 0.225504 0.431581 0.553728
O O10 0.500000 0.155671 0.367127
O O11 0.217636 0.179080 0.459772
O O12 0.500000 0.204517 0.546200
O O13 0.700751 0.306785 0.489664
O O14 0.500000 0.075350 0.759723
O O15 0.213996 0.000000 0.760152
O O16 0.283897 0.081557 0.888783
O O17 0.000000 0.367166 0.455986
#
# Coordination Sequence:
#
# PCOD9357228 Si02
#       7
#     4   8   4   8   8   8   8
#     4   9  18  31  51  82 111 138 176 227 277 320
#     4   9  17  31  53  81 106 138 188 233 266 321
#     4  11  21  35  57  80 107 144 184 225 283 338
#     4   9  16  29  50  77 110 140 177 228 273 321
#     4  10  19  34  57  79 107 149 185 222 275 327
#     4  10  19  34  56  79 109 145 182 223 274 329
#     4  12  23  34  52  81 115 141 179 229 276 334
#
# _framework density 21.694099999999999
#
# number of rings (size 3 to 8) (size 9 to 14) (size 15 to 20)
#    0.000    2.000    2.500    2.750    0.000    2.667 
#    1.500    0.833    0.000    1.000    0.000    0.000 
#    0.000    0.000    0.000    0.000    0.000    0.000 
#
# Total GULP energy -133999.891930 kJ/mol
# GULP energy per Si atom -5583.328830 kJ/mol
# Density = 2.164472 g / cm^3
# Si number density = 21.694100 Si / 1000 Ang^3
#
#
#
# Elastic Constant Matrix: (Units=GPa)
#
#
# Indices 1 2 3 4 5 6 
#
# 1 66.5936 -2.7415 -2.6380 0.0000 0.0000 0.0000
# 2 -2.7415 163.1153 51.0954 0.0000 0.0000 0.0000
# 3 -2.6380 51.0954 97.8742 0.0000 0.0000 0.0000
# 4 0.0000 0.0000 0.0000 17.3779 0.0000 0.0000
# 5 0.0000 0.0000 0.0000 0.0000 379.6733 0.0000
# 6 0.0000 0.0000 0.0000 0.0000 0.0000 -121.5877
#
#
#
# Elastic Compliance Matrix: (Units=1/GPa)
#
#
# Indices 1 2 3 4 5 6 
#
# 1 0.015036 0.000150 0.000327 0.000000 0.000000 0.000000
# 2 0.000150 0.007331 -0.003823 0.000000 0.000000 0.000000
# 3 0.000327 -0.003823 0.012222 0.000000 0.000000 0.000000
# 4 0.000000 0.000000 0.000000 0.057544 0.000000 0.000000
# 5 0.000000 0.000000 0.000000 0.000000 0.002634 0.000000
# 6 0.000000 0.000000 0.000000 0.000000 0.000000 -0.008225
#
#
# Mechanical properties :
#
#
# Convention : Reuss Voigt Hill
#
# Bulk Modulus (GPa) = 35.84693 46.55720 41.20206
# Shear Modulus (GPa) = 48.76514 73.88386 61.32450
#
# Velocity S-wave (km/s) = 4.74630 5.84218 5.32252
# Velocity P-wave (km/s) = 6.82614 8.18630 7.53696
#
# Compressibility (1/GPa) = 0.02789639
#
# Stress axis : x y z
#
# Youngs Moduli (GPa) = 66.50889 136.41289 81.82117
#
# Poissons Ratio (x) = -0.02051 -0.02674
# Poissons Ratio (y) = -0.01000 0.31280
# Poissons Ratio (z) = -0.02173 0.52150
#
# Static dielectric constant tensor:
#      x y z
#    x 1.645490 0.000000 0.000000 
#    y 0.000000 1.762820 0.000000 
#    z 0.000000 0.000000 1.770000 
# 
# From -- ./inp_files/12127.got.cif
#   From: 2010.05.17/outbox.cif.g08.bks.cpg/sg38_7_cif.got.tgz:12127.got - 2010.06.03 18:07:57.
