data_PCOD9357373
_publ_section_title
;
Structure prediction by ZEFSAII (Michael W. Deem and Ramdas Pophale) SiO2 
 PCOD9357373
Probable space group: A M M 2
;
_chemical_formula_sum "Si O2"
_cell_formula_units_Z 58
_cell_length_a 11.988850
_cell_length_b 14.570955
_cell_length_c 18.340570
_cell_angle_alpha 90.000000
_cell_angle_beta 90.000000
_cell_angle_gamma 90.000000
_cell_volume 3203.895720
_symmetry_space_group_name_H-M "A M M 2"
_symmetry_group_IT_number 38
_symmetry_cell_setting 'orthorhombic'
loop_
_space_group_symop_operation_xyz
x,y,z
-x,-y,z
-x,y,z
x,-y,z
x,1/2+y,1/2+z
-x,1/2-y,1/2+z
-x,1/2+y,1/2+z
x,1/2-y,1/2+z
loop_
_atom_site_type_symbol
_atom_site_label
_atom_site_fract_x
_atom_site_fract_y
_atom_site_fract_z
Si Si1 0.725721 0.250000 0.546360
Si Si2 0.628224 0.103819 0.435723
Si Si3 0.784606 0.365576 0.796360
Si Si4 0.866453 0.397753 0.457370
Si Si5 0.133555 0.341082 0.296360
Si Si6 0.371776 0.396181 0.656997
Si Si7 0.133547 0.897753 0.635350
Si Si8 0.000000 0.500000 0.796360
O O1 0.655894 0.182852 0.493914
O O2 0.802759 0.317628 0.498764
O O3 0.655894 0.317148 0.598806
O O4 0.802759 0.182372 0.593956
O O5 0.500000 0.113739 0.410999
O O6 0.712425 0.111803 0.367983
O O7 0.639960 0.000000 0.466295
O O8 0.810369 0.257879 0.796360
O O9 0.712425 0.388197 0.724737
O O10 0.900415 0.420852 0.796360
O O11 0.838709 0.500000 0.484769
O O12 0.838856 0.391594 0.371535
O O13 0.000000 0.385654 0.465204
O O14 0.161144 0.391594 0.221185
O O15 0.000000 0.329096 0.296360
O O16 0.500000 0.386261 0.681721
O O17 0.360040 0.500000 0.626426
O O18 0.000000 0.885654 0.627516
O O19 0.161291 0.000000 0.607951
#
# Coordination Sequence:
#
# PCOD9357373 Si02
#       8
#     8   8   8   8   8   8   8   2
#     4  12  22  38  60  88 122 159 205 258 304 364
#     4  11  24  42  63  87 120 164 210 254 304 364
#     4  12  21  40  62  95 121 157 198 259 310 363
#     4  10  21  37  57  87 121 162 200 246 308 371
#     4  10  19  35  60  82 117 153 198 241 295 359
#     4  11  24  42  63  87 120 164 210 254 304 364
#     4  10  21  37  57  87 121 162 200 246 308 371
#     4  12  24  36  66 104 126 148 204 260 324 372
#
# _framework density 18.102961000000001
#
# number of rings (size 3 to 8) (size 9 to 14) (size 15 to 20)
#    0.000    1.103    4.828    2.483    0.000    2.759 
#    2.483    0.000    0.000    0.000    0.000    1.931 
#    0.000    0.000    0.000    0.000    0.000    0.000 
#
# Total GULP energy -161637.327609 kJ/mol
# GULP energy per Si atom -5573.700952 kJ/mol
# Density = 1.806176 g / cm^3
# Si number density = 18.102961 Si / 1000 Ang^3
#
#
#
# Elastic Constant Matrix: (Units=GPa)
#
#
# Indices 1 2 3 4 5 6 
#
# 1 116.1236 58.8720 56.0624 0.0000 0.0000 0.0000
# 2 58.8720 145.7773 38.7793 0.0000 0.0000 0.0000
# 3 56.0624 38.7793 80.6893 0.0000 0.0000 0.0000
# 4 0.0000 0.0000 0.0000 13.7675 0.0000 0.0000
# 5 0.0000 0.0000 0.0000 0.0000 5.3257 0.0000
# 6 0.0000 0.0000 0.0000 0.0000 0.0000 30.3818
#
#
#
# Elastic Compliance Matrix: (Units=1/GPa)
#
#
# Indices 1 2 3 4 5 6 
#
# 1 0.014461 -0.003631 -0.008302 0.000000 0.000000 0.000000
# 2 -0.003631 0.008777 -0.001695 0.000000 0.000000 0.000000
# 3 -0.008302 -0.001695 0.018976 0.000000 0.000000 0.000000
# 4 0.000000 0.000000 0.000000 0.072635 0.000000 0.000000
# 5 0.000000 0.000000 0.000000 0.000000 0.187770 0.000000
# 6 0.000000 0.000000 0.000000 0.000000 0.000000 0.032914
#
#
# Mechanical properties :
#
#
# Convention : Reuss Voigt Hill
#
# Bulk Modulus (GPa) = 66.85922 72.22416 69.54169
# Shear Modulus (GPa) = 13.59522 22.48676 18.04099
#
# Velocity S-wave (km/s) = 2.74340 3.52825 3.16029
# Velocity P-wave (km/s) = 6.85915 7.52204 7.19823
#
# Compressibility (1/GPa) = 0.01495680
#
# Stress axis : x y z
#
# Youngs Moduli (GPa) = 69.15370 113.93018 52.69810
#
# Poissons Ratio (x) = 0.41373 0.43749
# Poissons Ratio (y) = 0.25113 0.08934
# Poissons Ratio (z) = 0.57410 0.19314
#
# Static dielectric constant tensor:
#      x y z
#    x 1.587040 0.000000 0.000000 
#    y 0.000000 1.593140 0.000000 
#    z 0.000000 0.000000 1.623610 
# 
# From -- ./inp_files/17809.got.cif
#   From: 2010.05.17/outbox.cif.g08.bks.cpg/sg38_9_cif.got.tgz:17809.got - 2010.06.03 18:07:57.
