data_PCOD9357433
_publ_section_title
;
Structure prediction by ZEFSAII (Michael W. Deem and Ramdas Pophale) SiO2 
 PCOD9357433
Probable space group: A M M 2
;
_chemical_formula_sum "Si O2"
_cell_formula_units_Z 48
_cell_length_a 8.530779
_cell_length_b 14.888094
_cell_length_c 21.010999
_cell_angle_alpha 90.000000
_cell_angle_beta 90.000000
_cell_angle_gamma 90.000000
_cell_volume 2668.544783
_symmetry_space_group_name_H-M "A M M 2"
_symmetry_group_IT_number 38
_symmetry_cell_setting 'orthorhombic'
loop_
_space_group_symop_operation_xyz
x,y,z
-x,-y,z
-x,y,z
x,-y,z
x,1/2+y,1/2+z
-x,1/2-y,1/2+z
-x,1/2+y,1/2+z
x,1/2-y,1/2+z
loop_
_atom_site_type_symbol
_atom_site_label
_atom_site_fract_x
_atom_site_fract_y
_atom_site_fract_z
Si Si1 0.809184 0.000000 0.483431
Si Si2 0.189930 0.304821 0.416663
Si Si3 0.811947 0.500000 0.835147
Si Si4 0.190693 0.500000 0.374813
Si Si5 0.312476 0.811082 0.677480
Si Si6 0.688024 0.808922 0.296864
Si Si7 0.811946 0.500000 0.226766
Si Si8 0.810464 0.808453 0.538902
O O1 0.760037 0.000000 0.409508
O O2 0.758814 0.091105 0.518312
O O3 0.000000 0.000000 0.483410
O O4 0.241893 0.407690 0.407698
O O5 0.251666 0.246486 0.357793
O O6 0.237903 0.259360 0.482888
O O7 0.000000 0.302370 0.414057
O O8 0.751325 0.409674 0.802433
O O9 0.000000 0.500000 0.835027
O O10 0.239049 0.500000 0.300797
O O11 0.000000 0.500000 0.375310
O O12 0.500000 0.813877 0.678247
O O13 0.259804 0.743084 0.733112
O O14 0.254235 0.784503 0.607775
O O15 0.248657 0.909991 0.693768
O O16 0.500000 0.810576 0.297911
O O17 0.000000 0.500000 0.224723
O O18 0.000000 0.808927 0.541623
#
# Coordination Sequence:
#
# PCOD9357433 Si02
#       8
#     4   8   4   4   8   8   4   8
#     4   9  17  32  55  85 113 139 177 238 293 331
#     4  10  19  36  60  86 115 149 192 242 287 334
#     4  11  21  38  63  88 114 145 191 241 286 337
#     4   9  18  32  57  90 116 142 184 241 290 331
#     4  11  24  39  55  82 123 159 190 231 285 346
#     4  11  23  38  57  84 118 153 190 235 284 340
#     4  11  20  34  61  89 115 148 192 240 287 339
#     4  10  20  35  57  83 115 151 192 239 287 340
#
# _framework density 17.987331999999999
#
# number of rings (size 3 to 8) (size 9 to 14) (size 15 to 20)
#    0.000    1.667    3.333    2.000    0.000    3.333 
#    0.000    1.250    0.000    1.000    0.000    0.000 
#    0.000    0.000    0.000    0.000    0.000    0.000 
#
# Total GULP energy -134063.449958 kJ/mol
# GULP energy per Si atom -5585.977082 kJ/mol
# Density = 1.794639 g / cm^3
# Si number density = 17.987332 Si / 1000 Ang^3
#
#
#
# Elastic Constant Matrix: (Units=GPa)
#
#
# Indices 1 2 3 4 5 6 
#
# 1 23.2877 27.9389 34.5465 0.0000 0.0000 0.0000
# 2 27.9389 161.6902 94.1867 0.0000 0.0000 0.0000
# 3 34.5465 94.1867 181.4305 0.0000 0.0000 0.0000
# 4 0.0000 0.0000 0.0000 24.6643 0.0000 0.0000
# 5 0.0000 0.0000 0.0000 0.0000 18.3518 0.0000
# 6 0.0000 0.0000 0.0000 0.0000 0.0000 15.7965
#
#
#
# Elastic Compliance Matrix: (Units=1/GPa)
#
#
# Indices 1 2 3 4 5 6 
#
# 1 0.063202 -0.005606 -0.009124 0.000000 0.000000 0.000000
# 2 -0.005606 0.009363 -0.003793 0.000000 0.000000 0.000000
# 3 -0.009124 -0.003793 0.009218 0.000000 0.000000 0.000000
# 4 0.000000 0.000000 0.000000 0.040544 0.000000 0.000000
# 5 0.000000 0.000000 0.000000 0.000000 0.054490 0.000000
# 6 0.000000 0.000000 0.000000 0.000000 0.000000 0.063305
#
#
# Mechanical properties :
#
#
# Convention : Reuss Voigt Hill
#
# Bulk Modulus (GPa) = 22.35305 75.52807 48.94056
# Shear Modulus (GPa) = 17.11849 25.74495 21.43172
#
# Velocity S-wave (km/s) = 3.08831 3.78733 3.45554
# Velocity P-wave (km/s) = 5.01706 7.82342 6.57179
#
# Compressibility (1/GPa) = 0.04473662
#
# Stress axis : x y z
#
# Youngs Moduli (GPa) = 15.82230 106.80461 108.48032
#
# Poissons Ratio (x) = 0.59874 0.98979
# Poissons Ratio (y) = 0.08870 0.41148
# Poissons Ratio (z) = 0.14437 0.40513
#
# Static dielectric constant tensor:
#      x y z
#    x 1.613490 0.000000 0.000000 
#    y 0.000000 1.599440 0.000000 
#    z 0.000000 0.000000 1.599430 
# 
# From -- ./inp_files/16724.got.cif
#   From: 2010.05.17/outbox.cif.g08.bks.cpg/sg38_9_cif.got.tgz:16724.got - 2010.06.03 18:07:57.
