data_PCOD9357920
_publ_section_title
;
Structure prediction by ZEFSAII (Michael W. Deem and Ramdas Pophale) SiO2 
 PCOD9357920
Probable space group: A M M 2
;
_chemical_formula_sum "Si O2"
_cell_formula_units_Z 64
_cell_length_a 8.746688
_cell_length_b 25.578565
_cell_length_c 15.519455
_cell_angle_alpha 90.000000
_cell_angle_beta 90.000000
_cell_angle_gamma 90.000000
_cell_volume 3472.132400
_symmetry_space_group_name_H-M "A M M 2"
_symmetry_group_IT_number 38
_symmetry_cell_setting 'orthorhombic'
loop_
_space_group_symop_operation_xyz
x,y,z
-x,-y,z
-x,y,z
x,-y,z
x,1/2+y,1/2+z
-x,1/2-y,1/2+z
-x,1/2+y,1/2+z
x,1/2-y,1/2+z
loop_
_atom_site_type_symbol
_atom_site_label
_atom_site_fract_x
_atom_site_fract_y
_atom_site_fract_z
Si Si1 0.818073 0.764923 0.930870
Si Si2 0.182858 0.352437 0.897704
Si Si3 0.317521 0.219325 0.744406
Si Si4 0.682867 0.362511 0.524188
Si Si5 0.315224 0.440721 0.020081
Si Si6 0.816959 0.060782 0.880864
Si Si7 0.316636 0.163262 0.210203
Si Si8 0.316505 0.895587 0.702558
O O1 0.770353 0.704196 0.936669
O O2 0.774600 0.781463 0.833562
O O3 0.000000 0.768997 0.943593
O O4 0.732414 0.805096 0.992213
O O5 0.240943 0.354035 0.799313
O O6 0.000000 0.354000 0.897899
O O7 0.249660 0.399104 0.953634
O O8 0.500000 0.218873 0.764068
O O9 0.283479 0.274592 0.699760
O O10 0.282814 0.166282 0.693753
O O11 0.500000 0.366484 0.520187
O O12 0.753713 0.404399 0.459079
O O13 0.731819 0.366816 0.623999
O O14 0.500000 0.437856 0.018068
O O15 0.269360 0.500000 0.999879
O O16 0.266212 0.425807 0.117139
O O17 0.756011 0.083013 0.790188
O O18 0.000000 0.063992 0.880985
O O19 0.771483 0.000000 0.889456
O O20 0.500000 0.158141 0.218868
O O21 0.500000 0.901296 0.710369
#
# Coordination Sequence:
#
# PCOD9357920 Si02
#       8
#     8   8   8   8   8   8   8   8
#     4  10  20  34  53  82 118 152 186 228 281 342
#     4  10  22  39  59  85 115 153 195 237 291 344
#     4   9  17  32  54  83 115 149 187 227 278 337
#     4  11  22  36  59  88 115 150 194 238 287 340
#     4  10  22  39  60  86 115 151 196 244 291 338
#     4  11  24  40  58  82 117 158 194 235 288 342
#     4   9  20  37  58  85 117 151 191 239 289 340
#     4  10  20  35  59  88 116 151 193 237 283 337
#
# _framework density 18.432476999999999
#
# number of rings (size 3 to 8) (size 9 to 14) (size 15 to 20)
#    0.000    2.000    1.250    1.875    1.750    4.750 
#    0.000    0.625    0.000    0.750    0.000    0.000 
#    0.000    0.000    0.000    0.000    0.000    0.000 
#
# Total GULP energy -178665.240766 kJ/mol
# GULP energy per Si atom -5583.288774 kJ/mol
# Density = 1.839052 g / cm^3
# Si number density = 18.432477 Si / 1000 Ang^3
#
#
#
# Elastic Constant Matrix: (Units=GPa)
#
#
# Indices 1 2 3 4 5 6 
#
# 1 22.0387 38.2007 29.9666 0.0000 0.0000 0.0000
# 2 38.2007 135.6252 82.4610 0.0000 0.0000 0.0000
# 3 29.9666 82.4610 117.3067 0.0000 0.0000 0.0000
# 4 0.0000 0.0000 0.0000 28.7264 0.0000 0.0000
# 5 0.0000 0.0000 0.0000 0.0000 -62.9779 0.0000
# 6 0.0000 0.0000 0.0000 0.0000 0.0000 26.6921
#
#
#
# Elastic Compliance Matrix: (Units=1/GPa)
#
#
# Indices 1 2 3 4 5 6 
#
# 1 0.094316 -0.020811 -0.009464 0.000000 0.000000 0.000000
# 2 -0.020811 0.017469 -0.006963 0.000000 0.000000 0.000000
# 3 -0.009464 -0.006963 0.015837 0.000000 0.000000 0.000000
# 4 0.000000 0.000000 0.000000 0.034811 0.000000 0.000000
# 5 0.000000 0.000000 0.000000 0.000000 -0.015879 0.000000
# 6 0.000000 0.000000 0.000000 0.000000 0.000000 0.037464
#
#
# Mechanical properties :
#
#
# Convention : Reuss Voigt Hill
#
# Bulk Modulus (GPa) = 18.81655 64.02525 41.42090
# Shear Modulus (GPa) = 18.10203 6.77761 12.43982
#
# Velocity S-wave (km/s) = 3.13720 1.91963 2.60068
# Velocity P-wave (km/s) = 4.83252 6.30268 5.61591
#
# Compressibility (1/GPa) = 0.05314470
#
# Stress axis : x y z
#
# Youngs Moduli (GPa) = 10.60262 57.24486 63.14188
#
# Poissons Ratio (x) = 1.19133 0.59760
# Poissons Ratio (y) = 0.22065 0.43969
# Poissons Ratio (z) = 0.10035 0.39862
#
# Static dielectric constant tensor:
#      x y z
#    x 1.622220 0.000000 0.000000 
#    y 0.000000 1.635590 0.000000 
#    z 0.000000 0.000000 1.616480 
# 
# From -- ./inp_files/12720.got.cif
#   From: 2010.05.17/outbox.cif.g08.bks.cpg/sg38_7_cif.got.tgz:12720.got - 2010.06.03 18:07:57.
