data_PCOD9357846
_publ_section_title
;
Structure prediction by ZEFSAII (Michael W. Deem and Ramdas Pophale) SiO2 
 PCOD9357846
Probable space group: A M M 2
;
_chemical_formula_sum "Si O2"
_cell_formula_units_Z 64
_cell_length_a 8.427177
_cell_length_b 20.362590
_cell_length_c 20.949441
_cell_angle_alpha 90.000000
_cell_angle_beta 90.000000
_cell_angle_gamma 90.000000
_cell_volume 3594.906271
_symmetry_space_group_name_H-M "A M M 2"
_symmetry_group_IT_number 38
_symmetry_cell_setting 'orthorhombic'
loop_
_space_group_symop_operation_xyz
x,y,z
-x,-y,z
-x,y,z
x,-y,z
x,1/2+y,1/2+z
-x,1/2-y,1/2+z
-x,1/2+y,1/2+z
x,1/2-y,1/2+z
loop_
_atom_site_type_symbol
_atom_site_label
_atom_site_fract_x
_atom_site_fract_y
_atom_site_fract_z
Si Si1 0.309696 0.677066 0.146360
Si Si2 0.806740 0.825157 0.289303
Si Si3 0.310168 0.924578 0.038445
Si Si4 0.808014 0.325258 0.288068
Si Si5 0.191841 0.075460 0.398107
Si Si6 0.691654 0.075388 0.538615
Si Si7 0.190145 0.324349 0.644487
Si Si8 0.808251 0.924532 0.897863
O O1 0.500000 0.678034 0.146089
O O2 0.251806 0.658630 0.217223
O O3 0.253862 0.625041 0.093446
O O4 0.248720 0.750356 0.131797
O O5 0.758854 0.749882 0.302488
O O6 0.751010 0.875855 0.342764
O O7 0.757202 0.841702 0.216890
O O8 0.000000 0.826518 0.290063
O O9 0.500000 0.924290 0.038224
O O10 0.250306 0.875623 0.092586
O O11 0.255484 0.000000 0.049663
O O12 0.250422 0.904958 0.968078
O O13 0.753503 0.375785 0.342187
O O14 0.000000 0.326365 0.286609
O O15 0.249706 0.095075 0.468387
O O16 0.000000 0.076384 0.398097
O O17 0.242788 0.000000 0.386849
O O18 0.500000 0.075695 0.538310
O O19 0.744003 0.000000 0.550102
O O20 0.000000 0.323893 0.643838
O O21 0.000000 0.923512 0.898429
O O22 0.757201 0.000000 0.886419
#
# Coordination Sequence:
#
# PCOD9357846 Si02
#       8
#     8   8   8   8   8   8   8   8
#     4  10  20  34  52  74 102 135 170 211 257 306
#     4   8  16  31  49  70  96 125 159 200 246 295
#     4  10  21  36  53  76 107 138 170 212 258 306
#     4   9  18  33  51  72  99 130 166 209 253 298
#     4   9  17  30  49  72  96 123 159 203 246 290
#     4   9  19  35  51  70 100 135 168 203 247 300
#     4  10  20  35  55  76 101 135 172 211 255 305
#     4   9  18  33  52  74 101 134 172 212 254 303
#
# _framework density 17.802966999999999
#
# number of rings (size 3 to 8) (size 9 to 14) (size 15 to 20)
#    0.000    2.750    0.000    1.875    0.000    4.250 
#    0.000    5.625    0.000    1.500    0.000    0.000 
#    0.000    0.000    0.000    0.000    0.000    0.000 
#
# Total GULP energy -178452.861082 kJ/mol
# GULP energy per Si atom -5576.651909 kJ/mol
# Density = 1.776245 g / cm^3
# Si number density = 17.802967 Si / 1000 Ang^3
#
#
#
# Elastic Constant Matrix: (Units=GPa)
#
#
# Indices 1 2 3 4 5 6 
#
# 1 14.3568 20.9677 24.3496 0.0000 0.0000 0.0000
# 2 20.9677 119.4811 139.0261 0.0000 0.0000 0.0000
# 3 24.3496 139.0261 192.4531 0.0000 0.0000 0.0000
# 4 0.0000 0.0000 0.0000 45.4085 0.0000 0.0000
# 5 0.0000 0.0000 0.0000 0.0000 277.5649 0.0000
# 6 0.0000 0.0000 0.0000 0.0000 0.0000 9.1184
#
#
#
# Elastic Compliance Matrix: (Units=1/GPa)
#
#
# Indices 1 2 3 4 5 6 
#
# 1 0.093658 -0.016607 0.000146 0.000000 0.000000 0.000000
# 2 -0.016607 0.055438 -0.037946 0.000000 0.000000 0.000000
# 3 0.000146 -0.037946 0.032590 0.000000 0.000000 0.000000
# 4 0.000000 0.000000 0.000000 0.022022 0.000000 0.000000
# 5 0.000000 0.000000 0.000000 0.000000 0.003603 0.000000
# 6 0.000000 0.000000 0.000000 0.000000 0.000000 0.109668
#
#
# Mechanical properties :
#
#
# Convention : Reuss Voigt Hill
#
# Bulk Modulus (GPa) = 13.72257 77.21975 45.47116
# Shear Modulus (GPa) = 11.10907 75.88153 43.49530
#
# Velocity S-wave (km/s) = 2.50071 6.53571 4.94818
# Velocity P-wave (km/s) = 4.00785 10.02112 7.63170
#
# Compressibility (1/GPa) = 0.07287263
#
# Stress axis : x y z
#
# Youngs Moduli (GPa) = 10.67711 18.03830 30.68461
#
# Poissons Ratio (x) = 0.29955 -0.00449
# Poissons Ratio (y) = 0.17731 1.16437
# Poissons Ratio (z) = -0.00156 0.68449
#
# Static dielectric constant tensor:
#      x y z
#    x 1.606590 0.000000 0.000000 
#    y 0.000000 1.603190 0.000000 
#    z 0.000000 0.000000 1.583540 
# 
# From -- ./inp_files/17231.got.cif
#   From: 2010.05.17/outbox.cif.g08.bks.cpg/sg38_9_cif.got.tgz:17231.got - 2010.06.03 18:07:57.
