data_PCOD9357649
_publ_section_title
;
Structure prediction by ZEFSAII (Michael W. Deem and Ramdas Pophale) SiO2 
 PCOD9357649
Probable space group: A M M 2
;
_chemical_formula_sum "Si O2"
_cell_formula_units_Z 64
_cell_length_a 14.756964
_cell_length_b 8.417221
_cell_length_c 32.400300
_cell_angle_alpha 90.000000
_cell_angle_beta 90.000000
_cell_angle_gamma 90.000000
_cell_volume 4024.526388
_symmetry_space_group_name_H-M "A M M 2"
_symmetry_group_IT_number 38
_symmetry_cell_setting 'orthorhombic'
loop_
_space_group_symop_operation_xyz
x,y,z
-x,-y,z
-x,y,z
x,-y,z
x,1/2+y,1/2+z
-x,1/2-y,1/2+z
-x,1/2+y,1/2+z
x,1/2-y,1/2+z
loop_
_atom_site_type_symbol
_atom_site_label
_atom_site_fract_x
_atom_site_fract_y
_atom_site_fract_z
Si Si1 0.711541 0.310089 0.780390
Si Si2 0.389830 0.183968 0.611623
Si Si3 0.604513 0.692220 0.201598
Si Si4 0.394903 0.805505 0.521647
Si Si5 0.897923 0.690187 0.410521
Si Si6 0.395032 0.190321 0.860651
Si Si7 0.287795 0.810043 0.440824
Si Si8 0.101353 0.192158 0.316779
O O1 0.711543 0.500000 0.777900
O O2 0.667132 0.243270 0.739071
O O3 0.652964 0.259816 0.820175
O O4 0.814788 0.255311 0.788731
O O5 0.500000 0.181981 0.611492
O O6 0.364724 0.253082 0.656274
O O7 0.364024 0.252937 0.567022
O O8 0.359436 0.000000 0.611609
O O9 0.500000 0.743455 0.208799
O O10 0.603151 0.500000 0.199546
O O11 0.500000 0.759805 0.515043
O O12 0.333939 0.754556 0.483336
O O13 0.393704 0.000000 0.523089
O O14 0.893045 0.500000 0.412093
O O15 0.816785 0.761780 0.436925
O O16 0.884569 0.744009 0.363088
O O17 0.000000 0.740046 0.422592
O O18 0.500000 0.241904 0.863036
O O19 0.341269 0.241396 0.901508
O O20 0.392889 0.000000 0.857508
O O21 0.295185 0.000000 0.438925
O O22 0.000000 0.240359 0.303308
O O23 0.103402 0.000000 0.318863
#
# Coordination Sequence:
#
# PCOD9357649 Si02
#       8
#     8   8   8   8   8   8   8   8
#     4  11  21  31  46  68  91 119 152 190 233 273
#     4   7  11  23  43  65  88 116 151 188 224 263
#     4   9  17  29  46  67  92 123 155 186 223 270
#     4   8  14  25  43  68  95 120 150 188 225 267
#     4  10  20  33  49  67  88 118 155 194 233 274
#     4  11  23  35  45  60  90 130 163 188 218 264
#     4  11  20  30  47  71  95 121 152 190 235 277
#     4   9  18  33  50  66  85 112 149 193 237 276
#
# _framework density 15.902492000000001
#
# number of rings (size 3 to 8) (size 9 to 14) (size 15 to 20)
#    0.000    2.500    1.250    3.750    0.000    4.500 
#    0.000    0.000    0.000    1.500    0.000    4.375 
#    0.000    5.000    0.000    0.000    0.000    0.000 
#
# Total GULP energy -178333.239051 kJ/mol
# GULP energy per Si atom -5572.913720 kJ/mol
# Density = 1.586630 g / cm^3
# Si number density = 15.902492 Si / 1000 Ang^3
#
#
#
# Elastic Constant Matrix: (Units=GPa)
#
#
# Indices 1 2 3 4 5 6 
#
# 1 106.8323 13.7532 71.0141 0.0000 0.0000 0.0000
# 2 13.7532 11.6775 12.1576 0.0000 0.0000 0.0000
# 3 71.0141 12.1576 146.3516 0.0000 0.0000 0.0000
# 4 0.0000 0.0000 0.0000 15.3439 0.0000 0.0000
# 5 0.0000 0.0000 0.0000 0.0000 7.3653 0.0000
# 6 0.0000 0.0000 0.0000 0.0000 0.0000 20.0710
#
#
#
# Elastic Compliance Matrix: (Units=1/GPa)
#
#
# Indices 1 2 3 4 5 6 
#
# 1 0.015017 -0.011056 -0.006368 0.000000 0.000000 0.000000
# 2 -0.011056 0.101883 -0.003099 0.000000 0.000000 0.000000
# 3 -0.006368 -0.003099 0.010180 0.000000 0.000000 0.000000
# 4 0.000000 0.000000 0.000000 0.065172 0.000000 0.000000
# 5 0.000000 0.000000 0.000000 0.000000 0.135771 0.000000
# 6 0.000000 0.000000 0.000000 0.000000 0.000000 0.049823
#
#
# Mechanical properties :
#
#
# Convention : Reuss Voigt Hill
#
# Bulk Modulus (GPa) = 11.62335 50.96790 31.29562
# Shear Modulus (GPa) = 11.17143 19.75183 15.46163
#
# Velocity S-wave (km/s) = 2.65334 3.52811 3.12152
# Velocity P-wave (km/s) = 4.08802 6.97973 5.71964
#
# Compressibility (1/GPa) = 0.08603374
#
# Stress axis : x y z
#
# Youngs Moduli (GPa) = 66.59165 9.81521 98.22882
#
# Poissons Ratio (x) = 0.10852 0.62554
# Poissons Ratio (y) = 0.73625 0.30438
# Poissons Ratio (z) = 0.42407 0.03041
#
# Static dielectric constant tensor:
#      x y z
#    x 1.533790 0.000000 0.000000 
#    y 0.000000 1.556060 0.000000 
#    z 0.000000 0.000000 1.538490 
# 
# From -- ./inp_files/25038.got.cif
#   From: 2010.05.17/outbox.cif.g08.bks.cpg/sg38_13_cif.got.tgz:25038.got - 2010.06.03 18:07:57.
