data_PCOD9357532
_publ_section_title
;
Structure prediction by ZEFSAII (Michael W. Deem and Ramdas Pophale) SiO2 
 PCOD9357532
Probable space group: A M M 2
;
_chemical_formula_sum "Si O2"
_cell_formula_units_Z 56
_cell_length_a 8.767897
_cell_length_b 30.344443
_cell_length_c 13.922090
_cell_angle_alpha 90.000000
_cell_angle_beta 90.000000
_cell_angle_gamma 90.000000
_cell_volume 3704.068813
_symmetry_space_group_name_H-M "A M M 2"
_symmetry_group_IT_number 38
_symmetry_cell_setting 'orthorhombic'
loop_
_space_group_symop_operation_xyz
x,y,z
-x,-y,z
-x,y,z
x,-y,z
x,1/2+y,1/2+z
-x,1/2-y,1/2+z
-x,1/2+y,1/2+z
x,1/2-y,1/2+z
loop_
_atom_site_type_symbol
_atom_site_label
_atom_site_fract_x
_atom_site_fract_y
_atom_site_fract_z
Si Si1 0.815069 0.596557 0.593900
Si Si2 0.177352 0.500000 0.590155
Si Si3 0.177350 0.000000 0.323343
Si Si4 0.317428 0.816774 0.002349
Si Si5 0.317371 0.318307 0.920145
Si Si6 0.818734 0.230714 0.599053
Si Si7 0.317532 0.769921 0.805603
Si Si8 0.184915 0.903433 0.319744
O O1 0.758916 0.547773 0.562153
O O2 0.746476 0.636230 0.533457
O O3 0.776249 0.602531 0.706851
O O4 0.000000 0.597023 0.587921
O O5 0.177765 0.500000 0.706750
O O6 0.000000 0.500000 0.560166
O O7 0.241126 0.952245 0.351396
O O8 0.000000 0.000000 0.353361
O O9 0.500000 0.815492 0.012725
O O10 0.247118 0.778493 0.068900
O O11 0.280608 0.803101 0.892770
O O12 0.500000 0.319716 0.927334
O O13 0.278062 0.278791 0.845808
O O14 0.252885 0.364008 0.881191
O O15 0.248949 0.303536 0.021996
O O16 0.766671 0.220636 0.706882
O O17 0.000000 0.231503 0.591627
O O18 0.500000 0.771081 0.789812
O O19 0.000000 0.903036 0.325676
#
# Coordination Sequence:
#
# PCOD9357532 Si02
#       8
#     8   4   4   8   8   8   8   8
#     4   9  16  27  45  67  92 121 152 185 217 255
#     4   7  12  24  41  63  90 119 148 179 219 258
#     4   7  12  24  41  61  88 119 148 181 219 256
#     4  10  20  32  46  65  91 121 149 178 218 266
#     4  10  20  32  46  65  91 121 148 177 218 266
#     4  11  21  32  48  67  87 113 148 188 222 257
#     4   9  19  34  47  61  87 120 148 178 220 264
#     4   9  16  27  44  66  91 120 153 185 217 255
#
# _framework density 15.118510000000001
#
# number of rings (size 3 to 8) (size 9 to 14) (size 15 to 20)
#    0.000    2.714    0.000    5.571    0.000    6.286 
#    0.000    0.714    0.000    2.571    0.000    1.000 
#    0.000    5.714    0.000    0.000    0.000    0.000 
#
# Total GULP energy -156009.357678 kJ/mol
# GULP energy per Si atom -5571.762774 kJ/mol
# Density = 1.508410 g / cm^3
# Si number density = 15.118510 Si / 1000 Ang^3
#
#
#
# Elastic Constant Matrix: (Units=GPa)
#
#
# Indices 1 2 3 4 5 6 
#
# 1 39.5070 42.8907 39.5552 0.0000 0.0000 0.0000
# 2 42.8907 165.2642 66.6786 0.0000 0.0000 0.0000
# 3 39.5552 66.6786 82.3535 0.0000 0.0000 0.0000
# 4 0.0000 0.0000 0.0000 21.8991 0.0000 0.0000
# 5 0.0000 0.0000 0.0000 0.0000 20.7663 0.0000
# 6 0.0000 0.0000 0.0000 0.0000 0.0000 8.5746
#
#
#
# Elastic Compliance Matrix: (Units=1/GPa)
#
#
# Indices 1 2 3 4 5 6 
#
# 1 0.051421 -0.005020 -0.020633 0.000000 0.000000 0.000000
# 2 -0.005020 0.009477 -0.005262 0.000000 0.000000 0.000000
# 3 -0.020633 -0.005262 0.026313 0.000000 0.000000 0.000000
# 4 0.000000 0.000000 0.000000 0.045664 0.000000 0.000000
# 5 0.000000 0.000000 0.000000 0.000000 0.048155 0.000000
# 6 0.000000 0.000000 0.000000 0.000000 0.000000 0.116624
#
#
# Mechanical properties :
#
#
# Convention : Reuss Voigt Hill
#
# Bulk Modulus (GPa) = 39.40041 65.04152 52.22096
# Shear Modulus (GPa) = 13.58904 19.44800 16.51852
#
# Velocity S-wave (km/s) = 3.00131 3.59049 3.30904
# Velocity P-wave (km/s) = 6.17479 7.76552 7.01539
#
# Compressibility (1/GPa) = 0.02538045
#
# Stress axis : x y z
#
# Youngs Moduli (GPa) = 19.44747 105.52167 38.00374
#
# Poissons Ratio (x) = 0.52975 0.78413
# Poissons Ratio (y) = 0.09763 0.19996
# Poissons Ratio (z) = 0.40126 0.55522
#
# Static dielectric constant tensor:
#      x y z
#    x 1.506280 0.000000 0.000000 
#    y 0.000000 1.516990 0.000000 
#    z 0.000000 0.000000 1.477690 
# 
# From -- ./inp_files/13027.got.cif
#   From: 2010.05.17/outbox.cif.g08.bks.cpg/sg38_7_cif.got.tgz:13027.got - 2010.06.03 18:07:57.
