data_PCOD9357333
_publ_section_title
;
Structure prediction by ZEFSAII (Michael W. Deem and Ramdas Pophale) SiO2 
 PCOD9357333
Probable space group: A M M 2
;
_chemical_formula_sum "Si O2"
_cell_formula_units_Z 64
_cell_length_a 8.238475
_cell_length_b 25.872488
_cell_length_c 15.114930
_cell_angle_alpha 90.000000
_cell_angle_beta 90.000000
_cell_angle_gamma 90.000000
_cell_volume 3221.744995
_symmetry_space_group_name_H-M "A M M 2"
_symmetry_group_IT_number 38
_symmetry_cell_setting 'orthorhombic'
loop_
_space_group_symop_operation_xyz
x,y,z
-x,-y,z
-x,y,z
x,-y,z
x,1/2+y,1/2+z
-x,1/2-y,1/2+z
-x,1/2+y,1/2+z
x,1/2-y,1/2+z
loop_
_atom_site_type_symbol
_atom_site_label
_atom_site_fract_x
_atom_site_fract_y
_atom_site_fract_z
Si Si1 0.696432 0.060324 0.377110
Si Si2 0.193640 0.103800 0.189407
Si Si3 0.693687 0.943266 0.012726
Si Si4 0.804395 0.216040 0.224275
Si Si5 0.307654 0.842744 0.910687
Si Si6 0.192080 0.830483 0.714163
Si Si7 0.191181 0.770909 0.432016
Si Si8 0.310585 0.867043 0.536042
O O1 0.500000 0.064876 0.371925
O O2 0.768498 0.084164 0.287751
O O3 0.751458 0.092374 0.463052
O O4 0.737871 0.000000 0.383775
O O5 0.273488 0.068290 0.115429
O O6 0.256764 0.163025 0.182037
O O7 0.000000 0.103192 0.176095
O O8 0.500000 0.944434 0.998283
O O9 0.759290 0.000000 0.988801
O O10 0.757811 0.894025 0.958494
O O11 0.749462 0.271984 0.190632
O O12 0.769735 0.216377 0.329402
O O13 0.000000 0.214644 0.214809
O O14 0.500000 0.838648 0.925981
O O15 0.275319 0.846164 0.805673
O O16 0.228603 0.789492 0.944615
O O17 0.224919 0.866407 0.630714
O O18 0.000000 0.827287 0.732003
O O19 0.286534 0.810677 0.492595
O O20 0.000000 0.779690 0.446432
O O21 0.500000 0.877102 0.550629
#
# Coordination Sequence:
#
# PCOD9357333 Si02
#       8
#     8   8   8   8   8   8   8   8
#     4  10  22  40  59  81 116 158 195 235 287 342
#     4  11  21  35  57  87 118 150 192 238 283 338
#     4  10  23  42  60  81 114 154 194 237 290 345
#     4   8  17  33  52  79 113 149 184 218 275 342
#     4  10  21  39  61  86 113 147 196 246 288 340
#     4  10  21  38  59  84 118 157 188 233 296 353
#     4  10  19  35  57  82 117 155 186 228 289 348
#     4  11  22  36  57  87 117 151 198 244 283 337
#
# _framework density 19.865010999999999
#
# number of rings (size 3 to 8) (size 9 to 14) (size 15 to 20)
#    0.000    2.000    1.250    3.000    1.750    3.500 
#    0.000    1.875    0.000    3.750    0.000    0.000 
#    0.000    0.000    0.000    0.000    0.000    0.000 
#
# Total GULP energy -178711.377615 kJ/mol
# GULP energy per Si atom -5584.730550 kJ/mol
# Density = 1.981980 g / cm^3
# Si number density = 19.865011 Si / 1000 Ang^3
#
#
#
# Elastic Constant Matrix: (Units=GPa)
#
#
# Indices 1 2 3 4 5 6 
#
# 1 10.7929 -7.7366 -13.4418 0.0000 0.0000 0.0000
# 2 -7.7366 100.0032 26.0094 0.0000 0.0000 0.0000
# 3 -13.4418 26.0094 41.2102 0.0000 0.0000 0.0000
# 4 0.0000 0.0000 0.0000 26.6997 0.0000 0.0000
# 5 0.0000 0.0000 0.0000 0.0000 -199.8614 0.0000
# 6 0.0000 0.0000 0.0000 0.0000 0.0000 13.7447
#
#
#
# Elastic Compliance Matrix: (Units=1/GPa)
#
#
# Indices 1 2 3 4 5 6 
#
# 1 0.156206 -0.001396 0.051832 0.000000 0.000000 0.000000
# 2 -0.001396 0.011976 -0.008014 0.000000 0.000000 0.000000
# 3 0.051832 -0.008014 0.046230 0.000000 0.000000 0.000000
# 4 0.000000 0.000000 0.000000 0.037454 0.000000 0.000000
# 5 0.000000 0.000000 0.000000 0.000000 -0.005003 0.000000
# 6 0.000000 0.000000 0.000000 0.000000 0.000000 0.072755
#
#
# Mechanical properties :
#
#
# Convention : Reuss Voigt Hill
#
# Bulk Modulus (GPa) = 3.34163 17.96314 10.65238
# Shear Modulus (GPa) = 14.94655 -22.07172 -3.56258
#
# Velocity S-wave (km/s) = 2.74598 -3.33691 -1.34063
# Velocity P-wave (km/s) = 3.42632 2.40508 1.72558
#
# Compressibility (1/GPa) = 0.29925547
#
# Stress axis : x y z
#
# Youngs Moduli (GPa) = 6.40181 83.50061 21.63095
#
# Poissons Ratio (x) = 0.11657 -1.12117
# Poissons Ratio (y) = 0.00894 0.17335
# Poissons Ratio (z) = -0.33182 0.66916
#
# Static dielectric constant tensor:
#      x y z
#    x 1.694390 0.000000 0.000000 
#    y 0.000000 1.715640 0.000000 
#    z 0.000000 0.000000 1.683300 
# 
# From -- ./inp_files/12809.got.cif
#   From: 2010.05.17/outbox.cif.g08.bks.cpg/sg38_7_cif.got.tgz:12809.got - 2010.06.03 18:07:57.
