data_PCOD9357202
_publ_section_title
;
Structure prediction by ZEFSAII (Michael W. Deem and Ramdas Pophale) SiO2 
 PCOD9357202
Probable space group: A M M 2
;
_chemical_formula_sum "Si O2"
_cell_formula_units_Z 64
_cell_length_a 8.066912
_cell_length_b 33.714977
_cell_length_c 12.170994
_cell_angle_alpha 90.000000
_cell_angle_beta 90.000000
_cell_angle_gamma 90.000000
_cell_volume 3310.215252
_symmetry_space_group_name_H-M "A M M 2"
_symmetry_group_IT_number 38
_symmetry_cell_setting 'orthorhombic'
loop_
_space_group_symop_operation_xyz
x,y,z
-x,-y,z
-x,y,z
x,-y,z
x,1/2+y,1/2+z
-x,1/2-y,1/2+z
-x,1/2+y,1/2+z
x,1/2-y,1/2+z
loop_
_atom_site_type_symbol
_atom_site_label
_atom_site_fract_x
_atom_site_fract_y
_atom_site_fract_z
Si Si1 0.697818 0.544492 0.527100
Si Si2 0.799608 0.724871 0.272063
Si Si3 0.199168 0.875807 0.390971
Si Si4 0.186951 0.899487 0.836529
Si Si5 0.203216 0.352438 0.133970
Si Si6 0.201168 0.813769 0.205559
Si Si7 0.310410 0.326141 0.459175
Si Si8 0.299832 0.453835 0.771533
O O1 0.500000 0.542650 0.537395
O O2 0.763035 0.500000 0.512758
O O3 0.733672 0.569901 0.420145
O O4 0.757268 0.558707 0.647713
O O5 0.749233 0.690399 0.185052
O O6 0.751943 0.768955 0.237497
O O7 0.723905 0.713408 0.389754
O O8 0.000000 0.723730 0.280490
O O9 0.259302 0.861889 0.510937
O O10 0.257671 0.845623 0.296114
O O11 0.241830 0.920746 0.357088
O O12 0.000000 0.872719 0.393877
O O13 0.261214 0.886460 0.719490
O O14 0.191892 0.858425 0.903991
O O15 0.000000 0.912854 0.816837
O O16 0.000000 0.352942 0.135590
O O17 0.000000 0.815404 0.198937
O O18 0.273591 0.822757 0.086561
O O19 0.500000 0.339002 0.441981
O O20 0.500000 0.453803 0.773528
O O21 0.247992 0.500000 0.789351
#
# Coordination Sequence:
#
# PCOD9357202 Si02
#       8
#     8   8   8   8   8   8   8   8
#     4   9  18  33  54  80 109 138 170 216 276 333
#     4   9  19  36  58  78 102 138 182 227 269 316
#     4  10  20  34  54  82 107 135 180 227 269 317
#     4  10  19  34  55  76 102 138 181 220 261 319
#     4   8  17  34  53  74 104 139 174 219 269 315
#     4  10  21  34  56  83 106 136 180 228 269 321
#     4  11  22  35  52  75 108 141 173 216 269 324
#     4   9  19  36  55  76 106 143 177 213 268 329
#
# _framework density 19.33409
#
# number of rings (size 3 to 8) (size 9 to 14) (size 15 to 20)
#    0.000    2.500    0.000    3.750    1.750    4.000 
#    0.000    5.000    0.000    3.750    0.000    0.000 
#    0.000    0.000    0.000    0.000    0.000    0.000 
#
# Total GULP energy -178415.836859 kJ/mol
# GULP energy per Si atom -5575.494902 kJ/mol
# Density = 1.929009 g / cm^3
# Si number density = 19.334090 Si / 1000 Ang^3
#
#
#
# Elastic Constant Matrix: (Units=GPa)
#
#
# Indices 1 2 3 4 5 6 
#
# 1 16.4491 2.7612 10.1354 0.0000 0.0000 0.0000
# 2 2.7612 77.3897 60.8201 0.0000 0.0000 0.0000
# 3 10.1354 60.8201 162.7358 0.0000 0.0000 0.0000
# 4 0.0000 0.0000 0.0000 16.2850 0.0000 0.0000
# 5 0.0000 0.0000 0.0000 0.0000 8.5686 0.0000
# 6 0.0000 0.0000 0.0000 0.0000 0.0000 27.7575
#
#
#
# Elastic Compliance Matrix: (Units=1/GPa)
#
#
# Indices 1 2 3 4 5 6 
#
# 1 0.063297 0.001189 -0.004387 0.000000 0.000000 0.000000
# 2 0.001189 0.018318 -0.006920 0.000000 0.000000 0.000000
# 3 -0.004387 -0.006920 0.009004 0.000000 0.000000 0.000000
# 4 0.000000 0.000000 0.000000 0.061406 0.000000 0.000000
# 5 0.000000 0.000000 0.000000 0.000000 0.116705 0.000000
# 6 0.000000 0.000000 0.000000 0.000000 0.000000 0.036026
#
#
# Mechanical properties :
#
#
# Convention : Reuss Voigt Hill
#
# Bulk Modulus (GPa) = 14.20786 44.88978 29.54882
# Shear Modulus (GPa) = 14.34916 22.71274 18.53095
#
# Velocity S-wave (km/s) = 2.72723 3.43118 3.09926
# Velocity P-wave (km/s) = 4.15712 6.24225 5.30317
#
# Compressibility (1/GPa) = 0.07038356
#
# Stress axis : x y z
#
# Youngs Moduli (GPa) = 15.79861 54.59243 111.05722
#
# Poissons Ratio (x) = -0.06491 0.48716
# Poissons Ratio (y) = -0.01878 0.76851
# Poissons Ratio (z) = 0.06930 0.37778
#
# Static dielectric constant tensor:
#      x y z
#    x 1.698350 0.000000 0.000000 
#    y 0.000000 1.687710 0.000000 
#    z 0.000000 0.000000 1.680220 
# 
# From -- ./inp_files/8581.got.cif
#   From: 2010.05.17/outbox.cif.g08.bks.cpg/sg38_5_cif.got.tgz:8581.got - 2010.06.03 18:07:57.
