data_PCOD9357785
_publ_section_title
;
Structure prediction by ZEFSAII (Michael W. Deem and Ramdas Pophale) SiO2 
 PCOD9357785
Probable space group: A M M 2
;
_chemical_formula_sum "Si O2"
_cell_formula_units_Z 64
_cell_length_a 9.047921
_cell_length_b 15.234508
_cell_length_c 23.372258
_cell_angle_alpha 90.000000
_cell_angle_beta 90.000000
_cell_angle_gamma 90.000000
_cell_volume 3221.646647
_symmetry_space_group_name_H-M "A M M 2"
_symmetry_group_IT_number 38
_symmetry_cell_setting 'orthorhombic'
loop_
_space_group_symop_operation_xyz
x,y,z
-x,-y,z
-x,y,z
x,-y,z
x,1/2+y,1/2+z
-x,1/2-y,1/2+z
-x,1/2+y,1/2+z
x,1/2-y,1/2+z
loop_
_atom_site_type_symbol
_atom_site_label
_atom_site_fract_x
_atom_site_fract_y
_atom_site_fract_z
Si Si1 0.323726 0.726656 0.260310
Si Si2 0.175430 0.902845 0.216736
Si Si3 0.838334 0.397001 0.031891
Si Si4 0.330459 0.634770 0.601018
Si Si5 0.676962 0.101918 0.969330
Si Si6 0.824259 0.772924 0.876259
Si Si7 0.333261 0.161842 0.636545
Si Si8 0.673980 0.895900 0.419472
O O1 0.500000 0.729860 0.268459
O O2 0.264125 0.824216 0.246110
O O3 0.242963 0.693190 0.316611
O O4 0.294778 0.669627 0.203247
O O5 0.225407 0.901966 0.150304
O O6 0.000000 0.887054 0.221197
O O7 0.208330 0.000000 0.240385
O O8 0.853250 0.500000 0.021986
O O9 0.781582 0.385227 0.095845
O O10 0.000000 0.355030 0.022707
O O11 0.718484 0.369887 0.984686
O O12 0.500000 0.602767 0.608596
O O13 0.284126 0.615726 0.536213
O O14 0.334802 0.738778 0.612486
O O15 0.500000 0.117267 0.964646
O O16 0.760544 0.168638 0.927914
O O17 0.706010 0.000000 0.954525
O O18 0.767278 0.672521 0.882582
O O19 0.000000 0.774724 0.875914
O O20 0.500000 0.125848 0.630690
O O21 0.500000 0.882545 0.410484
O O22 0.705147 0.000000 0.410103
#
# Coordination Sequence:
#
# PCOD9357785 Si02
#       8
#     8   8   8   8   8   8   8   8
#     4  10  22  40  59  77 102 141 189 234 274 327
#     4  10  20  33  52  82 117 147 176 217 271 330
#     4  10  20  33  52  82 116 144 174 220 278 335
#     4   9  18  33  55  83 112 143 181 224 271 326
#     4  10  21  38  61  87 116 153 197 241 282 332
#     4  12  25  40  60  84 114 151 190 240 294 341
#     4   9  18  33  55  81 107 140 180 222 271 329
#     4  10  21  38  61  87 116 152 192 232 277 338
#
# _framework density 19.865618000000001
#
# number of rings (size 3 to 8) (size 9 to 14) (size 15 to 20)
#    0.000    2.000    0.000    4.500    0.000    7.750 
#    0.000    0.625    0.000    0.750    0.000    0.000 
#    0.000    0.000    0.000    0.000    0.000    0.000 
#
# Total GULP energy -178641.352707 kJ/mol
# GULP energy per Si atom -5582.542272 kJ/mol
# Density = 1.982040 g / cm^3
# Si number density = 19.865618 Si / 1000 Ang^3
#
#
#
# Elastic Constant Matrix: (Units=GPa)
#
#
# Indices 1 2 3 4 5 6 
#
# 1 63.2119 16.8894 26.5974 0.0000 0.0000 0.0000
# 2 16.8894 25.6380 16.6993 0.0000 0.0000 0.0000
# 3 26.5974 16.6993 83.5919 0.0000 0.0000 0.0000
# 4 0.0000 0.0000 0.0000 11.5938 0.0000 0.0000
# 5 0.0000 0.0000 0.0000 0.0000 -42.8504 0.0000
# 6 0.0000 0.0000 0.0000 0.0000 0.0000 21.7772
#
#
#
# Elastic Compliance Matrix: (Units=1/GPa)
#
#
# Indices 1 2 3 4 5 6 
#
# 1 0.020517 -0.010649 -0.004401 0.000000 0.000000 0.000000
# 2 -0.010649 0.050367 -0.006673 0.000000 0.000000 0.000000
# 3 -0.004401 -0.006673 0.014696 0.000000 0.000000 0.000000
# 4 0.000000 0.000000 0.000000 0.086253 0.000000 0.000000
# 5 0.000000 0.000000 0.000000 0.000000 -0.023337 0.000000
# 6 0.000000 0.000000 0.000000 0.000000 0.000000 0.045920
#
#
# Mechanical properties :
#
#
# Convention : Reuss Voigt Hill
#
# Bulk Modulus (GPa) = 23.73440 32.53489 28.13465
# Shear Modulus (GPa) = 19.84864 5.58784 12.71824
#
# Velocity S-wave (km/s) = 3.16436 1.67897 2.53299
# Velocity P-wave (km/s) = 5.03232 4.49128 4.76948
#
# Compressibility (1/GPa) = 0.04213293
#
# Stress axis : x y z
#
# Youngs Moduli (GPa) = 48.74047 19.85438 68.04459
#
# Poissons Ratio (x) = 0.21144 0.29944
# Poissons Ratio (y) = 0.51906 0.45409
# Poissons Ratio (z) = 0.21449 0.13250
#
# Static dielectric constant tensor:
#      x y z
#    x 1.683970 0.000000 0.000000 
#    y 0.000000 1.724120 0.000000 
#    z 0.000000 0.000000 1.709870 
# 
# From -- ./inp_files/22169.got.cif
#   From: 2010.05.17/outbox.cif.g08.bks.cpg/sg38_12_cif.got.tgz:22169.got - 2010.06.03 18:07:57.
