data_PCOD9357705
_publ_section_title
;
Structure prediction by ZEFSAII (Michael W. Deem and Ramdas Pophale) SiO2 
 PCOD9357705
Probable space group: A M M 2
;
_chemical_formula_sum "Si O2"
_cell_formula_units_Z 48
_cell_length_a 21.737842
_cell_length_b 8.950390
_cell_length_c 14.529735
_cell_angle_alpha 90.000000
_cell_angle_beta 90.000000
_cell_angle_gamma 90.000000
_cell_volume 2826.936679
_symmetry_space_group_name_H-M "A M M 2"
_symmetry_group_IT_number 38
_symmetry_cell_setting 'orthorhombic'
loop_
_space_group_symop_operation_xyz
x,y,z
-x,-y,z
-x,y,z
x,-y,z
x,1/2+y,1/2+z
-x,1/2-y,1/2+z
-x,1/2+y,1/2+z
x,1/2-y,1/2+z
loop_
_atom_site_type_symbol
_atom_site_label
_atom_site_fract_x
_atom_site_fract_y
_atom_site_fract_z
Si Si1 0.734452 0.678665 0.066160
Si Si2 0.161462 0.820378 0.419093
Si Si3 0.173746 0.180244 0.207283
Si Si4 0.500000 0.179602 0.203165
Si Si5 0.600744 0.319853 0.553081
Si Si6 0.500000 0.320246 0.403584
Si Si7 0.070546 0.679900 0.560550
O O1 0.731937 0.500000 0.073268
O O2 0.769016 0.746191 0.154807
O O3 0.666851 0.744836 0.054811
O O4 0.778077 0.717736 0.979080
O O5 0.167846 0.773732 0.313276
O O6 0.104065 0.747965 0.471744
O O7 0.154562 0.000000 0.421200
O O8 0.112957 0.220250 0.148248
O O9 0.180546 0.000000 0.204268
O O10 0.440409 0.221039 0.142117
O O11 0.500000 0.250708 0.303166
O O12 0.500000 0.000000 0.211068
O O13 0.607159 0.500000 0.552849
O O14 0.559706 0.277815 0.464237
O O15 0.500000 0.500000 0.396934
O O16 0.071342 0.500000 0.553548
O O17 0.000000 0.728874 0.569685
#
# Coordination Sequence:
#
# PCOD9357705 Si02
#       7
#     8   8   8   4   8   4   8
#     4  10  20  33  50  75 102 127 163 209 248 284
#     4   9  19  34  51  72  98 129 165 203 244 291
#     4   9  18  34  53  71  97 133 166 198 242 297
#     4   9  19  35  54  74  98 129 165 203 242 290
#     4   9  19  36  53  71 100 136 166 195 242 300
#     4   9  19  35  54  76 102 131 165 203 244 292
#     4   9  18  32  50  73  99 127 162 202 243 290
#
# _framework density 16.979510000000001
#
# number of rings (size 3 to 8) (size 9 to 14) (size 15 to 20)
#    0.000    2.833    0.000    1.500    0.000    5.000 
#    0.000    8.333    0.000    0.000    0.000    0.000 
#    0.000    0.000    0.000    0.000    0.000    0.000 
#
# Total GULP energy -133824.246102 kJ/mol
# GULP energy per Si atom -5576.010254 kJ/mol
# Density = 1.694086 g / cm^3
# Si number density = 16.979510 Si / 1000 Ang^3
#
#
#
# Elastic Constant Matrix: (Units=GPa)
#
#
# Indices 1 2 3 4 5 6 
#
# 1 157.3118 39.9451 73.1036 0.0000 0.0000 0.0000
# 2 39.9451 16.8597 36.5272 0.0000 0.0000 0.0000
# 3 73.1036 36.5272 162.7322 0.0000 0.0000 0.0000
# 4 0.0000 0.0000 0.0000 28.6265 0.0000 0.0000
# 5 0.0000 0.0000 0.0000 0.0000 6.6578 0.0000
# 6 0.0000 0.0000 0.0000 0.0000 0.0000 29.2883
#
#
#
# Elastic Compliance Matrix: (Units=1/GPa)
#
#
# Indices 1 2 3 4 5 6 
#
# 1 0.016526 -0.044910 0.002657 0.000000 0.000000 0.000000
# 2 -0.044910 0.237512 -0.033137 0.000000 0.000000 0.000000
# 3 0.002657 -0.033137 0.012390 0.000000 0.000000 0.000000
# 4 0.000000 0.000000 0.000000 0.034933 0.000000 0.000000
# 5 0.000000 0.000000 0.000000 0.000000 0.150200 0.000000
# 6 0.000000 0.000000 0.000000 0.000000 0.000000 0.034143
#
#
# Mechanical properties :
#
#
# Convention : Reuss Voigt Hill
#
# Bulk Modulus (GPa) = 8.64715 70.67284 39.66000
# Shear Modulus (GPa) = 7.40704 25.40304 16.40504
#
# Velocity S-wave (km/s) = 2.09089 3.87214 3.11169
# Velocity P-wave (km/s) = 3.30648 7.85519 6.02648
#
# Compressibility (1/GPa) = 0.11564499
#
# Stress axis : x y z
#
# Youngs Moduli (GPa) = 60.51085 4.21032 80.71246
#
# Poissons Ratio (x) = 0.18909 -0.21444
# Poissons Ratio (y) = 2.71757 2.67460
# Poissons Ratio (z) = -0.16077 0.13952
#
# Static dielectric constant tensor:
#      x y z
#    x 1.553160 0.000000 0.000000 
#    y 0.000000 1.567670 0.000000 
#    z 0.000000 0.000000 1.557600 
# 
# From -- ./inp_files/15014.got.cif
#   From: 2010.05.17/outbox.cif.g08.bks.cpg/sg38_8_cif.got.tgz:15014.got - 2010.06.03 18:07:57.
