data_PCOD9357115
_publ_section_title
;
Structure prediction by ZEFSAII (Michael W. Deem and Ramdas Pophale) SiO2 
 PCOD9357115
Probable space group: A M M 2
;
_chemical_formula_sum "Si O2"
_cell_formula_units_Z 56
_cell_length_a 7.673646
_cell_length_b 15.327814
_cell_length_c 21.454017
_cell_angle_alpha 90.000000
_cell_angle_beta 90.000000
_cell_angle_gamma 90.000000
_cell_volume 2523.426169
_symmetry_space_group_name_H-M "A M M 2"
_symmetry_group_IT_number 38
_symmetry_cell_setting 'orthorhombic'
loop_
_space_group_symop_operation_xyz
x,y,z
-x,-y,z
-x,y,z
x,-y,z
x,1/2+y,1/2+z
-x,1/2-y,1/2+z
-x,1/2+y,1/2+z
x,1/2-y,1/2+z
loop_
_atom_site_type_symbol
_atom_site_label
_atom_site_fract_x
_atom_site_fract_y
_atom_site_fract_z
Si Si1 0.703934 0.905373 0.560270
Si Si2 0.296626 0.221376 0.075569
Si Si3 0.712765 0.403360 0.325643
Si Si4 0.201622 0.098109 0.185701
Si Si5 0.295204 0.213345 0.299818
Si Si6 0.712583 0.903531 0.970663
Si Si7 0.790795 0.098455 0.415554
O O1 0.500000 0.910751 0.577759
O O2 0.780378 0.816780 0.588371
O O3 0.718045 0.893396 0.485394
O O4 0.783232 0.000000 0.575173
O O5 0.500000 0.236435 0.060612
O O6 0.289432 0.157878 0.134014
O O7 0.220103 0.171461 0.015868
O O8 0.500000 0.403111 0.323466
O O9 0.768424 0.500000 0.303097
O O10 0.771823 0.312860 0.294853
O O11 0.762950 0.396069 0.398589
O O12 0.212191 0.146330 0.251689
O O13 0.000000 0.092917 0.167584
O O14 0.273253 0.000000 0.188942
O O15 0.500000 0.215597 0.285650
O O16 0.272053 0.173028 0.368731
O O17 0.500000 0.901424 0.971679
O O18 0.764343 0.000000 0.993617
O O19 0.000000 0.102584 0.418965
O O20 0.743150 0.000000 0.393081
#
# Coordination Sequence:
#
# PCOD9357115 Si02
#       7
#     8   8   8   8   8   8   8
#     4   9  18  33  54  82 113 141 174 218 262 307
#     4  10  19  33  55  80 105 137 178 220 260 305
#     4   8  15  29  50  79 111 136 162 204 258 311
#     4  11  25  42  56  73 102 138 175 219 271 324
#     4  11  21  34  56  81 104 137 181 225 267 311
#     4   8  13  23  44  75 106 131 158 199 250 300
#     4  10  20  33  51  78 113 149 179 212 262 319
#
# _framework density 22.192049999999998
#
# number of rings (size 3 to 8) (size 9 to 14) (size 15 to 20)
#    0.000    2.429    0.000    3.857    0.000    7.143 
#    0.000    0.714    0.000    6.000    0.000    2.000 
#    0.000    0.000    0.000    0.000    0.000    0.000 
#
# Total GULP energy -156284.648299 kJ/mol
# GULP energy per Si atom -5581.594582 kJ/mol
# Density = 2.214154 g / cm^3
# Si number density = 22.192050 Si / 1000 Ang^3
#
#
#
# Elastic Constant Matrix: (Units=GPa)
#
#
# Indices 1 2 3 4 5 6 
#
# 1 46.8318 7.4196 -9.6394 0.0000 0.0000 0.0000
# 2 7.4196 227.1938 39.0153 0.0000 0.0000 0.0000
# 3 -9.6394 39.0153 17.3271 0.0000 0.0000 0.0000
# 4 0.0000 0.0000 0.0000 27.0216 0.0000 0.0000
# 5 0.0000 0.0000 0.0000 0.0000 47.9022 0.0000
# 6 0.0000 0.0000 0.0000 0.0000 0.0000 24.1358
#
#
#
# Elastic Compliance Matrix: (Units=1/GPa)
#
#
# Indices 1 2 3 4 5 6 
#
# 1 0.028263 -0.005907 0.029025 0.000000 0.000000 0.000000
# 2 -0.005907 0.008411 -0.022226 0.000000 0.000000 0.000000
# 3 0.029025 -0.022226 0.123906 0.000000 0.000000 0.000000
# 4 0.000000 0.000000 0.000000 0.037007 0.000000 0.000000
# 5 0.000000 0.000000 0.000000 0.000000 0.020876 0.000000
# 6 0.000000 0.000000 0.000000 0.000000 0.000000 0.041432
#
#
# Mechanical properties :
#
#
# Convention : Reuss Voigt Hill
#
# Bulk Modulus (GPa) = 6.15902 40.54929 23.35416
# Shear Modulus (GPa) = 16.01367 36.78241 26.39804
#
# Velocity S-wave (km/s) = 2.68917 4.07561 3.45269
# Velocity P-wave (km/s) = 3.52470 6.36075 5.14211
#
# Compressibility (1/GPa) = 0.16236336
#
# Stress axis : x y z
#
# Youngs Moduli (GPa) = 35.38176 118.88894 8.07066
#
# Poissons Ratio (x) = 0.70232 -0.23425
# Poissons Ratio (y) = 0.20901 0.17938
# Poissons Ratio (z) = -1.02695 2.64240
#
# Static dielectric constant tensor:
#      x y z
#    x 1.826270 0.000000 0.000000 
#    y 0.000000 1.884990 0.000000 
#    z 0.000000 0.000000 1.765380 
# 
# From -- ./inp_files/19819.got.cif
#   From: 2010.05.17/outbox.cif.g08.bks.cpg/sg38_10_cif.got.tgz:19819.got - 2010.06.03 18:07:57.
