data_PCOD9357613
_publ_section_title
;
Structure prediction by ZEFSAII (Michael W. Deem and Ramdas Pophale) SiO2 
 PCOD9357613
Probable space group: A M M 2
;
_chemical_formula_sum "Si O2"
_cell_formula_units_Z 56
_cell_length_a 20.613562
_cell_length_b 9.441533
_cell_length_c 14.988231
_cell_angle_alpha 90.000000
_cell_angle_beta 90.000000
_cell_angle_gamma 90.000000
_cell_volume 2917.063863
_symmetry_space_group_name_H-M "A M M 2"
_symmetry_group_IT_number 38
_symmetry_cell_setting 'orthorhombic'
loop_
_space_group_symop_operation_xyz
x,y,z
-x,-y,z
-x,y,z
x,-y,z
x,1/2+y,1/2+z
-x,1/2-y,1/2+z
-x,1/2+y,1/2+z
x,1/2-y,1/2+z
loop_
_atom_site_type_symbol
_atom_site_label
_atom_site_fract_x
_atom_site_fract_y
_atom_site_fract_z
Si Si1 0.075914 0.331599 0.470510
Si Si2 0.571801 0.338085 0.331570
Si Si3 0.822869 0.832671 0.816045
Si Si4 0.288966 0.338941 0.590821
Si Si5 0.429977 0.163908 0.046164
Si Si6 0.162490 0.331462 0.104941
Si Si7 0.301377 0.657764 0.802202
O O1 0.084094 0.500000 0.488612
O O2 0.118717 0.298073 0.382954
O O3 0.104000 0.241807 0.552407
O O4 0.000000 0.304593 0.455756
O O5 0.500000 0.293699 0.299886
O O6 0.583714 0.500000 0.301485
O O7 0.569072 0.340831 0.439090
O O8 0.630241 0.236495 0.307904
O O9 0.840345 0.805533 0.712002
O O10 0.757890 0.747848 0.841194
O O11 0.808974 0.000000 0.823102
O O12 0.284282 0.500000 0.552249
O O13 0.359983 0.274636 0.570615
O O14 0.228156 0.241631 0.567538
O O15 0.286570 0.352675 0.697303
O O16 0.500000 0.225769 0.075050
O O17 0.428327 0.000000 0.078924
O O18 0.163740 0.500000 0.091245
O O19 0.304837 0.500000 0.840631
#
# Coordination Sequence:
#
# PCOD9357613 Si02
#       7
#     8   8   8   8   8   8   8
#     4  10  22  40  62  87 112 145 189 226 265 328
#     4   9  18  32  49  70  99 138 183 226 270 326
#     4   9  20  39  60  81 112 154 191 223 267 332
#     4   9  18  33  53  76 103 139 181 223 269 325
#     4   8  15  29  49  71  94 129 180 226 261 309
#     4  10  21  37  58  86 118 148 182 230 282 328
#     4  10  20  32  50  78 108 136 174 229 283 322
#
# _framework density 19.197384
#
# number of rings (size 3 to 8) (size 9 to 14) (size 15 to 20)
#    0.000    2.714    0.000    1.714    2.000    3.429 
#    0.000    2.857    0.000    1.286    0.000    0.000 
#    0.000    0.000    0.000    0.000    0.000    0.000 
#
# Total GULP energy -156078.975512 kJ/mol
# GULP energy per Si atom -5574.249125 kJ/mol
# Density = 1.915369 g / cm^3
# Si number density = 19.197384 Si / 1000 Ang^3
#
#
#
# Elastic Constant Matrix: (Units=GPa)
#
#
# Indices 1 2 3 4 5 6 
#
# 1 166.4221 89.0562 33.6538 0.0000 0.0000 0.0000
# 2 89.0562 80.7549 38.0362 0.0000 0.0000 0.0000
# 3 33.6538 38.0362 42.6451 0.0000 0.0000 0.0000
# 4 0.0000 0.0000 0.0000 14.8836 0.0000 0.0000
# 5 0.0000 0.0000 0.0000 0.0000 49.6183 0.0000
# 6 0.0000 0.0000 0.0000 0.0000 0.0000 17.6317
#
#
#
# Elastic Compliance Matrix: (Units=1/GPa)
#
#
# Indices 1 2 3 4 5 6 
#
# 1 0.015283 -0.019268 0.005125 0.000000 0.000000 0.000000
# 2 -0.019268 0.045646 -0.025507 0.000000 0.000000 0.000000
# 3 0.005125 -0.025507 0.042156 0.000000 0.000000 0.000000
# 4 0.000000 0.000000 0.000000 0.067188 0.000000 0.000000
# 5 0.000000 0.000000 0.000000 0.000000 0.020154 0.000000
# 6 0.000000 0.000000 0.000000 0.000000 0.000000 0.056716
#
#
# Mechanical properties :
#
#
# Convention : Reuss Voigt Hill
#
# Bulk Modulus (GPa) = 42.04542 67.92384 54.98463
# Shear Modulus (GPa) = 14.95339 25.03178 19.99259
#
# Velocity S-wave (km/s) = 2.79396 3.61490 3.23061
# Velocity P-wave (km/s) = 5.68836 7.27200 6.52838
#
# Compressibility (1/GPa) = 0.02378380
#
# Stress axis : x y z
#
# Youngs Moduli (GPa) = 65.43066 21.90765 23.72167
#
# Poissons Ratio (x) = 0.42212 -0.12157
# Poissons Ratio (y) = 1.26073 0.60507
# Poissons Ratio (z) = -0.33532 0.55880
#
# Static dielectric constant tensor:
#      x y z
#    x 1.661660 0.000000 0.000000 
#    y 0.000000 1.673560 0.000000 
#    z 0.000000 0.000000 1.687770 
# 
# From -- ./inp_files/15467.got.cif
#   From: 2010.05.17/outbox.cif.g08.bks.cpg/sg38_8_cif.got.tgz:15467.got - 2010.06.03 18:07:57.
