data_PCOD9357542
_publ_section_title
;
Structure prediction by ZEFSAII (Michael W. Deem and Ramdas Pophale) SiO2 
 PCOD9357542
Probable space group: A M M 2
;
_chemical_formula_sum "Si O2"
_cell_formula_units_Z 64
_cell_length_a 8.794276
_cell_length_b 23.952858
_cell_length_c 19.595950
_cell_angle_alpha 90.000000
_cell_angle_beta 90.000000
_cell_angle_gamma 90.000000
_cell_volume 4127.848543
_symmetry_space_group_name_H-M "A M M 2"
_symmetry_group_IT_number 38
_symmetry_cell_setting 'orthorhombic'
loop_
_space_group_symop_operation_xyz
x,y,z
-x,-y,z
-x,y,z
x,-y,z
x,1/2+y,1/2+z
-x,1/2-y,1/2+z
-x,1/2+y,1/2+z
x,1/2-y,1/2+z
loop_
_atom_site_type_symbol
_atom_site_label
_atom_site_fract_x
_atom_site_fract_y
_atom_site_fract_z
Si Si1 0.314786 0.436715 0.143680
Si Si2 0.316969 0.166165 0.553772
Si Si3 0.317199 0.880854 0.786959
Si Si4 0.818460 0.266680 0.934992
Si Si5 0.818858 0.743195 0.282678
Si Si6 0.317592 0.659832 0.511723
Si Si7 0.318164 0.275091 0.644457
Si Si8 0.182093 0.565119 0.423712
O O1 0.500000 0.436919 0.142561
O O2 0.262331 0.500000 0.133099
O O3 0.266412 0.392052 0.086757
O O4 0.271623 0.413837 0.218344
O O5 0.500000 0.165811 0.545725
O O6 0.242232 0.183874 0.482772
O O7 0.282028 0.215975 0.607458
O O8 0.500000 0.880972 0.791462
O O9 0.259715 0.817483 0.781743
O O10 0.248897 0.909995 0.853621
O O11 0.780965 0.271487 0.855152
O O12 0.000000 0.262005 0.942042
O O13 0.743824 0.209827 0.963811
O O14 0.763645 0.776735 0.216671
O O15 0.000000 0.735328 0.280012
O O16 0.500000 0.658645 0.506441
O O17 0.277378 0.677772 0.588963
O O18 0.247879 0.602669 0.484659
O O19 0.500000 0.276321 0.654728
O O20 0.222277 0.500000 0.429967
O O21 0.000000 0.570353 0.422221
#
# Coordination Sequence:
#
# PCOD9357542 Si02
#       8
#     8   8   8   8   8   8   8   8
#     4   9  17  30  48  70  96 127 165 205 241 279
#     4   9  17  31  48  69  94 124 163 203 241 287
#     4  11  20  32  49  69  98 135 173 207 235 279
#     4  10  20  32  47  69  98 128 160 200 247 295
#     4  11  21  31  47  72 100 131 163 198 247 298
#     4  10  20  34  52  72  94 126 167 207 245 289
#     4   9  18  32  49  71  96 123 161 204 245 291
#     4  11  23  36  49  70 102 135 168 206 245 291
#
# _framework density 15.504445
#
# number of rings (size 3 to 8) (size 9 to 14) (size 15 to 20)
#    0.000    2.000    2.500    3.000    0.000    5.500 
#    0.000    0.000    0.000    1.875    0.000    0.875 
#    0.000    3.000    0.000    0.000    0.000    0.000 
#
# Total GULP energy -178552.730222 kJ/mol
# GULP energy per Si atom -5579.772819 kJ/mol
# Density = 1.546916 g / cm^3
# Si number density = 15.504445 Si / 1000 Ang^3
#
#
#
# Elastic Constant Matrix: (Units=GPa)
#
#
# Indices 1 2 3 4 5 6 
#
# 1 38.2903 31.6210 49.1223 0.0000 0.0000 0.0000
# 2 31.6210 96.8152 72.0285 0.0000 0.0000 0.0000
# 3 49.1223 72.0285 140.5566 0.0000 0.0000 0.0000
# 4 0.0000 0.0000 0.0000 19.4351 0.0000 0.0000
# 5 0.0000 0.0000 0.0000 0.0000 38.5379 0.0000
# 6 0.0000 0.0000 0.0000 0.0000 0.0000 19.1270
#
#
#
# Elastic Compliance Matrix: (Units=1/GPa)
#
#
# Indices 1 2 3 4 5 6 
#
# 1 0.048951 -0.005269 -0.014407 0.000000 0.000000 0.000000
# 2 -0.005269 0.017261 -0.007004 0.000000 0.000000 0.000000
# 3 -0.014407 -0.007004 0.015739 0.000000 0.000000 0.000000
# 4 0.000000 0.000000 0.000000 0.051453 0.000000 0.000000
# 5 0.000000 0.000000 0.000000 0.000000 0.025948 0.000000
# 6 0.000000 0.000000 0.000000 0.000000 0.000000 0.052282
#
#
# Mechanical properties :
#
#
# Convention : Reuss Voigt Hill
#
# Bulk Modulus (GPa) = 34.97771 64.57841 49.77806
# Shear Modulus (GPa) = 18.21333 23.61267 20.91300
#
# Velocity S-wave (km/s) = 3.43113 3.90675 3.67664
# Velocity P-wave (km/s) = 6.18916 7.87986 7.08512
#
# Compressibility (1/GPa) = 0.02858964
#
# Stress axis : x y z
#
# Youngs Moduli (GPa) = 20.42877 57.93558 63.53736
#
# Poissons Ratio (x) = 0.30527 0.91540
# Poissons Ratio (y) = 0.10764 0.44500
# Poissons Ratio (z) = 0.29432 0.40577
#
# Static dielectric constant tensor:
#      x y z
#    x 1.518720 0.000000 0.000000 
#    y 0.000000 1.499800 0.000000 
#    z 0.000000 0.000000 1.516760 
# 
# From -- ./inp_files/17289.got.cif
#   From: 2010.05.17/outbox.cif.g08.bks.cpg/sg38_9_cif.got.tgz:17289.got - 2010.06.03 18:07:57.
