data_PCOD9357042
_publ_section_title
;
Structure prediction by ZEFSAII (Michael W. Deem and Ramdas Pophale) SiO2 
 PCOD9357042
Probable space group: A M M 2
;
_chemical_formula_sum "Si O2"
_cell_formula_units_Z 56
_cell_length_a 16.345862
_cell_length_b 7.471112
_cell_length_c 20.543542
_cell_angle_alpha 90.000000
_cell_angle_beta 90.000000
_cell_angle_gamma 90.000000
_cell_volume 2508.813624
_symmetry_space_group_name_H-M "A M M 2"
_symmetry_group_IT_number 38
_symmetry_cell_setting 'orthorhombic'
loop_
_space_group_symop_operation_xyz
x,y,z
-x,-y,z
-x,y,z
x,-y,z
x,1/2+y,1/2+z
-x,1/2-y,1/2+z
-x,1/2+y,1/2+z
x,1/2-y,1/2+z
loop_
_atom_site_type_symbol
_atom_site_label
_atom_site_fract_x
_atom_site_fract_y
_atom_site_fract_z
Si Si1 0.412002 0.718110 0.987200
Si Si2 0.908727 0.719307 0.045128
Si Si3 0.765515 0.295392 0.952003
Si Si4 0.369915 0.215562 0.632999
Si Si5 0.411572 0.205232 0.276950
Si Si6 0.771735 0.704702 0.308746
Si Si7 0.186813 0.717301 0.167927
O O1 0.500000 0.780063 0.960979
O O2 0.412953 0.500000 0.981960
O O3 0.326236 0.782671 0.957210
O O4 0.406554 0.765107 0.063748
O O5 0.909044 0.500000 0.043204
O O6 0.883521 0.772257 0.118452
O O7 0.000000 0.778359 0.028190
O O8 0.837200 0.782500 0.996624
O O9 0.756495 0.500000 0.975612
O O10 0.790420 0.295517 0.876827
O O11 0.408780 0.291956 0.698329
O O12 0.274053 0.264005 0.635656
O O13 0.376520 0.000000 0.638488
O O14 0.500000 0.280169 0.297020
O O15 0.326714 0.292451 0.298275
O O16 0.407568 0.000000 0.300190
O O17 0.798293 0.500000 0.315003
O O18 0.810245 0.781838 0.242367
O O19 0.185578 0.500000 0.171685
#
# Coordination Sequence:
#
# PCOD9357042 Si02
#       7
#     8   8   8   8   8   8   8
#     4   9  16  26  45  72 100 135 177 217 257 302
#     4   9  16  29  54  83 105 130 169 217 267 318
#     4  10  19  33  52  76 108 139 175 221 263 313
#     4   9  15  27  48  72  99 131 171 219 264 308
#     4  10  20  32  47  71 103 137 177 223 267 313
#     4  10  21  35  53  73 101 142 180 217 267 318
#     4   8  14  28  49  73  98 126 167 216 255 300
#
# _framework density 22.321307999999998
#
# number of rings (size 3 to 8) (size 9 to 14) (size 15 to 20)
#    0.000    2.714    1.429    2.143    0.000    2.286 
#    0.000    2.857    0.000    2.143    0.000    0.000 
#    0.000    0.000    0.000    0.000    0.000    0.000 
#
# Total GULP energy -156257.644741 kJ/mol
# GULP energy per Si atom -5580.630169 kJ/mol
# Density = 2.227050 g / cm^3
# Si number density = 22.321308 Si / 1000 Ang^3
#
#
#
# Elastic Constant Matrix: (Units=GPa)
#
#
# Indices 1 2 3 4 5 6 
#
# 1 139.9529 5.4693 64.4461 0.0000 0.0000 0.0000
# 2 5.4693 60.2807 -4.5545 0.0000 0.0000 0.0000
# 3 64.4461 -4.5545 124.8557 0.0000 0.0000 0.0000
# 4 0.0000 0.0000 0.0000 13.9905 0.0000 0.0000
# 5 0.0000 0.0000 0.0000 0.0000 -9.9314 0.0000
# 6 0.0000 0.0000 0.0000 0.0000 0.0000 -5.1131
#
#
#
# Elastic Compliance Matrix: (Units=1/GPa)
#
#
# Indices 1 2 3 4 5 6 
#
# 1 0.009463 -0.001231 -0.004930 0.000000 0.000000 0.000000
# 2 -0.001231 0.016795 0.001248 0.000000 0.000000 0.000000
# 3 -0.004930 0.001248 0.010599 0.000000 0.000000 0.000000
# 4 0.000000 0.000000 0.000000 0.071477 0.000000 0.000000
# 5 0.000000 0.000000 0.000000 0.000000 -0.100690 0.000000
# 6 0.000000 0.000000 0.000000 0.000000 0.000000 -0.195577
#
#
# Mechanical properties :
#
#
# Convention : Reuss Voigt Hill
#
# Bulk Modulus (GPa) = 36.99241 50.64568 43.81905
# Shear Modulus (GPa) = -29.56885 17.10443 -6.23221
#
# Velocity S-wave (km/s) = -3.64358 2.77118 -1.67275
# Velocity P-wave (km/s) = 1.04510 5.74264 3.99285
#
# Compressibility (1/GPa) = 0.02703257
#
# Stress axis : x y z
#
# Youngs Moduli (GPa) = 105.67086 59.54131 94.34650
#
# Poissons Ratio (x) = 0.07330 0.46509
# Poissons Ratio (y) = 0.13009 -0.11775
# Poissons Ratio (z) = 0.52091 -0.07431
#
# Static dielectric constant tensor:
#      x y z
#    x 1.813910 0.000000 0.000000 
#    y 0.000000 1.839720 0.000000 
#    z 0.000000 0.000000 1.809500 
# 
# From -- ./inp_files/21071.got.cif
#   From: 2010.05.17/outbox.cif.g08.bks.cpg/sg38_11_cif.got.tgz:21071.got - 2010.06.03 18:07:57.
