data_PCOD9357281
_publ_section_title
;
Structure prediction by ZEFSAII (Michael W. Deem and Ramdas Pophale) SiO2 
 PCOD9357281
Probable space group: A M M 2
;
_chemical_formula_sum "Si O2"
_cell_formula_units_Z 48
_cell_length_a 15.953583
_cell_length_b 8.632555
_cell_length_c 18.881417
_cell_angle_alpha 90.000000
_cell_angle_beta 90.000000
_cell_angle_gamma 90.000000
_cell_volume 2600.352199
_symmetry_space_group_name_H-M "A M M 2"
_symmetry_group_IT_number 38
_symmetry_cell_setting 'orthorhombic'
loop_
_space_group_symop_operation_xyz
x,y,z
-x,-y,z
-x,y,z
x,-y,z
x,1/2+y,1/2+z
-x,1/2-y,1/2+z
-x,1/2+y,1/2+z
x,1/2-y,1/2+z
loop_
_atom_site_type_symbol
_atom_site_label
_atom_site_fract_x
_atom_site_fract_y
_atom_site_fract_z
Si Si1 0.686123 0.316424 0.250000
Si Si2 0.785472 0.826330 0.382644
Si Si3 0.341685 0.175466 0.512830
Si Si4 0.903582 0.813301 0.994553
Si Si5 0.500000 0.689034 0.927163
Si Si6 0.775767 0.180626 0.117647
Si Si7 0.500000 0.312975 0.763688
O O1 0.676025 0.500000 0.253408
O O2 0.730528 0.255273 0.321928
O O3 0.752575 0.270972 0.188715
O O4 0.592115 0.245175 0.237133
O O5 0.725295 0.838971 0.450419
O O6 0.864348 0.743112 0.419884
O O7 0.807499 0.000000 0.358185
O O8 0.421515 0.237761 0.472603
O O9 0.306747 0.290957 0.570502
O O10 0.355998 0.000000 0.541824
O O11 0.000000 0.764688 0.000872
O O12 0.898838 0.000000 0.994512
O O13 0.850020 0.763388 0.064451
O O14 0.500000 0.500000 0.924777
O O15 0.500000 0.738557 0.846315
O O16 0.789146 0.000000 0.133430
O O17 0.500000 0.500000 0.758960
#
# Coordination Sequence:
#
# PCOD9357281 Si02
#       7
#     8   8   8   8   4   8   4
#     4  12  24  38  56  83 118 158 197 238 288 341
#     4  10  19  34  58  84 112 148 188 232 282 340
#     4   9  17  32  53  77 105 141 184 230 281 334
#     4   9  19  38  63  89 116 146 185 237 294 351
#     4   9  16  30  53  78 105 141 183 232 280 325
#     4  10  21  37  56  80 112 153 192 234 287 343
#     4  11  21  38  59  82 113 153 197 242 288 337
#
# _framework density 18.459036999999999
#
# number of rings (size 3 to 8) (size 9 to 14) (size 15 to 20)
#    0.000    2.000    1.667    2.750    0.000    2.333 
#    0.000    3.750    0.000    3.000    0.000    0.000 
#    0.000    0.000    0.000    0.000    0.000    0.000 
#
# Total GULP energy -133604.858373 kJ/mol
# GULP energy per Si atom -5566.869099 kJ/mol
# Density = 1.841702 g / cm^3
# Si number density = 18.459037 Si / 1000 Ang^3
#
#
#
# Elastic Constant Matrix: (Units=GPa)
#
#
# Indices 1 2 3 4 5 6 
#
# 1 109.3605 32.0192 28.6586 0.0000 0.0000 0.0000
# 2 32.0192 75.2336 29.7840 0.0000 0.0000 0.0000
# 3 28.6586 29.7840 68.3667 0.0000 0.0000 0.0000
# 4 0.0000 0.0000 0.0000 29.1793 0.0000 0.0000
# 5 0.0000 0.0000 0.0000 0.0000 203.9215 0.0000
# 6 0.0000 0.0000 0.0000 0.0000 0.0000 48.0227
#
#
#
# Elastic Compliance Matrix: (Units=1/GPa)
#
#
# Indices 1 2 3 4 5 6 
#
# 1 0.010963 -0.003440 -0.003097 0.000000 0.000000 0.000000
# 2 -0.003440 0.017141 -0.006026 0.000000 0.000000 0.000000
# 3 -0.003097 -0.006026 0.018550 0.000000 0.000000 0.000000
# 4 0.000000 0.000000 0.000000 0.034271 0.000000 0.000000
# 5 0.000000 0.000000 0.000000 0.000000 0.004904 0.000000
# 6 0.000000 0.000000 0.000000 0.000000 0.000000 0.020823
#
#
# Mechanical properties :
#
#
# Convention : Reuss Voigt Hill
#
# Bulk Modulus (GPa) = 46.44760 48.20937 47.32848
# Shear Modulus (GPa) = 35.98311 67.05795 51.52053
#
# Velocity S-wave (km/s) = 4.41993 6.03381 5.28879
# Velocity P-wave (km/s) = 7.15995 8.64385 7.93666
#
# Compressibility (1/GPa) = 0.02152964
#
# Stress axis : x y z
#
# Youngs Moduli (GPa) = 91.21813 58.33836 53.90729
#
# Poissons Ratio (x) = 0.20066 0.16695
# Poissons Ratio (y) = 0.31376 0.32483
# Poissons Ratio (z) = 0.28250 0.35154
#
# Static dielectric constant tensor:
#      x y z
#    x 1.392460 0.000000 0.000000 
#    y 0.000000 1.662950 0.000000 
#    z 0.000000 0.000000 1.635260 
# 
# From -- ./inp_files/18212.got.cif
#   From: 2010.05.17/outbox.cif.g08.bks.cpg/sg38_10_cif.got.tgz:18212.got - 2010.06.03 18:07:57.
