data_PCOD9357485
_publ_section_title
;
Structure prediction by ZEFSAII (Michael W. Deem and Ramdas Pophale) SiO2 
 PCOD9357485
Probable space group: A M M 2
;
_chemical_formula_sum "Si O2"
_cell_formula_units_Z 64
_cell_length_a 9.113115
_cell_length_b 14.673896
_cell_length_c 23.512316
_cell_angle_alpha 90.000000
_cell_angle_beta 90.000000
_cell_angle_gamma 90.000000
_cell_volume 3144.182147
_symmetry_space_group_name_H-M "A M M 2"
_symmetry_group_IT_number 38
_symmetry_cell_setting 'orthorhombic'
loop_
_space_group_symop_operation_xyz
x,y,z
-x,-y,z
-x,y,z
x,-y,z
x,1/2+y,1/2+z
-x,1/2-y,1/2+z
-x,1/2+y,1/2+z
x,1/2-y,1/2+z
loop_
_atom_site_type_symbol
_atom_site_label
_atom_site_fract_x
_atom_site_fract_y
_atom_site_fract_z
Si Si1 0.167092 0.132856 0.040320
Si Si2 0.179119 0.096977 0.164334
Si Si3 0.333557 0.368273 0.958380
Si Si4 0.825458 0.601680 0.843377
Si Si5 0.832251 0.150755 0.568697
Si Si6 0.677113 0.209496 0.809266
Si Si7 0.177266 0.301508 0.195132
Si Si8 0.665037 0.652111 0.430912
O O1 0.231938 0.096717 0.099060
O O2 0.163439 0.241980 0.051606
O O3 0.000000 0.102785 0.036535
O O4 0.245047 0.109024 0.981940
O O5 0.221529 0.194469 0.189268
O O6 0.000000 0.099198 0.163783
O O7 0.222798 0.000000 0.190693
O O8 0.500000 0.400453 0.949597
O O9 0.273480 0.390391 0.021038
O O10 0.223015 0.399691 0.909418
O O11 0.340139 0.259036 0.948843
O O12 0.792393 0.500000 0.820798
O O13 0.740513 0.687583 0.816730
O O14 0.000000 0.616837 0.837401
O O15 0.786884 0.149586 0.635075
O O16 0.000000 0.116635 0.564130
O O17 0.500000 0.213340 0.808480
O O18 0.742448 0.166674 0.751982
O O19 0.722806 0.154774 0.866429
O O20 0.000000 0.305634 0.201057
O O21 0.500000 0.616323 0.430066
#
# Coordination Sequence:
#
# PCOD9357485 Si02
#       8
#     8   8   8   8   8   8   8   8
#     4   8  13  22  39  59  74  95 128 163 198 234
#     4   8  14  25  40  58  81 107 135 166 197 231
#     4   9  16  26  42  62  81 102 130 167 212 254
#     4  10  20  32  45  60  80 110 145 176 207 246
#     4   8  14  25  40  58  80 104 133 169 205 243
#     4  10  20  31  42  58  82 111 141 174 211 247
#     4   9  17  28  42  60  82 112 147 176 202 236
#     4   8  15  26  38  54  76 101 127 160 206 249
#
# _framework density 20.355056000000001
#
# number of rings (size 3 to 8) (size 9 to 14) (size 15 to 20)
#    0.000    3.250    0.000    3.375    0.000    5.500 
#    0.000    3.125    0.000    1.125    0.000    0.000 
#    0.000    1.000    0.000    5.500    0.000    4.000 
#
# Total GULP energy -178221.232917 kJ/mol
# GULP energy per Si atom -5569.413529 kJ/mol
# Density = 2.030873 g / cm^3
# Si number density = 20.355056 Si / 1000 Ang^3
#
#
#
# Elastic Constant Matrix: (Units=GPa)
#
#
# Indices 1 2 3 4 5 6 
#
# 1 34.0847 -3.3586 39.6981 0.0000 0.0000 0.0000
# 2 -3.3586 26.8231 -6.7517 0.0000 0.0000 0.0000
# 3 39.6981 -6.7517 177.6033 0.0000 0.0000 0.0000
# 4 0.0000 0.0000 0.0000 -7.7899 0.0000 0.0000
# 5 0.0000 0.0000 0.0000 0.0000 16.7967 0.0000
# 6 0.0000 0.0000 0.0000 0.0000 0.0000 -7.2106
#
#
#
# Elastic Compliance Matrix: (Units=1/GPa)
#
#
# Indices 1 2 3 4 5 6 
#
# 1 0.039868 0.002775 -0.008806 0.000000 0.000000 0.000000
# 2 0.002775 0.037835 0.000818 0.000000 0.000000 0.000000
# 3 -0.008806 0.000818 0.007630 0.000000 0.000000 0.000000
# 4 0.000000 0.000000 0.000000 -0.128371 0.000000 0.000000
# 5 0.000000 0.000000 0.000000 0.000000 0.059535 0.000000
# 6 0.000000 0.000000 0.000000 0.000000 0.000000 -0.138684
#
#
# Mechanical properties :
#
#
# Convention : Reuss Voigt Hill
#
# Bulk Modulus (GPa) = 13.34972 33.07631 23.21302
# Shear Modulus (GPa) = -57.60878 14.28745 -21.66067
#
# Velocity S-wave (km/s) = -5.32573 2.65224 -3.26566
# Velocity P-wave (km/s) = 5.58974 5.06597 1.67049
#
# Compressibility (1/GPa) = 0.07490795
#
# Stress axis : x y z
#
# Youngs Moduli (GPa) = 25.08252 26.43078 131.06276
#
# Poissons Ratio (x) = -0.07336 1.15413
# Poissons Ratio (y) = -0.06962 -0.10720
# Poissons Ratio (z) = 0.22087 -0.02162
#
# Static dielectric constant tensor:
#      x y z
#    x 1.698460 0.000000 0.000000 
#    y 0.000000 1.787100 0.000000 
#    z 0.000000 0.000000 1.753060 
# 
# From -- ./inp_files/17282.got.cif
#   From: 2010.05.17/outbox.cif.g08.bks.cpg/sg38_9_cif.got.tgz:17282.got - 2010.06.03 18:07:57.
