data_PCOD9357466
_publ_section_title
;
Structure prediction by ZEFSAII (Michael W. Deem and Ramdas Pophale) SiO2 
 PCOD9357466
Probable space group: A M M 2
;
_chemical_formula_sum "Si O2"
_cell_formula_units_Z 52
_cell_length_a 7.962848
_cell_length_b 13.624724
_cell_length_c 21.541450
_cell_angle_alpha 90.000000
_cell_angle_beta 90.000000
_cell_angle_gamma 90.000000
_cell_volume 2337.066512
_symmetry_space_group_name_H-M "A M M 2"
_symmetry_group_IT_number 38
_symmetry_cell_setting 'orthorhombic'
loop_
_space_group_symop_operation_xyz
x,y,z
-x,-y,z
-x,y,z
x,-y,z
x,1/2+y,1/2+z
-x,1/2-y,1/2+z
-x,1/2+y,1/2+z
x,1/2-y,1/2+z
loop_
_atom_site_type_symbol
_atom_site_label
_atom_site_fract_x
_atom_site_fract_y
_atom_site_fract_z
Si Si1 0.000000 0.810473 0.336581
Si Si2 0.806018 0.381696 0.624516
Si Si3 0.689444 0.880958 0.560261
Si Si4 0.685293 0.193471 0.255600
Si Si5 0.315009 0.618985 0.489102
Si Si6 0.201423 0.886238 0.701403
Si Si7 0.000000 0.381828 0.976888
Si Si8 0.000000 0.616596 0.400573
O O1 0.835033 0.842131 0.299306
O O2 0.000000 0.850282 0.405995
O O3 0.000000 0.691862 0.343951
O O4 0.807547 0.500000 0.623731
O O5 0.713316 0.348682 0.686540
O O6 0.723638 0.349245 0.559774
O O7 0.000000 0.347970 0.626872
O O8 0.500000 0.847271 0.547669
O O9 0.741617 0.861089 0.631236
O O10 0.833371 0.847348 0.513061
O O11 0.687478 0.000000 0.555980
O O12 0.500000 0.169315 0.278419
O O13 0.708956 0.310354 0.246673
O O14 0.500000 0.652273 0.468733
O O15 0.318350 0.500000 0.491609
O O16 0.163531 0.640022 0.442311
O O17 0.000000 0.874844 0.703923
O O18 0.242420 0.000000 0.713592
O O19 0.000000 0.500000 0.979780
O O20 0.000000 0.500000 0.384970
#
# Coordination Sequence:
#
# PCOD9357466 Si02
#       8
#     4   8   8   8   8   8   4   4
#     4  12  28  44  58  82 112 158 220 258 280 338
#     4  10  19  37  66  95 125 157 188 237 307 369
#     4   9  17  33  61  95 123 148 185 234 296 367
#     4  12  26  43  61  86 121 159 205 254 296 349
#     4   9  17  33  61  95 123 148 185 234 296 367
#     4  10  19  37  66  95 125 157 188 237 307 369
#     4  10  22  41  61  83 117 158 195 244 298 344
#     4  10  22  41  61  83 117 158 195 244 298 344
#
# _framework density 22.250115000000001
#
# number of rings (size 3 to 8) (size 9 to 14) (size 15 to 20)
#    0.000    1.846    3.077    0.923    0.000    5.538 
#    0.000    1.538    0.000    0.000    0.000    0.000 
#    0.000    0.000    0.000    0.000    0.000    0.000 
#
# Total GULP energy -145503.518275 kJ/mol
# GULP energy per Si atom -5596.289164 kJ/mol
# Density = 2.219947 g / cm^3
# Si number density = 22.250115 Si / 1000 Ang^3
#
#
#
# Elastic Constant Matrix: (Units=GPa)
#
#
# Indices 1 2 3 4 5 6 
#
# 1 197.7190 5.9525 57.0907 0.0000 0.0000 0.0000
# 2 5.9525 52.5023 -0.3824 0.0000 0.0000 0.0000
# 3 57.0907 -0.3824 73.1667 0.0000 0.0000 0.0000
# 4 0.0000 0.0000 0.0000 30.0192 0.0000 0.0000
# 5 0.0000 0.0000 0.0000 0.0000 -9.0269 0.0000
# 6 0.0000 0.0000 0.0000 0.0000 0.0000 8.2892
#
#
#
# Elastic Compliance Matrix: (Units=1/GPa)
#
#
# Indices 1 2 3 4 5 6 
#
# 1 0.006560 -0.000781 -0.005123 0.000000 0.000000 0.000000
# 2 -0.000781 0.019141 0.000710 0.000000 0.000000 0.000000
# 3 -0.005123 0.000710 0.017669 0.000000 0.000000 0.000000
# 4 0.000000 0.000000 0.000000 0.033312 0.000000 0.000000
# 5 0.000000 0.000000 0.000000 0.000000 -0.110781 0.000000
# 6 0.000000 0.000000 0.000000 0.000000 0.000000 0.120638
#
#
# Mechanical properties :
#
#
# Convention : Reuss Voigt Hill
#
# Bulk Modulus (GPa) = 30.32123 49.85662 40.08892
# Shear Modulus (GPa) = 46.32966 23.23813 34.78389
#
# Velocity S-wave (km/s) = 4.56809 3.23523 3.95816
# Velocity P-wave (km/s) = 6.44052 6.03420 6.24067
#
# Compressibility (1/GPa) = 0.03298019
#
# Stress axis : x y z
#
# Youngs Moduli (GPa) = 152.42794 52.24519 56.59762
#
# Poissons Ratio (x) = 0.04081 0.28996
# Poissons Ratio (y) = 0.11906 -0.04016
# Poissons Ratio (z) = 0.78090 -0.03707
#
# Static dielectric constant tensor:
#      x y z
#    x 1.812280 0.000000 0.000000 
#    y 0.000000 1.878530 0.000000 
#    z 0.000000 0.000000 1.752290 
# 
# From -- ./inp_files/19730.got.cif
#   From: 2010.05.17/outbox.cif.g08.bks.cpg/sg38_10_cif.got.tgz:19730.got - 2010.06.03 18:07:57.
