data_PCOD9357407
_publ_section_title
;
Structure prediction by ZEFSAII (Michael W. Deem and Ramdas Pophale) SiO2 
 PCOD9357407
Probable space group: A M M 2
;
_chemical_formula_sum "Si O2"
_cell_formula_units_Z 58
_cell_length_a 25.376335
_cell_length_b 7.521602
_cell_length_c 14.565879
_cell_angle_alpha 90.000000
_cell_angle_beta 90.000000
_cell_angle_gamma 90.000000
_cell_volume 2780.199406
_symmetry_space_group_name_H-M "A M M 2"
_symmetry_group_IT_number 38
_symmetry_cell_setting 'orthorhombic'
loop_
_space_group_symop_operation_xyz
x,y,z
-x,-y,z
-x,y,z
x,-y,z
x,1/2+y,1/2+z
-x,1/2-y,1/2+z
-x,1/2+y,1/2+z
x,1/2-y,1/2+z
loop_
_atom_site_type_symbol
_atom_site_label
_atom_site_fract_x
_atom_site_fract_y
_atom_site_fract_z
Si Si1 0.645736 0.787188 0.715260
Si Si2 0.154306 0.213582 0.027581
Si Si3 0.000000 0.000000 0.427477
Si Si4 0.559567 0.786511 0.570390
Si Si5 0.729474 0.286190 0.566986
Si Si6 0.356653 0.287066 0.421802
Si Si7 0.083684 0.705195 0.371588
Si Si8 0.939606 0.784598 0.160324
O O1 0.598496 0.718125 0.650420
O O2 0.700274 0.753183 0.662303
O O3 0.644587 0.717137 0.818521
O O4 0.639174 0.000000 0.719997
O O5 0.211256 0.283077 0.056480
O O6 0.105157 0.276763 0.089700
O O7 0.155657 0.000000 0.041645
O O8 0.139628 0.240703 0.920731
O O9 0.955233 0.844461 0.416834
O O10 0.500000 0.718445 0.574761
O O11 0.589011 0.748100 0.474953
O O12 0.557354 0.000000 0.579475
O O13 0.731680 0.500000 0.558408
O O14 0.690427 0.218605 0.486919
O O15 0.350259 0.500000 0.417108
O O16 0.069790 0.500000 0.393257
O O17 0.077976 0.730482 0.262677
O O18 0.000000 0.720850 0.142246
O O19 0.941934 0.000000 0.158385
#
# Coordination Sequence:
#
# PCOD9357407 Si02
#       8
#     8   8   2   8   8   8   8   8
#     4   9  18  33  53  76 102 140 182 222 267 315
#     4   9  21  37  58  81 112 147 179 226 285 329
#     4  12  22  40  60  86 116 146 186 232 274 346
#     4   9  18  32  49  73 107 139 175 224 272 321
#     4   9  18  36  54  77 108 141 179 223 271 318
#     4   9  18  32  54  77 105 143 182 221 264 319
#     4  11  22  40  61  84 113 150 185 228 282 337
#     4  10  19  36  56  79 108 141 179 227 275 335
#
# _framework density 20.861813000000001
#
# number of rings (size 3 to 8) (size 9 to 14) (size 15 to 20)
#    0.000    2.483    1.379    0.207    0.966    2.483 
#    2.483    2.759    0.000    0.000    0.000    0.000 
#    0.000    0.000    0.000    0.000    0.000    0.000 
#
# Total GULP energy -161558.531624 kJ/mol
# GULP energy per Si atom -5570.983849 kJ/mol
# Density = 2.081433 g / cm^3
# Si number density = 20.861813 Si / 1000 Ang^3
#
#
#
# Elastic Constant Matrix: (Units=GPa)
#
#
# Indices 1 2 3 4 5 6 
#
# 1 138.7157 6.8166 73.2028 0.0000 0.0000 0.0000
# 2 6.8166 73.5295 5.2470 0.0000 0.0000 0.0000
# 3 73.2028 5.2470 118.1139 0.0000 0.0000 0.0000
# 4 0.0000 0.0000 0.0000 -6.5894 0.0000 0.0000
# 5 0.0000 0.0000 0.0000 0.0000 10.8308 0.0000
# 6 0.0000 0.0000 0.0000 0.0000 0.0000 19.9945
#
#
#
# Elastic Compliance Matrix: (Units=1/GPa)
#
#
# Indices 1 2 3 4 5 6 
#
# 1 0.010733 -0.000522 -0.006629 0.000000 0.000000 0.000000
# 2 -0.000522 0.013669 -0.000284 0.000000 0.000000 0.000000
# 3 -0.006629 -0.000284 0.012587 0.000000 0.000000 0.000000
# 4 0.000000 0.000000 0.000000 -0.151758 0.000000 0.000000
# 5 0.000000 0.000000 0.000000 0.000000 0.092330 0.000000
# 6 0.000000 0.000000 0.000000 0.000000 0.000000 0.050014
#
#
# Mechanical properties :
#
#
# Convention : Reuss Voigt Hill
#
# Bulk Modulus (GPa) = 45.20798 55.65465 50.43132
# Shear Modulus (GPa) = 100.37025 21.18669 60.77847
#
# Velocity S-wave (km/s) = 6.94380 3.19026 5.40343
# Velocity P-wave (km/s) = 9.27393 6.34870 7.94707
#
# Compressibility (1/GPa) = 0.02211999
#
# Stress axis : x y z
#
# Youngs Moduli (GPa) = 93.17388 73.16032 79.44629
#
# Poissons Ratio (x) = 0.03819 0.52661
# Poissons Ratio (y) = 0.04863 0.02254
# Poissons Ratio (z) = 0.61760 0.02076
#
# Static dielectric constant tensor:
#      x y z
#    x 1.725710 0.000000 0.000000 
#    y 0.000000 1.778060 0.000000 
#    z 0.000000 0.000000 1.755990 
# 
# From -- ./inp_files/15909.got.cif
#   From: 2010.05.17/outbox.cif.g08.bks.cpg/sg38_8_cif.got.tgz:15909.got - 2010.06.03 18:07:57.
