data_PCOD9357196
_publ_section_title
;
Structure prediction by ZEFSAII (Michael W. Deem and Ramdas Pophale) SiO2 
 PCOD9357196
Probable space group: A M M 2
;
_chemical_formula_sum "Si O2"
_cell_formula_units_Z 48
_cell_length_a 10.607756
_cell_length_b 8.468556
_cell_length_c 29.035753
_cell_angle_alpha 90.000000
_cell_angle_beta 90.000000
_cell_angle_gamma 90.000000
_cell_volume 2608.350673
_symmetry_space_group_name_H-M "A M M 2"
_symmetry_group_IT_number 38
_symmetry_cell_setting 'orthorhombic'
loop_
_space_group_symop_operation_xyz
x,y,z
-x,-y,z
-x,y,z
x,-y,z
x,1/2+y,1/2+z
-x,1/2-y,1/2+z
-x,1/2+y,1/2+z
x,1/2-y,1/2+z
loop_
_atom_site_type_symbol
_atom_site_label
_atom_site_fract_x
_atom_site_fract_y
_atom_site_fract_z
Si Si1 0.500000 0.809279 0.017780
Si Si2 0.247998 0.688782 0.464969
Si Si3 0.250263 0.809597 0.675905
Si Si4 0.354470 0.309632 0.768223
Si Si5 0.500000 0.308961 0.121766
Si Si6 0.000000 0.193095 0.622421
Si Si7 0.000000 0.688959 0.015988
Si Si8 0.646280 0.809470 0.372722
O O1 0.500000 0.750897 0.069863
O O2 0.500000 0.000000 0.017188
O O3 0.626267 0.754753 0.991778
O O4 0.244403 0.500000 0.467023
O O5 0.124264 0.754309 0.489486
O O6 0.265784 0.741262 0.412266
O O7 0.265780 0.754276 0.728262
O O8 0.374643 0.755386 0.648368
O O9 0.124914 0.755401 0.649650
O O10 0.249839 0.000000 0.675509
O O11 0.500000 0.258338 0.759555
O O12 0.353558 0.500000 0.766953
O O13 0.321189 0.261440 0.820416
O O14 0.500000 0.500000 0.121337
O O15 0.000000 0.245194 0.569215
O O16 0.000000 0.000000 0.621984
O O17 0.000000 0.500000 0.016899
O O18 0.500000 0.761300 0.381096
O O19 0.649988 0.000000 0.374661
#
# Coordination Sequence:
#
# PCOD9357196 Si02
#       8
#     4   8   8   8   4   4   4   8
#     4  10  22  36  53  80 113 145 180 229 289 342
#     4  11  22  38  57  84 117 148 185 234 289 344
#     4  10  19  34  54  79 107 140 183 230 275 325
#     4   9  18  33  54  82 114 144 179 226 276 327
#     4  10  20  32  51  78 105 137 186 237 275 326
#     4   9  20  37  56  77 108 145 184 227 274 325
#     4  11  23  41  62  81 108 155 198 235 282 335
#     4   9  18  34  57  84 112 146 188 230 276 336
#
# _framework density 18.402435000000001
#
# number of rings (size 3 to 8) (size 9 to 14) (size 15 to 20)
#    0.000    2.167    1.667    2.750    0.000    4.000 
#    0.000    4.583    0.000    4.000    0.000    0.000 
#    0.000    0.000    0.000    0.000    0.000    0.000 
#
# Total GULP energy -133977.040399 kJ/mol
# GULP energy per Si atom -5582.376683 kJ/mol
# Density = 1.836055 g / cm^3
# Si number density = 18.402435 Si / 1000 Ang^3
#
#
#
# Elastic Constant Matrix: (Units=GPa)
#
#
# Indices 1 2 3 4 5 6 
#
# 1 159.6197 27.8784 105.5384 0.0000 0.0000 0.0000
# 2 27.8784 14.8609 25.7612 0.0000 0.0000 0.0000
# 3 105.5384 25.7612 190.4595 0.0000 0.0000 0.0000
# 4 0.0000 0.0000 0.0000 33.6051 0.0000 0.0000
# 5 0.0000 0.0000 0.0000 0.0000 32.2847 0.0000
# 6 0.0000 0.0000 0.0000 0.0000 0.0000 13.6021
#
#
#
# Elastic Compliance Matrix: (Units=1/GPa)
#
#
# Indices 1 2 3 4 5 6 
#
# 1 0.011782 -0.014089 -0.004623 0.000000 0.000000 0.000000
# 2 -0.014089 0.104748 -0.006361 0.000000 0.000000 0.000000
# 3 -0.004623 -0.006361 0.008673 0.000000 0.000000 0.000000
# 4 0.000000 0.000000 0.000000 0.029757 0.000000 0.000000
# 5 0.000000 0.000000 0.000000 0.000000 0.030974 0.000000
# 6 0.000000 0.000000 0.000000 0.000000 0.000000 0.073518
#
#
# Mechanical properties :
#
#
# Convention : Reuss Voigt Hill
#
# Bulk Modulus (GPa) = 13.32332 75.92179 44.62256
# Shear Modulus (GPa) = 14.94243 29.61586 22.27915
#
# Velocity S-wave (km/s) = 2.85262 4.01602 3.48323
# Velocity P-wave (km/s) = 4.25507 7.92783 6.36224
#
# Compressibility (1/GPa) = 0.07505634
#
# Stress axis : x y z
#
# Youngs Moduli (GPa) = 84.87178 9.54676 115.30408
#
# Poissons Ratio (x) = 0.13450 0.53309
# Poissons Ratio (y) = 1.19576 0.73344
# Poissons Ratio (z) = 0.39239 0.06073
#
# Static dielectric constant tensor:
#      x y z
#    x 1.619380 0.000000 0.000000 
#    y 0.000000 1.630580 0.000000 
#    z 0.000000 0.000000 1.622580 
# 
# From -- ./inp_files/24490.got.cif
#   From: 2010.05.17/outbox.cif.g08.bks.cpg/sg38_13_cif.got.tgz:24490.got - 2010.06.03 18:07:57.
