data_PCOD9357576
_publ_section_title
;
Structure prediction by ZEFSAII (Michael W. Deem and Ramdas Pophale) SiO2 
 PCOD9357576
Probable space group: A M M 2
;
_chemical_formula_sum "Si O2"
_cell_formula_units_Z 64
_cell_length_a 8.599042
_cell_length_b 30.878852
_cell_length_c 14.682725
_cell_angle_alpha 90.000000
_cell_angle_beta 90.000000
_cell_angle_gamma 90.000000
_cell_volume 3898.682610
_symmetry_space_group_name_H-M "A M M 2"
_symmetry_group_IT_number 38
_symmetry_cell_setting 'orthorhombic'
loop_
_space_group_symop_operation_xyz
x,y,z
-x,-y,z
-x,y,z
x,-y,z
x,1/2+y,1/2+z
-x,1/2-y,1/2+z
-x,1/2+y,1/2+z
x,1/2-y,1/2+z
loop_
_atom_site_type_symbol
_atom_site_label
_atom_site_fract_x
_atom_site_fract_y
_atom_site_fract_z
Si Si1 0.186538 0.048537 0.281530
Si Si2 0.814549 0.863605 0.186413
Si Si3 0.314353 0.450854 0.986197
Si Si4 0.815838 0.863492 0.522465
Si Si5 0.817263 0.723118 0.354231
Si Si6 0.316224 0.695487 0.539554
Si Si7 0.186794 0.719824 0.144373
Si Si8 0.680638 0.685273 0.856997
O O1 0.226778 0.087037 0.212275
O O2 0.264710 0.054402 0.380164
O O3 0.000000 0.050631 0.295878
O O4 0.225223 0.000000 0.248897
O O5 0.765395 0.844758 0.089580
O O6 0.726563 0.834006 0.259994
O O7 0.000000 0.858344 0.198394
O O8 0.500000 0.447102 0.992854
O O9 0.269011 0.500000 0.012356
O O10 0.234067 0.412534 0.042794
O O11 0.782196 0.826158 0.596161
O O12 0.719921 0.849736 0.433382
O O13 0.000000 0.862336 0.502704
O O14 0.729914 0.697839 0.433733
O O15 0.762617 0.717836 0.249896
O O16 0.787610 0.773482 0.376177
O O17 0.000000 0.713211 0.358435
O O18 0.500000 0.692277 0.549921
O O19 0.260696 0.739971 0.589713
O O20 0.000000 0.727030 0.143608
O O21 0.500000 0.697673 0.860115
#
# Coordination Sequence:
#
# PCOD9357576 Si02
#       8
#     8   8   8   8   8   8   8   8
#     4   9  18  32  51  74 100 133 172 212 256 307
#     4  11  21  34  52  74 104 142 177 213 257 309
#     4  10  20  32  48  73 105 138 171 211 259 307
#     4  11  21  34  52  75 102 139 178 212 257 311
#     4  11  22  38  55  72 101 138 177 217 261 308
#     4  12  24  35  52  76 104 137 176 218 257 304
#     4  10  22  37  55  74  99 135 175 215 259 309
#     4  12  22  31  48  76 107 138 176 216 255 303
#
# _framework density 16.415801999999999
#
# number of rings (size 3 to 8) (size 9 to 14) (size 15 to 20)
#    0.000    1.250    3.750    3.750    0.000    2.250 
#    0.000    0.000    0.000    0.000    0.000    0.875 
#    0.000    3.000    0.000    0.000    0.000    0.000 
#
# Total GULP energy -178647.990583 kJ/mol
# GULP energy per Si atom -5582.749706 kJ/mol
# Density = 1.637844 g / cm^3
# Si number density = 16.415802 Si / 1000 Ang^3
#
#
#
# Elastic Constant Matrix: (Units=GPa)
#
#
# Indices 1 2 3 4 5 6 
#
# 1 35.0640 13.0743 12.2060 0.0000 0.0000 0.0000
# 2 13.0743 75.7963 6.9031 0.0000 0.0000 0.0000
# 3 12.2060 6.9031 50.2984 0.0000 0.0000 0.0000
# 4 0.0000 0.0000 0.0000 23.6973 0.0000 0.0000
# 5 0.0000 0.0000 0.0000 0.0000 -6.0772 0.0000
# 6 0.0000 0.0000 0.0000 0.0000 0.0000 15.8978
#
#
#
# Elastic Compliance Matrix: (Units=1/GPa)
#
#
# Indices 1 2 3 4 5 6 
#
# 1 0.032932 -0.005015 -0.007303 0.000000 0.000000 0.000000
# 2 -0.005015 0.014124 -0.000721 0.000000 0.000000 0.000000
# 3 -0.007303 -0.000721 0.021753 0.000000 0.000000 0.000000
# 4 0.000000 0.000000 0.000000 0.042199 0.000000 0.000000
# 5 0.000000 0.000000 0.000000 0.000000 -0.164550 0.000000
# 6 0.000000 0.000000 0.000000 0.000000 0.000000 0.062902
#
#
# Mechanical properties :
#
#
# Convention : Reuss Voigt Hill
#
# Bulk Modulus (GPa) = 23.40359 25.05839 24.23099
# Shear Modulus (GPa) = 100.64186 15.30195 57.97190
#
# Velocity S-wave (km/s) = 7.83843 3.05642 5.94906
# Velocity P-wave (km/s) = 9.80862 5.26816 7.87282
#
# Compressibility (1/GPa) = 0.04272848
#
# Stress axis : x y z
#
# Youngs Moduli (GPa) = 30.36596 70.80120 45.97148
#
# Poissons Ratio (x) = 0.35509 0.33574
# Poissons Ratio (y) = 0.15229 0.03316
# Poissons Ratio (z) = 0.22177 0.05107
#
# Static dielectric constant tensor:
#      x y z
#    x 1.552350 0.000000 0.000000 
#    y 0.000000 1.570610 0.000000 
#    z 0.000000 0.000000 1.546880 
# 
# From -- ./inp_files/13044.got.cif
#   From: 2010.05.17/outbox.cif.g08.bks.cpg/sg38_7_cif.got.tgz:13044.got - 2010.06.03 18:07:57.
