data_PCOD9357257
_publ_section_title
;
Structure prediction by ZEFSAII (Michael W. Deem and Ramdas Pophale) SiO2 
 PCOD9357257
Probable space group: A M M 2
;
_chemical_formula_sum "Si O2"
_cell_formula_units_Z 32
_cell_length_a 10.215948
_cell_length_b 17.611729
_cell_length_c 9.062764
_cell_angle_alpha 90.000000
_cell_angle_beta 90.000000
_cell_angle_gamma 90.000000
_cell_volume 1630.577100
_symmetry_space_group_name_H-M "A M M 2"
_symmetry_group_IT_number 38
_symmetry_cell_setting 'orthorhombic'
loop_
_space_group_symop_operation_xyz
x,y,z
-x,-y,z
-x,y,z
x,-y,z
x,1/2+y,1/2+z
-x,1/2-y,1/2+z
-x,1/2+y,1/2+z
x,1/2-y,1/2+z
loop_
_atom_site_type_symbol
_atom_site_label
_atom_site_fract_x
_atom_site_fract_y
_atom_site_fract_z
Si Si1 0.643678 0.636336 0.435300
Si Si2 0.275831 0.246815 0.680428
Si Si3 0.158017 0.000000 0.555009
Si Si4 0.849321 0.656103 0.935327
Si Si5 0.840913 0.000000 0.906960
O O1 0.500000 0.599507 0.439994
O O2 0.648713 0.701803 0.561003
O O3 0.658534 0.680216 0.278131
O O4 0.761910 0.575801 0.457880
O O5 0.221861 0.303754 0.802150
O O6 0.164746 0.206832 0.581960
O O7 0.209749 0.075091 0.477653
O O8 0.177774 0.000000 0.729698
O O9 0.000000 0.000000 0.538043
O O10 0.000000 0.647440 0.895820
O O11 0.000000 0.000000 0.937847
#
# Coordination Sequence:
#
# PCOD9357257 Si02
#       5
#     8   8   4   8   4
#     4  11  23  42  64  89 125 165 205 251 305 362
#     4  10  22  36  59  90 120 161 207 249 298 365
#     4   9  18  34  55  82 120 156 191 243 300 357
#     4  10  19  34  56  86 125 160 198 251 306 356
#     4  11  23  40  63  92 124 160 205 253 306 367
#
# _framework density 19.624952
#
# number of rings (size 3 to 8) (size 9 to 14) (size 15 to 20)
#    0.000    1.750    2.500    1.875    0.000    6.000 
#    0.000    1.250    0.000    0.000    0.000    0.000 
#    0.000    0.000    0.000    0.000    0.000    0.000 
#
# Total GULP energy -89143.764871 kJ/mol
# GULP energy per Si atom -5571.485304 kJ/mol
# Density = 1.958029 g / cm^3
# Si number density = 19.624952 Si / 1000 Ang^3
#
#
#
# Elastic Constant Matrix: (Units=GPa)
#
#
# Indices 1 2 3 4 5 6 
#
# 1 93.1035 31.5891 10.1139 0.0000 0.0000 0.0000
# 2 31.5891 107.1110 21.7295 0.0000 0.0000 0.0000
# 3 10.1139 21.7295 80.5250 0.0000 0.0000 0.0000
# 4 0.0000 0.0000 0.0000 29.6206 0.0000 0.0000
# 5 0.0000 0.0000 0.0000 0.0000 -1.5295 0.0000
# 6 0.0000 0.0000 0.0000 0.0000 0.0000 3.8818
#
#
#
# Elastic Compliance Matrix: (Units=1/GPa)
#
#
# Indices 1 2 3 4 5 6 
#
# 1 0.011961 -0.003409 -0.000582 0.000000 0.000000 0.000000
# 2 -0.003409 0.010849 -0.002499 0.000000 0.000000 0.000000
# 3 -0.000582 -0.002499 0.013166 0.000000 0.000000 0.000000
# 4 0.000000 0.000000 0.000000 0.033760 0.000000 0.000000
# 5 0.000000 0.000000 0.000000 0.000000 -0.653792 0.000000
# 6 0.000000 0.000000 0.000000 0.000000 0.000000 0.257614
#
#
# Mechanical properties :
#
#
# Convention : Reuss Voigt Hill
#
# Bulk Modulus (GPa) = 43.49017 45.28938 44.38977
# Shear Modulus (GPa) = -16.35075 20.88171 2.26548
#
# Velocity S-wave (km/s) = -2.88959 3.26550 1.07559
# Velocity P-wave (km/s) = 3.32804 6.11110 4.92043
#
# Compressibility (1/GPa) = 0.02299370
#
# Stress axis : x y z
#
# Youngs Moduli (GPa) = 83.60686 92.17776 75.95289
#
# Poissons Ratio (x) = 0.31426 0.04422
# Poissons Ratio (y) = 0.28504 0.18983
# Poissons Ratio (z) = 0.04868 0.23038
#
# Static dielectric constant tensor:
#      x y z
#    x 1.698940 0.000000 0.000000 
#    y 0.000000 1.721170 0.000000 
#    z 0.000000 0.000000 1.663840 
# 
# From -- ./inp_files/3079.got.cif
#   From: 2010.05.17/outbox.cif.g08.bks.cpg/sg38_2_cif.got.tgz:3079.got - 2010.06.03 18:07:57.
