data_PCOD9357499
_publ_section_title
;
Structure prediction by ZEFSAII (Michael W. Deem and Ramdas Pophale) SiO2 
 PCOD9357499
Probable space group: A M M 2
;
_chemical_formula_sum "Si O2"
_cell_formula_units_Z 64
_cell_length_a 13.735072
_cell_length_b 30.674440
_cell_length_c 9.104053
_cell_angle_alpha 90.000000
_cell_angle_beta 90.000000
_cell_angle_gamma 90.000000
_cell_volume 3835.679934
_symmetry_space_group_name_H-M "A M M 2"
_symmetry_group_IT_number 38
_symmetry_cell_setting 'orthorhombic'
loop_
_space_group_symop_operation_xyz
x,y,z
-x,-y,z
-x,y,z
x,-y,z
x,1/2+y,1/2+z
-x,1/2-y,1/2+z
-x,1/2+y,1/2+z
x,1/2-y,1/2+z
loop_
_atom_site_type_symbol
_atom_site_label
_atom_site_fract_x
_atom_site_fract_y
_atom_site_fract_z
Si Si1 0.792703 0.628864 0.438770
Si Si2 0.117702 0.048927 0.436309
Si Si3 0.610853 0.236744 0.148211
Si Si4 0.114381 0.448275 0.590897
Si Si5 0.883423 0.369367 0.122717
Si Si6 0.886857 0.219143 0.468703
Si Si7 0.189555 0.296268 0.656484
Si Si8 0.610657 0.186495 0.848580
O O1 0.811278 0.579984 0.494846
O O2 0.854771 0.633790 0.291471
O O3 0.829097 0.658703 0.574140
O O4 0.687737 0.649424 0.394128
O O5 0.135323 0.058430 0.264307
O O6 0.154530 0.087098 0.542169
O O7 0.000000 0.047603 0.450473
O O8 0.153588 0.000000 0.470716
O O9 0.500000 0.227271 0.198350
O O10 0.698753 0.207631 0.210426
O O11 0.631550 0.286278 0.199820
O O12 0.612995 0.223614 0.976511
O O13 0.121611 0.500000 0.562332
O O14 0.000000 0.435867 0.563783
O O15 0.851154 0.325808 0.039800
O O16 0.000000 0.370478 0.110761
O O17 0.827433 0.259211 0.534217
O O18 0.876449 0.214341 0.294818
O O19 0.000000 0.225871 0.507176
O O20 0.500000 0.169596 0.842475
#
# Coordination Sequence:
#
# PCOD9357499 Si02
#       8
#     8   8   8   8   8   8   8   8
#     4  11  21  31  48  72  98 124 155 200 246 291
#     4   8  15  30  50  69  91 120 154 194 238 281
#     4   9  17  31  50  69  89 117 155 201 248 284
#     4   9  18  33  52  73  97 126 161 200 243 291
#     4  10  20  31  44  66  95 126 159 192 233 286
#     4  11  22  33  44  61  92 132 167 194 224 277
#     4  11  21  33  48  67  92 125 164 201 240 287
#     4   9  18  32  50  71  96 127 163 203 245 290
#
# _framework density 16.685438999999999
#
# number of rings (size 3 to 8) (size 9 to 14) (size 15 to 20)
#    0.000    2.250    0.000    5.250    0.000    4.500 
#    0.000    1.250    0.000    0.375    0.000    0.000 
#    0.000    1.000    0.000    0.000    0.000    0.000 
#
# Total GULP energy -178228.712799 kJ/mol
# GULP energy per Si atom -5569.647275 kJ/mol
# Density = 1.664746 g / cm^3
# Si number density = 16.685439 Si / 1000 Ang^3
#
#
#
# Elastic Constant Matrix: (Units=GPa)
#
#
# Indices 1 2 3 4 5 6 
#
# 1 39.7772 29.9106 9.0545 0.0000 0.0000 0.0000
# 2 29.9106 68.2996 25.5798 0.0000 0.0000 0.0000
# 3 9.0545 25.5798 40.1033 0.0000 0.0000 0.0000
# 4 0.0000 0.0000 0.0000 30.1617 0.0000 0.0000
# 5 0.0000 0.0000 0.0000 0.0000 14.0935 0.0000
# 6 0.0000 0.0000 0.0000 0.0000 0.0000 19.6016
#
#
#
# Elastic Compliance Matrix: (Units=1/GPa)
#
#
# Indices 1 2 3 4 5 6 
#
# 1 0.037697 -0.017502 0.002652 0.000000 0.000000 0.000000
# 2 -0.017502 0.027363 -0.013502 0.000000 0.000000 0.000000
# 3 0.002652 -0.013502 0.032949 0.000000 0.000000 0.000000
# 4 0.000000 0.000000 0.000000 0.033155 0.000000 0.000000
# 5 0.000000 0.000000 0.000000 0.000000 0.070955 0.000000
# 6 0.000000 0.000000 0.000000 0.000000 0.000000 0.051016
#
#
# Mechanical properties :
#
#
# Convention : Reuss Voigt Hill
#
# Bulk Modulus (GPa) = 24.20962 30.80778 27.50870
# Shear Modulus (GPa) = 15.45090 18.34704 16.89897
#
# Velocity S-wave (km/s) = 3.04634 3.31959 3.18590
# Velocity P-wave (km/s) = 5.18792 5.76167 5.48231
#
# Compressibility (1/GPa) = 0.04130589
#
# Stress axis : x y z
#
# Youngs Moduli (GPa) = 26.52726 36.54591 30.35017
#
# Poissons Ratio (x) = 0.63963 -0.08050
# Poissons Ratio (y) = 0.46429 0.40978
# Poissons Ratio (z) = -0.07036 0.49343
#
# Static dielectric constant tensor:
#      x y z
#    x 1.574920 0.000000 0.000000 
#    y 0.000000 1.571810 0.000000 
#    z 0.000000 0.000000 1.582210 
# 
# From -- ./inp_files/6004.got.cif
#   From: 2010.05.17/outbox.cif.g08.bks.cpg/sg38_4_cif.got.tgz:6004.got - 2010.06.03 18:07:57.
