data_PCOD9357328
_publ_section_title
;
Structure prediction by ZEFSAII (Michael W. Deem and Ramdas Pophale) SiO2 
 PCOD9357328
Probable space group: A M M 2
;
_chemical_formula_sum "Si O2"
_cell_formula_units_Z 48
_cell_length_a 9.057779
_cell_length_b 25.467751
_cell_length_c 12.524775
_cell_angle_alpha 90.000000
_cell_angle_beta 90.000000
_cell_angle_gamma 90.000000
_cell_volume 2889.230881
_symmetry_space_group_name_H-M "A M M 2"
_symmetry_group_IT_number 38
_symmetry_cell_setting 'orthorhombic'
loop_
_space_group_symop_operation_xyz
x,y,z
-x,-y,z
-x,y,z
x,-y,z
x,1/2+y,1/2+z
-x,1/2-y,1/2+z
-x,1/2+y,1/2+z
x,1/2-y,1/2+z
loop_
_atom_site_type_symbol
_atom_site_label
_atom_site_fract_x
_atom_site_fract_y
_atom_site_fract_z
Si Si1 0.675570 0.666533 0.790260
Si Si2 0.324313 0.561966 0.174655
Si Si3 0.177687 0.152242 0.062159
Si Si4 0.172413 0.756175 0.433462
Si Si5 0.827350 0.630924 0.993834
Si Si6 0.176442 0.439161 0.400143
O O1 0.500000 0.663766 0.791646
O O2 0.741069 0.655408 0.674621
O O3 0.731753 0.723344 0.833967
O O4 0.746079 0.627475 0.879137
O O5 0.500000 0.569375 0.173668
O O6 0.293285 0.500000 0.156246
O O7 0.248997 0.596875 0.084011
O O8 0.258971 0.575134 0.290904
O O9 0.000000 0.153915 0.079225
O O10 0.216974 0.202655 0.989512
O O11 0.214270 0.100065 0.995618
O O12 0.182737 0.806016 0.514351
O O13 0.000000 0.752277 0.401192
O O14 0.000000 0.617726 0.984245
O O15 0.210102 0.500000 0.425268
O O16 0.000000 0.434965 0.381690
#
# Coordination Sequence:
#
# PCOD9357328 Si02
#       6
#     8   8   8   8   8   8
#     4  10  20  34  52  77 110 139 173 222 269 317
#     4  10  20  34  54  80 111 143 174 218 273 321
#     4  10  19  35  57  78 106 144 181 218 264 319
#     4   8  18  34  52  75 103 140 177 214 260 314
#     4   9  18  35  55  76 104 141 180 219 259 310
#     4   9  19  35  55  79 105 138 183 227 262 309
#
# _framework density 16.613416000000001
#
# number of rings (size 3 to 8) (size 9 to 14) (size 15 to 20)
#    1.000    1.667    0.000    2.000    0.000    3.667 
#    0.000    7.500    0.000    3.000    0.000    0.000 
#    0.000    0.000    0.000    0.000    0.000    0.000 
#
# Total GULP energy -133606.727898 kJ/mol
# GULP energy per Si atom -5566.946996 kJ/mol
# Density = 1.657560 g / cm^3
# Si number density = 16.613416 Si / 1000 Ang^3
#
#
#
# Elastic Constant Matrix: (Units=GPa)
#
#
# Indices 1 2 3 4 5 6 
#
# 1 82.8415 57.3950 81.6083 0.0000 0.0000 0.0000
# 2 57.3950 79.1778 84.9771 0.0000 0.0000 0.0000
# 3 81.6083 84.9771 151.7050 0.0000 0.0000 0.0000
# 4 0.0000 0.0000 0.0000 27.7143 0.0000 0.0000
# 5 0.0000 0.0000 0.0000 0.0000 -12.6491 0.0000
# 6 0.0000 0.0000 0.0000 0.0000 0.0000 15.1369
#
#
#
# Elastic Compliance Matrix: (Units=1/GPa)
#
#
# Indices 1 2 3 4 5 6 
#
# 1 0.028886 -0.010686 -0.009553 0.000000 0.000000 0.000000
# 2 -0.010686 0.035621 -0.014204 0.000000 0.000000 0.000000
# 3 -0.009553 -0.014204 0.019687 0.000000 0.000000 0.000000
# 4 0.000000 0.000000 0.000000 0.036083 0.000000 0.000000
# 5 0.000000 0.000000 0.000000 0.000000 -0.079057 0.000000
# 6 0.000000 0.000000 0.000000 0.000000 0.000000 0.066064
#
#
# Mechanical properties :
#
#
# Convention : Reuss Voigt Hill
#
# Bulk Modulus (GPa) = 65.33100 84.63167 74.98134
# Shear Modulus (GPa) = 27.58274 12.02332 19.80303
#
# Velocity S-wave (km/s) = 4.07906 2.69311 3.45627
# Velocity P-wave (km/s) = 7.84822 7.79248 7.82040
#
# Compressibility (1/GPa) = 0.01530667
#
# Stress axis : x y z
#
# Youngs Moduli (GPa) = 34.61911 28.07340 50.79465
#
# Poissons Ratio (x) = 0.30000 0.48524
# Poissons Ratio (y) = 0.36995 0.72150
# Poissons Ratio (z) = 0.33071 0.39876
#
# Static dielectric constant tensor:
#      x y z
#    x 1.551210 0.000000 0.000000 
#    y 0.000000 1.564800 0.000000 
#    z 0.000000 0.000000 1.527930 
# 
# From -- ./inp_files/12545.got.cif
#   From: 2010.05.17/outbox.cif.g08.bks.cpg/sg38_7_cif.got.tgz:12545.got - 2010.06.03 18:07:57.
