data_PCOD9357321
_publ_section_title
;
Structure prediction by ZEFSAII (Michael W. Deem and Ramdas Pophale) SiO2 
 PCOD9357321
Probable space group: A M M 2
;
_chemical_formula_sum "Si O2"
_cell_formula_units_Z 48
_cell_length_a 10.595934
_cell_length_b 8.460574
_cell_length_c 29.118617
_cell_angle_alpha 90.000000
_cell_angle_beta 90.000000
_cell_angle_gamma 90.000000
_cell_volume 2610.416567
_symmetry_space_group_name_H-M "A M M 2"
_symmetry_group_IT_number 38
_symmetry_cell_setting 'orthorhombic'
loop_
_space_group_symop_operation_xyz
x,y,z
-x,-y,z
-x,y,z
x,-y,z
x,1/2+y,1/2+z
-x,1/2-y,1/2+z
-x,1/2+y,1/2+z
x,1/2-y,1/2+z
loop_
_atom_site_type_symbol
_atom_site_label
_atom_site_fract_x
_atom_site_fract_y
_atom_site_fract_z
Si Si1 0.352850 0.809446 0.141550
Si Si2 0.500000 0.690781 0.791469
Si Si3 0.000000 0.193241 0.895100
Si Si4 0.500000 0.808980 0.895016
Si Si5 0.000000 0.189169 0.788816
Si Si6 0.645697 0.188623 0.541256
Si Si7 0.248416 0.191326 0.237623
Si Si8 0.250239 0.809292 0.948821
O O1 0.500000 0.765220 0.150074
O O2 0.315759 0.742060 0.092174
O O3 0.268834 0.758438 0.184758
O O4 0.349007 0.000000 0.139217
O O5 0.500000 0.500000 0.791174
O O6 0.500000 0.750830 0.843155
O O7 0.373451 0.742475 0.765307
O O8 0.124854 0.244585 0.922467
O O9 0.000000 0.245326 0.841981
O O10 0.000000 0.000000 0.894609
O O11 0.374569 0.754677 0.921360
O O12 0.500000 0.000000 0.895125
O O13 0.875944 0.246483 0.762203
O O14 0.000000 0.000000 0.789848
O O15 0.500000 0.245873 0.534116
O O16 0.733105 0.253915 0.500952
O O17 0.644531 0.000000 0.539173
O O18 0.244769 0.000000 0.238082
O O19 0.249645 0.000000 0.948556
#
# Coordination Sequence:
#
# PCOD9357321 Si02
#       8
#     8   4   4   4   4   8   8   8
#     4   9  17  33  58  83 109 143 183 223 268 326
#     4  10  20  34  55  82 111 141 180 235 287 328
#     4   9  20  37  56  77 106 143 186 229 268 315
#     4  10  20  32  51  78 107 141 184 229 273 328
#     4  11  23  39  58  81 114 153 188 231 282 331
#     4  10  20  33  52  82 116 141 171 223 282 330
#     4  10  20  37  58  83 112 146 188 231 276 332
#     4  10  19  35  56  77 103 142 187 226 266 321
#
# _framework density 18.387868000000001
#
# number of rings (size 3 to 8) (size 9 to 14) (size 15 to 20)
#    0.000    2.167    1.667    1.750    0.000    4.000 
#    0.000    2.917    0.000    2.000    0.000    0.000 
#    0.000    0.000    0.000    0.000    0.000    0.000 
#
# Total GULP energy -133970.190638 kJ/mol
# GULP energy per Si atom -5582.091277 kJ/mol
# Density = 1.834602 g / cm^3
# Si number density = 18.387868 Si / 1000 Ang^3
#
#
#
# Elastic Constant Matrix: (Units=GPa)
#
#
# Indices 1 2 3 4 5 6 
#
# 1 158.2786 25.1829 107.7762 0.0000 0.0000 0.0000
# 2 25.1829 9.7878 25.6698 0.0000 0.0000 0.0000
# 3 107.7762 25.6698 201.0293 0.0000 0.0000 0.0000
# 4 0.0000 0.0000 0.0000 32.0162 0.0000 0.0000
# 5 0.0000 0.0000 0.0000 0.0000 33.1743 0.0000
# 6 0.0000 0.0000 0.0000 0.0000 0.0000 9.0444
#
#
#
# Elastic Compliance Matrix: (Units=1/GPa)
#
#
# Indices 1 2 3 4 5 6 
#
# 1 0.012428 -0.021803 -0.003879 0.000000 0.000000 0.000000
# 2 -0.021803 0.191860 -0.012810 0.000000 0.000000 0.000000
# 3 -0.003879 -0.012810 0.008690 0.000000 0.000000 0.000000
# 4 0.000000 0.000000 0.000000 0.031234 0.000000 0.000000
# 5 0.000000 0.000000 0.000000 0.000000 0.030144 0.000000
# 6 0.000000 0.000000 0.000000 0.000000 0.000000 0.110565
#
#
# Mechanical properties :
#
#
# Convention : Reuss Voigt Hill
#
# Bulk Modulus (GPa) = 7.35328 76.26150 41.80739
# Shear Modulus (GPa) = 9.85734 28.87810 19.36772
#
# Velocity S-wave (km/s) = 2.31785 3.96725 3.24896
# Velocity P-wave (km/s) = 3.34229 7.90881 6.07125
#
# Compressibility (1/GPa) = 0.13599372
#
# Stress axis : x y z
#
# Youngs Moduli (GPa) = 80.46163 5.21214 115.07900
#
# Poissons Ratio (x) = 0.11364 0.44639
# Poissons Ratio (y) = 1.75433 1.47412
# Poissons Ratio (z) = 0.31211 0.06677
#
# Static dielectric constant tensor:
#      x y z
#    x 1.618780 0.000000 0.000000 
#    y 0.000000 1.631590 0.000000 
#    z 0.000000 0.000000 1.617560 
# 
# From -- ./inp_files/24484.got.cif
#   From: 2010.05.17/outbox.cif.g08.bks.cpg/sg38_13_cif.got.tgz:24484.got - 2010.06.03 18:07:57.
