data_PCOD9357324
_publ_section_title
;
Structure prediction by ZEFSAII (Michael W. Deem and Ramdas Pophale) SiO2 
 PCOD9357324
Probable space group: A M M 2
;
_chemical_formula_sum "Si O2"
_cell_formula_units_Z 48
_cell_length_a 8.792326
_cell_length_b 16.942356
_cell_length_c 18.895873
_cell_angle_alpha 90.000000
_cell_angle_beta 90.000000
_cell_angle_gamma 90.000000
_cell_volume 2814.780585
_symmetry_space_group_name_H-M "A M M 2"
_symmetry_group_IT_number 38
_symmetry_cell_setting 'orthorhombic'
loop_
_space_group_symop_operation_xyz
x,y,z
-x,-y,z
-x,y,z
x,-y,z
x,1/2+y,1/2+z
-x,1/2-y,1/2+z
-x,1/2+y,1/2+z
x,1/2-y,1/2+z
loop_
_atom_site_type_symbol
_atom_site_label
_atom_site_fract_x
_atom_site_fract_y
_atom_site_fract_z
Si Si1 0.682135 0.667060 0.349930
Si Si2 0.816758 0.090263 0.292402
Si Si3 0.817980 0.500000 0.155336
Si Si4 0.817399 0.811371 0.431247
Si Si5 0.316998 0.656538 0.084623
Si Si6 0.818567 0.000000 0.823128
Si Si7 0.317752 0.267205 0.710566
O O1 0.500000 0.666475 0.356606
O O2 0.754755 0.726828 0.406082
O O3 0.747667 0.579538 0.354435
O O4 0.721087 0.704592 0.272888
O O5 0.773086 0.127234 0.368741
O O6 0.754977 0.150134 0.233320
O O7 0.000000 0.090870 0.289452
O O8 0.764365 0.000000 0.285141
O O9 0.747189 0.422718 0.119781
O O10 0.784500 0.500000 0.239002
O O11 0.000000 0.500000 0.146034
O O12 0.747824 0.834054 0.506276
O O13 0.000000 0.810030 0.435307
O O14 0.500000 0.653154 0.083098
O O15 0.271558 0.729254 0.136020
O O16 0.000000 0.000000 0.832008
O O17 0.500000 0.276005 0.710888
#
# Coordination Sequence:
#
# PCOD9357324 Si02
#       7
#     8   8   4   8   8   4   8
#     4  10  19  35  56  79 109 146 184 224 273 323
#     4   9  19  35  55  79 107 138 176 222 269 318
#     4  11  23  35  53  83 115 146 179 220 275 329
#     4  10  21  36  55  80 112 146 181 222 273 330
#     4  11  22  37  55  80 113 146 182 223 273 329
#     4  11  21  33  55  85 113 140 181 228 273 327
#     4   9  19  34  54  78 106 140 180 223 266 319
#
# _framework density 17.052838999999999
#
# number of rings (size 3 to 8) (size 9 to 14) (size 15 to 20)
#    0.000    2.000    1.667    2.000    1.167    3.667 
#    0.000    0.000    1.833    0.000    0.000    0.000 
#    0.000    0.000    0.000    0.000    0.000    0.000 
#
# Total GULP energy -133976.280334 kJ/mol
# GULP energy per Si atom -5582.345014 kJ/mol
# Density = 1.701403 g / cm^3
# Si number density = 17.052839 Si / 1000 Ang^3
#
#
#
# Elastic Constant Matrix: (Units=GPa)
#
#
# Indices 1 2 3 4 5 6 
#
# 1 40.6963 41.0016 29.1165 0.0000 0.0000 0.0000
# 2 41.0016 165.3109 51.6278 0.0000 0.0000 0.0000
# 3 29.1165 51.6278 76.7807 0.0000 0.0000 0.0000
# 4 0.0000 0.0000 0.0000 19.3546 0.0000 0.0000
# 5 0.0000 0.0000 0.0000 0.0000 26.4703 0.0000
# 6 0.0000 0.0000 0.0000 0.0000 0.0000 32.8599
#
#
#
# Elastic Compliance Matrix: (Units=1/GPa)
#
#
# Indices 1 2 3 4 5 6 
#
# 1 0.038255 -0.006275 -0.010287 0.000000 0.000000 0.000000
# 2 -0.006275 0.008687 -0.003461 0.000000 0.000000 0.000000
# 3 -0.010287 -0.003461 0.019252 0.000000 0.000000 0.000000
# 4 0.000000 0.000000 0.000000 0.051667 0.000000 0.000000
# 5 0.000000 0.000000 0.000000 0.000000 0.037778 0.000000
# 6 0.000000 0.000000 0.000000 0.000000 0.000000 0.030432
#
#
# Mechanical properties :
#
#
# Convention : Reuss Voigt Hill
#
# Bulk Modulus (GPa) = 38.24632 58.47551 48.36092
# Shear Modulus (GPa) = 21.29155 26.47311 23.88233
#
# Velocity S-wave (km/s) = 3.53734 3.94435 3.74637
# Velocity P-wave (km/s) = 6.25783 7.42355 6.86548
#
# Compressibility (1/GPa) = 0.02614630
#
# Stress axis : x y z
#
# Youngs Moduli (GPa) = 26.14044 115.11909 51.94134
#
# Poissons Ratio (x) = 0.72243 0.53433
# Poissons Ratio (y) = 0.16404 0.17978
# Poissons Ratio (z) = 0.26891 0.39845
#
# Static dielectric constant tensor:
#      x y z
#    x 1.569020 0.000000 0.000000 
#    y 0.000000 1.563920 0.000000 
#    z 0.000000 0.000000 1.558500 
# 
# From -- ./inp_files/16662.got.cif
#   From: 2010.05.17/outbox.cif.g08.bks.cpg/sg38_9_cif.got.tgz:16662.got - 2010.06.03 18:07:57.
