data_PCOD9357610
_publ_section_title
;
Structure prediction by ZEFSAII (Michael W. Deem and Ramdas Pophale) SiO2 
 PCOD9357610
Probable space group: A M M 2
;
_chemical_formula_sum "Si O2"
_cell_formula_units_Z 48
_cell_length_a 7.825155
_cell_length_b 33.078548
_cell_length_c 8.841705
_cell_angle_alpha 90.000000
_cell_angle_beta 90.000000
_cell_angle_gamma 90.000000
_cell_volume 2288.629055
_symmetry_space_group_name_H-M "A M M 2"
_symmetry_group_IT_number 38
_symmetry_cell_setting 'orthorhombic'
loop_
_space_group_symop_operation_xyz
x,y,z
-x,-y,z
-x,y,z
x,-y,z
x,1/2+y,1/2+z
-x,1/2-y,1/2+z
-x,1/2+y,1/2+z
x,1/2-y,1/2+z
loop_
_atom_site_type_symbol
_atom_site_label
_atom_site_fract_x
_atom_site_fract_y
_atom_site_fract_z
Si Si1 0.794560 0.956405 0.961520
Si Si2 0.301528 0.794129 0.782477
Si Si3 0.792163 0.043510 0.321407
Si Si4 0.802733 0.785320 0.446867
Si Si5 0.199642 0.369314 0.824058
Si Si6 0.298976 0.869362 0.977618
O O1 0.000000 0.955191 0.948046
O O2 0.735802 0.000000 0.898905
O O3 0.753918 0.956967 0.141436
O O4 0.725371 0.913693 0.904807
O O5 0.500000 0.801700 0.745309
O O6 0.205573 0.786604 0.626898
O O7 0.288611 0.754298 0.884684
O O8 0.234948 0.833068 0.873192
O O9 0.728102 0.087152 0.377427
O O10 0.000000 0.043960 0.333855
O O11 0.733070 0.000000 0.384259
O O12 0.726301 0.827596 0.386215
O O13 0.000000 0.782553 0.395595
O O14 0.211204 0.368761 0.641821
O O15 0.000000 0.369231 0.868427
O O16 0.500000 0.862861 0.004971
#
# Coordination Sequence:
#
# PCOD9357610 Si02
#       6
#     8   8   8   8   8   8
#     4   8  14  26  46  72 102 136 172 212 257 300
#     4  11  24  40  56  76 106 141 174 213 268 327
#     4   7  10  20  41  68  97 128 160 196 243 297
#     4  11  23  38  58  81 103 133 177 225 267 311
#     4   9  18  32  51  77 106 134 169 216 264 306
#     4  10  20  32  50  77 106 139 176 212 255 310
#
# _framework density 20.973255000000002
#
# number of rings (size 3 to 8) (size 9 to 14) (size 15 to 20)
#    0.000    2.667    0.000    4.500    0.000    7.000 
#    0.000    0.000    0.000    1.000    0.000    2.333 
#    0.000    0.000    0.000    0.000    0.000    0.000 
#
# Total GULP energy -133772.136925 kJ/mol
# GULP energy per Si atom -5573.839039 kJ/mol
# Density = 2.092552 g / cm^3
# Si number density = 20.973255 Si / 1000 Ang^3
#
#
#
# Elastic Constant Matrix: (Units=GPa)
#
#
# Indices 1 2 3 4 5 6 
#
# 1 25.6352 -0.7023 -10.3659 0.0000 0.0000 0.0000
# 2 -0.7023 220.8293 49.7983 0.0000 0.0000 0.0000
# 3 -10.3659 49.7983 36.6572 0.0000 0.0000 0.0000
# 4 0.0000 0.0000 0.0000 25.8818 0.0000 0.0000
# 5 0.0000 0.0000 0.0000 0.0000 20.0803 0.0000
# 6 0.0000 0.0000 0.0000 0.0000 0.0000 8.4398
#
#
#
# Elastic Compliance Matrix: (Units=1/GPa)
#
#
# Indices 1 2 3 4 5 6 
#
# 1 0.046435 -0.004056 0.018641 0.000000 0.000000 0.000000
# 2 -0.004056 0.006883 -0.010497 0.000000 0.000000 0.000000
# 3 0.018641 -0.010497 0.046811 0.000000 0.000000 0.000000
# 4 0.000000 0.000000 0.000000 0.038637 0.000000 0.000000
# 5 0.000000 0.000000 0.000000 0.000000 0.049800 0.000000
# 6 0.000000 0.000000 0.000000 0.000000 0.000000 0.118486
#
#
# Mechanical properties :
#
#
# Convention : Reuss Voigt Hill
#
# Bulk Modulus (GPa) = 9.23317 40.06464 24.64891
# Shear Modulus (GPa) = 14.92637 27.17316 21.04977
#
# Velocity S-wave (km/s) = 2.67064 3.60336 3.17148
# Velocity P-wave (km/s) = 3.73117 6.03792 5.01887
#
# Compressibility (1/GPa) = 0.10830521
#
# Stress axis : x y z
#
# Youngs Moduli (GPa) = 21.53529 145.29426 21.36254
#
# Poissons Ratio (x) = 0.58931 -0.39822
# Poissons Ratio (y) = 0.08735 0.22424
# Poissons Ratio (z) = -0.40144 1.52513
#
# Static dielectric constant tensor:
#      x y z
#    x 1.749000 0.000000 0.000000 
#    y 0.000000 1.832300 0.000000 
#    z 0.000000 0.000000 1.709270 
# 
# From -- ./inp_files/3798.got.cif
#   From: 2010.05.17/outbox.cif.g08.bks.cpg/sg38_2_cif.got.tgz:3798.got - 2010.06.03 18:07:57.
