data_PCOD9357619
_publ_section_title
;
Structure prediction by ZEFSAII (Michael W. Deem and Ramdas Pophale) SiO2 
 PCOD9357619
Probable space group: A M M 2
;
_chemical_formula_sum "Si O2"
_cell_formula_units_Z 40
_cell_length_a 7.539172
_cell_length_b 7.859003
_cell_length_c 30.947453
_cell_angle_alpha 90.000000
_cell_angle_beta 90.000000
_cell_angle_gamma 90.000000
_cell_volume 1833.648207
_symmetry_space_group_name_H-M "A M M 2"
_symmetry_group_IT_number 38
_symmetry_cell_setting 'orthorhombic'
loop_
_space_group_symop_operation_xyz
x,y,z
-x,-y,z
-x,y,z
x,-y,z
x,1/2+y,1/2+z
-x,1/2-y,1/2+z
-x,1/2+y,1/2+z
x,1/2-y,1/2+z
loop_
_atom_site_type_symbol
_atom_site_label
_atom_site_fract_x
_atom_site_fract_y
_atom_site_fract_z
Si Si1 0.207826 0.308247 0.699200
Si Si2 0.212086 0.000000 0.643394
Si Si3 0.297000 0.295765 0.794985
Si Si4 0.286595 0.500000 0.042323
Si Si5 0.702481 0.296277 0.386952
Si Si6 0.282456 0.803520 0.981259
O O1 0.284793 0.500000 0.696554
O O2 0.219938 0.244773 0.748798
O O3 0.000000 0.324365 0.689272
O O4 0.284459 0.169049 0.666755
O O5 0.240130 0.000000 0.592446
O O6 0.000000 0.000000 0.651090
O O7 0.500000 0.232044 0.795234
O O8 0.296508 0.500000 0.794805
O O9 0.213018 0.244570 0.840736
O O10 0.500000 0.500000 0.039271
O O11 0.225126 0.669490 0.017275
O O12 0.500000 0.226553 0.384998
O O13 0.692728 0.500000 0.389800
O O14 0.778001 0.244183 0.433368
O O15 0.500000 0.804479 0.979784
O O16 0.228540 0.000000 0.988915
#
# Coordination Sequence:
#
# PCOD9357619 Si02
#       6
#     8   4   8   4   8   8
#     4   9  19  36  53  68  93 129 164 196 238 294
#     4  10  22  38  54  72  94 126 166 204 247 296
#     4   9  17  27  44  73 101 125 158 199 239 276
#     4  10  20  32  52  78  96 122 164 206 247 284
#     4   8  14  24  40  66  99 132 159 187 231 284
#     4   8  15  28  45  69 102 131 157 193 237 287
#
# _framework density 21.814433999999999
#
# number of rings (size 3 to 8) (size 9 to 14) (size 15 to 20)
#    0.000    3.200    0.000    1.200    2.800    1.600 
#    0.000    0.000    0.000    1.200    0.000    2.800 
#    0.000    0.000    0.000    0.000    0.000    0.000 
#
# Total GULP energy -111481.084491 kJ/mol
# GULP energy per Si atom -5574.054225 kJ/mol
# Density = 2.176478 g / cm^3
# Si number density = 21.814434 Si / 1000 Ang^3
#
#
#
# Elastic Constant Matrix: (Units=GPa)
#
#
# Indices 1 2 3 4 5 6 
#
# 1 50.2848 8.1859 -1.5516 0.0000 0.0000 0.0000
# 2 8.1859 110.0104 107.9859 0.0000 0.0000 0.0000
# 3 -1.5516 107.9859 217.5210 0.0000 0.0000 0.0000
# 4 0.0000 0.0000 0.0000 42.6534 0.0000 0.0000
# 5 0.0000 0.0000 0.0000 0.0000 35.4799 0.0000
# 6 0.0000 0.0000 0.0000 0.0000 0.0000 -10.0738
#
#
#
# Elastic Compliance Matrix: (Units=1/GPa)
#
#
# Indices 1 2 3 4 5 6 
#
# 1 0.020470 -0.003251 0.001760 0.000000 0.000000 0.000000
# 2 -0.003251 0.018246 -0.009081 0.000000 0.000000 0.000000
# 3 0.001760 -0.009081 0.009118 0.000000 0.000000 0.000000
# 4 0.000000 0.000000 0.000000 0.023445 0.000000 0.000000
# 5 0.000000 0.000000 0.000000 0.000000 0.028185 0.000000
# 6 0.000000 0.000000 0.000000 0.000000 0.000000 -0.099268
#
#
# Mechanical properties :
#
#
# Convention : Reuss Voigt Hill
#
# Bulk Modulus (GPa) = 37.46691 67.45074 52.45883
# Shear Modulus (GPa) = 165.35952 31.15832 98.25892
#
# Velocity S-wave (km/s) = 8.71593 3.78343 6.71869
# Velocity P-wave (km/s) = 10.88588 7.07624 9.18084
#
# Compressibility (1/GPa) = 0.02669022
#
# Stress axis : x y z
#
# Youngs Moduli (GPa) = 48.85154 54.80646 109.67214
#
# Poissons Ratio (x) = 0.17815 -0.19299
# Poissons Ratio (y) = 0.15879 0.99596
# Poissons Ratio (z) = -0.08596 0.49771
#
# Static dielectric constant tensor:
#      x y z
#    x 1.833310 0.000000 0.000000 
#    y 0.000000 1.797670 0.000000 
#    z 0.000000 0.000000 1.791660 
# 
# From -- ./inp_files/23196.got.cif
#   From: 2010.05.17/outbox.cif.g08.bks.cpg/sg38_12_cif.got.tgz:23196.got - 2010.06.03 18:07:57.
