data_PCOD9357415
_publ_section_title
;
Structure prediction by ZEFSAII (Michael W. Deem and Ramdas Pophale) SiO2 
 PCOD9357415
Probable space group: A M M 2
;
_chemical_formula_sum "Si O2"
_cell_formula_units_Z 48
_cell_length_a 7.598709
_cell_length_b 35.479573
_cell_length_c 9.314827
_cell_angle_alpha 90.000000
_cell_angle_beta 90.000000
_cell_angle_gamma 90.000000
_cell_volume 2511.267585
_symmetry_space_group_name_H-M "A M M 2"
_symmetry_group_IT_number 38
_symmetry_cell_setting 'orthorhombic'
loop_
_space_group_symop_operation_xyz
x,y,z
-x,-y,z
-x,y,z
x,-y,z
x,1/2+y,1/2+z
-x,1/2-y,1/2+z
-x,1/2+y,1/2+z
x,1/2-y,1/2+z
loop_
_atom_site_type_symbol
_atom_site_label
_atom_site_fract_x
_atom_site_fract_y
_atom_site_fract_z
Si Si1 0.206956 0.075962 0.475840
Si Si2 0.500000 0.210418 0.990798
Si Si3 0.215121 0.426875 0.651069
Si Si4 0.500000 0.710073 0.147255
Si Si5 0.212542 0.500000 0.476391
Si Si6 0.705883 0.000000 0.640056
Si Si7 0.208805 0.649085 0.149068
Si Si8 0.792722 0.149760 0.990351
O O1 0.278743 0.071321 0.315121
O O2 0.272729 0.112297 0.562673
O O3 0.000000 0.083181 0.458005
O O4 0.223757 0.037829 0.566300
O O5 0.500000 0.216021 0.818955
O O6 0.670395 0.185063 0.027554
O O7 0.500000 0.250240 0.068495
O O8 0.275438 0.462538 0.557980
O O9 0.261701 0.387383 0.577474
O O10 0.000000 0.428493 0.651115
O O11 0.328813 0.684800 0.111436
O O12 0.259355 0.500000 0.309489
O O13 0.000000 0.500000 0.483655
O O14 0.500000 0.000000 0.614826
O O15 0.228680 0.642057 0.319938
O O16 0.000000 0.655527 0.123044
O O17 0.000000 0.157055 0.016676
#
# Coordination Sequence:
#
# PCOD9357415 Si02
#       8
#     8   4   8   4   4   4   8   8
#     4  10  20  37  59  82 109 143 185 232 284 332
#     4  10  22  38  56  85 108 153 178 226 285 332
#     4   9  18  34  59  85 108 140 184 237 285 329
#     4  10  22  38  58  81 118 139 188 228 275 340
#     4  10  19  36  58  78 106 148 193 232 276 328
#     4  12  25  36  50  78 114 152 191 228 272 324
#     4   9  19  36  60  83 110 150 186 227 280 333
#     4   9  18  36  57  82 113 146 189 229 273 338
#
# _framework density 19.113852000000001
#
# number of rings (size 3 to 8) (size 9 to 14) (size 15 to 20)
#    0.000    2.333    0.000    2.250    1.167    6.000 
#    6.000    0.833    0.000    0.000    0.000    0.000 
#    0.000    0.000    0.000    0.000    0.000    0.000 
#
# Total GULP energy -133992.436322 kJ/mol
# GULP energy per Si atom -5583.018180 kJ/mol
# Density = 1.907035 g / cm^3
# Si number density = 19.113852 Si / 1000 Ang^3
#
#
#
# Elastic Constant Matrix: (Units=GPa)
#
#
# Indices 1 2 3 4 5 6 
#
# 1 52.3738 36.9267 29.3343 0.0000 0.0000 0.0000
# 2 36.9267 191.6791 97.4377 0.0000 0.0000 0.0000
# 3 29.3343 97.4377 109.9988 0.0000 0.0000 0.0000
# 4 0.0000 0.0000 0.0000 64.0872 0.0000 0.0000
# 5 0.0000 0.0000 0.0000 0.0000 3.2777 0.0000
# 6 0.0000 0.0000 0.0000 0.0000 0.0000 25.7815
#
#
#
# Elastic Compliance Matrix: (Units=1/GPa)
#
#
# Indices 1 2 3 4 5 6 
#
# 1 0.023034 -0.002392 -0.004024 0.000000 0.000000 0.000000
# 2 -0.002392 0.009739 -0.007989 0.000000 0.000000 0.000000
# 3 -0.004024 -0.007989 0.017241 0.000000 0.000000 0.000000
# 4 0.000000 0.000000 0.000000 0.015604 0.000000 0.000000
# 5 0.000000 0.000000 0.000000 0.000000 0.305095 0.000000
# 6 0.000000 0.000000 0.000000 0.000000 0.000000 0.038788
#
#
# Mechanical properties :
#
#
# Convention : Reuss Voigt Hill
#
# Bulk Modulus (GPa) = 47.16091 75.71658 61.43874
# Shear Modulus (GPa) = 11.22646 31.31948 21.27297
#
# Velocity S-wave (km/s) = 2.42615 4.05232 3.33973
# Velocity P-wave (km/s) = 5.70750 7.84822 6.86185
#
# Compressibility (1/GPa) = 0.02120400
#
# Stress axis : x y z
#
# Youngs Moduli (GPa) = 43.41467 102.68051 58.00226
#
# Poissons Ratio (x) = 0.24561 0.23339
# Poissons Ratio (y) = 0.10385 0.46338
# Poissons Ratio (z) = 0.17469 0.82031
#
# Static dielectric constant tensor:
#      x y z
#    x 1.692920 0.000000 0.000000 
#    y 0.000000 1.573490 0.000000 
#    z 0.000000 0.000000 1.658330 
# 
# From -- ./inp_files/3863.got.cif
#   From: 2010.05.17/outbox.cif.g08.bks.cpg/sg38_2_cif.got.tgz:3863.got - 2010.06.03 18:07:57.
