data_PCOD9357336
_publ_section_title
;
Structure prediction by ZEFSAII (Michael W. Deem and Ramdas Pophale) SiO2 
 PCOD9357336
Probable space group: A M M 2
;
_chemical_formula_sum "Si O2"
_cell_formula_units_Z 56
_cell_length_a 8.836145
_cell_length_b 17.174671
_cell_length_c 19.965037
_cell_angle_alpha 90.000000
_cell_angle_beta 90.000000
_cell_angle_gamma 90.000000
_cell_volume 3029.851755
_symmetry_space_group_name_H-M "A M M 2"
_symmetry_group_IT_number 38
_symmetry_cell_setting 'orthorhombic'
loop_
_space_group_symop_operation_xyz
x,y,z
-x,-y,z
-x,y,z
x,-y,z
x,1/2+y,1/2+z
-x,1/2-y,1/2+z
-x,1/2+y,1/2+z
x,1/2-y,1/2+z
loop_
_atom_site_type_symbol
_atom_site_label
_atom_site_fract_x
_atom_site_fract_y
_atom_site_fract_z
Si Si1 0.320620 0.912966 0.681200
Si Si2 0.684618 0.000000 0.909823
Si Si3 0.678339 0.830276 0.876149
Si Si4 0.681257 0.500000 0.567070
Si Si5 0.822948 0.747019 0.498409
Si Si6 0.819617 0.263064 0.249987
Si Si7 0.179606 0.846244 0.132647
Si Si8 0.178711 0.414786 0.035896
O O1 0.500000 0.902094 0.690118
O O2 0.232846 0.843633 0.716203
O O3 0.276932 0.911387 0.603036
O O4 0.281474 0.000000 0.706019
O O5 0.732928 0.920154 0.873901
O O6 0.500000 0.000000 0.910052
O O7 0.732277 0.000000 0.988535
O O8 0.500000 0.830105 0.863213
O O9 0.716351 0.802018 0.950588
O O10 0.756447 0.771582 0.824570
O O11 0.500000 0.500000 0.566373
O O12 0.740042 0.576615 0.605450
O O13 0.803046 0.719322 0.574885
O O14 0.789434 0.838574 0.492887
O O15 0.000000 0.733264 0.481056
O O16 0.766257 0.192045 0.202394
O O17 0.000000 0.259154 0.251323
O O18 0.000000 0.862657 0.138304
O O19 0.201554 0.500000 0.004307
O O20 0.000000 0.409242 0.054898
#
# Coordination Sequence:
#
# PCOD9357336 Si02
#       8
#     8   4   8   4   8   8   8   8
#     4  10  20  32  49  78 114 148 181 221 270 324
#     4   9  20  37  55  83 123 156 187 236 295 355
#     4  11  23  39  57  82 118 156 193 239 298 359
#     4  11  21  37  63  93 119 150 195 246 301 359
#     4  10  19  35  57  84 113 147 191 239 291 350
#     4  11  23  40  58  82 114 154 198 239 285 348
#     4  10  21  38  60  87 118 150 193 247 296 345
#     4   9  17  32  55  81 109 142 185 233 276 328
#
# _framework density 18.482754
#
# number of rings (size 3 to 8) (size 9 to 14) (size 15 to 20)
#    0.000    1.857    2.857    1.500    1.000    2.571 
#    0.000    1.071    1.571    0.000    0.000    0.000 
#    0.000    0.000    0.000    0.000    0.000    0.000 
#
# Total GULP energy -156209.492706 kJ/mol
# GULP energy per Si atom -5578.910454 kJ/mol
# Density = 1.844069 g / cm^3
# Si number density = 18.482754 Si / 1000 Ang^3
#
#
#
# Elastic Constant Matrix: (Units=GPa)
#
#
# Indices 1 2 3 4 5 6 
#
# 1 28.0415 20.1246 13.3546 0.0000 0.0000 0.0000
# 2 20.1246 87.8562 11.2927 0.0000 0.0000 0.0000
# 3 13.3546 11.2927 52.9321 0.0000 0.0000 0.0000
# 4 0.0000 0.0000 0.0000 26.2421 0.0000 0.0000
# 5 0.0000 0.0000 0.0000 0.0000 -93.3556 0.0000
# 6 0.0000 0.0000 0.0000 0.0000 0.0000 24.8033
#
#
#
# Elastic Compliance Matrix: (Units=1/GPa)
#
#
# Indices 1 2 3 4 5 6 
#
# 1 0.047216 -0.009546 -0.009876 0.000000 0.000000 0.000000
# 2 -0.009546 0.013633 -0.000500 0.000000 0.000000 0.000000
# 3 -0.009876 -0.000500 0.021490 0.000000 0.000000 0.000000
# 4 0.000000 0.000000 0.000000 0.038107 0.000000 0.000000
# 5 0.000000 0.000000 0.000000 0.000000 -0.010712 0.000000
# 6 0.000000 0.000000 0.000000 0.000000 0.000000 0.040317
#
#
# Mechanical properties :
#
#
# Convention : Reuss Voigt Hill
#
# Bulk Modulus (GPa) = 23.53192 28.70818 26.12005
# Shear Modulus (GPa) = 24.50256 -0.19152 12.15552
#
# Velocity S-wave (km/s) = 3.64496 -0.32225 2.56729
# Velocity P-wave (km/s) = 5.52031 3.92781 4.79069
#
# Compressibility (1/GPa) = 0.04249548
#
# Stress axis : x y z
#
# Youngs Moduli (GPa) = 21.17945 73.35063 46.53231
#
# Poissons Ratio (x) = 0.70020 0.45954
# Poissons Ratio (y) = 0.20218 0.02327
# Poissons Ratio (z) = 0.20916 0.03669
#
# Static dielectric constant tensor:
#      x y z
#    x 1.703730 0.000000 0.000000 
#    y 0.000000 1.652930 0.000000 
#    z 0.000000 0.000000 1.644340 
# 
# From -- ./inp_files/19849.got.cif
#   From: 2010.05.17/outbox.cif.g08.bks.cpg/sg38_10_cif.got.tgz:19849.got - 2010.06.03 18:07:57.
