data_PCOD9357178
_publ_section_title
;
Structure prediction by ZEFSAII (Michael W. Deem and Ramdas Pophale) SiO2 
 PCOD9357178
Probable space group: A M M 2
;
_chemical_formula_sum "Si O2"
_cell_formula_units_Z 48
_cell_length_a 19.425443
_cell_length_b 8.515890
_cell_length_c 15.107036
_cell_angle_alpha 90.000000
_cell_angle_beta 90.000000
_cell_angle_gamma 90.000000
_cell_volume 2499.080460
_symmetry_space_group_name_H-M "A M M 2"
_symmetry_group_IT_number 38
_symmetry_cell_setting 'orthorhombic'
loop_
_space_group_symop_operation_xyz
x,y,z
-x,-y,z
-x,y,z
x,-y,z
x,1/2+y,1/2+z
-x,1/2-y,1/2+z
-x,1/2+y,1/2+z
x,1/2-y,1/2+z
loop_
_atom_site_type_symbol
_atom_site_label
_atom_site_fract_x
_atom_site_fract_y
_atom_site_fract_z
Si Si1 0.000000 0.811508 0.685140
Si Si2 0.000000 0.809009 0.480023
Si Si3 0.648902 0.183560 0.660758
Si Si4 0.500000 0.316327 0.934981
Si Si5 0.500000 0.686409 0.240959
Si Si6 0.351728 0.681770 0.477527
Si Si7 0.735599 0.185694 0.320811
Si Si8 0.894768 0.310357 0.828974
O O1 0.000000 0.755502 0.582409
O O2 0.934988 0.753930 0.743293
O O3 0.000000 0.000000 0.683825
O O4 0.934793 0.761175 0.418902
O O5 0.000000 0.000000 0.483442
O O6 0.569727 0.216817 0.687473
O O7 0.670283 0.287329 0.577707
O O8 0.696258 0.221522 0.744170
O O9 0.653311 0.000000 0.637012
O O10 0.500000 0.500000 0.957183
O O11 0.500000 0.288329 0.829548
O O12 0.430602 0.237801 0.970096
O O13 0.500000 0.500000 0.265291
O O14 0.347103 0.500000 0.452816
O O15 0.305420 0.780799 0.410716
O O16 0.815029 0.234939 0.329126
O O17 0.733138 0.000000 0.301284
O O18 0.898893 0.500000 0.825702
#
# Coordination Sequence:
#
# PCOD9357178 Si02
#       8
#     4   4   8   4   4   8   8   8
#     4  10  19  33  60  93 118 147 197 246 286 340
#     4   8  16  35  60  85 114 153 193 230 278 338
#     4  11  23  40  62  87 119 157 202 252 304 363
#     4  12  23  38  63  88 116 154 201 252 305 364
#     4  10  21  38  61  86 114 152 199 250 307 356
#     4  12  25  41  61  87 121 158 201 252 305 360
#     4  11  23  40  61  88 121 160 204 248 299 358
#     4   9  20  39  60  83 119 160 194 234 290 352
#
# _framework density 19.207066000000001
#
# number of rings (size 3 to 8) (size 9 to 14) (size 15 to 20)
#    0.000    1.500    1.667    4.500    0.000    4.000 
#    0.000    5.000    0.000    0.000    0.000    0.000 
#    0.000    0.000    0.000    0.000    0.000    0.000 
#
# Total GULP energy -134115.088760 kJ/mol
# GULP energy per Si atom -5588.128698 kJ/mol
# Density = 1.916335 g / cm^3
# Si number density = 19.207066 Si / 1000 Ang^3
#
#
#
# Elastic Constant Matrix: (Units=GPa)
#
#
# Indices 1 2 3 4 5 6 
#
# 1 139.5599 9.3280 49.1301 0.0000 0.0000 0.0000
# 2 9.3280 25.0574 0.3836 0.0000 0.0000 0.0000
# 3 49.1301 0.3836 118.5326 0.0000 0.0000 0.0000
# 4 0.0000 0.0000 0.0000 33.4477 0.0000 0.0000
# 5 0.0000 0.0000 0.0000 0.0000 -117.5491 0.0000
# 6 0.0000 0.0000 0.0000 0.0000 0.0000 13.8935
#
#
#
# Elastic Compliance Matrix: (Units=1/GPa)
#
#
# Indices 1 2 3 4 5 6 
#
# 1 0.008633 -0.003159 -0.003568 0.000000 0.000000 0.000000
# 2 -0.003159 0.041066 0.001176 0.000000 0.000000 0.000000
# 3 -0.003568 0.001176 0.009912 0.000000 0.000000 0.000000
# 4 0.000000 0.000000 0.000000 0.029897 0.000000 0.000000
# 5 0.000000 0.000000 0.000000 0.000000 -0.008507 0.000000
# 6 0.000000 0.000000 0.000000 0.000000 0.000000 0.071976
#
#
# Mechanical properties :
#
#
# Convention : Reuss Voigt Hill
#
# Bulk Modulus (GPa) = 20.61444 44.53702 32.57573
# Shear Modulus (GPa) = 27.73967 0.91232 14.32599
#
# Velocity S-wave (km/s) = 3.80444 0.68994 2.73403
# Velocity P-wave (km/s) = 5.48219 4.88599 5.19265
#
# Compressibility (1/GPa) = 0.04850969
#
# Stress axis : x y z
#
# Youngs Moduli (GPa) = 115.84097 24.35083 100.89285
#
# Poissons Ratio (x) = 0.07692 0.35997
# Poissons Ratio (y) = 0.36594 -0.11870
# Poissons Ratio (z) = 0.41330 -0.02865
#
# Static dielectric constant tensor:
#      x y z
#    x 1.657200 0.000000 0.000000 
#    y 0.000000 1.646030 0.000000 
#    z 0.000000 0.000000 1.657130 
# 
# From -- ./inp_files/15095.got.cif
#   From: 2010.05.17/outbox.cif.g08.bks.cpg/sg38_8_cif.got.tgz:15095.got - 2010.06.03 18:07:57.
