data_PCOD9357417
_publ_section_title
;
Structure prediction by ZEFSAII (Michael W. Deem and Ramdas Pophale) SiO2 
 PCOD9357417
Probable space group: A M M 2
;
_chemical_formula_sum "Si O2"
_cell_formula_units_Z 48
_cell_length_a 14.700072
_cell_length_b 15.542117
_cell_length_c 11.995987
_cell_angle_alpha 90.000000
_cell_angle_beta 90.000000
_cell_angle_gamma 90.000000
_cell_volume 2740.726016
_symmetry_space_group_name_H-M "A M M 2"
_symmetry_group_IT_number 38
_symmetry_cell_setting 'orthorhombic'
loop_
_space_group_symop_operation_xyz
x,y,z
-x,-y,z
-x,y,z
x,-y,z
x,1/2+y,1/2+z
-x,1/2-y,1/2+z
-x,1/2+y,1/2+z
x,1/2-y,1/2+z
loop_
_atom_site_type_symbol
_atom_site_label
_atom_site_fract_x
_atom_site_fract_y
_atom_site_fract_z
Si Si1 0.392820 0.659785 0.162550
Si Si2 0.389743 0.500000 0.010695
Si Si3 0.097304 0.898923 0.850630
Si Si4 0.293710 0.603015 0.371407
Si Si5 0.100447 0.398834 0.621106
Si Si6 0.296842 0.840381 0.126027
Si Si7 0.609697 0.500000 0.750598
O O1 0.500000 0.673719 0.145206
O O2 0.360422 0.585529 0.077014
O O3 0.373054 0.625760 0.286619
O O4 0.339777 0.748393 0.149035
O O5 0.500000 0.500000 0.015128
O O6 0.363979 0.500000 0.881303
O O7 0.196964 0.865492 0.819063
O O8 0.000000 0.860830 0.812935
O O9 0.095543 0.000000 0.819621
O O10 0.098262 0.895383 0.985851
O O11 0.287464 0.500000 0.384489
O O12 0.305149 0.641347 0.493856
O O13 0.112357 0.500000 0.649674
O O14 0.189973 0.348127 0.657120
O O15 0.000000 0.371075 0.660734
O O16 0.349867 0.915713 0.191023
O O17 0.500000 0.500000 0.742704
#
# Coordination Sequence:
#
# PCOD9357417 Si02
#       7
#     8   4   8   8   8   8   4
#     4  11  24  39  55  77 110 153 190 225 276 333
#     4   9  22  43  57  70 103 155 196 219 268 341
#     4   7  11  22  46  78 106 131 164 212 270 325
#     4  10  19  36  58  82 109 140 185 234 277 321
#     4   8  13  27  52  80 112 143 173 215 271 332
#     4  11  21  36  56  90 114 138 181 236 283 319
#     4  11  22  37  56  80 113 147 183 229 281 333
#
# _framework density 17.513607
#
# number of rings (size 3 to 8) (size 9 to 14) (size 15 to 20)
#    0.000    2.500    2.500    2.500    2.333    1.333 
#    0.000    0.833    0.000    0.000    0.000    3.500 
#    0.000    0.000    0.000    0.000    0.000    0.000 
#
# Total GULP energy -133651.454845 kJ/mol
# GULP energy per Si atom -5568.810619 kJ/mol
# Density = 1.747375 g / cm^3
# Si number density = 17.513607 Si / 1000 Ang^3
#
#
#
# Elastic Constant Matrix: (Units=GPa)
#
#
# Indices 1 2 3 4 5 6 
#
# 1 101.2231 36.1270 18.1184 0.0000 0.0000 0.0000
# 2 36.1270 76.7420 22.3150 0.0000 0.0000 0.0000
# 3 18.1184 22.3150 62.0478 0.0000 0.0000 0.0000
# 4 0.0000 0.0000 0.0000 -23.0574 0.0000 0.0000
# 5 0.0000 0.0000 0.0000 0.0000 11.5466 0.0000
# 6 0.0000 0.0000 0.0000 0.0000 0.0000 22.0173
#
#
#
# Elastic Compliance Matrix: (Units=1/GPa)
#
#
# Indices 1 2 3 4 5 6 
#
# 1 0.012023 -0.005181 -0.001648 0.000000 0.000000 0.000000
# 2 -0.005181 0.016785 -0.004524 0.000000 0.000000 0.000000
# 3 -0.001648 -0.004524 0.018225 0.000000 0.000000 0.000000
# 4 0.000000 0.000000 0.000000 -0.043370 0.000000 0.000000
# 5 0.000000 0.000000 0.000000 0.000000 0.086606 0.000000
# 6 0.000000 0.000000 0.000000 0.000000 0.000000 0.045419
#
#
# Mechanical properties :
#
#
# Convention : Reuss Voigt Hill
#
# Bulk Modulus (GPa) = 41.10426 43.68151 42.39288
# Shear Modulus (GPa) = 30.02982 12.99813 21.51398
#
# Velocity S-wave (km/s) = 4.14533 2.72724 3.50868
# Velocity P-wave (km/s) = 6.81414 5.90870 6.37751
#
# Compressibility (1/GPa) = 0.02432838
#
# Stress axis : x y z
#
# Youngs Moduli (GPa) = 83.17271 59.57687 54.87081
#
# Poissons Ratio (x) = 0.30866 0.09040
# Poissons Ratio (y) = 0.43091 0.24822
# Poissons Ratio (z) = 0.13703 0.26951
#
# Static dielectric constant tensor:
#      x y z
#    x 1.654940 0.000000 0.000000 
#    y 0.000000 1.799360 0.000000 
#    z 0.000000 0.000000 1.576230 
# 
# From -- ./inp_files/10043.got.cif
#   From: 2010.05.17/outbox.cif.g08.bks.cpg/sg38_6_cif.got.tgz:10043.got - 2010.06.03 18:07:57.
