data_PCOD9357512
_publ_section_title
;
Structure prediction by ZEFSAII (Michael W. Deem and Ramdas Pophale) SiO2 
 PCOD9357512
Probable space group: A M M 2
;
_chemical_formula_sum "Si O2"
_cell_formula_units_Z 48
_cell_length_a 7.622307
_cell_length_b 8.333137
_cell_length_c 35.117935
_cell_angle_alpha 90.000000
_cell_angle_beta 90.000000
_cell_angle_gamma 90.000000
_cell_volume 2230.611460
_symmetry_space_group_name_H-M "A M M 2"
_symmetry_group_IT_number 38
_symmetry_cell_setting 'orthorhombic'
loop_
_space_group_symop_operation_xyz
x,y,z
-x,-y,z
-x,y,z
x,-y,z
x,1/2+y,1/2+z
-x,1/2-y,1/2+z
-x,1/2+y,1/2+z
x,1/2-y,1/2+z
loop_
_atom_site_type_symbol
_atom_site_label
_atom_site_fract_x
_atom_site_fract_y
_atom_site_fract_z
Si Si1 0.789504 0.674082 0.903500
Si Si2 0.710426 0.680560 0.168740
Si Si3 0.715310 0.000000 0.035351
Si Si4 0.714071 0.813121 0.583041
Si Si5 0.785630 0.177932 0.826880
Si Si6 0.292780 0.000000 0.948875
Si Si7 0.789921 0.823213 0.249604
O O1 0.724780 0.500000 0.917928
O O2 0.728123 0.702274 0.859997
O O3 0.751922 0.834840 0.927226
O O4 0.000000 0.665473 0.902358
O O5 0.500000 0.676507 0.166530
O O6 0.775746 0.500000 0.175379
O O7 0.769771 0.728786 0.126486
O O8 0.753779 0.778814 0.206169
O O9 0.770085 0.166266 0.056080
O O10 0.500000 0.000000 0.036319
O O11 0.778498 0.000000 0.991877
O O12 0.500000 0.815850 0.582047
O O13 0.768003 0.000000 0.574958
O O14 0.725197 0.212285 0.783949
O O15 0.000000 0.181604 0.826515
O O16 0.731816 0.000000 0.838508
O O17 0.500000 0.000000 0.952508
O O18 0.000000 0.824850 0.252984
O O19 0.721073 0.000000 0.257318
#
# Coordination Sequence:
#
# PCOD9357512 Si02
#       7
#     8   8   4   8   8   4   8
#     4  10  20  37  62  85 108 146 194 236 273 329
#     4   9  18  32  50  73 100 132 173 219 266 313
#     4   9  18  31  51  77 105 141 179 217 269 329
#     4   8  15  29  49  73 100 133 177 222 259 309
#     4   9  16  30  54  78 100 133 181 230 268 308
#     4  11  23  37  55  87 123 147 177 231 297 349
#     4  10  20  31  46  74 107 136 173 219 265 315
#
# _framework density 21.518761999999999
#
# number of rings (size 3 to 8) (size 9 to 14) (size 15 to 20)
#    0.000    2.667    0.833    2.250    1.167    4.333 
#    0.000    2.500    0.000    4.000    0.000    0.000 
#    0.000    0.000    0.000    0.000    0.000    0.000 
#
# Total GULP energy -133787.717697 kJ/mol
# GULP energy per Si atom -5574.488237 kJ/mol
# Density = 2.146978 g / cm^3
# Si number density = 21.518762 Si / 1000 Ang^3
#
#
#
# Elastic Constant Matrix: (Units=GPa)
#
#
# Indices 1 2 3 4 5 6 
#
# 1 39.7275 8.4745 4.5614 0.0000 0.0000 0.0000
# 2 8.4745 164.4235 94.2255 0.0000 0.0000 0.0000
# 3 4.5614 94.2255 140.6523 0.0000 0.0000 0.0000
# 4 0.0000 0.0000 0.0000 31.0586 0.0000 0.0000
# 5 0.0000 0.0000 0.0000 0.0000 17.6929 0.0000
# 6 0.0000 0.0000 0.0000 0.0000 0.0000 2.2227
#
#
#
# Elastic Compliance Matrix: (Units=1/GPa)
#
#
# Indices 1 2 3 4 5 6 
#
# 1 0.025452 -0.001361 0.000087 0.000000 0.000000 0.000000
# 2 -0.001361 0.009944 -0.006618 0.000000 0.000000 0.000000
# 3 0.000087 -0.006618 0.011540 0.000000 0.000000 0.000000
# 4 0.000000 0.000000 0.000000 0.032197 0.000000 0.000000
# 5 0.000000 0.000000 0.000000 0.000000 0.056520 0.000000
# 6 0.000000 0.000000 0.000000 0.000000 0.000000 0.449907
#
#
# Mechanical properties :
#
#
# Convention : Reuss Voigt Hill
#
# Bulk Modulus (GPa) = 32.10123 62.14735 47.12429
# Shear Modulus (GPa) = 8.17354 26.03097 17.10225
#
# Velocity S-wave (km/s) = 1.95104 3.48183 2.82221
# Velocity P-wave (km/s) = 4.47500 6.71621 5.70671
#
# Compressibility (1/GPa) = 0.03115146
#
# Stress axis : x y z
#
# Youngs Moduli (GPa) = 39.28973 100.55834 86.65272
#
# Poissons Ratio (x) = 0.13691 -0.00751
# Poissons Ratio (y) = 0.05349 0.57345
# Poissons Ratio (z) = -0.00340 0.66548
#
# Static dielectric constant tensor:
#      x y z
#    x 1.817350 0.000000 0.000000 
#    y 0.000000 1.759270 0.000000 
#    z 0.000000 0.000000 1.772710 
# 
# From -- ./inp_files/24380.got.cif
#   From: 2010.05.17/outbox.cif.g08.bks.cpg/sg38_13_cif.got.tgz:24380.got - 2010.06.03 18:07:57.
