data_PCOD9357736
_publ_section_title
;
Structure prediction by ZEFSAII (Michael W. Deem and Ramdas Pophale) SiO2 
 PCOD9357736
Probable space group: A M M 2
;
_chemical_formula_sum "Si O2"
_cell_formula_units_Z 40
_cell_length_a 13.721787
_cell_length_b 23.538092
_cell_length_c 6.653817
_cell_angle_alpha 90.000000
_cell_angle_beta 90.000000
_cell_angle_gamma 90.000000
_cell_volume 2149.080987
_symmetry_space_group_name_H-M "A M M 2"
_symmetry_group_IT_number 38
_symmetry_cell_setting 'orthorhombic'
loop_
_space_group_symop_operation_xyz
x,y,z
-x,-y,z
-x,y,z
x,-y,z
x,1/2+y,1/2+z
-x,1/2-y,1/2+z
-x,1/2+y,1/2+z
x,1/2-y,1/2+z
loop_
_atom_site_type_symbol
_atom_site_label
_atom_site_fract_x
_atom_site_fract_y
_atom_site_fract_z
Si Si1 0.286765 0.709621 0.978620
Si Si2 0.614118 0.328716 0.604652
Si Si3 0.226105 0.632965 0.352204
Si Si4 0.887302 0.169646 0.237353
Si Si5 0.113732 0.064137 0.538904
O O1 0.358271 0.672076 0.839327
O O2 0.186881 0.712637 0.847821
O O3 0.342294 0.767824 0.029479
O O4 0.257958 0.676828 0.179179
O O5 0.500000 0.331885 0.569097
O O6 0.677478 0.375373 0.487028
O O7 0.148391 0.658169 0.511222
O O8 0.179060 0.581651 0.228861
O O9 0.874859 0.110862 0.363097
O O10 0.000000 0.187040 0.246332
O O11 0.000000 0.067115 0.599467
O O12 0.134467 0.000000 0.471141
#
# Coordination Sequence:
#
# PCOD9357736 Si02
#       5
#     8   8   8   8   8
#     4  10  20  33  51  76 109 143 186 231 272 324
#     4  11  21  34  55  79 106 143 188 235 278 323
#     4  10  20  34  55  81 114 144 183 230 278 325
#     4   9  19  35  52  75 112 150 184 224 270 328
#     4   9  18  34  58  86 114 146 183 224 272 328
#
# _framework density 18.612606
#
# number of rings (size 3 to 8) (size 9 to 14) (size 15 to 20)
#    0.000    2.200    2.000    1.200    0.000    2.400 
#    0.000    7.000    0.000    0.600    0.000    0.000 
#    0.000    0.000    0.000    0.000    0.000    0.000 
#
# Total GULP energy -111506.315972 kJ/mol
# GULP energy per Si atom -5575.315799 kJ/mol
# Density = 1.857024 g / cm^3
# Si number density = 18.612606 Si / 1000 Ang^3
#
#
#
# Elastic Constant Matrix: (Units=GPa)
#
#
# Indices 1 2 3 4 5 6 
#
# 1 128.2775 24.7593 25.4154 0.0000 0.0000 0.0000
# 2 24.7593 58.0612 14.4404 0.0000 0.0000 0.0000
# 3 25.4154 14.4404 92.4646 0.0000 0.0000 0.0000
# 4 0.0000 0.0000 0.0000 17.0194 0.0000 0.0000
# 5 0.0000 0.0000 0.0000 0.0000 22.0867 0.0000
# 6 0.0000 0.0000 0.0000 0.0000 0.0000 17.9930
#
#
#
# Elastic Compliance Matrix: (Units=1/GPa)
#
#
# Indices 1 2 3 4 5 6 
#
# 1 0.008807 -0.003281 -0.001908 0.000000 0.000000 0.000000
# 2 -0.003281 0.019142 -0.002088 0.000000 0.000000 0.000000
# 3 -0.001908 -0.002088 0.011666 0.000000 0.000000 0.000000
# 4 0.000000 0.000000 0.000000 0.058757 0.000000 0.000000
# 5 0.000000 0.000000 0.000000 0.000000 0.045276 0.000000
# 6 0.000000 0.000000 0.000000 0.000000 0.000000 0.055577
#
#
# Mechanical properties :
#
#
# Convention : Reuss Voigt Hill
#
# Bulk Modulus (GPa) = 39.90379 45.33706 42.62043
# Shear Modulus (GPa) = 22.50925 25.69903 24.10414
#
# Velocity S-wave (km/s) = 3.48135 3.71985 3.60258
# Velocity P-wave (km/s) = 6.13558 6.54682 6.34454
#
# Compressibility (1/GPa) = 0.02506028
#
# Stress axis : x y z
#
# Youngs Moduli (GPa) = 113.54647 52.24246 85.72279
#
# Poissons Ratio (x) = 0.17141 0.16359
# Poissons Ratio (y) = 0.37254 0.17895
# Poissons Ratio (z) = 0.21669 0.10906
#
# Static dielectric constant tensor:
#      x y z
#    x 1.651070 0.000000 0.000000 
#    y 0.000000 1.649160 0.000000 
#    z 0.000000 0.000000 1.694110 
# 
# From -- ./inp_files/898.got.cif
#   From: 2010.05.17/outbox.cif.g08.bks.cpg/sg38_1_cif.got.tgz:898.got - 2010.06.03 18:07:57.
