data_PCOD9357931
_publ_section_title
;
Structure prediction by ZEFSAII (Michael W. Deem and Ramdas Pophale) SiO2 
 PCOD9357931
Probable space group: A M M 2
;
_chemical_formula_sum "Si O2"
_cell_formula_units_Z 48
_cell_length_a 9.602862
_cell_length_b 7.769970
_cell_length_c 31.965906
_cell_angle_alpha 90.000000
_cell_angle_beta 90.000000
_cell_angle_gamma 90.000000
_cell_volume 2385.102501
_symmetry_space_group_name_H-M "A M M 2"
_symmetry_group_IT_number 38
_symmetry_cell_setting 'orthorhombic'
loop_
_space_group_symop_operation_xyz
x,y,z
-x,-y,z
-x,y,z
x,-y,z
x,1/2+y,1/2+z
-x,1/2-y,1/2+z
-x,1/2+y,1/2+z
x,1/2-y,1/2+z
loop_
_atom_site_type_symbol
_atom_site_label
_atom_site_fract_x
_atom_site_fract_y
_atom_site_fract_z
Si Si1 0.340348 0.293428 0.660040
Si Si2 0.159260 0.204642 0.423476
Si Si3 0.839522 0.711183 0.581153
Si Si4 0.341372 0.792689 0.752995
Si Si5 0.342295 0.704812 0.502655
Si Si6 0.841475 0.707407 0.330174
O O1 0.500000 0.227902 0.655856
O O2 0.346995 0.500000 0.656576
O O3 0.240182 0.232287 0.623129
O O4 0.288671 0.251301 0.706650
O O5 0.261416 0.268617 0.459359
O O6 0.209222 0.248157 0.376675
O O7 0.000000 0.273412 0.428192
O O8 0.152284 0.000000 0.427108
O O9 0.840727 0.500000 0.580941
O O10 0.751897 0.770839 0.540905
O O11 0.000000 0.766701 0.579620
O O12 0.500000 0.727866 0.755796
O O13 0.250518 0.728076 0.791704
O O14 0.345329 0.000000 0.755765
O O15 0.500000 0.774697 0.502150
O O16 0.353242 0.500000 0.509174
O O17 0.844952 0.500000 0.327531
O O18 0.000000 0.771928 0.326870
#
# Coordination Sequence:
#
# PCOD9357931 Si02
#       6
#     8   8   8   8   8   8
#     4   9  17  30  48  70  97 128 162 201 245 292
#     4  10  21  36  53  75 104 135 167 207 256 306
#     4   9  17  30  50  75 100 128 165 207 247 290
#     4   9  18  32  49  70  97 128 162 201 245 293
#     4  10  20  34  54  78 102 132 171 211 251 299
#     4   9  18  33  52  72  96 129 167 205 246 294
#
# _framework density 20.124922000000002
#
# number of rings (size 3 to 8) (size 9 to 14) (size 15 to 20)
#    0.000    2.667    0.000    1.500    0.000    6.000 
#    0.000    2.500    0.000    3.000    0.000    0.000 
#    0.000    0.000    0.000    0.000    0.000    0.000 
#
# Total GULP energy -133930.634716 kJ/mol
# GULP energy per Si atom -5580.443113 kJ/mol
# Density = 2.007912 g / cm^3
# Si number density = 20.124922 Si / 1000 Ang^3
#
#
#
# Elastic Constant Matrix: (Units=GPa)
#
#
# Indices 1 2 3 4 5 6 
#
# 1 134.8405 6.2225 130.7369 0.0000 0.0000 0.0000
# 2 6.2225 25.7187 -2.3829 0.0000 0.0000 0.0000
# 3 130.7369 -2.3829 221.3487 0.0000 0.0000 0.0000
# 4 0.0000 0.0000 0.0000 21.3063 0.0000 0.0000
# 5 0.0000 0.0000 0.0000 0.0000 40.8509 0.0000
# 6 0.0000 0.0000 0.0000 0.0000 0.0000 8.8716
#
#
#
# Elastic Compliance Matrix: (Units=1/GPa)
#
#
# Indices 1 2 3 4 5 6 
#
# 1 0.018065 -0.005365 -0.010727 0.000000 0.000000 0.000000
# 2 -0.005365 0.040514 0.003605 0.000000 0.000000 0.000000
# 3 -0.010727 0.003605 0.010893 0.000000 0.000000 0.000000
# 4 0.000000 0.000000 0.000000 0.046935 0.000000 0.000000
# 5 0.000000 0.000000 0.000000 0.000000 0.024479 0.000000
# 6 0.000000 0.000000 0.000000 0.000000 0.000000 0.112719
#
#
# Mechanical properties :
#
#
# Convention : Reuss Voigt Hill
#
# Bulk Modulus (GPa) = 22.47355 72.34009 47.40682
# Shear Modulus (GPa) = 17.04092 30.69452 23.86772
#
# Velocity S-wave (km/s) = 2.91307 3.90962 3.44754
# Velocity P-wave (km/s) = 4.74404 7.51024 6.28130
#
# Compressibility (1/GPa) = 0.04449676
#
# Stress axis : x y z
#
# Youngs Moduli (GPa) = 55.35663 24.68274 91.80555
#
# Poissons Ratio (x) = 0.13241 0.98484
# Poissons Ratio (y) = 0.29696 -0.33093
# Poissons Ratio (z) = 0.59383 -0.08897
#
# Static dielectric constant tensor:
#      x y z
#    x 1.708380 0.000000 0.000000 
#    y 0.000000 1.742580 0.000000 
#    z 0.000000 0.000000 1.684500 
# 
# From -- ./inp_files/21880.got.cif
#   From: 2010.05.17/outbox.cif.g08.bks.cpg/sg38_11_cif.got.tgz:21880.got - 2010.06.03 18:07:57.
