data_PCOD9357835
_publ_section_title
;
Structure prediction by ZEFSAII (Michael W. Deem and Ramdas Pophale) SiO2 
 PCOD9357835
Probable space group: A M M 2
;
_chemical_formula_sum "Si O2"
_cell_formula_units_Z 58
_cell_length_a 26.579796
_cell_length_b 7.557837
_cell_length_c 14.858529
_cell_angle_alpha 90.000000
_cell_angle_beta 90.000000
_cell_angle_gamma 90.000000
_cell_volume 2984.866975
_symmetry_space_group_name_H-M "A M M 2"
_symmetry_group_IT_number 38
_symmetry_cell_setting 'orthorhombic'
loop_
_space_group_symop_operation_xyz
x,y,z
-x,-y,z
-x,y,z
x,-y,z
x,1/2+y,1/2+z
-x,1/2-y,1/2+z
-x,1/2+y,1/2+z
x,1/2-y,1/2+z
loop_
_atom_site_type_symbol
_atom_site_label
_atom_site_fract_x
_atom_site_fract_y
_atom_site_fract_z
Si Si1 0.500000 0.000000 0.781560
Si Si2 0.589993 0.709877 0.776128
Si Si3 0.327005 0.784861 0.921887
Si Si4 0.055752 0.211989 0.129167
Si Si5 0.748461 0.792824 0.770383
Si Si6 0.865573 0.285863 0.774402
Si Si7 0.669897 0.794327 0.125554
Si Si8 0.944236 0.211873 0.419452
O O1 0.543831 0.843241 0.781368
O O2 0.577189 0.500000 0.765022
O O3 0.623935 0.727449 0.866121
O O4 0.626333 0.770368 0.693219
O O5 0.279862 0.724757 0.860132
O O6 0.325881 0.000000 0.924172
O O7 0.326648 0.718937 0.024854
O O8 0.101753 0.276806 0.189090
O O9 0.000000 0.279255 0.155473
O O10 0.054197 0.000000 0.140606
O O11 0.062891 0.250416 0.024346
O O12 0.807884 0.768381 0.773768
O O13 0.721607 0.716410 0.681836
O O14 0.737576 0.000000 0.765618
O O15 0.865113 0.500000 0.774348
O O16 0.898117 0.223042 0.859825
O O17 0.657871 0.000000 0.113379
O O18 0.000000 0.279429 0.393295
O O19 0.945845 0.000000 0.407557
#
# Coordination Sequence:
#
# PCOD9357835 Si02
#       8
#     2   8   8   8   8   8   8   8
#     4  12  22  40  64  86 136 158 190 248 286 322
#     4  10  21  38  63  90 119 162 199 233 287 338
#     4   9  18  38  62  83 113 151 189 238 285 337
#     4   9  18  33  52  72  95 133 178 218 270 336
#     4  10  21  34  53  82 110 143 184 232 285 335
#     4  10  20  34  51  71 105 138 175 223 276 332
#     4   9  19  37  63  85 112 150 194 232 281 341
#     4   9  18  33  52  73  98 134 175 219 274 334
#
# _framework density 19.431352
#
# number of rings (size 3 to 8) (size 9 to 14) (size 15 to 20)
#    0.000    2.483    0.690    1.034    0.966    4.966 
#    0.000    4.828    0.000    4.138    0.000    0.000 
#    0.000    0.000    0.000    0.000    0.000    0.000 
#
# Total GULP energy -161445.775997 kJ/mol
# GULP energy per Si atom -5567.095724 kJ/mol
# Density = 1.938712 g / cm^3
# Si number density = 19.431352 Si / 1000 Ang^3
#
#
#
# Elastic Constant Matrix: (Units=GPa)
#
#
# Indices 1 2 3 4 5 6 
#
# 1 183.5990 19.8646 89.1993 0.0000 0.0000 0.0000
# 2 19.8646 63.8241 14.1905 0.0000 0.0000 0.0000
# 3 89.1993 14.1905 150.9645 0.0000 0.0000 0.0000
# 4 0.0000 0.0000 0.0000 13.0061 0.0000 0.0000
# 5 0.0000 0.0000 0.0000 0.0000 -4.7654 0.0000
# 6 0.0000 0.0000 0.0000 0.0000 0.0000 28.3180
#
#
#
# Elastic Compliance Matrix: (Units=1/GPa)
#
#
# Indices 1 2 3 4 5 6 
#
# 1 0.007765 -0.001426 -0.004454 0.000000 0.000000 0.000000
# 2 -0.001426 0.016265 -0.000686 0.000000 0.000000 0.000000
# 3 -0.004454 -0.000686 0.009320 0.000000 0.000000 0.000000
# 4 0.000000 0.000000 0.000000 0.076887 0.000000 0.000000
# 5 0.000000 0.000000 0.000000 0.000000 -0.209844 0.000000
# 6 0.000000 0.000000 0.000000 0.000000 0.000000 0.035313
#
#
# Mechanical properties :
#
#
# Convention : Reuss Voigt Hill
#
# Bulk Modulus (GPa) = 49.46356 71.65516 60.55936
# Shear Modulus (GPa) = -112.55504 25.65395 -43.45055
#
# Velocity S-wave (km/s) = -7.61907 3.63745 -4.73388
# Velocity P-wave (km/s) = 7.20343 7.38901 1.16361
#
# Compressibility (1/GPa) = 0.02021690
#
# Stress axis : x y z
#
# Youngs Moduli (GPa) = 128.78555 61.48338 107.29405
#
# Poissons Ratio (x) = 0.08770 0.47787
# Poissons Ratio (y) = 0.18371 0.07360
# Poissons Ratio (z) = 0.57359 0.04218
#
# Static dielectric constant tensor:
#      x y z
#    x 1.650420 0.000000 0.000000 
#    y 0.000000 1.732460 0.000000 
#    z 0.000000 0.000000 1.690440 
# 
# From -- ./inp_files/15729.got.cif
#   From: 2010.05.17/outbox.cif.g08.bks.cpg/sg38_8_cif.got.tgz:15729.got - 2010.06.03 18:07:57.
