data_PCOD9357538
_publ_section_title
;
Structure prediction by ZEFSAII (Michael W. Deem and Ramdas Pophale) SiO2 
 PCOD9357538
Probable space group: A M M 2
;
_chemical_formula_sum "Si O2"
_cell_formula_units_Z 48
_cell_length_a 7.583154
_cell_length_b 9.408851
_cell_length_c 32.915770
_cell_angle_alpha 90.000000
_cell_angle_beta 90.000000
_cell_angle_gamma 90.000000
_cell_volume 2348.499575
_symmetry_space_group_name_H-M "A M M 2"
_symmetry_group_IT_number 38
_symmetry_cell_setting 'orthorhombic'
loop_
_space_group_symop_operation_xyz
x,y,z
-x,-y,z
-x,y,z
x,-y,z
x,1/2+y,1/2+z
-x,1/2-y,1/2+z
-x,1/2+y,1/2+z
x,1/2-y,1/2+z
loop_
_atom_site_type_symbol
_atom_site_label
_atom_site_fract_x
_atom_site_fract_y
_atom_site_fract_z
Si Si1 0.783874 0.836900 0.934490
Si Si2 0.208689 0.340459 0.011744
Si Si3 0.212259 0.163650 0.179567
Si Si4 0.708555 0.662048 0.590873
Si Si5 0.784102 0.164955 0.355249
Si Si6 0.792575 0.826825 0.266543
O O1 0.721345 0.750567 0.973919
O O2 0.728315 0.759876 0.893019
O O3 0.000000 0.836722 0.934641
O O4 0.727488 0.000000 0.936163
O O5 0.500000 0.151346 0.086856
O O6 0.282243 0.500000 0.013686
O O7 0.228279 0.257431 0.053888
O O8 0.254732 0.225959 0.135592
O O9 0.278564 0.223689 0.222786
O O10 0.000000 0.159624 0.182517
O O11 0.276932 0.000000 0.177300
O O12 0.782761 0.500000 0.588845
O O13 0.000000 0.852865 0.504301
O O14 0.720620 0.214929 0.310642
O O15 0.000000 0.166408 0.354192
O O16 0.733200 0.000000 0.361048
O O17 0.000000 0.789260 0.267186
O O18 0.782823 0.000000 0.265631
#
# Coordination Sequence:
#
# PCOD9357538 Si02
#       6
#     8   8   8   8   8   8
#     4   9  16  25  39  61  89 118 146 180 226 276
#     4  10  20  33  49  68  90 119 156 195 234 276
#     4   8  13  23  41  64  89 118 152 188 224 263
#     4  10  20  32  47  69  95 122 153 190 234 281
#     4   8  12  19  33  55  84 114 144 180 220 263
#     4   7  10  17  32  56  83 111 145 183 220 258
#
# _framework density 20.438580000000002
#
# number of rings (size 3 to 8) (size 9 to 14) (size 15 to 20)
#    0.000    3.333    0.000    3.500    0.000    4.000 
#    0.000    0.000    0.000    1.000    0.000    5.833 
#    0.000    4.000    0.000    0.000    0.000    0.000 
#
# Total GULP energy -133681.710943 kJ/mol
# GULP energy per Si atom -5570.071289 kJ/mol
# Density = 2.039206 g / cm^3
# Si number density = 20.438580 Si / 1000 Ang^3
#
#
#
# Elastic Constant Matrix: (Units=GPa)
#
#
# Indices 1 2 3 4 5 6 
#
# 1 44.1947 5.3987 0.4495 0.0000 0.0000 0.0000
# 2 5.3987 96.0086 100.7734 0.0000 0.0000 0.0000
# 3 0.4495 100.7734 250.5223 0.0000 0.0000 0.0000
# 4 0.0000 0.0000 0.0000 19.3674 0.0000 0.0000
# 5 0.0000 0.0000 0.0000 0.0000 -42.5199 0.0000
# 6 0.0000 0.0000 0.0000 0.0000 0.0000 -0.5596
#
#
#
# Elastic Compliance Matrix: (Units=1/GPa)
#
#
# Indices 1 2 3 4 5 6 
#
# 1 0.022882 -0.002152 0.000825 0.000000 0.000000 0.000000
# 2 -0.002152 0.018230 -0.007329 0.000000 0.000000 0.000000
# 3 0.000825 -0.007329 0.006938 0.000000 0.000000 0.000000
# 4 0.000000 0.000000 0.000000 0.051633 0.000000 0.000000
# 5 0.000000 0.000000 0.000000 0.000000 -0.023518 0.000000
# 6 0.000000 0.000000 0.000000 0.000000 0.000000 -1.786985
#
#
# Mechanical properties :
#
#
# Convention : Reuss Voigt Hill
#
# Bulk Modulus (GPa) = 32.53485 67.10765 49.82125
# Shear Modulus (GPa) = -2.97042 14.19784 5.61371
#
# Velocity S-wave (km/s) = -1.20685 2.63850 1.65909
# Velocity P-wave (km/s) = 3.74312 6.49518 5.30086
#
# Compressibility (1/GPa) = 0.03073627
#
# Stress axis : x y z
#
# Youngs Moduli (GPa) = 43.70304 54.85612 144.12745
#
# Poissons Ratio (x) = 0.11807 -0.11887
# Poissons Ratio (y) = 0.09406 1.05631
# Poissons Ratio (z) = -0.03604 0.40204
#
# Static dielectric constant tensor:
#      x y z
#    x 1.755970 0.000000 0.000000 
#    y 0.000000 1.721320 0.000000 
#    z 0.000000 0.000000 1.767020 
# 
# From -- ./inp_files/24300.got.cif
#   From: 2010.05.17/outbox.cif.g08.bks.cpg/sg38_13_cif.got.tgz:24300.got - 2010.06.03 18:07:57.
