data_PCOD9357777
_publ_section_title
;
Structure prediction by ZEFSAII (Michael W. Deem and Ramdas Pophale) SiO2 
 PCOD9357777
Probable space group: A M M 2
;
_chemical_formula_sum "Si O2"
_cell_formula_units_Z 64
_cell_length_a 7.936506
_cell_length_b 20.339911
_cell_length_c 21.291320
_cell_angle_alpha 90.000000
_cell_angle_beta 90.000000
_cell_angle_gamma 90.000000
_cell_volume 3437.011494
_symmetry_space_group_name_H-M "A M M 2"
_symmetry_group_IT_number 38
_symmetry_cell_setting 'orthorhombic'
loop_
_space_group_symop_operation_xyz
x,y,z
-x,-y,z
-x,y,z
x,-y,z
x,1/2+y,1/2+z
-x,1/2-y,1/2+z
-x,1/2+y,1/2+z
x,1/2-y,1/2+z
loop_
_atom_site_type_symbol
_atom_site_label
_atom_site_fract_x
_atom_site_fract_y
_atom_site_fract_z
Si Si1 0.203981 0.072401 0.620280
Si Si2 0.198916 0.572502 0.489139
Si Si3 0.201573 0.788859 0.947950
Si Si4 0.799180 0.792900 0.189651
Si Si5 0.299620 0.073529 0.132441
Si Si6 0.206418 0.709444 0.068704
Si Si7 0.700181 0.711647 0.311762
Si Si8 0.701880 0.072334 0.766510
O O1 0.260890 0.134465 0.579729
O O2 0.262902 0.079949 0.692224
O O3 0.000000 0.073264 0.621431
O O4 0.258735 0.000000 0.598325
O O5 0.272548 0.500000 0.475263
O O6 0.271087 0.636674 0.455203
O O7 0.217459 0.584458 0.563982
O O8 0.000000 0.569197 0.474922
O O9 0.236762 0.763306 0.878632
O O10 0.000000 0.793172 0.956147
O O11 0.264938 0.743442 0.004649
O O12 0.745940 0.868025 0.179191
O O13 0.737404 0.751757 0.129011
O O14 0.742107 0.758167 0.253321
O O15 0.000000 0.790250 0.188397
O O16 0.500000 0.074180 0.122756
O O17 0.250047 0.000000 0.153585
O O18 0.000000 0.709873 0.068452
O O19 0.500000 0.706358 0.315094
O O20 0.770644 0.637788 0.299449
O O21 0.500000 0.071094 0.775123
O O22 0.768158 0.000000 0.786055
#
# Coordination Sequence:
#
# PCOD9357777 Si02
#       8
#     8   8   8   8   8   8   8   8
#     4   9  16  28  50  78 104 129 164 212 259 303
#     4   9  17  31  51  75 104 140 182 221 259 311
#     4  10  20  35  51  71 102 141 178 219 265 312
#     4  11  20  35  58  80 103 137 178 224 268 314
#     4  10  20  33  52  81 113 140 170 214 266 318
#     4   9  17  31  52  78 103 130 171 218 264 307
#     4  11  23  36  50  75 107 141 180 222 266 319
#     4   9  18  32  48  69 102 140 172 205 250 306
#
# _framework density 18.620826999999998
#
# number of rings (size 3 to 8) (size 9 to 14) (size 15 to 20)
#    0.000    2.250    2.500    1.125    0.000    2.250 
#    0.000    0.625    0.000    0.750    0.000    1.750 
#    0.000    0.000    0.000    0.000    0.000    0.000 
#
# Total GULP energy -178522.704195 kJ/mol
# GULP energy per Si atom -5578.834506 kJ/mol
# Density = 1.857845 g / cm^3
# Si number density = 18.620827 Si / 1000 Ang^3
#
#
#
# Elastic Constant Matrix: (Units=GPa)
#
#
# Indices 1 2 3 4 5 6 
#
# 1 16.8721 1.2068 -3.9007 0.0000 0.0000 0.0000
# 2 1.2068 117.4978 63.7059 0.0000 0.0000 0.0000
# 3 -3.9007 63.7059 106.8827 0.0000 0.0000 0.0000
# 4 0.0000 0.0000 0.0000 25.4499 0.0000 0.0000
# 5 0.0000 0.0000 0.0000 0.0000 54.7757 0.0000
# 6 0.0000 0.0000 0.0000 0.0000 0.0000 12.7529
#
#
#
# Elastic Compliance Matrix: (Units=1/GPa)
#
#
# Indices 1 2 3 4 5 6 
#
# 1 0.060339 -0.002680 0.003799 0.000000 0.000000 0.000000
# 2 -0.002680 0.012693 -0.007664 0.000000 0.000000 0.000000
# 3 0.003799 -0.007664 0.014062 0.000000 0.000000 0.000000
# 4 0.000000 0.000000 0.000000 0.039293 0.000000 0.000000
# 5 0.000000 0.000000 0.000000 0.000000 0.018256 0.000000
# 6 0.000000 0.000000 0.000000 0.000000 0.000000 0.078414
#
#
# Mechanical properties :
#
#
# Convention : Reuss Voigt Hill
#
# Bulk Modulus (GPa) = 13.51215 40.36407 26.93811
# Shear Modulus (GPa) = 19.17067 30.61174 24.89120
#
# Velocity S-wave (km/s) = 3.21211 4.05897 3.66011
# Velocity P-wave (km/s) = 4.58575 6.60990 5.68858
#
# Compressibility (1/GPa) = 0.07400747
#
# Stress axis : x y z
#
# Youngs Moduli (GPa) = 16.57291 78.78119 71.11147
#
# Poissons Ratio (x) = 0.21111 -0.27017
# Poissons Ratio (y) = 0.04441 0.54496
# Poissons Ratio (z) = -0.06296 0.60374
#
# Static dielectric constant tensor:
#      x y z
#    x 1.661760 0.000000 0.000000 
#    y 0.000000 1.683760 0.000000 
#    z 0.000000 0.000000 1.630990 
# 
# From -- ./inp_files/20216.got.cif
#   From: 2010.05.17/outbox.cif.g08.bks.cpg/sg38_11_cif.got.tgz:20216.got - 2010.06.03 18:07:57.
