data_PCOD9357304
_publ_section_title
;
Structure prediction by ZEFSAII (Michael W. Deem and Ramdas Pophale) SiO2 
 PCOD9357304
Probable space group: A M M 2
;
_chemical_formula_sum "Si O2"
_cell_formula_units_Z 48
_cell_length_a 8.841197
_cell_length_b 18.479092
_cell_length_c 15.113637
_cell_angle_alpha 90.000000
_cell_angle_beta 90.000000
_cell_angle_gamma 90.000000
_cell_volume 2469.225097
_symmetry_space_group_name_H-M "A M M 2"
_symmetry_group_IT_number 38
_symmetry_cell_setting 'orthorhombic'
loop_
_space_group_symop_operation_xyz
x,y,z
-x,-y,z
-x,y,z
x,-y,z
x,1/2+y,1/2+z
-x,1/2-y,1/2+z
-x,1/2+y,1/2+z
x,1/2-y,1/2+z
loop_
_atom_site_type_symbol
_atom_site_label
_atom_site_fract_x
_atom_site_fract_y
_atom_site_fract_z
Si Si1 0.819401 0.269023 0.488000
Si Si2 0.327912 0.623189 0.236586
Si Si3 0.674889 0.500000 0.092496
Si Si4 0.178075 0.500000 0.906589
Si Si5 0.322989 0.920353 0.935675
Si Si6 0.679985 0.347667 0.851013
Si Si7 0.176952 0.765679 0.193568
O O1 0.769527 0.350784 0.466060
O O2 0.742052 0.210953 0.422657
O O3 0.777278 0.258508 0.591011
O O4 0.000000 0.260810 0.478971
O O5 0.500000 0.653340 0.230995
O O6 0.305528 0.569394 0.155113
O O7 0.318459 0.581695 0.329020
O O8 0.209305 0.687473 0.235419
O O9 0.500000 0.500000 0.060039
O O10 0.787344 0.500000 0.011271
O O11 0.251845 0.573462 0.869947
O O12 0.000000 0.500000 0.889317
O O13 0.500000 0.911595 0.960919
O O14 0.271287 0.000000 0.966265
O O15 0.500000 0.349480 0.857928
O O16 0.731003 0.321220 0.753919
O O17 0.000000 0.784068 0.197279
#
# Coordination Sequence:
#
# PCOD9357304 Si02
#       7
#     8   8   4   4   8   8   8
#     4  11  24  42  65  95 129 167 210 261 320 378
#     4  10  19  34  59  90 123 160 203 254 310 371
#     4  10  20  36  60  93 130 165 208 257 311 377
#     4  12  26  44  64  91 128 165 208 263 321 377
#     4  10  20  37  61  91 126 165 206 255 310 367
#     4  12  25  44  69  94 125 167 215 265 317 377
#     4  11  24  41  62  91 125 165 211 261 316 377
#
# _framework density 19.439297
#
# number of rings (size 3 to 8) (size 9 to 14) (size 15 to 20)
#    0.000    1.167    2.500    4.250    0.000    6.333 
#    1.500    0.000    0.000    0.000    0.000    0.000 
#    0.000    0.000    0.000    0.000    0.000    0.000 
#
# Total GULP energy -134114.994484 kJ/mol
# GULP energy per Si atom -5588.124770 kJ/mol
# Density = 1.939505 g / cm^3
# Si number density = 19.439297 Si / 1000 Ang^3
#
#
#
# Elastic Constant Matrix: (Units=GPa)
#
#
# Indices 1 2 3 4 5 6 
#
# 1 93.1288 45.4897 39.0538 0.0000 0.0000 0.0000
# 2 45.4897 116.3872 22.0165 0.0000 0.0000 0.0000
# 3 39.0538 22.0165 58.6390 0.0000 0.0000 0.0000
# 4 0.0000 0.0000 0.0000 20.2512 0.0000 0.0000
# 5 0.0000 0.0000 0.0000 0.0000 153.1546 0.0000
# 6 0.0000 0.0000 0.0000 0.0000 0.0000 40.6658
#
#
#
# Elastic Compliance Matrix: (Units=1/GPa)
#
#
# Indices 1 2 3 4 5 6 
#
# 1 0.017144 -0.004888 -0.009583 0.000000 0.000000 0.000000
# 2 -0.004888 0.010643 -0.000740 0.000000 0.000000 0.000000
# 3 -0.009583 -0.000740 0.023714 0.000000 0.000000 0.000000
# 4 0.000000 0.000000 0.000000 0.049380 0.000000 0.000000
# 5 0.000000 0.000000 0.000000 0.000000 0.006529 0.000000
# 6 0.000000 0.000000 0.000000 0.000000 0.000000 0.024591
#
#
# Mechanical properties :
#
#
# Convention : Reuss Voigt Hill
#
# Bulk Modulus (GPa) = 47.44305 53.47500 50.45903
# Shear Modulus (GPa) = 29.50757 53.58731 41.54744
#
# Velocity S-wave (km/s) = 3.90029 5.25608 4.62810
# Velocity P-wave (km/s) = 6.68893 8.02518 7.38733
#
# Compressibility (1/GPa) = 0.02107790
#
# Stress axis : x y z
#
# Youngs Moduli (GPa) = 58.32977 93.96278 42.16983
#
# Poissons Ratio (x) = 0.45928 0.40410
# Poissons Ratio (y) = 0.28511 0.03122
# Poissons Ratio (z) = 0.55896 0.06957
#
# Static dielectric constant tensor:
#      x y z
#    x 1.360670 0.000000 0.000000 
#    y 0.000000 1.676110 0.000000 
#    z 0.000000 0.000000 1.679890 
# 
# From -- ./inp_files/12065.got.cif
#   From: 2010.05.17/outbox.cif.g08.bks.cpg/sg38_7_cif.got.tgz:12065.got - 2010.06.03 18:07:57.
