data_PCOD9357329
_publ_section_title
;
Structure prediction by ZEFSAII (Michael W. Deem and Ramdas Pophale) SiO2 
 PCOD9357329
Probable space group: A M M 2
;
_chemical_formula_sum "Si O2"
_cell_formula_units_Z 40
_cell_length_a 11.855829
_cell_length_b 7.586229
_cell_length_c 21.253787
_cell_angle_alpha 90.000000
_cell_angle_beta 90.000000
_cell_angle_gamma 90.000000
_cell_volume 1911.587574
_symmetry_space_group_name_H-M "A M M 2"
_symmetry_group_IT_number 38
_symmetry_cell_setting 'orthorhombic'
loop_
_space_group_symop_operation_xyz
x,y,z
-x,-y,z
-x,y,z
x,-y,z
x,1/2+y,1/2+z
-x,1/2-y,1/2+z
-x,1/2+y,1/2+z
x,1/2-y,1/2+z
loop_
_atom_site_type_symbol
_atom_site_label
_atom_site_fract_x
_atom_site_fract_y
_atom_site_fract_z
Si Si1 0.265024 0.802152 0.283740
Si Si2 0.132041 0.714873 0.662571
Si Si3 0.500000 0.299889 0.086336
Si Si4 0.262802 0.699351 0.540021
Si Si5 0.632621 0.792626 0.915300
Si Si6 0.500000 0.200033 0.734377
O O1 0.188438 0.720610 0.228037
O O2 0.294673 0.722772 0.351623
O O3 0.388891 0.800154 0.253766
O O4 0.222795 0.000000 0.294848
O O5 0.147210 0.500000 0.662882
O O6 0.189692 0.778925 0.597424
O O7 0.000000 0.753877 0.662114
O O8 0.500000 0.500000 0.059635
O O9 0.388991 0.198833 0.066921
O O10 0.500000 0.316697 0.160442
O O11 0.218587 0.500000 0.530114
O O12 0.290027 0.783509 0.471927
O O13 0.500000 0.726708 0.910466
O O14 0.620834 0.000000 0.929182
O O15 0.500000 0.000000 0.762511
#
# Coordination Sequence:
#
# PCOD9357329 Si02
#       6
#     8   8   4   8   8   4
#     4  11  21  33  55  81 108 141 181 222 261 319
#     4   9  19  36  58  81 102 134 185 236 268 300
#     4  11  21  30  49  82 115 139 167 220 277 324
#     4  10  19  35  57  78 107 144 180 217 261 323
#     4  10  20  33  51  79 118 149 169 209 271 326
#     4  11  21  32  49  78 115 143 169 216 277 326
#
# _framework density 20.925014999999998
#
# number of rings (size 3 to 8) (size 9 to 14) (size 15 to 20)
#    0.000    1.800    4.000    1.200    0.000    1.600 
#    0.000    1.000    0.000    6.600    0.000    0.000 
#    0.000    0.000    0.000    0.000    0.000    0.000 
#
# Total GULP energy -111359.420694 kJ/mol
# GULP energy per Si atom -5567.971035 kJ/mol
# Density = 2.087739 g / cm^3
# Si number density = 20.925015 Si / 1000 Ang^3
#
#
#
# Elastic Constant Matrix: (Units=GPa)
#
#
# Indices 1 2 3 4 5 6 
#
# 1 114.6708 -6.3383 76.0234 0.0000 0.0000 0.0000
# 2 -6.3383 60.1102 5.9310 0.0000 0.0000 0.0000
# 3 76.0234 5.9310 198.2146 0.0000 0.0000 0.0000
# 4 0.0000 0.0000 0.0000 16.6759 0.0000 0.0000
# 5 0.0000 0.0000 0.0000 0.0000 1.7041 0.0000
# 6 0.0000 0.0000 0.0000 0.0000 0.0000 4.6736
#
#
#
# Elastic Compliance Matrix: (Units=1/GPa)
#
#
# Indices 1 2 3 4 5 6 
#
# 1 0.011866 0.001705 -0.004602 0.000000 0.000000 0.000000
# 2 0.001705 0.016930 -0.001161 0.000000 0.000000 0.000000
# 3 -0.004602 -0.001161 0.006845 0.000000 0.000000 0.000000
# 4 0.000000 0.000000 0.000000 0.059967 0.000000 0.000000
# 5 0.000000 0.000000 0.000000 0.000000 0.586809 0.000000
# 6 0.000000 0.000000 0.000000 0.000000 0.000000 0.213967
#
#
# Mechanical properties :
#
#
# Convention : Reuss Voigt Hill
#
# Bulk Modulus (GPa) = 36.32885 58.24752 47.28819
# Shear Modulus (GPa) = 5.47241 24.43604 14.95423
#
# Velocity S-wave (km/s) = 1.61893 3.42100 2.67621
# Velocity P-wave (km/s) = 4.57096 6.59554 5.67427
#
# Compressibility (1/GPa) = 0.02752633
#
# Stress axis : x y z
#
# Youngs Moduli (GPa) = 84.27494 59.06519 146.09511
#
# Poissons Ratio (x) = -0.10072 0.67234
# Poissons Ratio (y) = -0.14371 0.16956
# Poissons Ratio (z) = 0.38784 0.06855
#
# Static dielectric constant tensor:
#      x y z
#    x 1.690150 0.000000 0.000000 
#    y 0.000000 1.876290 0.000000 
#    z 0.000000 0.000000 1.849430 
# 
# From -- ./inp_files/20454.got.cif
#   From: 2010.05.17/outbox.cif.g08.bks.cpg/sg38_11_cif.got.tgz:20454.got - 2010.06.03 18:07:57.
