data_PCOD9357765
_publ_section_title
;
Structure prediction by ZEFSAII (Michael W. Deem and Ramdas Pophale) SiO2 
 PCOD9357765
Probable space group: A M M 2
;
_chemical_formula_sum "Si O2"
_cell_formula_units_Z 48
_cell_length_a 9.864244
_cell_length_b 7.783213
_cell_length_c 31.249116
_cell_angle_alpha 90.000000
_cell_angle_beta 90.000000
_cell_angle_gamma 90.000000
_cell_volume 2399.166885
_symmetry_space_group_name_H-M "A M M 2"
_symmetry_group_IT_number 38
_symmetry_cell_setting 'orthorhombic'
loop_
_space_group_symop_operation_xyz
x,y,z
-x,-y,z
-x,y,z
x,-y,z
x,1/2+y,1/2+z
-x,1/2-y,1/2+z
-x,1/2+y,1/2+z
x,1/2-y,1/2+z
loop_
_atom_site_type_symbol
_atom_site_label
_atom_site_fract_x
_atom_site_fract_y
_atom_site_fract_z
Si Si1 0.346689 0.792700 0.149090
Si Si2 0.846933 0.794517 0.726561
Si Si3 0.847080 0.794996 0.976322
Si Si4 0.346425 0.206736 0.801446
Si Si5 0.345709 0.290057 0.551475
Si Si6 0.653497 0.204787 0.398910
O O1 0.500000 0.734219 0.160311
O O2 0.237091 0.736442 0.183427
O O3 0.317180 0.736810 0.100348
O O4 0.348678 0.000000 0.148887
O O5 0.759075 0.726339 0.766487
O O6 0.000000 0.725744 0.724759
O O7 0.856304 0.000000 0.732100
O O8 0.760518 0.767111 0.933562
O O9 0.000000 0.725921 0.973594
O O10 0.857005 0.000000 0.982358
O O11 0.761165 0.727009 0.016649
O O12 0.500000 0.271726 0.793854
O O13 0.309402 0.247954 0.850295
O O14 0.350851 0.000000 0.797622
O O15 0.500000 0.238293 0.540592
O O16 0.344234 0.500000 0.551085
O O17 0.500000 0.272346 0.407019
O O18 0.648361 0.000000 0.401826
#
# Coordination Sequence:
#
# PCOD9357765 Si02
#       6
#     8   8   8   8   8   8
#     4   9  18  33  54  79 104 132 170 214 256 299
#     4  10  21  35  51  75 107 139 170 206 250 302
#     4  10  20  33  52  78 105 135 171 209 251 301
#     4   9  18  34  55  75  97 131 174 215 253 296
#     4   8  15  30  52  76 101 131 170 214 254 294
#     4  10  21  36  54  77 104 133 167 209 256 304
#
# _framework density 20.006945000000002
#
# number of rings (size 3 to 8) (size 9 to 14) (size 15 to 20)
#    0.000    2.667    0.000    2.500    0.000    5.333 
#    0.000    5.833    0.000    1.000    0.000    0.000 
#    0.000    0.000    0.000    0.000    0.000    0.000 
#
# Total GULP energy -133946.789476 kJ/mol
# GULP energy per Si atom -5581.116228 kJ/mol
# Density = 1.996141 g / cm^3
# Si number density = 20.006945 Si / 1000 Ang^3
#
#
#
# Elastic Constant Matrix: (Units=GPa)
#
#
# Indices 1 2 3 4 5 6 
#
# 1 193.9774 8.6527 151.3973 0.0000 0.0000 0.0000
# 2 8.6527 25.8274 -0.3668 0.0000 0.0000 0.0000
# 3 151.3973 -0.3668 161.1186 0.0000 0.0000 0.0000
# 4 0.0000 0.0000 0.0000 18.4328 0.0000 0.0000
# 5 0.0000 0.0000 0.0000 0.0000 14.8856 0.0000
# 6 0.0000 0.0000 0.0000 0.0000 0.0000 15.2346
#
#
#
# Elastic Compliance Matrix: (Units=1/GPa)
#
#
# Indices 1 2 3 4 5 6 
#
# 1 0.020584 -0.007171 -0.019359 0.000000 0.000000 0.000000
# 2 -0.007171 0.041218 0.006832 0.000000 0.000000 0.000000
# 3 -0.019359 0.006832 0.024413 0.000000 0.000000 0.000000
# 4 0.000000 0.000000 0.000000 0.054251 0.000000 0.000000
# 5 0.000000 0.000000 0.000000 0.000000 0.067179 0.000000
# 6 0.000000 0.000000 0.000000 0.000000 0.000000 0.065640
#
#
# Mechanical properties :
#
#
# Convention : Reuss Voigt Hill
#
# Bulk Modulus (GPa) = 21.35829 77.80999 49.58414
# Shear Modulus (GPa) = 15.23055 24.45995 19.84525
#
# Velocity S-wave (km/s) = 2.76209 3.50032 3.15289
# Velocity P-wave (km/s) = 4.56846 7.43722 6.17184
#
# Compressibility (1/GPa) = 0.04682023
#
# Stress axis : x y z
#
# Youngs Moduli (GPa) = 48.58029 24.26117 40.96188
#
# Poissons Ratio (x) = 0.17398 0.79297
# Poissons Ratio (y) = 0.34838 -0.27987
# Poissons Ratio (z) = 0.94046 -0.16576
#
# Static dielectric constant tensor:
#      x y z
#    x 1.704700 0.000000 0.000000 
#    y 0.000000 1.745760 0.000000 
#    z 0.000000 0.000000 1.675760 
# 
# From -- ./inp_files/24284.got.cif
#   From: 2010.05.17/outbox.cif.g08.bks.cpg/sg38_13_cif.got.tgz:24284.got - 2010.06.03 18:07:57.
