data_PCOD9357629
_publ_section_title
;
Structure prediction by ZEFSAII (Michael W. Deem and Ramdas Pophale) SiO2 
 PCOD9357629
Probable space group: A M M 2
;
_chemical_formula_sum "Si O2"
_cell_formula_units_Z 58
_cell_length_a 7.707141
_cell_length_b 25.985958
_cell_length_c 12.649034
_cell_angle_alpha 90.000000
_cell_angle_beta 90.000000
_cell_angle_gamma 90.000000
_cell_volume 2533.316177
_symmetry_space_group_name_H-M "A M M 2"
_symmetry_group_IT_number 38
_symmetry_cell_setting 'orthorhombic'
loop_
_space_group_symop_operation_xyz
x,y,z
-x,-y,z
-x,y,z
x,-y,z
x,1/2+y,1/2+z
-x,1/2-y,1/2+z
-x,1/2+y,1/2+z
x,1/2-y,1/2+z
loop_
_atom_site_type_symbol
_atom_site_label
_atom_site_fract_x
_atom_site_fract_y
_atom_site_fract_z
Si Si1 0.200243 0.168357 0.059170
Si Si2 0.286463 0.906929 0.440107
Si Si3 0.291733 0.443423 0.505072
Si Si4 0.696653 0.818931 0.292006
Si Si5 0.000000 0.000000 0.451828
Si Si6 0.191884 0.211907 0.842929
Si Si7 0.794207 0.056923 0.756645
Si Si8 0.310504 0.155496 0.636794
O O1 0.208770 0.106530 0.055684
O O2 0.290683 0.185304 0.166149
O O3 0.000000 0.185831 0.067771
O O4 0.279598 0.189180 0.948594
O O5 0.500000 0.917475 0.451996
O O6 0.261060 0.876449 0.330087
O O7 0.230569 0.863650 0.527237
O O8 0.156323 0.954736 0.451068
O O9 0.500000 0.439667 0.514191
O O10 0.238337 0.500000 0.545815
O O11 0.242200 0.441958 0.381213
O O12 0.500000 0.808780 0.325994
O O13 0.804793 0.773176 0.343916
O O14 0.248075 0.194566 0.726216
O O15 0.000000 0.189383 0.850831
O O16 0.691725 0.101681 0.700807
O O17 0.000000 0.064209 0.738507
O O18 0.748050 0.000000 0.716568
O O19 0.500000 0.173964 0.606999
#
# Coordination Sequence:
#
# PCOD9357629 Si02
#       8
#     8   8   8   8   2   8   8   8
#     4  11  24  43  68 100 136 177 229 286 345 418
#     4  10  27  49  73 112 148 187 250 305 359 440
#     4  10  20  36  58  89 129 175 222 273 339 401
#     4  11  26  49  73  99 140 184 235 296 351 422
#     4  12  26  48  88 102 146 204 238 296 378 436
#     4  11  25  43  69 103 140 182 237 296 355 430
#     4  10  20  32  53  85 127 172 223 279 340 409
#     4  11  23  40  64  97 142 184 234 296 353 422
#
# _framework density 22.894891000000001
#
# number of rings (size 3 to 8) (size 9 to 14) (size 15 to 20)
#    0.000    1.379    1.379    2.690    6.759    3.310 
#    1.241    0.000    0.000    0.000    0.000    0.000 
#    0.000    0.000    0.000    0.000    0.000    0.000 
#
# Total GULP energy -161560.098666 kJ/mol
# GULP energy per Si atom -5571.037885 kJ/mol
# Density = 2.284278 g / cm^3
# Si number density = 22.894891 Si / 1000 Ang^3
#
#
#
# Elastic Constant Matrix: (Units=GPa)
#
#
# Indices 1 2 3 4 5 6 
#
# 1 77.5509 16.4525 20.1212 0.0000 0.0000 0.0000
# 2 16.4525 92.7361 43.7811 0.0000 0.0000 0.0000
# 3 20.1212 43.7811 87.5107 0.0000 0.0000 0.0000
# 4 0.0000 0.0000 0.0000 21.4898 0.0000 0.0000
# 5 0.0000 0.0000 0.0000 0.0000 17.3040 0.0000
# 6 0.0000 0.0000 0.0000 0.0000 0.0000 30.2754
#
#
#
# Elastic Compliance Matrix: (Units=1/GPa)
#
#
# Indices 1 2 3 4 5 6 
#
# 1 0.013822 -0.001246 -0.002555 0.000000 0.000000 0.000000
# 2 -0.001246 0.014230 -0.006833 0.000000 0.000000 0.000000
# 3 -0.002555 -0.006833 0.015433 0.000000 0.000000 0.000000
# 4 0.000000 0.000000 0.000000 0.046534 0.000000 0.000000
# 5 0.000000 0.000000 0.000000 0.000000 0.057790 0.000000
# 6 0.000000 0.000000 0.000000 0.000000 0.000000 0.033030
#
#
# Mechanical properties :
#
#
# Convention : Reuss Voigt Hill
#
# Bulk Modulus (GPa) = 45.00848 46.50080 45.75464
# Shear Modulus (GPa) = 23.86499 25.64337 24.75418
#
# Velocity S-wave (km/s) = 3.23208 3.35034 3.29174
# Velocity P-wave (km/s) = 5.79913 5.94315 5.87158
#
# Compressibility (1/GPa) = 0.02221803
#
# Stress axis : x y z
#
# Youngs Moduli (GPa) = 72.34871 70.27347 64.79646
#
# Poissons Ratio (x) = 0.08757 0.16553
# Poissons Ratio (y) = 0.09016 0.44274
# Poissons Ratio (z) = 0.18482 0.48016
#
# Static dielectric constant tensor:
#      x y z
#    x 1.877890 0.000000 0.000000 
#    y 0.000000 1.842790 0.000000 
#    z 0.000000 0.000000 1.914680 
# 
# From -- ./inp_files/8343.got.cif
#   From: 2010.05.17/outbox.cif.g08.bks.cpg/sg38_5_cif.got.tgz:8343.got - 2010.06.03 18:07:57.
