data_PCOD9357164
_publ_section_title
;
Structure prediction by ZEFSAII (Michael W. Deem and Ramdas Pophale) SiO2 
 PCOD9357164
Probable space group: A M M 2
;
_chemical_formula_sum "Si O2"
_cell_formula_units_Z 64
_cell_length_a 20.824674
_cell_length_b 18.364153
_cell_length_c 9.006119
_cell_angle_alpha 90.000000
_cell_angle_beta 90.000000
_cell_angle_gamma 90.000000
_cell_volume 3444.187569
_symmetry_space_group_name_H-M "A M M 2"
_symmetry_group_IT_number 38
_symmetry_cell_setting 'orthorhombic'
loop_
_space_group_symop_operation_xyz
x,y,z
-x,-y,z
-x,y,z
x,-y,z
x,1/2+y,1/2+z
-x,1/2-y,1/2+z
-x,1/2+y,1/2+z
x,1/2-y,1/2+z
loop_
_atom_site_type_symbol
_atom_site_label
_atom_site_fract_x
_atom_site_fract_y
_atom_site_fract_z
Si Si1 0.191795 0.916076 0.708240
Si Si2 0.798998 0.815297 0.979990
Si Si3 0.334199 0.915461 0.691490
Si Si4 0.653059 0.699369 0.455294
Si Si5 0.573003 0.916326 0.136558
Si Si6 0.881279 0.287387 0.759077
Si Si7 0.929649 0.339819 0.059885
Si Si8 0.426560 0.849305 0.459423
O O1 0.261348 0.905893 0.631830
O O2 0.133259 0.879638 0.622170
O O3 0.177469 0.000000 0.715925
O O4 0.200888 0.886156 0.875488
O O5 0.726521 0.788130 0.005590
O O6 0.835972 0.825079 0.135476
O O7 0.835727 0.759098 0.870704
O O8 0.389033 0.900337 0.573379
O O9 0.337926 0.000000 0.747037
O O10 0.343120 0.849687 0.807418
O O11 0.617474 0.644364 0.565063
O O12 0.613445 0.774084 0.440787
O O13 0.500000 0.910835 0.076377
O O14 0.570695 0.894471 0.308020
O O15 0.594449 0.000000 0.116146
O O16 0.924811 0.235570 0.654435
O O17 0.921482 0.331025 0.882132
O O18 0.000000 0.372265 0.091045
O O19 0.500000 0.832385 0.505817
#
# Coordination Sequence:
#
# PCOD9357164 Si02
#       8
#     8   8   8   8   8   8   8   8
#     4   9  20  38  56  82 114 147 191 235 279 337
#     4   9  20  33  57  81 112 150 180 231 288 338
#     4  10  22  40  60  82 112 153 195 235 285 350
#     4  11  22  34  59  84 111 144 189 241 291 342
#     4  10  22  39  54  73 107 148 187 232 289 351
#     4   9  19  34  53  85 116 143 185 229 279 336
#     4  10  19  33  57  83 114 151 186 230 278 332
#     4  11  24  38  56  84 114 144 188 244 297 342
#
# _framework density 18.582031000000001
#
# number of rings (size 3 to 8) (size 9 to 14) (size 15 to 20)
#    0.000    2.125    0.000    2.250    8.750    3.500 
#    0.000    1.250    0.000    0.000    0.000    0.000 
#    0.000    0.000    0.000    0.000    0.000    0.000 
#
# Total GULP energy -178245.245980 kJ/mol
# GULP energy per Si atom -5570.163937 kJ/mol
# Density = 1.853974 g / cm^3
# Si number density = 18.582031 Si / 1000 Ang^3
#
#
#
# Elastic Constant Matrix: (Units=GPa)
#
#
# Indices 1 2 3 4 5 6 
#
# 1 111.6586 19.3029 29.7005 0.0000 0.0000 0.0000
# 2 19.3029 59.7753 1.3224 0.0000 0.0000 0.0000
# 3 29.7005 1.3224 67.7716 0.0000 0.0000 0.0000
# 4 0.0000 0.0000 0.0000 13.5111 0.0000 0.0000
# 5 0.0000 0.0000 0.0000 0.0000 35.3108 0.0000
# 6 0.0000 0.0000 0.0000 0.0000 0.0000 6.1640
#
#
#
# Elastic Compliance Matrix: (Units=1/GPa)
#
#
# Indices 1 2 3 4 5 6 
#
# 1 0.010779 -0.003378 -0.004658 0.000000 0.000000 0.000000
# 2 -0.003378 0.017795 0.001133 0.000000 0.000000 0.000000
# 3 -0.004658 0.001133 0.016775 0.000000 0.000000 0.000000
# 4 0.000000 0.000000 0.000000 0.074013 0.000000 0.000000
# 5 0.000000 0.000000 0.000000 0.000000 0.028320 0.000000
# 6 0.000000 0.000000 0.000000 0.000000 0.000000 0.162231
#
#
# Mechanical properties :
#
#
# Convention : Reuss Voigt Hill
#
# Bulk Modulus (GPa) = 31.70239 37.76193 34.73216
# Shear Modulus (GPa) = 14.95967 23.58916 19.27442
#
# Velocity S-wave (km/s) = 2.84044 3.56681 3.22415
# Velocity P-wave (km/s) = 5.27781 6.10973 5.70894
#
# Compressibility (1/GPa) = 0.03154336
#
# Stress axis : x y z
#
# Youngs Moduli (GPa) = 92.77527 56.19557 59.61400
#
# Poissons Ratio (x) = 0.18981 0.27767
# Poissons Ratio (y) = 0.31336 -0.06754
# Poissons Ratio (z) = 0.43213 -0.06367
#
# Static dielectric constant tensor:
#      x y z
#    x 1.676770 0.000000 0.000000 
#    y 0.000000 1.645120 0.000000 
#    z 0.000000 0.000000 1.669430 
# 
# From -- ./inp_files/6830.got.cif
#   From: 2010.05.17/outbox.cif.g08.bks.cpg/sg38_4_cif.got.tgz:6830.got - 2010.06.03 18:07:57.
