data_PCOD9357047
_publ_section_title
;
Structure prediction by ZEFSAII (Michael W. Deem and Ramdas Pophale) SiO2 
 PCOD9357047
Probable space group: A M M 2
;
_chemical_formula_sum "Si O2"
_cell_formula_units_Z 56
_cell_length_a 17.563044
_cell_length_b 18.713710
_cell_length_c 9.540402
_cell_angle_alpha 90.000000
_cell_angle_beta 90.000000
_cell_angle_gamma 90.000000
_cell_volume 3135.641179
_symmetry_space_group_name_H-M "A M M 2"
_symmetry_group_IT_number 38
_symmetry_cell_setting 'orthorhombic'
loop_
_space_group_symop_operation_xyz
x,y,z
-x,-y,z
-x,y,z
x,-y,z
x,1/2+y,1/2+z
-x,1/2-y,1/2+z
-x,1/2+y,1/2+z
x,1/2-y,1/2+z
loop_
_atom_site_type_symbol
_atom_site_label
_atom_site_fract_x
_atom_site_fract_y
_atom_site_fract_z
Si Si1 0.088552 0.234177 0.993550
Si Si2 0.914821 0.916817 0.828397
Si Si3 0.729700 0.917124 0.094083
Si Si4 0.660139 0.709819 0.250550
Si Si5 0.588463 0.177708 0.048098
Si Si6 0.186586 0.298298 0.759302
Si Si7 0.754475 0.419044 0.258574
O O1 0.090171 0.152219 0.931185
O O2 0.129529 0.288691 0.887786
O O3 0.000000 0.251268 0.017634
O O4 0.139110 0.235321 0.131809
O O5 0.843383 0.908907 0.724715
O O6 0.000000 0.913731 0.767644
O O7 0.906859 0.000000 0.886362
O O8 0.645191 0.884106 0.101351
O O9 0.784502 0.873559 0.197840
O O10 0.731170 0.000000 0.126026
O O11 0.751892 0.908146 0.928974
O O12 0.612153 0.753296 0.138299
O O13 0.610643 0.693155 0.387246
O O14 0.735813 0.754965 0.291354
O O15 0.696746 0.636794 0.193200
O O16 0.500000 0.161022 0.062539
O O17 0.731978 0.500000 0.229623
#
# Coordination Sequence:
#
# PCOD9357047 Si02
#       7
#     8   8   8   8   8   8   8
#     4  11  21  32  49  76 106 139 180 224 264 300
#     4   9  16  27  46  73 102 133 171 218 265 298
#     4   9  18  31  51  76 101 130 167 210 258 308
#     4  10  19  33  52  79 103 135 172 207 256 317
#     4  10  20  34  55  79 105 133 165 211 263 317
#     4  11  19  34  52  74 103 139 176 218 260 308
#     4   9  15  29  49  73 102 130 169 217 253 293
#
# _framework density 17.859186000000001
#
# number of rings (size 3 to 8) (size 9 to 14) (size 15 to 20)
#    0.000    2.143    2.857    2.571    0.000    0.286 
#    0.000    0.000    0.000   11.143    0.000    0.000 
#    0.000    0.000    0.000    0.000    0.000    0.000 
#
# Total GULP energy -155981.160314 kJ/mol
# GULP energy per Si atom -5570.755725 kJ/mol
# Density = 1.781854 g / cm^3
# Si number density = 17.859186 Si / 1000 Ang^3
#
#
#
# Elastic Constant Matrix: (Units=GPa)
#
#
# Indices 1 2 3 4 5 6 
#
# 1 128.8148 46.9474 31.5982 0.0000 0.0000 0.0000
# 2 46.9474 75.8696 8.2928 0.0000 0.0000 0.0000
# 3 31.5982 8.2928 30.7766 0.0000 0.0000 0.0000
# 4 0.0000 0.0000 0.0000 16.5427 0.0000 0.0000
# 5 0.0000 0.0000 0.0000 0.0000 16.1769 0.0000
# 6 0.0000 0.0000 0.0000 0.0000 0.0000 16.3393
#
#
#
# Elastic Compliance Matrix: (Units=1/GPa)
#
#
# Indices 1 2 3 4 5 6 
#
# 1 0.013104 -0.006839 -0.011611 0.000000 0.000000 0.000000
# 2 -0.006839 0.017150 0.002401 0.000000 0.000000 0.000000
# 3 -0.011611 0.002401 0.043766 0.000000 0.000000 0.000000
# 4 0.000000 0.000000 0.000000 0.060450 0.000000 0.000000
# 5 0.000000 0.000000 0.000000 0.000000 0.061817 0.000000
# 6 0.000000 0.000000 0.000000 0.000000 0.000000 0.061202
#
#
# Mechanical properties :
#
#
# Convention : Reuss Voigt Hill
#
# Bulk Modulus (GPa) = 23.85412 45.45975 34.65694
# Shear Modulus (GPa) = 16.47115 19.71996 18.09556
#
# Velocity S-wave (km/s) = 3.04020 3.32654 3.18659
# Velocity P-wave (km/s) = 5.07046 6.34542 5.74342
#
# Compressibility (1/GPa) = 0.04192147
#
# Stress axis : x y z
#
# Youngs Moduli (GPa) = 76.31327 58.30813 22.84875
#
# Poissons Ratio (x) = 0.39880 0.26529
# Poissons Ratio (y) = 0.52194 -0.05486
# Poissons Ratio (z) = 0.88606 -0.13999
#
# Static dielectric constant tensor:
#      x y z
#    x 1.616770 0.000000 0.000000 
#    y 0.000000 1.645680 0.000000 
#    z 0.000000 0.000000 1.621240 
# 
# From -- ./inp_files/6446.got.cif
#   From: 2010.05.17/outbox.cif.g08.bks.cpg/sg38_4_cif.got.tgz:6446.got - 2010.06.03 18:07:57.
