data_PCOD9357858
_publ_section_title
;
Structure prediction by ZEFSAII (Michael W. Deem and Ramdas Pophale) SiO2 
 PCOD9357858
Probable space group: A M M 2
;
_chemical_formula_sum "Si O2"
_cell_formula_units_Z 48
_cell_length_a 7.793228
_cell_length_b 9.689058
_cell_length_c 35.337039
_cell_angle_alpha 90.000000
_cell_angle_beta 90.000000
_cell_angle_gamma 90.000000
_cell_volume 2668.265824
_symmetry_space_group_name_H-M "A M M 2"
_symmetry_group_IT_number 38
_symmetry_cell_setting 'orthorhombic'
loop_
_space_group_symop_operation_xyz
x,y,z
-x,-y,z
-x,y,z
x,-y,z
x,1/2+y,1/2+z
-x,1/2-y,1/2+z
-x,1/2+y,1/2+z
x,1/2-y,1/2+z
loop_
_atom_site_type_symbol
_atom_site_label
_atom_site_fract_x
_atom_site_fract_y
_atom_site_fract_z
Si Si1 0.500000 0.332909 0.551930
Si Si2 0.207236 0.841864 0.762842
Si Si3 0.500000 0.834333 0.474417
Si Si4 0.295947 0.659310 0.346902
Si Si5 0.790487 0.841690 0.192878
Si Si6 0.803425 0.167728 0.108743
Si Si7 0.192705 0.837921 0.417739
O O1 0.500000 0.500000 0.546612
O O2 0.500000 0.252755 0.512601
O O3 0.332297 0.295050 0.576692
O O4 0.258364 0.789870 0.804411
O O5 0.268661 0.750464 0.727824
O O6 0.000000 0.843394 0.761526
O O7 0.268442 0.000000 0.759522
O O8 0.334361 0.800645 0.448768
O O9 0.500000 0.000000 0.481762
O O10 0.500000 0.660126 0.352597
O O11 0.234911 0.500000 0.348930
O O12 0.215017 0.750205 0.379748
O O13 0.745233 0.788754 0.150916
O O14 0.000000 0.843489 0.193226
O O15 0.732784 0.000000 0.197068
O O16 0.000000 0.213646 0.101822
O O17 0.807274 0.000000 0.110370
O O18 0.000000 0.819399 0.432571
O O19 0.217381 0.000000 0.408679
#
# Coordination Sequence:
#
# PCOD9357858 Si02
#       7
#     4   8   4   8   8   8   8
#     4  10  20  34  56  81 102 131 171 208 251 312
#     4   9  17  29  45  68 100 136 173 214 258 300
#     4  10  22  40  56  77 112 137 159 208 265 316
#     4  10  20  34  52  75 107 143 178 219 264 308
#     4   8  14  27  47  68  94 131 171 211 254 298
#     4   8  15  30  51  75 104 134 167 213 260 297
#     4  10  21  38  60  81 103 138 177 213 261 316
#
# _framework density 17.989212999999999
#
# number of rings (size 3 to 8) (size 9 to 14) (size 15 to 20)
#    0.000    2.833    0.833    1.500    0.000    3.000 
#    1.500    2.500    0.000    1.000    0.000    0.000 
#    0.000    0.000    0.000    0.000    0.000    0.000 
#
# Total GULP energy -133814.960975 kJ/mol
# GULP energy per Si atom -5575.623374 kJ/mol
# Density = 1.794827 g / cm^3
# Si number density = 17.989213 Si / 1000 Ang^3
#
#
#
# Elastic Constant Matrix: (Units=GPa)
#
#
# Indices 1 2 3 4 5 6 
#
# 1 84.2423 32.2954 69.2468 0.0000 0.0000 0.0000
# 2 32.2954 42.4497 70.1963 0.0000 0.0000 0.0000
# 3 69.2468 70.1963 181.8004 0.0000 0.0000 0.0000
# 4 0.0000 0.0000 0.0000 37.3520 0.0000 0.0000
# 5 0.0000 0.0000 0.0000 0.0000 27.2738 0.0000
# 6 0.0000 0.0000 0.0000 0.0000 0.0000 0.5027
#
#
#
# Elastic Compliance Matrix: (Units=1/GPa)
#
#
# Indices 1 2 3 4 5 6 
#
# 1 0.017904 -0.006485 -0.004316 0.000000 0.000000 0.000000
# 2 -0.006485 0.067514 -0.023598 0.000000 0.000000 0.000000
# 3 -0.004316 -0.023598 0.016256 0.000000 0.000000 0.000000
# 4 0.000000 0.000000 0.000000 0.026772 0.000000 0.000000
# 5 0.000000 0.000000 0.000000 0.000000 0.036665 0.000000
# 6 0.000000 0.000000 0.000000 0.000000 0.000000 1.989179
#
#
# Mechanical properties :
#
#
# Convention : Reuss Voigt Hill
#
# Bulk Modulus (GPa) = 30.41682 72.44106 51.42894
# Shear Modulus (GPa) = 2.23809 22.14264 12.19037
#
# Velocity S-wave (km/s) = 1.11662 3.51220 2.60599
# Velocity P-wave (km/s) = 4.31364 7.53684 6.14050
#
# Compressibility (1/GPa) = 0.03287655
#
# Stress axis : x y z
#
# Youngs Moduli (GPa) = 55.85356 14.81181 61.51551
#
# Poissons Ratio (x) = 0.09605 0.26548
# Poissons Ratio (y) = 0.36219 1.45166
# Poissons Ratio (z) = 0.24105 0.34953
#
# Static dielectric constant tensor:
#      x y z
#    x 1.645360 0.000000 0.000000 
#    y 0.000000 1.605120 0.000000 
#    z 0.000000 0.000000 1.590930 
# 
# From -- ./inp_files/24427.got.cif
#   From: 2010.05.17/outbox.cif.g08.bks.cpg/sg38_13_cif.got.tgz:24427.got - 2010.06.03 18:07:57.
