data_PCOD9357534
_publ_section_title
;
Structure prediction by ZEFSAII (Michael W. Deem and Ramdas Pophale) SiO2 
 PCOD9357534
Probable space group: A M M 2
;
_chemical_formula_sum "Si O2"
_cell_formula_units_Z 40
_cell_length_a 9.540663
_cell_length_b 7.370052
_cell_length_c 26.409258
_cell_angle_alpha 90.000000
_cell_angle_beta 90.000000
_cell_angle_gamma 90.000000
_cell_volume 1856.971794
_symmetry_space_group_name_H-M "A M M 2"
_symmetry_group_IT_number 38
_symmetry_cell_setting 'orthorhombic'
loop_
_space_group_symop_operation_xyz
x,y,z
-x,-y,z
-x,y,z
x,-y,z
x,1/2+y,1/2+z
-x,1/2-y,1/2+z
-x,1/2+y,1/2+z
x,1/2-y,1/2+z
loop_
_atom_site_type_symbol
_atom_site_label
_atom_site_fract_x
_atom_site_fract_y
_atom_site_fract_z
Si Si1 0.661186 0.279059 0.945190
Si Si2 0.338825 0.278172 0.751460
Si Si3 0.160937 0.778518 0.349371
Si Si4 0.157751 0.285897 0.656752
Si Si5 0.659001 0.218148 0.559335
O O1 0.500000 0.226360 0.934565
O O2 0.663471 0.500000 0.945033
O O3 0.765514 0.218970 0.901368
O O4 0.696305 0.220656 0.002438
O O5 0.500000 0.219043 0.752288
O O6 0.341192 0.500000 0.751186
O O7 0.253347 0.222995 0.801276
O O8 0.257274 0.214845 0.701367
O O9 0.000000 0.720263 0.345332
O O10 0.160471 0.000000 0.349569
O O11 0.145878 0.500000 0.666737
O O12 0.232836 0.267142 0.602812
O O13 0.000000 0.210967 0.657027
O O14 0.500000 0.281048 0.571025
O O15 0.654285 0.000000 0.557754
#
# Coordination Sequence:
#
# PCOD9357534 Si02
#       5
#     8   8   8   8   8
#     4   8  14  25  40  59  85 115 146 181 221 266
#     4   9  16  26  41  60  84 116 151 186 226 271
#     4   9  15  22  35  58  87 115 143 179 224 271
#     4  10  20  32  46  67  95 124 155 192 232 274
#     4   9  18  32  49  69  93 122 157 194 229 269
#
# _framework density 21.540445999999999
#
# number of rings (size 3 to 8) (size 9 to 14) (size 15 to 20)
#    0.000    3.000    0.000    3.000    0.000    7.200 
#    0.000    2.000    0.000    0.000    0.000    1.400 
#    0.000    4.800    0.000    0.000    0.000    0.000 
#
# Total GULP energy -111697.339884 kJ/mol
# GULP energy per Si atom -5584.866994 kJ/mol
# Density = 2.149142 g / cm^3
# Si number density = 21.540446 Si / 1000 Ang^3
#
#
#
# Elastic Constant Matrix: (Units=GPa)
#
#
# Indices 1 2 3 4 5 6 
#
# 1 235.7355 6.7485 162.8146 0.0000 0.0000 0.0000
# 2 6.7485 75.7460 0.4482 0.0000 0.0000 0.0000
# 3 162.8146 0.4482 193.4415 0.0000 0.0000 0.0000
# 4 0.0000 0.0000 0.0000 10.3977 0.0000 0.0000
# 5 0.0000 0.0000 0.0000 0.0000 -21.7130 0.0000
# 6 0.0000 0.0000 0.0000 0.0000 0.0000 1.1110
#
#
#
# Elastic Compliance Matrix: (Units=1/GPa)
#
#
# Indices 1 2 3 4 5 6 
#
# 1 0.010187 -0.000857 -0.008572 0.000000 0.000000 0.000000
# 2 -0.000857 0.013274 0.000690 0.000000 0.000000 0.000000
# 3 -0.008572 0.000690 0.012383 0.000000 0.000000 0.000000
# 4 0.000000 0.000000 0.000000 0.096175 0.000000 0.000000
# 5 0.000000 0.000000 0.000000 0.000000 -0.046055 0.000000
# 6 0.000000 0.000000 0.000000 0.000000 0.000000 0.900075
#
#
# Mechanical properties :
#
#
# Convention : Reuss Voigt Hill
#
# Bulk Modulus (GPa) = 54.44545 93.88283 74.16414
# Shear Modulus (GPa) = 4.95227 20.28660 12.61943
#
# Velocity S-wave (km/s) = 1.51791 3.07219 2.42306
# Velocity P-wave (km/s) = 5.32943 7.50090 6.50640
#
# Compressibility (1/GPa) = 0.01836701
#
# Stress axis : x y z
#
# Youngs Moduli (GPa) = 98.16285 75.33369 80.75603
#
# Poissons Ratio (x) = 0.06455 0.69226
# Poissons Ratio (y) = 0.08411 -0.05576
# Poissons Ratio (z) = 0.84148 -0.05201
#
# Static dielectric constant tensor:
#      x y z
#    x 1.735800 0.000000 0.000000 
#    y 0.000000 1.887780 0.000000 
#    z 0.000000 0.000000 1.737780 
# 
# From -- ./inp_files/19456.got.cif
#   From: 2010.05.17/outbox.cif.g08.bks.cpg/sg38_10_cif.got.tgz:19456.got - 2010.06.03 18:07:57.
