data_PCOD9357296
_publ_section_title
;
Structure prediction by ZEFSAII (Michael W. Deem and Ramdas Pophale) SiO2 
 PCOD9357296
Probable space group: A M M 2
;
_chemical_formula_sum "Si O2"
_cell_formula_units_Z 34
_cell_length_a 9.663147
_cell_length_b 12.958969
_cell_length_c 12.280034
_cell_angle_alpha 90.000000
_cell_angle_beta 90.000000
_cell_angle_gamma 90.000000
_cell_volume 1537.760165
_symmetry_space_group_name_H-M "A M M 2"
_symmetry_group_IT_number 38
_symmetry_cell_setting 'orthorhombic'
loop_
_space_group_symop_operation_xyz
x,y,z
-x,-y,z
-x,y,z
x,-y,z
x,1/2+y,1/2+z
-x,1/2-y,1/2+z
-x,1/2+y,1/2+z
x,1/2-y,1/2+z
loop_
_atom_site_type_symbol
_atom_site_label
_atom_site_fract_x
_atom_site_fract_y
_atom_site_fract_z
Si Si1 0.233247 0.390980 0.921820
Si Si2 0.336997 0.163652 0.181795
Si Si3 0.841302 0.838639 0.973857
Si Si4 0.657633 0.612960 0.268693
Si Si5 0.500000 0.000000 0.494471
O O1 0.155975 0.500000 0.935468
O O2 0.274519 0.378525 0.794476
O O3 0.164373 0.286129 0.961053
O O4 0.378828 0.411169 0.981418
O O5 0.500000 0.137214 0.174176
O O6 0.249272 0.130494 0.078001
O O7 0.323946 0.287842 0.193889
O O8 0.000000 0.871218 0.982561
O O9 0.766269 0.880481 0.866009
O O10 0.500000 0.621561 0.312935
O O11 0.665386 0.500000 0.214231
#
# Coordination Sequence:
#
# PCOD9357296 Si02
#       5
#     8   8   8   8   2
#     4   9  19  37  60  81 111 138 185 232 279 317
#     4  10  19  34  59  85 111 142 184 234 277 322
#     4  11  24  36  53  84 119 152 181 216 274 340
#     4   9  20  40  61  83 106 141 190 238 276 317
#     4   8  16  36  62  88 102 134 186 244 276 316
#
# _framework density 22.11008
#
# number of rings (size 3 to 8) (size 9 to 14) (size 15 to 20)
#    0.706    1.647    1.176    0.706    3.294    6.588 
#    0.000    0.000    0.000    0.000    0.000    0.000 
#    0.000    0.000    0.000    0.000    0.000    0.000 
#
# Total GULP energy -94671.807131 kJ/mol
# GULP energy per Si atom -5568.929831 kJ/mol
# Density = 2.205976 g / cm^3
# Si number density = 22.110080 Si / 1000 Ang^3
#
#
#
# Elastic Constant Matrix: (Units=GPa)
#
#
# Indices 1 2 3 4 5 6 
#
# 1 119.0545 -2.1216 39.5365 0.0000 0.0000 0.0000
# 2 -2.1216 113.0745 -12.1385 0.0000 0.0000 0.0000
# 3 39.5365 -12.1385 90.4643 0.0000 0.0000 0.0000
# 4 0.0000 0.0000 0.0000 11.2444 0.0000 0.0000
# 5 0.0000 0.0000 0.0000 0.0000 9.1071 0.0000
# 6 0.0000 0.0000 0.0000 0.0000 0.0000 12.2473
#
#
#
# Elastic Compliance Matrix: (Units=1/GPa)
#
#
# Indices 1 2 3 4 5 6 
#
# 1 0.009834 -0.000281 -0.004336 0.000000 0.000000 0.000000
# 2 -0.000281 0.008981 0.001328 0.000000 0.000000 0.000000
# 3 -0.004336 0.001328 0.013127 0.000000 0.000000 0.000000
# 4 0.000000 0.000000 0.000000 0.088933 0.000000 0.000000
# 5 0.000000 0.000000 0.000000 0.000000 0.109804 0.000000
# 6 0.000000 0.000000 0.000000 0.000000 0.000000 0.081651
#
#
# Mechanical properties :
#
#
# Convention : Reuss Voigt Hill
#
# Bulk Modulus (GPa) = 39.42451 41.46068 40.44259
# Shear Modulus (GPa) = 15.27356 26.34089 20.80722
#
# Velocity S-wave (km/s) = 2.63115 3.45534 3.07102
# Velocity P-wave (km/s) = 5.20580 5.89167 5.55932
#
# Compressibility (1/GPa) = 0.02536493
#
# Stress axis : x y z
#
# Youngs Moduli (GPa) = 101.68450 111.34621 76.17810
#
# Poissons Ratio (x) = 0.03128 0.33029
# Poissons Ratio (y) = 0.02856 -0.10115
# Poissons Ratio (z) = 0.44087 -0.14785
#
# Static dielectric constant tensor:
#      x y z
#    x 1.743040 0.000000 0.000000 
#    y 0.000000 1.872010 0.000000 
#    z 0.000000 0.000000 1.814570 
# 
# From -- ./inp_files/11487.got.cif
#   From: 2010.05.17/outbox.cif.g08.bks.cpg/sg38_6_cif.got.tgz:11487.got - 2010.06.03 18:07:57.
