data_PCOD9357363
_publ_section_title
;
Structure prediction by ZEFSAII (Michael W. Deem and Ramdas Pophale) SiO2 
 PCOD9357363
Probable space group: A M M 2
;
_chemical_formula_sum "Si O2"
_cell_formula_units_Z 56
_cell_length_a 7.793004
_cell_length_b 19.213995
_cell_length_c 17.194583
_cell_angle_alpha 90.000000
_cell_angle_beta 90.000000
_cell_angle_gamma 90.000000
_cell_volume 2574.626413
_symmetry_space_group_name_H-M "A M M 2"
_symmetry_group_IT_number 38
_symmetry_cell_setting 'orthorhombic'
loop_
_space_group_symop_operation_xyz
x,y,z
-x,-y,z
-x,y,z
x,-y,z
x,1/2+y,1/2+z
-x,1/2-y,1/2+z
-x,1/2+y,1/2+z
x,1/2-y,1/2+z
loop_
_atom_site_type_symbol
_atom_site_label
_atom_site_fract_x
_atom_site_fract_y
_atom_site_fract_z
Si Si1 0.790365 0.419607 0.793970
Si Si2 0.702090 0.078159 0.608242
Si Si3 0.297224 0.708781 0.381082
Si Si4 0.200457 0.152862 0.451455
Si Si5 0.706713 0.703508 0.206433
Si Si6 0.792201 0.079798 0.978304
Si Si7 0.206450 0.153763 0.136168
O O1 0.740695 0.500000 0.797198
O O2 0.730946 0.379732 0.870948
O O3 0.730339 0.384481 0.714293
O O4 0.000000 0.416594 0.793437
O O5 0.500000 0.071755 0.624858
O O6 0.717018 0.117578 0.526048
O O7 0.774911 0.130820 0.672692
O O8 0.774955 0.000000 0.605422
O O9 0.500000 0.721423 0.380910
O O10 0.219431 0.764431 0.440994
O O11 0.228465 0.719562 0.293442
O O12 0.263223 0.630674 0.409284
O O13 0.000000 0.135981 0.457093
O O14 0.500000 0.699320 0.211692
O O15 0.748727 0.765666 0.147396
O O16 0.000000 0.078880 0.979942
O O17 0.733569 0.000000 0.971972
O O18 0.730752 0.115903 0.058484
O O19 0.000000 0.148370 0.135113
#
# Coordination Sequence:
#
# PCOD9357363 Si02
#       7
#     8   8   8   8   8   8   8
#     4   9  17  30  52  82 114 147 182 224 277 337
#     4  10  22  40  60  83 115 154 194 240 294 346
#     4  11  23  39  60  85 116 155 199 241 285 341
#     4  11  21  36  59  87 118 151 192 238 288 346
#     4  10  22  39  59  83 113 152 197 241 285 340
#     4  10  22  39  60  88 120 152 190 239 293 346
#     4  10  19  35  59  85 114 150 190 232 285 346
#
# _framework density 21.750729
#
# number of rings (size 3 to 8) (size 9 to 14) (size 15 to 20)
#    0.000    1.857    1.429    2.571    0.000    7.429 
#    0.000    1.429    0.000    2.143    0.000    0.000 
#    0.000    0.000    0.000    0.000    0.000    0.000 
#
# Total GULP energy -156482.992143 kJ/mol
# GULP energy per Si atom -5588.678291 kJ/mol
# Density = 2.170122 g / cm^3
# Si number density = 21.750729 Si / 1000 Ang^3
#
#
#
# Elastic Constant Matrix: (Units=GPa)
#
#
# Indices 1 2 3 4 5 6 
#
# 1 29.2327 -8.6298 -6.7539 0.0000 0.0000 0.0000
# 2 -8.6298 144.8444 21.5651 0.0000 0.0000 0.0000
# 3 -6.7539 21.5651 42.3525 0.0000 0.0000 0.0000
# 4 0.0000 0.0000 0.0000 28.4117 0.0000 0.0000
# 5 0.0000 0.0000 0.0000 0.0000 5.7487 0.0000
# 6 0.0000 0.0000 0.0000 0.0000 0.0000 56.4224
#
#
#
# Elastic Compliance Matrix: (Units=1/GPa)
#
#
# Indices 1 2 3 4 5 6 
#
# 1 0.035773 0.001387 0.004998 0.000000 0.000000 0.000000
# 2 0.001387 0.007524 -0.003610 0.000000 0.000000 0.000000
# 3 0.004998 -0.003610 0.026247 0.000000 0.000000 0.000000
# 4 0.000000 0.000000 0.000000 0.035197 0.000000 0.000000
# 5 0.000000 0.000000 0.000000 0.000000 0.173954 0.000000
# 6 0.000000 0.000000 0.000000 0.000000 0.000000 0.017723
#
#
# Mechanical properties :
#
#
# Convention : Reuss Voigt Hill
#
# Bulk Modulus (GPa) = 13.31661 25.42138 19.36900
# Shear Modulus (GPa) = 15.82792 32.13309 23.98051
#
# Velocity S-wave (km/s) = 2.70051 3.84778 3.32402
# Velocity P-wave (km/s) = 3.98238 5.60834 4.86379
#
# Compressibility (1/GPa) = 0.07509418
#
# Stress axis : x y z
#
# Youngs Moduli (GPa) = 27.95436 132.90686 38.10031
#
# Poissons Ratio (x) = -0.18436 -0.19044
# Poissons Ratio (y) = -0.03878 0.13754
# Poissons Ratio (z) = -0.13972 0.47978
#
# Static dielectric constant tensor:
#      x y z
#    x 1.803200 0.000000 0.000000 
#    y 0.000000 1.786850 0.000000 
#    z 0.000000 0.000000 1.779710 
# 
# From -- ./inp_files/12436.got.cif
#   From: 2010.05.17/outbox.cif.g08.bks.cpg/sg38_7_cif.got.tgz:12436.got - 2010.06.03 18:07:57.
