data_PCOD9357588
_publ_section_title
;
Structure prediction by ZEFSAII (Michael W. Deem and Ramdas Pophale) SiO2 
 PCOD9357588
Probable space group: A M M 2
;
_chemical_formula_sum "Si O2"
_cell_formula_units_Z 64
_cell_length_a 8.810625
_cell_length_b 30.936909
_cell_length_c 14.829681
_cell_angle_alpha 90.000000
_cell_angle_beta 90.000000
_cell_angle_gamma 90.000000
_cell_volume 4042.178111
_symmetry_space_group_name_H-M "A M M 2"
_symmetry_group_IT_number 38
_symmetry_cell_setting 'orthorhombic'
loop_
_space_group_symop_operation_xyz
x,y,z
-x,-y,z
-x,y,z
x,-y,z
x,1/2+y,1/2+z
-x,1/2-y,1/2+z
-x,1/2+y,1/2+z
x,1/2-y,1/2+z
loop_
_atom_site_type_symbol
_atom_site_label
_atom_site_fract_x
_atom_site_fract_y
_atom_site_fract_z
Si Si1 0.320300 0.274335 0.321380
Si Si2 0.175451 0.682154 0.818471
Si Si3 0.680750 0.366900 0.653229
Si Si4 0.817814 0.795399 0.632705
Si Si5 0.682400 0.287155 0.525958
Si Si6 0.679886 0.549702 0.908982
Si Si7 0.177294 0.128768 0.503511
Si Si8 0.180708 0.049998 0.209905
O O1 0.500000 0.281583 0.313028
O O2 0.282587 0.223561 0.316980
O O3 0.237201 0.294682 0.235601
O O4 0.269409 0.288261 0.421463
O O5 0.230122 0.651034 0.739677
O O6 0.186055 0.657763 0.913113
O O7 0.000000 0.695379 0.804460
O O8 0.500000 0.366159 0.668797
O O9 0.715187 0.332650 0.574447
O O10 0.737210 0.415920 0.644981
O O11 0.754833 0.753030 0.580267
O O12 0.767337 0.839333 0.582286
O O13 0.000000 0.793570 0.627896
O O14 0.500000 0.280651 0.528073
O O15 0.500000 0.554281 0.894437
O O16 0.711305 0.500000 0.936128
O O17 0.735000 0.584899 0.980919
O O18 0.761860 0.556905 0.812760
O O19 0.000000 0.118501 0.519164
O O20 0.000000 0.056590 0.207710
O O21 0.213731 0.000000 0.187586
#
# Coordination Sequence:
#
# PCOD9357588 Si02
#       8
#     8   8   8   8   8   8   8   8
#     4  11  22  36  51  71 101 136 173 212 255 297
#     4  11  20  31  48  72 102 136 172 207 246 293
#     4  11  21  33  50  74 100 133 172 209 250 296
#     4  11  22  35  52  74 100 132 173 213 250 298
#     4  10  22  36  51  72 100 134 171 208 250 301
#     4  10  20  32  49  74 101 131 167 206 249 299
#     4  10  21  34  49  72 101 135 172 205 248 300
#     4  10  20  33  49  71 101 135 167 203 250 302
#
# _framework density 15.833048
#
# number of rings (size 3 to 8) (size 9 to 14) (size 15 to 20)
#    0.000    1.500    3.750    2.250    0.000    4.000 
#    0.000    0.000    0.000    0.000    0.000    0.875 
#    0.000    1.000    0.000    0.000    0.000    0.000 
#
# Total GULP energy -178588.225690 kJ/mol
# GULP energy per Si atom -5580.882053 kJ/mol
# Density = 1.579701 g / cm^3
# Si number density = 15.833048 Si / 1000 Ang^3
#
#
#
# Elastic Constant Matrix: (Units=GPa)
#
#
# Indices 1 2 3 4 5 6 
#
# 1 28.8980 19.9787 21.2349 0.0000 0.0000 0.0000
# 2 19.9787 87.3590 29.7571 0.0000 0.0000 0.0000
# 3 21.2349 29.7571 72.4349 0.0000 0.0000 0.0000
# 4 0.0000 0.0000 0.0000 20.7549 0.0000 0.0000
# 5 0.0000 0.0000 0.0000 0.0000 14.4655 0.0000
# 6 0.0000 0.0000 0.0000 0.0000 0.0000 27.1229
#
#
#
# Elastic Compliance Matrix: (Units=1/GPa)
#
#
# Indices 1 2 3 4 5 6 
#
# 1 0.047649 -0.007138 -0.011036 0.000000 0.000000 0.000000
# 2 -0.007138 0.014379 -0.003814 0.000000 0.000000 0.000000
# 3 -0.011036 -0.003814 0.018608 0.000000 0.000000 0.000000
# 4 0.000000 0.000000 0.000000 0.048181 0.000000 0.000000
# 5 0.000000 0.000000 0.000000 0.000000 0.069130 0.000000
# 6 0.000000 0.000000 0.000000 0.000000 0.000000 0.036869
#
#
# Mechanical properties :
#
#
# Convention : Reuss Voigt Hill
#
# Bulk Modulus (GPa) = 27.27890 36.73702 32.00796
# Shear Modulus (GPa) = 17.18133 20.31673 18.74903
#
# Velocity S-wave (km/s) = 3.29774 3.58604 3.44491
# Velocity P-wave (km/s) = 5.63619 6.35605 6.00691
#
# Compressibility (1/GPa) = 0.03665837
#
# Stress axis : x y z
#
# Youngs Moduli (GPa) = 20.98674 69.54721 53.74046
#
# Poissons Ratio (x) = 0.49642 0.59310
# Poissons Ratio (y) = 0.14980 0.20499
# Poissons Ratio (z) = 0.23162 0.26528
#
# Static dielectric constant tensor:
#      x y z
#    x 1.535110 0.000000 0.000000 
#    y 0.000000 1.544480 0.000000 
#    z 0.000000 0.000000 1.521800 
# 
# From -- ./inp_files/13085.got.cif
#   From: 2010.05.17/outbox.cif.g08.bks.cpg/sg38_7_cif.got.tgz:13085.got - 2010.06.03 18:07:57.
