data_PCOD9357607
_publ_section_title
;
Structure prediction by ZEFSAII (Michael W. Deem and Ramdas Pophale) SiO2 
 PCOD9357607
Probable space group: A M M 2
;
_chemical_formula_sum "Si O2"
_cell_formula_units_Z 64
_cell_length_a 14.449025
_cell_length_b 14.920530
_cell_length_c 16.813677
_cell_angle_alpha 90.000000
_cell_angle_beta 90.000000
_cell_angle_gamma 90.000000
_cell_volume 3624.812049
_symmetry_space_group_name_H-M "A M M 2"
_symmetry_group_IT_number 38
_symmetry_cell_setting 'orthorhombic'
loop_
_space_group_symop_operation_xyz
x,y,z
-x,-y,z
-x,y,z
x,-y,z
x,1/2+y,1/2+z
-x,1/2-y,1/2+z
-x,1/2+y,1/2+z
x,1/2-y,1/2+z
loop_
_atom_site_type_symbol
_atom_site_label
_atom_site_fract_x
_atom_site_fract_y
_atom_site_fract_z
Si Si1 0.109026 0.153917 0.995890
Si Si2 0.393325 0.399355 0.228989
Si Si3 0.891156 0.401473 0.314143
Si Si4 0.248797 0.399508 0.631401
Si Si5 0.732724 0.732968 0.942431
Si Si6 0.389882 0.395951 0.492039
Si Si7 0.396678 0.603116 0.037426
Si Si8 0.246878 0.750116 0.266607
O O1 0.119052 0.105257 0.910200
O O2 0.167643 0.244192 0.980084
O O3 0.000000 0.163720 0.012102
O O4 0.165067 0.107709 0.067327
O O5 0.500000 0.390180 0.254378
O O6 0.362894 0.500000 0.253383
O O7 0.333199 0.316699 0.257011
O O8 0.390364 0.396165 0.132865
O O9 0.858281 0.500000 0.288309
O O10 0.838438 0.319214 0.274073
O O11 0.000000 0.394880 0.297661
O O12 0.248552 0.500000 0.665616
O O13 0.343105 0.388356 0.579649
O O14 0.240666 0.321376 0.695997
O O15 0.670981 0.824794 0.942858
O O16 0.678643 0.664261 0.996923
O O17 0.744529 0.702647 0.852108
O O18 0.500000 0.377635 0.491660
O O19 0.376543 0.500000 0.466730
O O20 0.500000 0.635142 0.015940
O O21 0.387670 0.500000 0.012108
#
# Coordination Sequence:
#
# PCOD9357607 Si02
#       8
#     8   8   8   8   8   8   8   8
#     4   9  18  34  57  79  96 123 166 213 257 300
#     4   9  18  32  50  72  98 129 165 204 245 290
#     4   9  18  34  55  77 101 128 160 203 256 309
#     4  10  21  35  51  74 102 135 174 210 248 297
#     4  10  20  32  50  75 103 133 163 203 252 303
#     4   9  18  34  55  76  99 129 168 215 260 300
#     4   9  18  34  54  72  93 130 180 218 237 269
#     4  11  22  32  47  74 108 137 159 197 252 309
#
# _framework density 17.656088
#
# number of rings (size 3 to 8) (size 9 to 14) (size 15 to 20)
#    0.000    2.500    0.000    3.375    0.000    7.750 
#    0.000    1.250    0.000    1.875    0.000    3.500 
#    0.000    0.000    0.000    0.000    0.000    0.000 
#
# Total GULP energy -178391.666668 kJ/mol
# GULP energy per Si atom -5574.739583 kJ/mol
# Density = 1.761590 g / cm^3
# Si number density = 17.656088 Si / 1000 Ang^3
#
#
#
# Elastic Constant Matrix: (Units=GPa)
#
#
# Indices 1 2 3 4 5 6 
#
# 1 96.4136 23.7979 15.7438 0.0000 0.0000 0.0000
# 2 23.7979 66.3775 33.2020 0.0000 0.0000 0.0000
# 3 15.7438 33.2020 48.6501 0.0000 0.0000 0.0000
# 4 0.0000 0.0000 0.0000 13.1058 0.0000 0.0000
# 5 0.0000 0.0000 0.0000 0.0000 20.3027 0.0000
# 6 0.0000 0.0000 0.0000 0.0000 0.0000 15.0819
#
#
#
# Elastic Compliance Matrix: (Units=1/GPa)
#
#
# Indices 1 2 3 4 5 6 
#
# 1 0.011439 -0.003415 -0.001371 0.000000 0.000000 0.000000
# 2 -0.003415 0.023893 -0.015201 0.000000 0.000000 0.000000
# 3 -0.001371 -0.015201 0.031373 0.000000 0.000000 0.000000
# 4 0.000000 0.000000 0.000000 0.076302 0.000000 0.000000
# 5 0.000000 0.000000 0.000000 0.000000 0.049255 0.000000
# 6 0.000000 0.000000 0.000000 0.000000 0.000000 0.066305
#
#
# Mechanical properties :
#
#
# Convention : Reuss Voigt Hill
#
# Bulk Modulus (GPa) = 37.41078 39.65873 38.53476
# Shear Modulus (GPa) = 16.26273 18.94458 17.60366
#
# Velocity S-wave (km/s) = 3.03823 3.27919 3.16100
# Velocity P-wave (km/s) = 5.79158 6.07025 5.93255
#
# Compressibility (1/GPa) = 0.02673026
#
# Stress axis : x y z
#
# Youngs Moduli (GPa) = 87.42133 41.85248 31.87470
#
# Poissons Ratio (x) = 0.14294 0.04370
# Poissons Ratio (y) = 0.29858 0.48453
# Poissons Ratio (z) = 0.11985 0.63621
#
# Static dielectric constant tensor:
#      x y z
#    x 1.604960 0.000000 0.000000 
#    y 0.000000 1.634850 0.000000 
#    z 0.000000 0.000000 1.600670 
# 
# From -- ./inp_files/18549.got.cif
#   From: 2010.05.17/outbox.cif.g08.bks.cpg/sg38_10_cif.got.tgz:18549.got - 2010.06.03 18:07:57.
