data_PCOD9357704
_publ_section_title
;
Structure prediction by ZEFSAII (Michael W. Deem and Ramdas Pophale) SiO2 
 PCOD9357704
Probable space group: A M M 2
;
_chemical_formula_sum "Si O2"
_cell_formula_units_Z 64
_cell_length_a 7.818227
_cell_length_b 21.754570
_cell_length_c 20.096093
_cell_angle_alpha 90.000000
_cell_angle_beta 90.000000
_cell_angle_gamma 90.000000
_cell_volume 3417.987037
_symmetry_space_group_name_H-M "A M M 2"
_symmetry_group_IT_number 38
_symmetry_cell_setting 'orthorhombic'
loop_
_space_group_symop_operation_xyz
x,y,z
-x,-y,z
-x,y,z
x,-y,z
x,1/2+y,1/2+z
-x,1/2-y,1/2+z
-x,1/2+y,1/2+z
x,1/2-y,1/2+z
loop_
_atom_site_type_symbol
_atom_site_label
_atom_site_fract_x
_atom_site_fract_y
_atom_site_fract_z
Si Si1 0.204415 0.566814 0.302670
Si Si2 0.208775 0.121379 0.939585
Si Si3 0.207034 0.380203 0.587976
Si Si4 0.700569 0.811747 0.725842
Si Si5 0.793461 0.764332 0.438035
Si Si6 0.297209 0.432653 0.727442
Si Si7 0.793613 0.237294 0.586440
Si Si8 0.296798 0.689508 0.797610
O O1 0.269270 0.500000 0.280379
O O2 0.270498 0.583014 0.376659
O O3 0.235556 0.624232 0.254869
O O4 0.000000 0.562740 0.308704
O O5 0.258133 0.192787 0.929360
O O6 0.000000 0.120204 0.940012
O O7 0.262263 0.101152 0.013499
O O8 0.274544 0.419211 0.649164
O O9 0.259082 0.308584 0.596844
O O10 0.000000 0.382416 0.589936
O O11 0.500000 0.811355 0.739287
O O12 0.731144 0.802733 0.647723
O O13 0.776135 0.751310 0.762881
O O14 0.737674 0.782511 0.512499
O O15 0.728638 0.803535 0.376306
O O16 0.000000 0.765830 0.436539
O O17 0.500000 0.434856 0.741466
O O18 0.224761 0.500000 0.743833
O O19 0.225234 0.373474 0.766627
O O20 0.000000 0.236900 0.586814
O O21 0.500000 0.689045 0.783610
#
# Coordination Sequence:
#
# PCOD9357704 Si02
#       8
#     8   8   8   8   8   8   8   8
#     4  10  20  34  53  75 102 139 176 211 256 307
#     4   8  15  29  48  73 102 132 167 203 246 299
#     4   9  17  30  50  75 102 132 168 210 248 292
#     4  11  21  33  52  77 104 136 173 216 255 296
#     4   9  17  31  53  78 102 129 164 210 257 299
#     4  10  21  36  50  68 102 142 173 205 249 303
#     4   9  18  32  52  79 105 130 165 210 259 306
#     4  10  20  33  50  75 101 131 172 212 254 300
#
# _framework density 18.724471999999999
#
# number of rings (size 3 to 8) (size 9 to 14) (size 15 to 20)
#    0.000    2.500    2.500    1.875    0.000    2.500 
#    0.000    3.750    0.000    0.750    0.000    3.500 
#    0.000    0.000    0.000    0.000    0.000    0.000 
#
# Total GULP energy -178470.176090 kJ/mol
# GULP energy per Si atom -5577.193003 kJ/mol
# Density = 1.868185 g / cm^3
# Si number density = 18.724472 Si / 1000 Ang^3
#
#
#
# Elastic Constant Matrix: (Units=GPa)
#
#
# Indices 1 2 3 4 5 6 
#
# 1 18.6650 13.2166 -4.3972 0.0000 0.0000 0.0000
# 2 13.2166 145.5068 82.1298 0.0000 0.0000 0.0000
# 3 -4.3972 82.1298 106.4299 0.0000 0.0000 0.0000
# 4 0.0000 0.0000 0.0000 18.2762 0.0000 0.0000
# 5 0.0000 0.0000 0.0000 0.0000 26.5513 0.0000
# 6 0.0000 0.0000 0.0000 0.0000 0.0000 10.7556
#
#
#
# Elastic Compliance Matrix: (Units=1/GPa)
#
#
# Indices 1 2 3 4 5 6 
#
# 1 0.066120 -0.013372 0.013051 0.000000 0.000000 0.000000
# 2 -0.013372 0.014880 -0.012035 0.000000 0.000000 0.000000
# 3 0.013051 -0.012035 0.019223 0.000000 0.000000 0.000000
# 4 0.000000 0.000000 0.000000 0.054716 0.000000 0.000000
# 5 0.000000 0.000000 0.000000 0.000000 0.037663 0.000000
# 6 0.000000 0.000000 0.000000 0.000000 0.000000 0.092975
#
#
# Mechanical properties :
#
#
# Convention : Reuss Voigt Hill
#
# Bulk Modulus (GPa) = 13.24346 50.27779 31.76062
# Shear Modulus (GPa) = 14.90495 23.09346 18.99920
#
# Velocity S-wave (km/s) = 2.82443 3.51569 3.18885
# Velocity P-wave (km/s) = 4.21007 6.58709 5.52786
#
# Compressibility (1/GPa) = 0.07550899
#
# Stress axis : x y z
#
# Youngs Moduli (GPa) = 15.12412 67.20258 52.02235
#
# Poissons Ratio (x) = 0.89864 -0.67893
# Poissons Ratio (y) = 0.20224 0.62611
# Poissons Ratio (z) = -0.19738 0.80881
#
# Static dielectric constant tensor:
#      x y z
#    x 1.683550 0.000000 0.000000 
#    y 0.000000 1.664650 0.000000 
#    z 0.000000 0.000000 1.646400 
# 
# From -- ./inp_files/17172.got.cif
#   From: 2010.05.17/outbox.cif.g08.bks.cpg/sg38_9_cif.got.tgz:17172.got - 2010.06.03 18:07:57.
