data_PCOD9357500
_publ_section_title
;
Structure prediction by ZEFSAII (Michael W. Deem and Ramdas Pophale) SiO2 
 PCOD9357500
Probable space group: A M M 2
;
_chemical_formula_sum "Si O2"
_cell_formula_units_Z 64
_cell_length_a 7.643310
_cell_length_b 28.445967
_cell_length_c 15.306636
_cell_angle_alpha 90.000000
_cell_angle_beta 90.000000
_cell_angle_gamma 90.000000
_cell_volume 3327.989372
_symmetry_space_group_name_H-M "A M M 2"
_symmetry_group_IT_number 38
_symmetry_cell_setting 'orthorhombic'
loop_
_space_group_symop_operation_xyz
x,y,z
-x,-y,z
-x,y,z
x,-y,z
x,1/2+y,1/2+z
-x,1/2-y,1/2+z
-x,1/2+y,1/2+z
x,1/2-y,1/2+z
loop_
_atom_site_type_symbol
_atom_site_label
_atom_site_fract_x
_atom_site_fract_y
_atom_site_fract_z
Si Si1 0.704772 0.368330 0.147580
Si Si2 0.787178 0.783733 0.521232
Si Si3 0.710860 0.946115 0.515261
Si Si4 0.794769 0.212788 0.325691
Si Si5 0.789054 0.675788 0.515296
Si Si6 0.706598 0.820842 0.816836
Si Si7 0.790315 0.053205 0.318616
Si Si8 0.785119 0.134655 0.192471
O O1 0.500000 0.379753 0.159633
O O2 0.720008 0.320838 0.090771
O O3 0.779708 0.410579 0.088880
O O4 0.779012 0.355753 0.242894
O O5 0.724046 0.795909 0.423131
O O6 0.734483 0.729576 0.536308
O O7 0.000000 0.785271 0.523315
O O8 0.500000 0.947128 0.520714
O O9 0.754261 0.929503 0.417095
O O10 0.774343 0.000000 0.524430
O O11 0.779292 0.268081 0.306585
O O12 0.725678 0.179359 0.250065
O O13 0.000000 0.201771 0.331583
O O14 0.735025 0.664092 0.416786
O O15 0.728198 0.642028 0.592874
O O16 0.000000 0.676219 0.515167
O O17 0.500000 0.816591 0.802358
O O18 0.726115 0.088581 0.244496
O O19 0.000000 0.051066 0.310106
O O20 0.720818 0.000000 0.311555
O O21 0.000000 0.134233 0.191008
#
# Coordination Sequence:
#
# PCOD9357500 Si02
#       8
#     8   8   8   8   8   8   8   8
#     4  10  20  31  45  66  90 117 149 184 223 265
#     4   9  17  28  45  68  91 117 148 181 216 258
#     4   9  18  33  50  67  90 119 147 176 215 266
#     4   9  17  30  46  65  91 121 151 179 212 261
#     4   9  18  32  47  63  86 120 158 186 212 255
#     4  10  20  32  44  62  90 119 149 188 228 259
#     4   9  17  30  49  73  97 117 140 176 222 266
#     4   9  16  28  48  69  89 117 152 184 214 258
#
# _framework density 19.230830999999998
#
# number of rings (size 3 to 8) (size 9 to 14) (size 15 to 20)
#    0.000    2.750    0.000    2.625    0.000    5.500 
#    0.000    1.875    0.000    0.750    0.000    0.000 
#    0.000    0.000    0.000    0.000    0.000    0.000 
#
# Total GULP energy -178490.228790 kJ/mol
# GULP energy per Si atom -5577.819650 kJ/mol
# Density = 1.918706 g / cm^3
# Si number density = 19.230831 Si / 1000 Ang^3
#
#
#
# Elastic Constant Matrix: (Units=GPa)
#
#
# Indices 1 2 3 4 5 6 
#
# 1 29.8583 -6.5377 -6.5537 0.0000 0.0000 0.0000
# 2 -6.5377 74.1448 82.6981 0.0000 0.0000 0.0000
# 3 -6.5537 82.6981 144.5117 0.0000 0.0000 0.0000
# 4 0.0000 0.0000 0.0000 32.1047 0.0000 0.0000
# 5 0.0000 0.0000 0.0000 0.0000 18.4002 0.0000
# 6 0.0000 0.0000 0.0000 0.0000 0.0000 1.7805
#
#
#
# Elastic Compliance Matrix: (Units=1/GPa)
#
#
# Indices 1 2 3 4 5 6 
#
# 1 0.034163 0.003550 -0.000482 0.000000 0.000000 0.000000
# 2 0.003550 0.037654 -0.021387 0.000000 0.000000 0.000000
# 3 -0.000482 -0.021387 0.019137 0.000000 0.000000 0.000000
# 4 0.000000 0.000000 0.000000 0.031148 0.000000 0.000000
# 5 0.000000 0.000000 0.000000 0.000000 0.054347 0.000000
# 6 0.000000 0.000000 0.000000 0.000000 0.000000 0.561627
#
#
# Mechanical properties :
#
#
# Convention : Reuss Voigt Hill
#
# Bulk Modulus (GPa) = 18.41074 43.08091 30.74582
# Shear Modulus (GPa) = 6.30660 22.38430 14.34545
#
# Velocity S-wave (km/s) = 1.81288 3.41542 2.73419
# Velocity P-wave (km/s) = 3.73850 6.16474 5.09806
#
# Compressibility (1/GPa) = 0.05431613
#
# Stress axis : x y z
#
# Youngs Moduli (GPa) = 29.27145 26.55734 52.25512
#
# Poissons Ratio (x) = -0.09429 0.02521
# Poissons Ratio (y) = -0.10393 1.11758
# Poissons Ratio (z) = 0.01412 0.56798
#
# Static dielectric constant tensor:
#      x y z
#    x 1.725400 0.000000 0.000000 
#    y 0.000000 1.666040 0.000000 
#    z 0.000000 0.000000 1.686900 
# 
# From -- ./inp_files/13071.got.cif
#   From: 2010.05.17/outbox.cif.g08.bks.cpg/sg38_7_cif.got.tgz:13071.got - 2010.06.03 18:07:57.
