data_PCOD9357123
_publ_section_title
;
Structure prediction by ZEFSAII (Michael W. Deem and Ramdas Pophale) SiO2 
 PCOD9357123
Probable space group: A M M 2
;
_chemical_formula_sum "Si O2"
_cell_formula_units_Z 48
_cell_length_a 8.638643
_cell_length_b 16.962966
_cell_length_c 18.876435
_cell_angle_alpha 90.000000
_cell_angle_beta 90.000000
_cell_angle_gamma 90.000000
_cell_volume 2766.096297
_symmetry_space_group_name_H-M "A M M 2"
_symmetry_group_IT_number 38
_symmetry_cell_setting 'orthorhombic'
loop_
_space_group_symop_operation_xyz
x,y,z
-x,-y,z
-x,y,z
x,-y,z
x,1/2+y,1/2+z
-x,1/2-y,1/2+z
-x,1/2+y,1/2+z
x,1/2-y,1/2+z
loop_
_atom_site_type_symbol
_atom_site_label
_atom_site_fract_x
_atom_site_fract_y
_atom_site_fract_z
Si Si1 0.688063 0.911106 0.082810
Si Si2 0.814079 0.500000 0.957612
Si Si3 0.683626 0.000000 0.615772
Si Si4 0.184484 0.167506 0.635566
Si Si5 0.314330 0.811652 0.219550
Si Si6 0.686195 0.258161 0.499639
Si Si7 0.185034 0.660333 0.874381
O O1 0.500000 0.913351 0.081561
O O2 0.731831 0.875672 0.159558
O O3 0.744979 0.000000 0.072133
O O4 0.734391 0.845804 0.024823
O O5 0.729642 0.500000 0.032708
O O6 0.775492 0.422042 0.913037
O O7 0.000000 0.500000 0.970936
O O8 0.754063 0.079742 0.647703
O O9 0.500000 0.000000 0.623164
O O10 0.241052 0.229226 0.694448
O O11 0.254072 0.199864 0.561446
O O12 0.000000 0.167414 0.630353
O O13 0.500000 0.804723 0.217508
O O14 0.258862 0.834866 0.297096
O O15 0.500000 0.254598 0.497951
O O16 0.754042 0.229242 0.425651
O O17 0.000000 0.664776 0.868512
#
# Coordination Sequence:
#
# PCOD9357123 Si02
#       7
#     8   4   4   8   8   8   8
#     4   8  16  32  54  80 107 136 173 224 275 321
#     4  10  22  36  52  80 116 151 182 221 276 334
#     4  12  22  34  58  86 112 141 186 231 272 326
#     4  11  21  36  56  80 112 147 183 225 281 331
#     4  10  21  36  56  81 111 144 186 226 274 335
#     4  10  19  33  55  81 108 142 187 230 272 328
#     4  11  22  36  54  78 114 150 184 224 277 334
#
# _framework density 17.352975000000001
#
# number of rings (size 3 to 8) (size 9 to 14) (size 15 to 20)
#    0.000    1.833    1.667    4.750    1.167    0.667 
#    0.000    0.000    1.833   10.000    0.000    0.000 
#    0.000    0.000    0.000    0.000    0.000    0.000 
#
# Total GULP energy -134008.008354 kJ/mol
# GULP energy per Si atom -5583.667015 kJ/mol
# Density = 1.731348 g / cm^3
# Si number density = 17.352975 Si / 1000 Ang^3
#
#
#
# Elastic Constant Matrix: (Units=GPa)
#
#
# Indices 1 2 3 4 5 6 
#
# 1 52.8139 29.7085 13.1231 0.0000 0.0000 0.0000
# 2 29.7085 147.1224 34.6710 0.0000 0.0000 0.0000
# 3 13.1231 34.6710 63.8203 0.0000 0.0000 0.0000
# 4 0.0000 0.0000 0.0000 16.7146 0.0000 0.0000
# 5 0.0000 0.0000 0.0000 0.0000 -108.6617 0.0000
# 6 0.0000 0.0000 0.0000 0.0000 0.0000 20.9617
#
#
#
# Elastic Compliance Matrix: (Units=1/GPa)
#
#
# Indices 1 2 3 4 5 6 
#
# 1 0.021673 -0.003814 -0.002384 0.000000 0.000000 0.000000
# 2 -0.003814 0.008466 -0.003815 0.000000 0.000000 0.000000
# 3 -0.002384 -0.003815 0.018232 0.000000 0.000000 0.000000
# 4 0.000000 0.000000 0.000000 0.059828 0.000000 0.000000
# 5 0.000000 0.000000 0.000000 0.000000 -0.009203 0.000000
# 6 0.000000 0.000000 0.000000 0.000000 0.000000 0.047706
#
#
# Mechanical properties :
#
#
# Convention : Reuss Voigt Hill
#
# Bulk Modulus (GPa) = 35.28178 46.52911 40.90545
# Shear Modulus (GPa) = 28.38050 -1.78015 13.30017
#
# Velocity S-wave (km/s) = 4.04850 -1.01394 2.77149
# Velocity P-wave (km/s) = 6.49844 5.04983 5.81939
#
# Compressibility (1/GPa) = 0.02834324
#
# Stress axis : x y z
#
# Youngs Moduli (GPa) = 46.14134 118.11402 54.84909
#
# Poissons Ratio (x) = 0.45055 0.13077
# Poissons Ratio (y) = 0.17601 0.20925
# Poissons Ratio (z) = 0.11001 0.45062
#
# Static dielectric constant tensor:
#      x y z
#    x 1.582050 0.000000 0.000000 
#    y 0.000000 1.599170 0.000000 
#    z 0.000000 0.000000 1.559410 
# 
# From -- ./inp_files/16685.got.cif
#   From: 2010.05.17/outbox.cif.g08.bks.cpg/sg38_9_cif.got.tgz:16685.got - 2010.06.03 18:07:57.
