data_PCOD9357648
_publ_section_title
;
Structure prediction by ZEFSAII (Michael W. Deem and Ramdas Pophale) SiO2 
 PCOD9357648
Probable space group: A M M 2
;
_chemical_formula_sum "Si O2"
_cell_formula_units_Z 64
_cell_length_a 8.752496
_cell_length_b 23.806028
_cell_length_c 19.544094
_cell_angle_alpha 90.000000
_cell_angle_beta 90.000000
_cell_angle_gamma 90.000000
_cell_volume 4072.249736
_symmetry_space_group_name_H-M "A M M 2"
_symmetry_group_IT_number 38
_symmetry_cell_setting 'orthorhombic'
loop_
_space_group_symop_operation_xyz
x,y,z
-x,-y,z
-x,y,z
x,-y,z
x,1/2+y,1/2+z
-x,1/2-y,1/2+z
-x,1/2+y,1/2+z
x,1/2-y,1/2+z
loop_
_atom_site_type_symbol
_atom_site_label
_atom_site_fract_x
_atom_site_fract_y
_atom_site_fract_z
Si Si1 0.815914 0.563991 0.170250
Si Si2 0.683346 0.723877 0.674451
Si Si3 0.317211 0.934357 0.388009
Si Si4 0.182960 0.251301 0.530280
Si Si5 0.182423 0.662830 0.801494
Si Si6 0.682830 0.837350 0.755143
Si Si7 0.683600 0.732357 0.385139
Si Si8 0.184199 0.618639 0.025894
O O1 0.763001 0.500000 0.178788
O O2 0.757789 0.606276 0.227953
O O3 0.768638 0.588234 0.096130
O O4 0.000000 0.564251 0.170920
O O5 0.500000 0.719565 0.675677
O O6 0.746647 0.721380 0.598035
O O7 0.754232 0.679126 0.726892
O O8 0.725920 0.785198 0.705609
O O9 0.500000 0.928800 0.383823
O O10 0.240803 0.896471 0.329547
O O11 0.260634 0.909856 0.460508
O O12 0.276924 0.000000 0.382976
O O13 0.250063 0.275886 0.460293
O O14 0.222156 0.184667 0.530155
O O15 0.000000 0.243956 0.031380
O O16 0.248180 0.710506 0.852868
O O17 0.000000 0.665323 0.802485
O O18 0.500000 0.843027 0.751925
O O19 0.723645 0.816797 0.831344
O O20 0.500000 0.737614 0.387005
O O21 0.000000 0.614051 0.018919
#
# Coordination Sequence:
#
# PCOD9357648 Si02
#       8
#     8   8   8   8   8   8   8   8
#     4  10  20  33  49  69  97 134 171 207 247 289
#     4  10  20  34  52  73 101 134 166 208 256 304
#     4  11  23  36  51  72 100 137 178 215 253 301
#     4  11  20  31  51  79 103 134 170 205 251 302
#     4  11  21  34  52  74  99 131 170 214 257 302
#     4   9  19  33  49  70  95 128 167 206 249 292
#     4  10  20  34  51  72 100 132 167 208 257 307
#     4  10  20  33  48  70 102 138 175 210 245 293
#
# _framework density 15.716127999999999
#
# number of rings (size 3 to 8) (size 9 to 14) (size 15 to 20)
#    0.000    1.750    2.500    3.750    0.000    5.250 
#    0.000    0.000    0.000    0.000    0.000    0.875 
#    0.000    3.000    0.000    0.000    0.000    0.000 
#
# Total GULP energy -178673.026920 kJ/mol
# GULP energy per Si atom -5583.532091 kJ/mol
# Density = 1.568036 g / cm^3
# Si number density = 15.716128 Si / 1000 Ang^3
#
#
#
# Elastic Constant Matrix: (Units=GPa)
#
#
# Indices 1 2 3 4 5 6 
#
# 1 51.2059 37.4834 48.9388 0.0000 0.0000 0.0000
# 2 37.4834 89.5694 66.1583 0.0000 0.0000 0.0000
# 3 48.9388 66.1583 151.2251 0.0000 0.0000 0.0000
# 4 0.0000 0.0000 0.0000 19.8032 0.0000 0.0000
# 5 0.0000 0.0000 0.0000 0.0000 29.8419 0.0000
# 6 0.0000 0.0000 0.0000 0.0000 0.0000 22.8311
#
#
#
# Elastic Compliance Matrix: (Units=1/GPa)
#
#
# Indices 1 2 3 4 5 6 
#
# 1 0.032147 -0.008523 -0.006675 0.000000 0.000000 0.000000
# 2 -0.008523 0.018754 -0.005446 0.000000 0.000000 0.000000
# 3 -0.006675 -0.005446 0.011155 0.000000 0.000000 0.000000
# 4 0.000000 0.000000 0.000000 0.050497 0.000000 0.000000
# 5 0.000000 0.000000 0.000000 0.000000 0.033510 0.000000
# 6 0.000000 0.000000 0.000000 0.000000 0.000000 0.043800
#
#
# Mechanical properties :
#
#
# Convention : Reuss Voigt Hill
#
# Bulk Modulus (GPa) = 48.14987 66.35126 57.25056
# Shear Modulus (GPa) = 21.00185 23.78991 22.39588
#
# Velocity S-wave (km/s) = 3.65954 3.89488 3.77905
# Velocity P-wave (km/s) = 6.96851 7.90804 7.45309
#
# Compressibility (1/GPa) = 0.02076849
#
# Stress axis : x y z
#
# Youngs Moduli (GPa) = 31.10702 53.32151 89.64273
#
# Poissons Ratio (x) = 0.45446 0.59833
# Poissons Ratio (y) = 0.26513 0.48823
# Poissons Ratio (z) = 0.20763 0.29041
#
# Static dielectric constant tensor:
#      x y z
#    x 1.526750 0.000000 0.000000 
#    y 0.000000 1.506190 0.000000 
#    z 0.000000 0.000000 1.516610 
# 
# From -- ./inp_files/17224.got.cif
#   From: 2010.05.17/outbox.cif.g08.bks.cpg/sg38_9_cif.got.tgz:17224.got - 2010.06.03 18:07:57.
