data_PCOD9357424
_publ_section_title
;
Structure prediction by ZEFSAII (Michael W. Deem and Ramdas Pophale) SiO2 
 PCOD9357424
Probable space group: A M M 2
;
_chemical_formula_sum "Si O2"
_cell_formula_units_Z 48
_cell_length_a 14.674036
_cell_length_b 7.615598
_cell_length_c 20.853032
_cell_angle_alpha 90.000000
_cell_angle_beta 90.000000
_cell_angle_gamma 90.000000
_cell_volume 2330.358840
_symmetry_space_group_name_H-M "A M M 2"
_symmetry_group_IT_number 38
_symmetry_cell_setting 'orthorhombic'
loop_
_space_group_symop_operation_xyz
x,y,z
-x,-y,z
-x,y,z
x,-y,z
x,1/2+y,1/2+z
-x,1/2-y,1/2+z
-x,1/2+y,1/2+z
x,1/2-y,1/2+z
loop_
_atom_site_type_symbol
_atom_site_label
_atom_site_fract_x
_atom_site_fract_y
_atom_site_fract_z
Si Si1 0.309719 0.285152 0.567830
Si Si2 0.500000 0.785558 0.011828
Si Si3 0.700376 0.288524 0.322178
Si Si4 0.000000 0.796836 0.502665
Si Si5 0.500000 0.714601 0.361687
Si Si6 0.198537 0.210666 0.189778
Si Si7 0.000000 0.295884 0.650940
Si Si8 0.192023 0.710960 0.446838
O O1 0.310538 0.500000 0.568987
O O2 0.410806 0.228156 0.549902
O O3 0.265340 0.223607 0.633685
O O4 0.246557 0.228285 0.509157
O O5 0.500000 0.000000 0.010213
O O6 0.500000 0.732520 0.936958
O O7 0.696236 0.500000 0.326335
O O8 0.595081 0.227419 0.328969
O O9 0.754190 0.245346 0.257522
O O10 0.759626 0.222910 0.382644
O O11 0.000000 0.707379 0.572972
O O12 0.912077 0.754842 0.460236
O O13 0.000000 0.000000 0.518815
O O14 0.500000 0.500000 0.360902
O O15 0.095500 0.279418 0.177862
O O16 0.192769 0.000000 0.182041
O O17 0.000000 0.500000 0.670438
O O18 0.199176 0.500000 0.445114
#
# Coordination Sequence:
#
# PCOD9357424 Si02
#       8
#     8   4   8   4   4   8   4   8
#     4   9  16  29  53  82 108 139 184 230 269 318
#     4   9  14  25  52  87 111 134 185 238 266 315
#     4  10  21  36  58  85 114 149 188 232 277 330
#     4  12  24  35  56  89 117 143 179 235 292 334
#     4   9  16  31  55  83 111 144 183 230 286 327
#     4  10  21  36  56  82 114 151 184 229 287 336
#     4  10  20  39  62  79 105 151 197 231 274 334
#     4  10  19  36  59  81 108 147 192 230 267 323
#
# _framework density 20.597685999999999
#
# number of rings (size 3 to 8) (size 9 to 14) (size 15 to 20)
#    0.000    2.167    3.333    0.750    0.000    2.667 
#    0.000    2.917    0.000    0.000    0.000    0.583 
#    0.000    0.000    0.000    0.000    0.000    0.000 
#
# Total GULP energy -133958.300760 kJ/mol
# GULP energy per Si atom -5581.595865 kJ/mol
# Density = 2.055080 g / cm^3
# Si number density = 20.597686 Si / 1000 Ang^3
#
#
#
# Elastic Constant Matrix: (Units=GPa)
#
#
# Indices 1 2 3 4 5 6 
#
# 1 225.7714 1.0655 106.5982 0.0000 0.0000 0.0000
# 2 1.0655 38.7601 -2.4691 0.0000 0.0000 0.0000
# 3 106.5982 -2.4691 160.8193 0.0000 0.0000 0.0000
# 4 0.0000 0.0000 0.0000 21.0507 0.0000 0.0000
# 5 0.0000 0.0000 0.0000 0.0000 34.0698 0.0000
# 6 0.0000 0.0000 0.0000 0.0000 0.0000 -39.3252
#
#
#
# Elastic Compliance Matrix: (Units=1/GPa)
#
#
# Indices 1 2 3 4 5 6 
#
# 1 0.006455 -0.000450 -0.004285 0.000000 0.000000 0.000000
# 2 -0.000450 0.025856 0.000696 0.000000 0.000000 0.000000
# 3 -0.004285 0.000696 0.009069 0.000000 0.000000 0.000000
# 4 0.000000 0.000000 0.000000 0.047504 0.000000 0.000000
# 5 0.000000 0.000000 0.000000 0.000000 0.029351 0.000000
# 6 0.000000 0.000000 0.000000 0.000000 0.000000 -0.025429
#
#
# Mechanical properties :
#
#
# Convention : Reuss Voigt Hill
#
# Bulk Modulus (GPa) = 30.03004 70.63779 50.33391
# Shear Modulus (GPa) = 44.64764 24.50281 34.57523
#
# Velocity S-wave (km/s) = 4.66081 3.45279 4.10151
# Velocity P-wave (km/s) = 6.60115 7.08972 6.84979
#
# Compressibility (1/GPa) = 0.03329999
#
# Stress axis : x y z
#
# Youngs Moduli (GPa) = 154.92472 38.67508 110.26089
#
# Poissons Ratio (x) = 0.01742 0.47251
# Poissons Ratio (y) = 0.06978 -0.07669
# Poissons Ratio (z) = 0.66392 -0.02690
#
# Static dielectric constant tensor:
#      x y z
#    x 1.558030 0.000000 0.000000 
#    y 0.000000 1.786030 0.000000 
#    z 0.000000 0.000000 1.692350 
# 
# From -- ./inp_files/18251.got.cif
#   From: 2010.05.17/outbox.cif.g08.bks.cpg/sg38_10_cif.got.tgz:18251.got - 2010.06.03 18:07:57.
