data_PCOD9357805
_publ_section_title
;
Structure prediction by ZEFSAII (Michael W. Deem and Ramdas Pophale) SiO2 
 PCOD9357805
Probable space group: A M M 2
;
_chemical_formula_sum "Si O2"
_cell_formula_units_Z 56
_cell_length_a 8.786570
_cell_length_b 17.132472
_cell_length_c 19.802877
_cell_angle_alpha 90.000000
_cell_angle_beta 90.000000
_cell_angle_gamma 90.000000
_cell_volume 2981.039248
_symmetry_space_group_name_H-M "A M M 2"
_symmetry_group_IT_number 38
_symmetry_cell_setting 'orthorhombic'
loop_
_space_group_symop_operation_xyz
x,y,z
-x,-y,z
-x,y,z
x,-y,z
x,1/2+y,1/2+z
-x,1/2-y,1/2+z
-x,1/2+y,1/2+z
x,1/2-y,1/2+z
loop_
_atom_site_type_symbol
_atom_site_label
_atom_site_fract_x
_atom_site_fract_y
_atom_site_fract_z
Si Si1 0.183134 0.842295 0.767450
Si Si2 0.317086 0.500000 0.203890
Si Si3 0.320646 0.738598 0.880078
Si Si4 0.819793 0.587730 0.811055
Si Si5 0.176965 0.237295 0.141198
Si Si6 0.177804 0.668159 0.006246
Si Si7 0.678508 0.415209 0.663251
Si Si8 0.814668 0.500000 0.050849
O O1 0.238345 0.807662 0.838727
O O2 0.226692 0.777352 0.711010
O O3 0.000000 0.849789 0.766347
O O4 0.256784 0.923256 0.743134
O O5 0.500000 0.500000 0.201603
O O6 0.252484 0.500000 0.126873
O O7 0.500000 0.749786 0.875050
O O8 0.270807 0.656489 0.846465
O O9 0.267842 0.724972 0.956715
O O10 0.787492 0.500000 0.836952
O O11 0.773114 0.588003 0.732617
O O12 0.000000 0.601993 0.817799
O O13 0.271708 0.160837 0.123304
O O14 0.000000 0.215063 0.148388
O O15 0.187584 0.300283 0.082244
O O16 0.000000 0.668771 0.985343
O O17 0.229539 0.578313 0.010657
O O18 0.500000 0.410854 0.679627
O O19 0.707245 0.500000 0.631013
O O20 0.000000 0.500000 0.057220
#
# Coordination Sequence:
#
# PCOD9357805 Si02
#       8
#     8   4   8   8   8   8   8   4
#     4  11  22  41  66  91 120 161 209 254 303 368
#     4  12  24  38  64 100 132 159 200 263 326 370
#     4  12  25  39  57  87 123 159 198 250 311 369
#     4  10  20  34  53  78 111 153 195 231 272 335
#     4  10  20  36  62  88 113 152 202 252 298 358
#     4  10  22  40  61  86 119 162 208 250 302 373
#     4  10  20  33  53  83 117 149 185 238 298 348
#     4  10  20  40  64  90 128 171 214 255 304 378
#
# _framework density 18.785394
#
# number of rings (size 3 to 8) (size 9 to 14) (size 15 to 20)
#    0.000    1.429    2.857    3.214    1.000    3.429 
#    0.000    0.000    1.571    0.000    0.000    0.000 
#    0.000    0.000    0.000    0.000    0.000    0.000 
#
# Total GULP energy -156354.341820 kJ/mol
# GULP energy per Si atom -5584.083636 kJ/mol
# Density = 1.874264 g / cm^3
# Si number density = 18.785394 Si / 1000 Ang^3
#
#
#
# Elastic Constant Matrix: (Units=GPa)
#
#
# Indices 1 2 3 4 5 6 
#
# 1 62.2044 36.0319 17.2127 0.0000 0.0000 0.0000
# 2 36.0319 99.9619 19.4982 0.0000 0.0000 0.0000
# 3 17.2127 19.4982 53.3843 0.0000 0.0000 0.0000
# 4 0.0000 0.0000 0.0000 24.3018 0.0000 0.0000
# 5 0.0000 0.0000 0.0000 0.0000 21.1438 0.0000
# 6 0.0000 0.0000 0.0000 0.0000 0.0000 26.5055
#
#
#
# Elastic Compliance Matrix: (Units=1/GPa)
#
#
# Indices 1 2 3 4 5 6 
#
# 1 0.021220 -0.006799 -0.004359 0.000000 0.000000 0.000000
# 2 -0.006799 0.012949 -0.002538 0.000000 0.000000 0.000000
# 3 -0.004359 -0.002538 0.021064 0.000000 0.000000 0.000000
# 4 0.000000 0.000000 0.000000 0.041149 0.000000 0.000000
# 5 0.000000 0.000000 0.000000 0.000000 0.047295 0.000000
# 6 0.000000 0.000000 0.000000 0.000000 0.000000 0.037728
#
#
# Mechanical properties :
#
#
# Convention : Reuss Voigt Hill
#
# Bulk Modulus (GPa) = 35.91472 40.11515 38.01493
# Shear Modulus (GPa) = 22.92755 23.91075 23.41915
#
# Velocity S-wave (km/s) = 3.49735 3.57155 3.53465
# Velocity P-wave (km/s) = 5.95555 6.19748 6.07772
#
# Compressibility (1/GPa) = 0.02784373
#
# Stress axis : x y z
#
# Youngs Moduli (GPa) = 47.12451 77.22340 47.47352
#
# Poissons Ratio (x) = 0.52503 0.20693
# Poissons Ratio (y) = 0.32039 0.12047
# Poissons Ratio (z) = 0.20541 0.19596
#
# Static dielectric constant tensor:
#      x y z
#    x 1.637180 0.000000 0.000000 
#    y 0.000000 1.667580 0.000000 
#    z 0.000000 0.000000 1.650540 
# 
# From -- ./inp_files/19879.got.cif
#   From: 2010.05.17/outbox.cif.g08.bks.cpg/sg38_10_cif.got.tgz:19879.got - 2010.06.03 18:07:57.
