data_PCOD9357081
_publ_section_title
;
Structure prediction by ZEFSAII (Michael W. Deem and Ramdas Pophale) SiO2 
 PCOD9357081
Probable space group: A M M 2
;
_chemical_formula_sum "Si O2"
_cell_formula_units_Z 48
_cell_length_a 8.354444
_cell_length_b 7.482859
_cell_length_c 34.204959
_cell_angle_alpha 90.000000
_cell_angle_beta 90.000000
_cell_angle_gamma 90.000000
_cell_volume 2138.327338
_symmetry_space_group_name_H-M "A M M 2"
_symmetry_group_IT_number 38
_symmetry_cell_setting 'orthorhombic'
loop_
_space_group_symop_operation_xyz
x,y,z
-x,-y,z
-x,y,z
x,-y,z
x,1/2+y,1/2+z
-x,1/2-y,1/2+z
-x,1/2+y,1/2+z
x,1/2-y,1/2+z
loop_
_atom_site_type_symbol
_atom_site_label
_atom_site_fract_x
_atom_site_fract_y
_atom_site_fract_z
Si Si1 0.319627 0.716418 0.758340
Si Si2 0.500000 0.788603 0.640569
Si Si3 0.176704 0.718313 0.505135
Si Si4 0.320661 0.713602 0.425271
Si Si5 0.174240 0.709365 0.177768
Si Si6 0.500000 0.284419 0.549040
Si Si7 0.180897 0.714186 0.840359
O O1 0.500000 0.775675 0.748969
O O2 0.318338 0.500000 0.758304
O O3 0.201917 0.776735 0.724255
O O4 0.270959 0.778629 0.801574
O O5 0.665366 0.712819 0.658197
O O6 0.500000 0.765828 0.594260
O O7 0.500000 0.000000 0.650298
O O8 0.175767 0.500000 0.506631
O O9 0.205371 0.774610 0.460070
O O10 0.334494 0.777253 0.528789
O O11 0.000000 0.776870 0.518675
O O12 0.500000 0.784171 0.431296
O O13 0.328041 0.500000 0.429398
O O14 0.264095 0.749295 0.381492
O O15 0.169459 0.500000 0.167132
O O16 0.000000 0.786406 0.167402
O O17 0.500000 0.500000 0.545603
O O18 0.174095 0.500000 0.836688
O O19 0.000000 0.783512 0.841145
#
# Coordination Sequence:
#
# PCOD9357081 Si02
#       7
#     8   4   8   8   8   4   8
#     4  10  20  35  56  80 108 144 185 228 274 321
#     4  10  22  40  58  81 114 143 171 218 277 328
#     4   9  17  32  55  81 110 141 175 223 274 314
#     4  10  19  33  54  79 106 141 186 230 269 316
#     4  10  21  38  60  83 109 145 184 222 269 324
#     4  10  20  36  58  83 108 137 179 220 263 328
#     4  10  21  35  50  74 110 148 185 226 272 320
#
# _framework density 22.447451000000001
#
# number of rings (size 3 to 8) (size 9 to 14) (size 15 to 20)
#    0.000    2.167    1.667    1.500    0.000    5.000 
#    0.000    0.833    0.000    1.000    0.000    0.000 
#    0.000    0.000    0.000    0.000    0.000    0.000 
#
# Total GULP energy -134063.415621 kJ/mol
# GULP energy per Si atom -5585.975651 kJ/mol
# Density = 2.239636 g / cm^3
# Si number density = 22.447451 Si / 1000 Ang^3
#
#
#
# Elastic Constant Matrix: (Units=GPa)
#
#
# Indices 1 2 3 4 5 6 
#
# 1 216.8497 10.0712 71.1476 0.0000 0.0000 0.0000
# 2 10.0712 63.4690 -10.6152 0.0000 0.0000 0.0000
# 3 71.1476 -10.6152 119.0689 0.0000 0.0000 0.0000
# 4 0.0000 0.0000 0.0000 24.2684 0.0000 0.0000
# 5 0.0000 0.0000 0.0000 0.0000 5.8243 0.0000
# 6 0.0000 0.0000 0.0000 0.0000 0.0000 -6.6310
#
#
#
# Elastic Compliance Matrix: (Units=1/GPa)
#
#
# Indices 1 2 3 4 5 6 
#
# 1 0.005881 -0.001544 -0.003652 0.000000 0.000000 0.000000
# 2 -0.001544 0.016400 0.002385 0.000000 0.000000 0.000000
# 3 -0.003652 0.002385 0.010793 0.000000 0.000000 0.000000
# 4 0.000000 0.000000 0.000000 0.041206 0.000000 0.000000
# 5 0.000000 0.000000 0.000000 0.000000 0.171694 0.000000
# 6 0.000000 0.000000 0.000000 0.000000 0.000000 -0.150806
#
#
# Mechanical properties :
#
#
# Convention : Reuss Voigt Hill
#
# Bulk Modulus (GPa) = 36.42787 60.06611 48.24699
# Shear Modulus (GPa) = 45.47881 26.61128 36.04504
#
# Velocity S-wave (km/s) = 4.50601 3.44683 4.01153
# Velocity P-wave (km/s) = 6.58297 6.53127 6.55717
#
# Compressibility (1/GPa) = 0.02745151
#
# Stress axis : x y z
#
# Youngs Moduli (GPa) = 170.02742 60.97723 92.65022
#
# Poissons Ratio (x) = 0.09415 0.33836
# Poissons Ratio (y) = 0.26253 -0.22094
# Poissons Ratio (z) = 0.62094 -0.14541
#
# Static dielectric constant tensor:
#      x y z
#    x 1.847460 0.000000 0.000000 
#    y 0.000000 1.845220 0.000000 
#    z 0.000000 0.000000 1.782340 
# 
# From -- ./inp_files/24376.got.cif
#   From: 2010.05.17/outbox.cif.g08.bks.cpg/sg38_13_cif.got.tgz:24376.got - 2010.06.03 18:07:57.
