data_PCOD9357522
_publ_section_title
;
Structure prediction by ZEFSAII (Michael W. Deem and Ramdas Pophale) SiO2 
 PCOD9357522
Probable space group: A M M 2
;
_chemical_formula_sum "Si O2"
_cell_formula_units_Z 58
_cell_length_a 7.424668
_cell_length_b 27.279572
_cell_length_c 11.827926
_cell_angle_alpha 90.000000
_cell_angle_beta 90.000000
_cell_angle_gamma 90.000000
_cell_volume 2395.649012
_symmetry_space_group_name_H-M "A M M 2"
_symmetry_group_IT_number 38
_symmetry_cell_setting 'orthorhombic'
loop_
_space_group_symop_operation_xyz
x,y,z
-x,-y,z
-x,y,z
x,-y,z
x,1/2+y,1/2+z
-x,1/2-y,1/2+z
-x,1/2+y,1/2+z
x,1/2-y,1/2+z
loop_
_atom_site_type_symbol
_atom_site_label
_atom_site_fract_x
_atom_site_fract_y
_atom_site_fract_z
Si Si1 0.789455 0.298343 0.988300
Si Si2 0.217417 0.657572 0.756094
Si Si3 0.291532 0.590212 0.413680
Si Si4 0.716011 0.446210 0.006094
Si Si5 0.796631 0.362898 0.179148
Si Si6 0.000000 0.000000 0.928343
Si Si7 0.792691 0.052432 0.242191
Si Si8 0.290286 0.690317 0.522348
O O1 0.714060 0.326238 0.878627
O O2 0.000000 0.311319 0.994543
O O3 0.714920 0.317167 0.108912
O O4 0.779608 0.240422 0.969434
O O5 0.290299 0.604696 0.715650
O O6 0.260735 0.694564 0.656468
O O7 0.000000 0.653394 0.763877
O O8 0.500000 0.578634 0.446129
O O9 0.295609 0.611894 0.285773
O O10 0.159200 0.543869 0.424749
O O11 0.218169 0.637844 0.482115
O O12 0.500000 0.440274 0.999064
O O13 0.753666 0.500000 0.055777
O O14 0.797107 0.404536 0.082596
O O15 0.790266 0.446281 0.878947
O O16 0.000000 0.350739 0.216379
O O17 0.000000 0.051616 0.201731
O O18 0.712271 0.000000 0.207415
O O19 0.500000 0.688632 0.495791
#
# Coordination Sequence:
#
# PCOD9357522 Si02
#       8
#     8   8   8   8   8   2   8   8
#     4  10  23  42  69 101 137 184 240 297 355 430
#     4  10  21  41  67  97 132 174 228 285 342 416
#     4  11  27  49  73 110 147 185 249 304 359 442
#     4  10  20  31  50  83 127 174 217 276 340 406
#     4  11  22  40  65  99 138 186 239 293 360 423
#     4  12  26  52  84 106 138 204 234 296 382 432
#     4   9  17  34  57  87 123 165 215 270 328 400
#     4  11  27  47  68  99 140 182 231 296 357 423
#
# _framework density 24.210557999999999
#
# number of rings (size 3 to 8) (size 9 to 14) (size 15 to 20)
#    0.000    1.655    2.069    1.448    4.828    3.034 
#    1.241    0.000    0.000    0.000    0.000    0.000 
#    0.000    0.000    0.000    0.000    0.000    0.000 
#
# Total GULP energy -161731.856197 kJ/mol
# GULP energy per Si atom -5576.960559 kJ/mol
# Density = 2.415545 g / cm^3
# Si number density = 24.210558 Si / 1000 Ang^3
#
#
#
# Elastic Constant Matrix: (Units=GPa)
#
#
# Indices 1 2 3 4 5 6 
#
# 1 119.4321 31.5909 0.0619 0.0000 0.0000 0.0000
# 2 31.5909 177.4618 39.5558 0.0000 0.0000 0.0000
# 3 0.0619 39.5558 61.9273 0.0000 0.0000 0.0000
# 4 0.0000 0.0000 0.0000 17.7507 0.0000 0.0000
# 5 0.0000 0.0000 0.0000 0.0000 17.2725 0.0000
# 6 0.0000 0.0000 0.0000 0.0000 0.0000 5.0402
#
#
#
# Elastic Compliance Matrix: (Units=1/GPa)
#
#
# Indices 1 2 3 4 5 6 
#
# 1 0.008858 -0.001836 0.001164 0.000000 0.000000 0.000000
# 2 -0.001836 0.006951 -0.004438 0.000000 0.000000 0.000000
# 3 0.001164 -0.004438 0.018982 0.000000 0.000000 0.000000
# 4 0.000000 0.000000 0.000000 0.056336 0.000000 0.000000
# 5 0.000000 0.000000 0.000000 0.000000 0.057895 0.000000
# 6 0.000000 0.000000 0.000000 0.000000 0.000000 0.198404
#
#
# Mechanical properties :
#
#
# Convention : Reuss Voigt Hill
#
# Bulk Modulus (GPa) = 40.69992 55.69313 48.19652
# Shear Modulus (GPa) = 13.66730 27.18687 20.42708
#
# Velocity S-wave (km/s) = 2.37854 3.35466 2.90785
# Velocity P-wave (km/s) = 4.93868 6.16916 5.58789
#
# Compressibility (1/GPa) = 0.02457008
#
# Stress axis : x y z
#
# Youngs Moduli (GPa) = 112.89120 143.86057 52.68234
#
# Poissons Ratio (x) = 0.26418 -0.06133
# Poissons Ratio (y) = 0.20731 0.23381
# Poissons Ratio (z) = -0.13142 0.63848
#
# Static dielectric constant tensor:
#      x y z
#    x 1.908090 0.000000 0.000000 
#    y 0.000000 1.956630 0.000000 
#    z 0.000000 0.000000 1.967250 
# 
# From -- ./inp_files/8331.got.cif
#   From: 2010.05.17/outbox.cif.g08.bks.cpg/sg38_5_cif.got.tgz:8331.got - 2010.06.03 18:07:57.
