data_PCOD9357039
_publ_section_title
;
Structure prediction by ZEFSAII (Michael W. Deem and Ramdas Pophale) SiO2 
 PCOD9357039
Probable space group: A M M 2
;
_chemical_formula_sum "Si O2"
_cell_formula_units_Z 30
_cell_length_a 15.385854
_cell_length_b 17.796715
_cell_length_c 4.968179
_cell_angle_alpha 90.000000
_cell_angle_beta 90.000000
_cell_angle_gamma 90.000000
_cell_volume 1360.375142
_symmetry_space_group_name_H-M "A M M 2"
_symmetry_group_IT_number 38
_symmetry_cell_setting 'orthorhombic'
loop_
_space_group_symop_operation_xyz
x,y,z
-x,-y,z
-x,y,z
x,-y,z
x,1/2+y,1/2+z
-x,1/2-y,1/2+z
-x,1/2+y,1/2+z
x,1/2-y,1/2+z
loop_
_atom_site_type_symbol
_atom_site_label
_atom_site_fract_x
_atom_site_fract_y
_atom_site_fract_z
Si Si1 0.601047 0.198137 0.167870
Si Si2 0.327075 0.417346 0.271756
Si Si3 0.000000 0.200212 0.458307
Si Si4 0.191975 0.805554 0.527081
Si Si5 0.500000 0.500000 0.115006
O O1 0.500000 0.177229 0.147168
O O2 0.615387 0.232501 0.461040
O O3 0.653121 0.129408 0.041686
O O4 0.292832 0.500000 0.341842
O O5 0.257652 0.371933 0.097961
O O6 0.421270 0.435523 0.133821
O O7 0.092570 0.164378 0.528190
O O8 0.000000 0.275244 0.646518
O O9 0.202600 0.739469 0.748820
#
# Coordination Sequence:
#
# PCOD9357039 Si02
#       5
#     8   8   4   8   2
#     4  10  19  33  52  73  96 130 178 226 265 312
#     4  10  19  36  55  78 112 152 183 231 276 331
#     4   8  16  32  57  86 113 138 174 228 284 330
#     4  10  20  37  61  87 112 144 186 231 278 335
#     4   8  20  36  56  72 124 146 194 222 296 308
#
# _framework density 22.052738000000002
#
# number of rings (size 3 to 8) (size 9 to 14) (size 15 to 20)
#    0.800    1.600    1.333    1.600    0.000    0.000 
#    0.000    6.000    0.000   11.200    0.000   11.200 
#    0.000    0.000    0.000    0.000    0.000    0.000 
#
# Total GULP energy -83523.904632 kJ/mol
# GULP energy per Si atom -5568.260309 kJ/mol
# Density = 2.200255 g / cm^3
# Si number density = 22.052738 Si / 1000 Ang^3
#
#
#
# Elastic Constant Matrix: (Units=GPa)
#
#
# Indices 1 2 3 4 5 6 
#
# 1 169.5122 63.6491 27.8464 0.0000 0.0000 0.0000
# 2 63.6491 132.7273 24.0753 0.0000 0.0000 0.0000
# 3 27.8464 24.0753 89.8790 0.0000 0.0000 0.0000
# 4 0.0000 0.0000 0.0000 6.2465 0.0000 0.0000
# 5 0.0000 0.0000 0.0000 0.0000 26.4322 0.0000
# 6 0.0000 0.0000 0.0000 0.0000 0.0000 43.9945
#
#
#
# Elastic Compliance Matrix: (Units=1/GPa)
#
#
# Indices 1 2 3 4 5 6 
#
# 1 0.007359 -0.003275 -0.001403 0.000000 0.000000 0.000000
# 2 -0.003275 0.009376 -0.001497 0.000000 0.000000 0.000000
# 3 -0.001403 -0.001497 0.011962 0.000000 0.000000 0.000000
# 4 0.000000 0.000000 0.000000 0.160089 0.000000 0.000000
# 5 0.000000 0.000000 0.000000 0.000000 0.037833 0.000000
# 6 0.000000 0.000000 0.000000 0.000000 0.000000 0.022730
#
#
# Mechanical properties :
#
#
# Convention : Reuss Voigt Hill
#
# Bulk Modulus (GPa) = 61.16930 69.25114 65.21022
# Shear Modulus (GPa) = 18.71627 33.77116 26.24371
#
# Velocity S-wave (km/s) = 2.91641 3.91753 3.45344
# Velocity P-wave (km/s) = 6.25608 7.20649 6.74804
#
# Compressibility (1/GPa) = 0.01634807
#
# Stress axis : x y z
#
# Youngs Moduli (GPa) = 135.88188 106.65366 83.60019
#
# Poissons Ratio (x) = 0.34926 0.11728
# Poissons Ratio (y) = 0.44497 0.12515
# Poissons Ratio (z) = 0.19063 0.15966
#
# Static dielectric constant tensor:
#      x y z
#    x 1.927070 0.000000 0.000000 
#    y 0.000000 1.808020 0.000000 
#    z 0.000000 0.000000 1.868010 
# 
# From -- ./inp_files/1474.got.cif
#   From: 2010.05.17/outbox.cif.g08.bks.cpg/sg38_1_cif.got.tgz:1474.got - 2010.06.03 18:07:57.
