data_PCOD9357447
_publ_section_title
;
Structure prediction by ZEFSAII (Michael W. Deem and Ramdas Pophale) SiO2 
 PCOD9357447
Probable space group: A M M 2
;
_chemical_formula_sum "Si O2"
_cell_formula_units_Z 48
_cell_length_a 14.486034
_cell_length_b 8.772396
_cell_length_c 20.177193
_cell_angle_alpha 90.000000
_cell_angle_beta 90.000000
_cell_angle_gamma 90.000000
_cell_volume 2564.061729
_symmetry_space_group_name_H-M "A M M 2"
_symmetry_group_IT_number 38
_symmetry_cell_setting 'orthorhombic'
loop_
_space_group_symop_operation_xyz
x,y,z
-x,-y,z
-x,y,z
x,-y,z
x,1/2+y,1/2+z
-x,1/2-y,1/2+z
-x,1/2+y,1/2+z
x,1/2-y,1/2+z
loop_
_atom_site_type_symbol
_atom_site_label
_atom_site_fract_x
_atom_site_fract_y
_atom_site_fract_z
Si Si1 0.195985 0.677574 0.640200
Si Si2 0.801058 0.318582 0.883458
Si Si3 0.308291 0.821900 0.003669
Si Si4 0.000000 0.184383 0.087071
Si Si5 0.500000 0.683198 0.721516
Si Si6 0.693976 0.179936 0.759492
Si Si7 0.500000 0.314278 0.566712
Si Si8 0.000000 0.815727 0.438322
O O1 0.196896 0.500000 0.662364
O O2 0.245397 0.682816 0.569107
O O3 0.091474 0.728038 0.627192
O O4 0.252045 0.775098 0.692624
O O5 0.802026 0.500000 0.873555
O O6 0.738318 0.274707 0.946321
O O7 0.755515 0.240535 0.820010
O O8 0.905985 0.268933 0.900812
O O9 0.314581 0.000000 0.982568
O O10 0.408620 0.767576 0.027489
O O11 0.000000 0.000000 0.080615
O O12 0.000000 0.251687 0.013101
O O13 0.500000 0.500000 0.722125
O O14 0.406817 0.742912 0.755471
O O15 0.500000 0.733993 0.643767
O O16 0.682116 0.000000 0.764667
O O17 0.500000 0.500000 0.568678
O O18 0.000000 0.000000 0.442433
#
# Coordination Sequence:
#
# PCOD9357447 Si02
#       8
#     8   8   8   4   4   8   4   4
#     4  10  20  37  62  91 123 162 205 252 309 370
#     4  11  24  42  62  88 124 166 208 258 316 372
#     4  10  19  36  62  91 121 156 203 253 304 367
#     4  10  20  35  62  95 125 161 207 257 312 373
#     4  11  21  42  69  92 121 163 205 248 314 377
#     4  12  26  42  62  92 127 165 208 257 307 366
#     4   9  18  34  61  92 121 157 197 242 296 359
#     4  10  22  39  62  89 119 159 209 263 316 369
#
# _framework density 18.720299000000001
#
# number of rings (size 3 to 8) (size 9 to 14) (size 15 to 20)
#    0.000    1.500    3.333    2.250    0.000    3.333 
#    0.000    6.250    0.000    0.000    0.000    0.000 
#    0.000    0.000    0.000    0.000    0.000    0.000 
#
# Total GULP energy -134088.002958 kJ/mol
# GULP energy per Si atom -5587.000123 kJ/mol
# Density = 1.867769 g / cm^3
# Si number density = 18.720299 Si / 1000 Ang^3
#
#
#
# Elastic Constant Matrix: (Units=GPa)
#
#
# Indices 1 2 3 4 5 6 
#
# 1 122.7883 29.8541 10.9188 0.0000 0.0000 0.0000
# 2 29.8541 64.1922 27.5491 0.0000 0.0000 0.0000
# 3 10.9188 27.5491 58.2733 0.0000 0.0000 0.0000
# 4 0.0000 0.0000 0.0000 33.3865 0.0000 0.0000
# 5 0.0000 0.0000 0.0000 0.0000 25.4416 0.0000
# 6 0.0000 0.0000 0.0000 0.0000 0.0000 23.6120
#
#
#
# Elastic Compliance Matrix: (Units=1/GPa)
#
#
# Indices 1 2 3 4 5 6 
#
# 1 0.009189 -0.004434 0.000375 0.000000 0.000000 0.000000
# 2 -0.004434 0.021683 -0.009420 0.000000 0.000000 0.000000
# 3 0.000375 -0.009420 0.021544 0.000000 0.000000 0.000000
# 4 0.000000 0.000000 0.000000 0.029952 0.000000 0.000000
# 5 0.000000 0.000000 0.000000 0.000000 0.039306 0.000000
# 6 0.000000 0.000000 0.000000 0.000000 0.000000 0.042351
#
#
# Mechanical properties :
#
#
# Convention : Reuss Voigt Hill
#
# Bulk Modulus (GPa) = 39.28282 42.43307 40.85795
# Shear Modulus (GPa) = 25.06641 28.28347 26.67494
#
# Velocity S-wave (km/s) = 3.66320 3.89118 3.77891
# Velocity P-wave (km/s) = 6.23872 6.55015 6.39633
#
# Compressibility (1/GPa) = 0.02545642
#
# Stress axis : x y z
#
# Youngs Moduli (GPa) = 108.82671 46.11854 46.41730
#
# Poissons Ratio (x) = 0.20450 -0.01739
# Poissons Ratio (y) = 0.48257 0.43725
# Poissons Ratio (z) = -0.04077 0.43444
#
# Static dielectric constant tensor:
#      x y z
#    x 1.666860 0.000000 0.000000 
#    y 0.000000 1.639950 0.000000 
#    z 0.000000 0.000000 1.610800 
# 
# From -- ./inp_files/18278.got.cif
#   From: 2010.05.17/outbox.cif.g08.bks.cpg/sg38_10_cif.got.tgz:18278.got - 2010.06.03 18:07:57.
