data_PCOD9357940
_publ_section_title
;
Structure prediction by ZEFSAII (Michael W. Deem and Ramdas Pophale) SiO2 
 PCOD9357940
Probable space group: A M M 2
;
_chemical_formula_sum "Si O2"
_cell_formula_units_Z 64
_cell_length_a 15.094489
_cell_length_b 9.657514
_cell_length_c 20.760574
_cell_angle_alpha 90.000000
_cell_angle_beta 90.000000
_cell_angle_gamma 90.000000
_cell_volume 3026.377633
_symmetry_space_group_name_H-M "A M M 2"
_symmetry_group_IT_number 38
_symmetry_cell_setting 'orthorhombic'
loop_
_space_group_symop_operation_xyz
x,y,z
-x,-y,z
-x,y,z
x,-y,z
x,1/2+y,1/2+z
-x,1/2-y,1/2+z
-x,1/2+y,1/2+z
x,1/2-y,1/2+z
loop_
_atom_site_type_symbol
_atom_site_label
_atom_site_fract_x
_atom_site_fract_y
_atom_site_fract_z
Si Si1 0.108380 0.342179 0.487660
Si Si2 0.608769 0.158727 0.566669
Si Si3 0.892615 0.839771 0.134443
Si Si4 0.353308 0.155757 0.799150
Si Si5 0.396701 0.154318 0.183729
Si Si6 0.103980 0.654281 0.872810
Si Si7 0.607289 0.658634 0.445830
Si Si8 0.848853 0.843238 0.754607
O O1 0.135314 0.500000 0.472516
O O2 0.134496 0.308702 0.560857
O O3 0.142536 0.238471 0.433311
O O4 0.000000 0.341689 0.486832
O O5 0.500000 0.156118 0.567551
O O6 0.640922 0.246358 0.628247
O O7 0.635922 0.237316 0.501633
O O8 0.638511 0.000000 0.569552
O O9 0.856909 0.733231 0.186591
O O10 0.000000 0.833175 0.137038
O O11 0.868409 0.000000 0.148784
O O12 0.393852 0.269002 0.751976
O O13 0.360573 0.192733 0.874092
O O14 0.252386 0.148305 0.776781
O O15 0.392112 0.000000 0.791409
O O16 0.500000 0.139389 0.166819
O O17 0.357134 0.000000 0.185440
O O18 0.142004 0.500000 0.864117
O O19 0.108721 0.745744 0.808764
O O20 0.000000 0.639159 0.887178
O O21 0.500000 0.661483 0.443889
O O22 0.633656 0.500000 0.461136
O O23 0.885105 0.000000 0.752979
#
# Coordination Sequence:
#
# PCOD9357940 Si02
#       8
#     8   8   8   8   8   8   8   8
#     4   8  15  30  53  79 104 129 162 208 258 307
#     4   9  17  30  51  79 108 134 163 206 257 305
#     4   9  18  34  56  80 105 135 172 213 259 311
#     4  10  22  38  53  73 104 141 178 214 256 306
#     4  10  20  34  55  82 107 133 170 213 255 304
#     4  10  20  34  54  79 105 134 170 212 258 309
#     4   9  17  32  55  78 100 130 169 212 256 303
#     4  11  23  36  51  74 105 140 178 217 255 302
#
# _framework density 21.147394999999999
#
# number of rings (size 3 to 8) (size 9 to 14) (size 15 to 20)
#    0.000    2.500    0.000    3.000    0.000    7.250 
#    0.000    3.750    0.000    1.500    0.000    0.000 
#    0.000    0.000    0.000    0.000    0.000    0.000 
#
# Total GULP energy -178685.616130 kJ/mol
# GULP energy per Si atom -5583.925504 kJ/mol
# Density = 2.109926 g / cm^3
# Si number density = 21.147395 Si / 1000 Ang^3
#
#
#
# Elastic Constant Matrix: (Units=GPa)
#
#
# Indices 1 2 3 4 5 6 
#
# 1 28.2927 5.0773 -0.5628 0.0000 0.0000 0.0000
# 2 5.0773 194.3401 126.9763 0.0000 0.0000 0.0000
# 3 -0.5628 126.9763 130.2890 0.0000 0.0000 0.0000
# 4 0.0000 0.0000 0.0000 79.0774 0.0000 0.0000
# 5 0.0000 0.0000 0.0000 0.0000 7.2275 0.0000
# 6 0.0000 0.0000 0.0000 0.0000 0.0000 1.9276
#
#
#
# Elastic Compliance Matrix: (Units=1/GPa)
#
#
# Indices 1 2 3 4 5 6 
#
# 1 0.035917 -0.002862 0.002945 0.000000 0.000000 0.000000
# 2 -0.002862 0.014394 -0.014040 0.000000 0.000000 0.000000
# 3 0.002945 -0.014040 0.021371 0.000000 0.000000 0.000000
# 4 0.000000 0.000000 0.000000 0.012646 0.000000 0.000000
# 5 0.000000 0.000000 0.000000 0.000000 0.138360 0.000000
# 6 0.000000 0.000000 0.000000 0.000000 0.000000 0.518781
#
#
# Mechanical properties :
#
#
# Convention : Reuss Voigt Hill
#
# Bulk Modulus (GPa) = 22.84860 68.43372 45.64116
# Shear Modulus (GPa) = 6.37776 32.40857 19.39316
#
# Velocity S-wave (km/s) = 1.73851 3.91897 3.03156
# Velocity P-wave (km/s) = 3.85458 7.27382 5.82092
#
# Compressibility (1/GPa) = 0.04376637
#
# Stress axis : x y z
#
# Youngs Moduli (GPa) = 27.84194 69.47347 46.79159
#
# Poissons Ratio (x) = 0.19886 -0.13779
# Poissons Ratio (y) = 0.07969 0.65697
# Poissons Ratio (z) = -0.08199 0.97543
#
# Static dielectric constant tensor:
#      x y z
#    x 1.742220 0.000000 0.000000 
#    y 0.000000 1.762430 0.000000 
#    z 0.000000 0.000000 1.720980 
# 
# From -- ./inp_files/21395.got.cif
#   From: 2010.05.17/outbox.cif.g08.bks.cpg/sg38_11_cif.got.tgz:21395.got - 2010.06.03 18:07:57.
