data_PCOD9357018
_publ_section_title
;
Structure prediction by ZEFSAII (Michael W. Deem and Ramdas Pophale) SiO2 
 PCOD9357018
Probable space group: A M M 2
;
_chemical_formula_sum "Si O2"
_cell_formula_units_Z 52
_cell_length_a 7.920559
_cell_length_b 21.260897
_cell_length_c 15.491122
_cell_angle_alpha 90.000000
_cell_angle_beta 90.000000
_cell_angle_gamma 90.000000
_cell_volume 2608.676892
_symmetry_space_group_name_H-M "A M M 2"
_symmetry_group_IT_number 38
_symmetry_cell_setting 'orthorhombic'
loop_
_space_group_symop_operation_xyz
x,y,z
-x,-y,z
-x,y,z
x,-y,z
x,1/2+y,1/2+z
-x,1/2-y,1/2+z
-x,1/2+y,1/2+z
x,1/2-y,1/2+z
loop_
_atom_site_type_symbol
_atom_site_label
_atom_site_fract_x
_atom_site_fract_y
_atom_site_fract_z
Si Si1 0.500000 0.071933 0.131081
Si Si2 0.203716 0.928004 0.827192
Si Si3 0.695448 0.805203 0.914524
Si Si4 0.500000 0.386789 0.823778
Si Si5 0.810611 0.797086 0.286484
Si Si6 0.809409 0.576594 0.128585
Si Si7 0.500000 0.925994 0.517940
Si Si8 0.806934 0.165962 0.096241
O O1 0.500000 0.073072 0.235945
O O2 0.665539 0.111341 0.102416
O O3 0.500000 0.000000 0.100726
O O4 0.285804 0.878390 0.890671
O O5 0.241297 0.910502 0.727610
O O6 0.000000 0.925314 0.836261
O O7 0.256587 0.000000 0.841743
O O8 0.500000 0.786974 0.916029
O O9 0.787249 0.766642 0.839429
O O10 0.774181 0.796149 0.008685
O O11 0.666849 0.344041 0.818633
O O12 0.500000 0.419906 0.915637
O O13 0.787835 0.792630 0.183077
O O14 0.000000 0.821556 0.301160
O O15 0.818053 0.500000 0.122992
O O16 0.668997 0.600482 0.062412
O O17 0.000000 0.600043 0.112981
O O18 0.500000 0.000000 0.539406
O O19 0.000000 0.141595 0.095070
#
# Coordination Sequence:
#
# PCOD9357018 Si02
#       8
#     4   8   8   4   8   8   4   8
#     4  10  21  39  63  91 124 159 201 253 306 367
#     4   9  19  36  56  81 118 158 195 241 296 356
#     4  12  23  38  63  91 121 157 198 248 302 359
#     4  10  21  39  58  87 118 154 201 255 300 353
#     4  10  22  43  65  84 116 159 199 249 302 348
#     4   8  16  32  51  75 113 155 190 231 283 341
#     4  10  19  32  55  84 115 155 196 242 298 350
#     4  10  22  42  65  88 123 164 202 251 305 358
#
# _framework density 19.933475000000001
#
# number of rings (size 3 to 8) (size 9 to 14) (size 15 to 20)
#    0.000    2.154    1.538    2.538    1.077    1.846 
#    2.769    0.000    0.000    2.769    0.000    0.000 
#    0.000    0.000    0.000    0.000    0.000    0.000 
#
# Total GULP energy -145106.080378 kJ/mol
# GULP energy per Si atom -5581.003091 kJ/mol
# Density = 1.988811 g / cm^3
# Si number density = 19.933475 Si / 1000 Ang^3
#
#
#
# Elastic Constant Matrix: (Units=GPa)
#
#
# Indices 1 2 3 4 5 6 
#
# 1 121.3584 23.0791 56.2261 0.0000 0.0000 0.0000
# 2 23.0791 44.9451 28.9046 0.0000 0.0000 0.0000
# 3 56.2261 28.9046 102.5079 0.0000 0.0000 0.0000
# 4 0.0000 0.0000 0.0000 19.3007 0.0000 0.0000
# 5 0.0000 0.0000 0.0000 0.0000 47.6739 0.0000
# 6 0.0000 0.0000 0.0000 0.0000 0.0000 5.3145
#
#
#
# Elastic Compliance Matrix: (Units=1/GPa)
#
#
# Indices 1 2 3 4 5 6 
#
# 1 0.011223 -0.002204 -0.005535 0.000000 0.000000 0.000000
# 2 -0.002204 0.027610 -0.006577 0.000000 0.000000 0.000000
# 3 -0.005535 -0.006577 0.014646 0.000000 0.000000 0.000000
# 4 0.000000 0.000000 0.000000 0.051812 0.000000 0.000000
# 5 0.000000 0.000000 0.000000 0.000000 0.020976 0.000000
# 6 0.000000 0.000000 0.000000 0.000000 0.000000 0.188164
#
#
# Mechanical properties :
#
#
# Convention : Reuss Voigt Hill
#
# Bulk Modulus (GPa) = 40.24265 53.91456 47.07860
# Shear Modulus (GPa) = 14.23104 25.16459 19.69782
#
# Velocity S-wave (km/s) = 2.67484 3.55692 3.14694
# Velocity P-wave (km/s) = 5.45637 6.63136 6.07235
#
# Compressibility (1/GPa) = 0.02484926
#
# Stress axis : x y z
#
# Youngs Moduli (GPa) = 89.09945 36.21812 68.27994
#
# Poissons Ratio (x) = 0.07982 0.37791
# Poissons Ratio (y) = 0.19636 0.44905
# Poissons Ratio (z) = 0.49314 0.23819
#
# Static dielectric constant tensor:
#      x y z
#    x 1.713820 0.000000 0.000000 
#    y 0.000000 1.696580 0.000000 
#    z 0.000000 0.000000 1.700600 
# 
# From -- ./inp_files/12330.got.cif
#   From: 2010.05.17/outbox.cif.g08.bks.cpg/sg38_7_cif.got.tgz:12330.got - 2010.06.03 18:07:57.
