data_PCOD9357261
_publ_section_title
;
Structure prediction by ZEFSAII (Michael W. Deem and Ramdas Pophale) SiO2 
 PCOD9357261
Probable space group: A M M 2
;
_chemical_formula_sum "Si O2"
_cell_formula_units_Z 48
_cell_length_a 7.717169
_cell_length_b 21.071617
_cell_length_c 14.903581
_cell_angle_alpha 90.000000
_cell_angle_beta 90.000000
_cell_angle_gamma 90.000000
_cell_volume 2423.519437
_symmetry_space_group_name_H-M "A M M 2"
_symmetry_group_IT_number 38
_symmetry_cell_setting 'orthorhombic'
loop_
_space_group_symop_operation_xyz
x,y,z
-x,-y,z
-x,y,z
x,-y,z
x,1/2+y,1/2+z
-x,1/2-y,1/2+z
-x,1/2+y,1/2+z
x,1/2-y,1/2+z
loop_
_atom_site_type_symbol
_atom_site_label
_atom_site_fract_x
_atom_site_fract_y
_atom_site_fract_z
Si Si1 0.211642 0.619113 0.775920
Si Si2 0.212292 0.429020 0.969691
Si Si3 0.790448 0.070480 0.082411
Si Si4 0.790580 0.234301 0.781109
Si Si5 0.700325 0.302046 0.480904
Si Si6 0.200764 0.316965 0.095630
O O1 0.267213 0.585946 0.867812
O O2 0.267896 0.586139 0.683972
O O3 0.267675 0.692469 0.777439
O O4 0.000000 0.618303 0.775461
O O5 0.263560 0.500000 0.995970
O O6 0.000000 0.426763 0.968786
O O7 0.275712 0.373902 0.036129
O O8 0.000000 0.070123 0.083283
O O9 0.731391 0.000000 0.055782
O O10 0.736702 0.128219 0.019002
O O11 0.743965 0.204412 0.876297
O O12 0.723100 0.197686 0.693434
O O13 0.000000 0.236102 0.775589
O O14 0.500000 0.287335 0.493722
O O15 0.796740 0.247916 0.538090
O O16 0.000000 0.334194 0.110755
#
# Coordination Sequence:
#
# PCOD9357261 Si02
#       6
#     8   8   8   8   8   8
#     4   9  15  27  53  85 113 136 168 224 280 331
#     4   9  16  27  49  83 113 134 165 217 279 331
#     4  10  20  36  59  86 114 146 188 234 283 337
#     4  10  19  34  57  81 108 142 187 234 275 325
#     4  12  24  36  54  80 115 151 187 229 278 343
#     4  10  19  35  58  81 107 143 186 233 278 327
#
# _framework density 19.805906
#
# number of rings (size 3 to 8) (size 9 to 14) (size 15 to 20)
#    0.000    2.000    3.333    2.000    0.000    3.000 
#    0.000    0.833    0.000    3.500    0.000    0.000 
#    0.000    0.000    0.000    0.000    0.000    0.000 
#
# Total GULP energy -134011.991617 kJ/mol
# GULP energy per Si atom -5583.832984 kJ/mol
# Density = 1.976083 g / cm^3
# Si number density = 19.805906 Si / 1000 Ang^3
#
#
#
# Elastic Constant Matrix: (Units=GPa)
#
#
# Indices 1 2 3 4 5 6 
#
# 1 32.5259 -8.2903 -8.4120 0.0000 0.0000 0.0000
# 2 -8.2903 141.3717 59.9241 0.0000 0.0000 0.0000
# 3 -8.4120 59.9241 126.5695 0.0000 0.0000 0.0000
# 4 0.0000 0.0000 0.0000 24.1907 0.0000 0.0000
# 5 0.0000 0.0000 0.0000 0.0000 29.6423 0.0000
# 6 0.0000 0.0000 0.0000 0.0000 0.0000 -23.2729
#
#
#
# Elastic Compliance Matrix: (Units=1/GPa)
#
#
# Indices 1 2 3 4 5 6 
#
# 1 0.031444 0.001199 0.001522 0.000000 0.000000 0.000000
# 2 0.001199 0.008895 -0.004132 0.000000 0.000000 0.000000
# 3 0.001522 -0.004132 0.009958 0.000000 0.000000 0.000000
# 4 0.000000 0.000000 0.000000 0.041338 0.000000 0.000000
# 5 0.000000 0.000000 0.000000 0.000000 0.033736 0.000000
# 6 0.000000 0.000000 0.000000 0.000000 0.000000 -0.042968
#
#
# Mechanical properties :
#
#
# Convention : Reuss Voigt Hill
#
# Bulk Modulus (GPa) = 21.06341 42.99009 32.02675
# Shear Modulus (GPa) = 49.48070 23.26170 36.37120
#
# Velocity S-wave (km/s) = 5.00370 3.43079 4.28995
# Velocity P-wave (km/s) = 6.63632 6.11936 6.38308
#
# Compressibility (1/GPa) = 0.04747570
#
# Stress axis : x y z
#
# Youngs Moduli (GPa) = 31.80264 112.42036 100.42041
#
# Poissons Ratio (x) = -0.13475 -0.15287
# Poissons Ratio (y) = -0.03812 0.41491
# Poissons Ratio (z) = -0.04841 0.46449
#
# Static dielectric constant tensor:
#      x y z
#    x 1.730850 0.000000 0.000000 
#    y 0.000000 1.681400 0.000000 
#    z 0.000000 0.000000 1.680180 
# 
# From -- ./inp_files/12037.got.cif
#   From: 2010.05.17/outbox.cif.g08.bks.cpg/sg38_7_cif.got.tgz:12037.got - 2010.06.03 18:07:57.
