data_PCOD9357833
_publ_section_title
;
Structure prediction by ZEFSAII (Michael W. Deem and Ramdas Pophale) SiO2 
 PCOD9357833
Probable space group: A M M 2
;
_chemical_formula_sum "Si O2"
_cell_formula_units_Z 56
_cell_length_a 7.387442
_cell_length_b 15.380890
_cell_length_c 21.157016
_cell_angle_alpha 90.000000
_cell_angle_beta 90.000000
_cell_angle_gamma 90.000000
_cell_volume 2403.975099
_symmetry_space_group_name_H-M "A M M 2"
_symmetry_group_IT_number 38
_symmetry_cell_setting 'orthorhombic'
loop_
_space_group_symop_operation_xyz
x,y,z
-x,-y,z
-x,y,z
x,-y,z
x,1/2+y,1/2+z
-x,1/2-y,1/2+z
-x,1/2+y,1/2+z
x,1/2-y,1/2+z
loop_
_atom_site_type_symbol
_atom_site_label
_atom_site_fract_x
_atom_site_fract_y
_atom_site_fract_z
Si Si1 0.218453 0.597188 0.693830
Si Si2 0.280891 0.596566 0.236590
Si Si3 0.782016 0.098186 0.963482
Si Si4 0.286298 0.719231 0.345133
Si Si5 0.778181 0.284738 0.580186
Si Si6 0.291757 0.094674 0.341555
Si Si7 0.209299 0.594794 0.088540
O O1 0.264492 0.500000 0.669110
O O2 0.279076 0.673148 0.646896
O O3 0.289130 0.602675 0.765076
O O4 0.000000 0.601126 0.697693
O O5 0.500000 0.599948 0.234541
O O6 0.231406 0.500000 0.261432
O O7 0.213819 0.673071 0.281894
O O8 0.214327 0.601834 0.164934
O O9 0.733609 0.151674 0.901448
O O10 0.000000 0.094769 0.966736
O O11 0.713983 0.000000 0.961441
O O12 0.721376 0.150528 0.025013
O O13 0.500000 0.732980 0.333910
O O14 0.209403 0.813782 0.362911
O O15 0.712845 0.186916 0.567055
O O16 0.000000 0.281854 0.581630
O O17 0.500000 0.091338 0.363339
O O18 0.210143 0.000000 0.357078
O O19 0.289349 0.500000 0.072039
O O20 0.000000 0.592570 0.068237
#
# Coordination Sequence:
#
# PCOD9357833 Si02
#       7
#     8   8   8   8   8   8   8
#     4   9  16  27  47  73  97 123 156 193 235 285
#     4   9  17  29  46  69  97 126 154 189 237 288
#     4  10  21  36  53  72  94 123 161 202 241 285
#     4  10  20  34  51  70  96 131 165 198 240 286
#     4   9  17  31  49  68  94 126 156 191 238 285
#     4   9  18  32  49  71 100 130 159 195 240 287
#     4   9  17  29  47  71  96 122 154 191 231 280
#
# _framework density 23.294751000000002
#
# number of rings (size 3 to 8) (size 9 to 14) (size 15 to 20)
#    0.000    2.714    0.000    1.714    0.000    3.714 
#    0.000    3.571    0.000    2.571    0.000    0.000 
#    0.000    0.000    0.000    0.000    0.000    0.000 
#
# Total GULP energy -156348.605326 kJ/mol
# GULP energy per Si atom -5583.878762 kJ/mol
# Density = 2.324173 g / cm^3
# Si number density = 23.294751 Si / 1000 Ang^3
#
#
#
# Elastic Constant Matrix: (Units=GPa)
#
#
# Indices 1 2 3 4 5 6 
#
# 1 84.5191 9.2973 -13.2114 0.0000 0.0000 0.0000
# 2 9.2973 234.3168 27.6495 0.0000 0.0000 0.0000
# 3 -13.2114 27.6495 15.9600 0.0000 0.0000 0.0000
# 4 0.0000 0.0000 0.0000 34.1120 0.0000 0.0000
# 5 0.0000 0.0000 0.0000 0.0000 16.8124 0.0000
# 6 0.0000 0.0000 0.0000 0.0000 0.0000 -6.8982
#
#
#
# Elastic Compliance Matrix: (Units=1/GPa)
#
#
# Indices 1 2 3 4 5 6 
#
# 1 0.014700 -0.002538 0.016565 0.000000 0.000000 0.000000
# 2 -0.002538 0.005803 -0.012153 0.000000 0.000000 0.000000
# 3 0.016565 -0.012153 0.097423 0.000000 0.000000 0.000000
# 4 0.000000 0.000000 0.000000 0.029315 0.000000 0.000000
# 5 0.000000 0.000000 0.000000 0.000000 0.059480 0.000000
# 6 0.000000 0.000000 0.000000 0.000000 0.000000 -0.144966
#
#
# Mechanical properties :
#
#
# Convention : Reuss Voigt Hill
#
# Bulk Modulus (GPa) = 8.21866 42.47409 25.34638
# Shear Modulus (GPa) = 50.72782 29.54262 40.13522
#
# Velocity S-wave (km/s) = 4.67159 3.56506 4.15532
# Velocity P-wave (km/s) = 5.71263 5.93457 5.82466
#
# Compressibility (1/GPa) = 0.12167433
#
# Stress axis : x y z
#
# Youngs Moduli (GPa) = 68.02631 172.33879 10.26447
#
# Poissons Ratio (x) = 0.43740 -0.17003
# Poissons Ratio (y) = 0.17265 0.12475
# Poissons Ratio (z) = -1.12688 2.09448
#
# Static dielectric constant tensor:
#      x y z
#    x 1.877720 0.000000 0.000000 
#    y 0.000000 1.934610 0.000000 
#    z 0.000000 0.000000 1.805540 
# 
# From -- ./inp_files/19745.got.cif
#   From: 2010.05.17/outbox.cif.g08.bks.cpg/sg38_10_cif.got.tgz:19745.got - 2010.06.03 18:07:57.
