data_PCOD9357893
_publ_section_title
;
Structure prediction by ZEFSAII (Michael W. Deem and Ramdas Pophale) SiO2 
 PCOD9357893
Probable space group: A M M 2
;
_chemical_formula_sum "Si O2"
_cell_formula_units_Z 48
_cell_length_a 7.769787
_cell_length_b 19.323434
_cell_length_c 15.865300
_cell_angle_alpha 90.000000
_cell_angle_beta 90.000000
_cell_angle_gamma 90.000000
_cell_volume 2381.999742
_symmetry_space_group_name_H-M "A M M 2"
_symmetry_group_IT_number 38
_symmetry_cell_setting 'orthorhombic'
loop_
_space_group_symop_operation_xyz
x,y,z
-x,-y,z
-x,y,z
x,-y,z
x,1/2+y,1/2+z
-x,1/2-y,1/2+z
-x,1/2+y,1/2+z
x,1/2-y,1/2+z
loop_
_atom_site_type_symbol
_atom_site_label
_atom_site_fract_x
_atom_site_fract_y
_atom_site_fract_z
Si Si1 0.290023 0.579672 0.091050
Si Si2 0.794168 0.078610 0.098864
Si Si3 0.291693 0.420662 0.899986
Si Si4 0.703337 0.164846 0.749912
Si Si5 0.797680 0.823292 0.246000
Si Si6 0.291995 0.579581 0.409203
O O1 0.500000 0.581805 0.089311
O O2 0.242666 0.500000 0.109840
O O3 0.226946 0.630475 0.164115
O O4 0.234634 0.596104 0.995520
O O5 0.724999 0.131299 0.168520
O O6 0.000000 0.074785 0.110664
O O7 0.725674 0.000000 0.108772
O O8 0.761195 0.101297 0.003061
O O9 0.500000 0.419447 0.898809
O O10 0.238257 0.500000 0.880926
O O11 0.228032 0.367413 0.830640
O O12 0.500000 0.149111 0.749454
O O13 0.722638 0.246864 0.751999
O O14 0.773114 0.128137 0.834125
O O15 0.000000 0.813911 0.231556
O O16 0.500000 0.579663 0.408207
O O17 0.234829 0.500000 0.396503
#
# Coordination Sequence:
#
# PCOD9357893 Si02
#       6
#     8   8   8   8   8   8
#     4   8  15  31  56  81 102 128 165 210 258 305
#     4   9  19  36  55  73  97 133 173 211 253 300
#     4   9  18  34  57  82 104 129 167 213 257 302
#     4  10  20  34  53  77 106 137 168 205 252 306
#     4  11  23  36  50  72 106 143 175 208 250 301
#     4   9  18  33  55  81 103 127 166 214 258 301
#
# _framework density 20.151136000000001
#
# number of rings (size 3 to 8) (size 9 to 14) (size 15 to 20)
#    0.000    2.667    0.000    2.500    0.000    6.333 
#    0.000    7.500    0.000    2.500    0.000    0.000 
#    0.000    0.000    0.000    0.000    0.000    0.000 
#
# Total GULP energy -133936.859436 kJ/mol
# GULP energy per Si atom -5580.702477 kJ/mol
# Density = 2.010527 g / cm^3
# Si number density = 20.151136 Si / 1000 Ang^3
#
#
#
# Elastic Constant Matrix: (Units=GPa)
#
#
# Indices 1 2 3 4 5 6 
#
# 1 20.7905 -11.9389 -10.0840 0.0000 0.0000 0.0000
# 2 -11.9389 110.6400 109.4682 0.0000 0.0000 0.0000
# 3 -10.0840 109.4682 163.8042 0.0000 0.0000 0.0000
# 4 0.0000 0.0000 0.0000 -124.1509 0.0000 0.0000
# 5 0.0000 0.0000 0.0000 0.0000 33.4979 0.0000
# 6 0.0000 0.0000 0.0000 0.0000 0.0000 -11.0423
#
#
#
# Elastic Compliance Matrix: (Units=1/GPa)
#
#
# Indices 1 2 3 4 5 6 
#
# 1 0.051418 0.007133 -0.001601 0.000000 0.000000 0.000000
# 2 0.007133 0.027668 -0.018051 0.000000 0.000000 0.000000
# 3 -0.001601 -0.018051 0.018069 0.000000 0.000000 0.000000
# 4 0.000000 0.000000 0.000000 -0.008055 0.000000 0.000000
# 5 0.000000 0.000000 0.000000 0.000000 0.029853 0.000000
# 6 0.000000 0.000000 0.000000 0.000000 0.000000 -0.090561
#
#
# Mechanical properties :
#
#
# Convention : Reuss Voigt Hill
#
# Bulk Modulus (GPa) = 13.86643 52.23612 33.05127
# Shear Modulus (GPa) = 64.54131 -6.48644 29.02743
#
# Velocity S-wave (km/s) = 5.66552 -1.79608 3.79949
# Velocity P-wave (km/s) = 7.04937 4.65588 5.97373
#
# Compressibility (1/GPa) = 0.07211662
#
# Stress axis : x y z
#
# Youngs Moduli (GPa) = 19.44833 36.14328 55.34222
#
# Poissons Ratio (x) = -0.25781 0.08863
# Poissons Ratio (y) = -0.13872 0.99897
# Poissons Ratio (z) = 0.03115 0.65242
#
# Static dielectric constant tensor:
#      x y z
#    x 1.736560 0.000000 0.000000 
#    y 0.000000 1.692820 0.000000 
#    z 0.000000 0.000000 1.711330 
# 
# From -- ./inp_files/12009.got.cif
#   From: 2010.05.17/outbox.cif.g08.bks.cpg/sg38_7_cif.got.tgz:12009.got - 2010.06.03 18:07:57.
