data_PCOD9357524
_publ_section_title
;
Structure prediction by ZEFSAII (Michael W. Deem and Ramdas Pophale) SiO2 
 PCOD9357524
Probable space group: A M M 2
;
_chemical_formula_sum "Si O2"
_cell_formula_units_Z 58
_cell_length_a 7.558455
_cell_length_b 25.983939
_cell_length_c 12.783636
_cell_angle_alpha 90.000000
_cell_angle_beta 90.000000
_cell_angle_gamma 90.000000
_cell_volume 2510.686087
_symmetry_space_group_name_H-M "A M M 2"
_symmetry_group_IT_number 38
_symmetry_cell_setting 'orthorhombic'
loop_
_space_group_symop_operation_xyz
x,y,z
-x,-y,z
-x,y,z
x,-y,z
x,1/2+y,1/2+z
-x,1/2-y,1/2+z
-x,1/2+y,1/2+z
x,1/2-y,1/2+z
loop_
_atom_site_type_symbol
_atom_site_label
_atom_site_fract_x
_atom_site_fract_y
_atom_site_fract_z
Si Si1 0.287001 0.167400 0.039540
Si Si2 0.279229 0.903838 0.447217
Si Si3 0.286448 0.445143 0.484764
Si Si4 0.698084 0.832441 0.265462
Si Si5 0.000000 0.000000 0.471634
Si Si6 0.193647 0.230319 0.834155
Si Si7 0.794268 0.056055 0.741618
Si Si8 0.304323 0.159764 0.643788
O O1 0.500000 0.172407 0.029296
O O2 0.234090 0.107423 0.038033
O O3 0.224164 0.184940 0.153683
O O4 0.216996 0.195673 0.936846
O O5 0.500000 0.911294 0.452740
O O6 0.230421 0.878927 0.334958
O O7 0.234808 0.858387 0.531425
O O8 0.158804 0.953929 0.468945
O O9 0.500000 0.444865 0.478316
O O10 0.231964 0.500000 0.532409
O O11 0.216176 0.443479 0.366631
O O12 0.500000 0.850270 0.238309
O O13 0.686138 0.780279 0.331610
O O14 0.213210 0.195877 0.729505
O O15 0.000000 0.253315 0.836171
O O16 0.690093 0.104110 0.699787
O O17 0.000000 0.060490 0.709880
O O18 0.729742 0.000000 0.706108
O O19 0.500000 0.182011 0.628788
#
# Coordination Sequence:
#
# PCOD9357524 Si02
#       8
#     8   8   8   8   2   8   8   8
#     4  10  21  41  69  97 131 177 225 280 347 417
#     4  10  26  48  75 110 144 191 247 298 362 435
#     4   9  17  32  55  87 123 164 212 260 322 392
#     4  10  24  48  72  98 137 181 236 292 347 425
#     4  12  26  48  84 102 154 192 238 304 362 436
#     4  12  26  41  66 100 138 181 232 294 363 430
#     4  10  20  31  51  83 125 168 212 267 334 399
#     4  11  23  40  63  94 136 180 235 291 347 424
#
# _framework density 23.101254999999998
#
# number of rings (size 3 to 8) (size 9 to 14) (size 15 to 20)
#    0.000    1.655    1.379    2.276    5.793    1.379 
#    1.241    0.000    0.000    0.000    0.000    0.000 
#    0.000    0.000    0.000    0.000    0.000    0.000 
#
# Total GULP energy -161496.835256 kJ/mol
# GULP energy per Si atom -5568.856388 kJ/mol
# Density = 2.304868 g / cm^3
# Si number density = 23.101255 Si / 1000 Ang^3
#
#
#
# Elastic Constant Matrix: (Units=GPa)
#
#
# Indices 1 2 3 4 5 6 
#
# 1 85.6205 9.7974 18.1945 0.0000 0.0000 0.0000
# 2 9.7974 90.6153 41.8826 0.0000 0.0000 0.0000
# 3 18.1945 41.8826 99.1333 0.0000 0.0000 0.0000
# 4 0.0000 0.0000 0.0000 9.5330 0.0000 0.0000
# 5 0.0000 0.0000 0.0000 0.0000 46.4758 0.0000
# 6 0.0000 0.0000 0.0000 0.0000 0.0000 8.6442
#
#
#
# Elastic Compliance Matrix: (Units=1/GPa)
#
#
# Indices 1 2 3 4 5 6 
#
# 1 0.012162 -0.000352 -0.002084 0.000000 0.000000 0.000000
# 2 -0.000352 0.013724 -0.005734 0.000000 0.000000 0.000000
# 3 -0.002084 -0.005734 0.012892 0.000000 0.000000 0.000000
# 4 0.000000 0.000000 0.000000 0.104899 0.000000 0.000000
# 5 0.000000 0.000000 0.000000 0.000000 0.021517 0.000000
# 6 0.000000 0.000000 0.000000 0.000000 0.000000 0.115684
#
#
# Mechanical properties :
#
#
# Convention : Reuss Voigt Hill
#
# Bulk Modulus (GPa) = 44.56265 46.12422 45.34343
# Shear Modulus (GPa) = 16.40977 26.63024 21.52000
#
# Velocity S-wave (km/s) = 2.66811 3.39892 3.05544
# Velocity P-wave (km/s) = 5.36878 5.95088 5.66731
#
# Compressibility (1/GPa) = 0.02244032
#
# Stress axis : x y z
#
# Youngs Moduli (GPa) = 82.22006 72.86629 77.56644
#
# Poissons Ratio (x) = 0.02565 0.16161
# Poissons Ratio (y) = 0.02894 0.44473
# Poissons Ratio (z) = 0.17131 0.41778
#
# Static dielectric constant tensor:
#      x y z
#    x 1.824460 0.000000 0.000000 
#    y 0.000000 1.846270 0.000000 
#    z 0.000000 0.000000 1.903550 
# 
# From -- ./inp_files/8344.got.cif
#   From: 2010.05.17/outbox.cif.g08.bks.cpg/sg38_5_cif.got.tgz:8344.got - 2010.06.03 18:07:57.
