data_PCOD9357233
_publ_section_title
;
Structure prediction by ZEFSAII (Michael W. Deem and Ramdas Pophale) SiO2 
 PCOD9357233
Probable space group: A M M 2
;
_chemical_formula_sum "Si O2"
_cell_formula_units_Z 40
_cell_length_a 11.687903
_cell_length_b 20.170212
_cell_length_c 9.374182
_cell_angle_alpha 90.000000
_cell_angle_beta 90.000000
_cell_angle_gamma 90.000000
_cell_volume 2209.939796
_symmetry_space_group_name_H-M "A M M 2"
_symmetry_group_IT_number 38
_symmetry_cell_setting 'orthorhombic'
loop_
_space_group_symop_operation_xyz
x,y,z
-x,-y,z
-x,y,z
x,-y,z
x,1/2+y,1/2+z
-x,1/2-y,1/2+z
-x,1/2+y,1/2+z
x,1/2-y,1/2+z
loop_
_atom_site_type_symbol
_atom_site_label
_atom_site_fract_x
_atom_site_fract_y
_atom_site_fract_z
Si Si1 0.500000 0.264298 0.860281
Si Si2 0.277425 0.577800 0.047769
Si Si3 0.862259 0.199623 0.021461
Si Si4 0.500000 0.840634 0.641365
Si Si5 0.248353 0.313579 0.829307
Si Si6 0.137036 0.574038 0.331261
O O1 0.500000 0.189942 0.799133
O O2 0.382316 0.297286 0.806555
O O3 0.500000 0.278761 0.029848
O O4 0.298778 0.500000 0.025774
O O5 0.389655 0.615614 0.105380
O O6 0.184682 0.585586 0.173033
O O7 0.239778 0.615017 0.904271
O O8 0.819514 0.194056 0.182938
O O9 0.000000 0.207125 0.016681
O O10 0.802034 0.260738 0.942082
O O11 0.828390 0.132912 0.936296
O O12 0.175229 0.500000 0.376393
O O13 0.000000 0.574261 0.326826
#
# Coordination Sequence:
#
# PCOD9357233 Si02
#       6
#     4   8   8   4   8   8
#     4  10  20  34  54  80 106 138 178 220 268 322
#     4  10  21  36  55  79 108 144 184 225 271 324
#     4  11  22  36  56  82 111 142 181 228 279 331
#     4  10  19  34  56  80 109 140 178 224 273 324
#     4  11  22  36  56  81 110 144 182 229 275 325
#     4   9  19  36  56  78 107 143 182 226 275 328
#
# _framework density 18.100041000000001
#
# number of rings (size 3 to 8) (size 9 to 14) (size 15 to 20)
#    0.000    1.800    0.000    5.700    0.000    4.000 
#    0.000    0.000    0.000    0.000    0.000    1.400 
#    0.000    0.000    0.000    0.000    0.000    0.000 
#
# Total GULP energy -111639.774055 kJ/mol
# GULP energy per Si atom -5581.988703 kJ/mol
# Density = 1.805884 g / cm^3
# Si number density = 18.100041 Si / 1000 Ang^3
#
#
#
# Elastic Constant Matrix: (Units=GPa)
#
#
# Indices 1 2 3 4 5 6 
#
# 1 47.3686 30.4943 23.6799 0.0000 0.0000 0.0000
# 2 30.4943 126.9209 74.6267 0.0000 0.0000 0.0000
# 3 23.6799 74.6267 97.3173 0.0000 0.0000 0.0000
# 4 0.0000 0.0000 0.0000 39.3973 0.0000 0.0000
# 5 0.0000 0.0000 0.0000 0.0000 -46.6652 0.0000
# 6 0.0000 0.0000 0.0000 0.0000 0.0000 21.4540
#
#
#
# Elastic Compliance Matrix: (Units=1/GPa)
#
#
# Indices 1 2 3 4 5 6 
#
# 1 0.025366 -0.004490 -0.002729 0.000000 0.000000 0.000000
# 2 -0.004490 0.015143 -0.010520 0.000000 0.000000 0.000000
# 3 -0.002729 -0.010520 0.019007 0.000000 0.000000 0.000000
# 4 0.000000 0.000000 0.000000 0.025382 0.000000 0.000000
# 5 0.000000 0.000000 0.000000 0.000000 -0.021429 0.000000
# 6 0.000000 0.000000 0.000000 0.000000 0.000000 0.046611
#
#
# Mechanical properties :
#
#
# Convention : Reuss Voigt Hill
#
# Bulk Modulus (GPa) = 41.60082 58.80095 50.20088
# Shear Modulus (GPa) = 32.55835 12.35761 22.45798
#
# Velocity S-wave (km/s) = 4.24583 2.61576 3.52628
# Velocity P-wave (km/s) = 6.86074 6.45601 6.66145
#
# Compressibility (1/GPa) = 0.02403799
#
# Stress axis : x y z
#
# Youngs Moduli (GPa) = 39.42326 66.03701 52.61281
#
# Poissons Ratio (x) = 0.29648 0.14360
# Poissons Ratio (y) = 0.17700 0.55348
# Poissons Ratio (z) = 0.10760 0.69470
#
# Static dielectric constant tensor:
#      x y z
#    x 1.710850 0.000000 0.000000 
#    y 0.000000 1.630990 0.000000 
#    z 0.000000 0.000000 1.597710 
# 
# From -- ./inp_files/4469.got.cif
#   From: 2010.05.17/outbox.cif.g08.bks.cpg/sg38_3_cif.got.tgz:4469.got - 2010.06.03 18:07:57.
