data_PCOD9357909
_publ_section_title
;
Structure prediction by ZEFSAII (Michael W. Deem and Ramdas Pophale) SiO2 
 PCOD9357909
Probable space group: A M M 2
;
_chemical_formula_sum "Si O2"
_cell_formula_units_Z 56
_cell_length_a 20.903664
_cell_length_b 8.692480
_cell_length_c 15.290521
_cell_angle_alpha 90.000000
_cell_angle_beta 90.000000
_cell_angle_gamma 90.000000
_cell_volume 2778.359244
_symmetry_space_group_name_H-M "A M M 2"
_symmetry_group_IT_number 38
_symmetry_cell_setting 'orthorhombic'
loop_
_space_group_symop_operation_xyz
x,y,z
-x,-y,z
-x,y,z
x,-y,z
x,1/2+y,1/2+z
-x,1/2-y,1/2+z
-x,1/2+y,1/2+z
x,1/2-y,1/2+z
loop_
_atom_site_type_symbol
_atom_site_label
_atom_site_fract_x
_atom_site_fract_y
_atom_site_fract_z
Si Si1 0.425446 0.684161 0.761550
Si Si2 0.931299 0.821030 0.665853
Si Si3 0.796276 0.328756 0.916475
Si Si4 0.336003 0.317686 0.412753
Si Si5 0.930492 0.322885 0.376026
Si Si6 0.656960 0.813890 0.608400
Si Si7 0.794599 0.674105 0.125484
O O1 0.500000 0.723222 0.772994
O O2 0.419414 0.500000 0.756993
O O3 0.383820 0.746207 0.842264
O O4 0.398020 0.756867 0.672490
O O5 0.932828 0.825302 0.770731
O O6 0.862883 0.747743 0.643276
O O7 0.000000 0.754152 0.636203
O O8 0.929762 0.000000 0.634181
O O9 0.788637 0.500000 0.879491
O O10 0.737282 0.224065 0.886853
O O11 0.867174 0.267780 0.899941
O O12 0.790275 0.337856 0.021082
O O13 0.348641 0.249232 0.509763
O O14 0.343219 0.000000 0.915406
O O15 0.924809 0.500000 0.405843
O O16 0.000000 0.261652 0.406467
O O17 0.725545 0.758801 0.649187
O O18 0.659058 0.000000 0.605195
O O19 0.798110 0.500000 0.163826
#
# Coordination Sequence:
#
# PCOD9357909 Si02
#       7
#     8   8   8   8   8   8   8
#     4  11  25  44  66  95 128 161 201 249 304 368
#     4   8  14  26  45  70 101 138 184 234 280 333
#     4  10  20  34  53  80 112 146 189 246 304 359
#     4  11  23  41  65  91 124 166 208 255 309 366
#     4   9  18  31  48  73 106 145 191 242 295 354
#     4  10  21  39  63  93 128 163 204 254 301 362
#     4   8  16  30  49  76 107 140 185 235 285 339
#
# _framework density 20.155781999999999
#
# number of rings (size 3 to 8) (size 9 to 14) (size 15 to 20)
#    0.000    2.429    0.000    4.286    2.000    2.571 
#    0.000    1.429    0.000    0.857    0.000    0.000 
#    0.000    0.000    0.000    0.000    0.000    0.000 
#
# Total GULP energy -156099.025845 kJ/mol
# GULP energy per Si atom -5574.965209 kJ/mol
# Density = 2.010991 g / cm^3
# Si number density = 20.155782 Si / 1000 Ang^3
#
#
#
# Elastic Constant Matrix: (Units=GPa)
#
#
# Indices 1 2 3 4 5 6 
#
# 1 165.5732 52.9517 44.3206 0.0000 0.0000 0.0000
# 2 52.9517 65.3010 24.2423 0.0000 0.0000 0.0000
# 3 44.3206 24.2423 55.1939 0.0000 0.0000 0.0000
# 4 0.0000 0.0000 0.0000 20.4264 0.0000 0.0000
# 5 0.0000 0.0000 0.0000 0.0000 49.8456 0.0000
# 6 0.0000 0.0000 0.0000 0.0000 0.0000 25.6203
#
#
#
# Elastic Compliance Matrix: (Units=1/GPa)
#
#
# Indices 1 2 3 4 5 6 
#
# 1 0.009135 -0.005597 -0.004877 0.000000 0.000000 0.000000
# 2 -0.005597 0.021726 -0.005048 0.000000 0.000000 0.000000
# 3 -0.004877 -0.005048 0.024252 0.000000 0.000000 0.000000
# 4 0.000000 0.000000 0.000000 0.048956 0.000000 0.000000
# 5 0.000000 0.000000 0.000000 0.000000 0.020062 0.000000
# 6 0.000000 0.000000 0.000000 0.000000 0.000000 0.039032
#
#
# Mechanical properties :
#
#
# Convention : Reuss Voigt Hill
#
# Bulk Modulus (GPa) = 41.54859 58.78858 50.16858
# Shear Modulus (GPa) = 24.72429 30.14870 27.43650
#
# Velocity S-wave (km/s) = 3.50617 3.87173 3.69348
# Velocity P-wave (km/s) = 6.08683 7.01552 6.56761
#
# Compressibility (1/GPa) = 0.02406821
#
# Stress axis : x y z
#
# Youngs Moduli (GPa) = 109.46792 46.02719 41.23433
#
# Poissons Ratio (x) = 0.25761 0.20111
# Poissons Ratio (y) = 0.61268 0.20816
# Poissons Ratio (z) = 0.53390 0.23236
#
# Static dielectric constant tensor:
#      x y z
#    x 1.746300 0.000000 0.000000 
#    y 0.000000 1.697450 0.000000 
#    z 0.000000 0.000000 1.703410 
# 
# From -- ./inp_files/15488.got.cif
#   From: 2010.05.17/outbox.cif.g08.bks.cpg/sg38_8_cif.got.tgz:15488.got - 2010.06.03 18:07:57.
