data_PCOD9357959
_publ_section_title
;
Structure prediction by ZEFSAII (Michael W. Deem and Ramdas Pophale) SiO2 
 PCOD9357959
Probable space group: A M M 2
;
_chemical_formula_sum "Si O2"
_cell_formula_units_Z 64
_cell_length_a 25.523691
_cell_length_b 7.915655
_cell_length_c 14.581811
_cell_angle_alpha 90.000000
_cell_angle_beta 90.000000
_cell_angle_gamma 90.000000
_cell_volume 2946.061445
_symmetry_space_group_name_H-M "A M M 2"
_symmetry_group_IT_number 38
_symmetry_cell_setting 'orthorhombic'
loop_
_space_group_symop_operation_xyz
x,y,z
-x,-y,z
-x,y,z
x,-y,z
x,1/2+y,1/2+z
-x,1/2-y,1/2+z
-x,1/2+y,1/2+z
x,1/2-y,1/2+z
loop_
_atom_site_type_symbol
_atom_site_label
_atom_site_fract_x
_atom_site_fract_y
_atom_site_fract_z
Si Si1 0.941645 0.201855 0.636970
Si Si2 0.239863 0.196493 0.250472
Si Si3 0.261904 0.697782 0.970503
Si Si4 0.626293 0.303142 0.429996
Si Si5 0.646986 0.202275 0.724894
Si Si6 0.129217 0.795494 0.292569
Si Si7 0.558255 0.199444 0.589628
Si Si8 0.148923 0.293051 0.002301
O O1 0.921836 0.236828 0.739472
O O2 0.895694 0.268682 0.570962
O O3 0.000000 0.269004 0.620137
O O4 0.943377 0.000000 0.623099
O O5 0.249272 0.209665 0.361039
O O6 0.291843 0.267225 0.203686
O O7 0.181621 0.270809 0.240190
O O8 0.237975 0.000000 0.227105
O O9 0.268698 0.500000 0.992783
O O10 0.317897 0.783601 0.981483
O O11 0.209055 0.763794 0.018648
O O12 0.613893 0.500000 0.422895
O O13 0.634853 0.232932 0.327630
O O14 0.580669 0.218480 0.487609
O O15 0.603511 0.271444 0.655688
O O16 0.642070 0.000000 0.727260
O O17 0.132858 0.745057 0.398647
O O18 0.131250 0.000000 0.290802
O O19 0.500000 0.271935 0.600381
O O20 0.554818 0.000000 0.609411
O O21 0.150934 0.500000 0.004869
#
# Coordination Sequence:
#
# PCOD9357959 Si02
#       8
#     8   8   8   8   8   8   8   8
#     4  10  21  35  50  72 101 132 171 216 256 296
#     4   8  15  29  51  79 107 131 160 204 254 303
#     4   8  14  29  53  77 102 133 168 203 245 303
#     4  10  20  34  54  81 109 133 162 207 260 305
#     4   9  19  35  55  78 104 136 170 205 250 303
#     4   9  18  34  55  77 101 132 169 207 251 303
#     4  10  22  39  55  72  98 136 180 215 245 293
#     4   8  16  33  55  75  98 134 174 207 245 300
#
# _framework density 21.72392
#
# number of rings (size 3 to 8) (size 9 to 14) (size 15 to 20)
#    0.000    3.000    0.000    1.875    0.000    4.000 
#    0.000    9.375    0.000    0.000    0.000    0.000 
#    0.000    0.000    0.000    0.000    0.000    0.000 
#
# Total GULP energy -178521.737102 kJ/mol
# GULP energy per Si atom -5578.804284 kJ/mol
# Density = 2.167448 g / cm^3
# Si number density = 21.723920 Si / 1000 Ang^3
#
#
#
# Elastic Constant Matrix: (Units=GPa)
#
#
# Indices 1 2 3 4 5 6 
#
# 1 136.1550 8.0179 36.1482 0.0000 0.0000 0.0000
# 2 8.0179 16.2168 -6.1849 0.0000 0.0000 0.0000
# 3 36.1482 -6.1849 51.9815 0.0000 0.0000 0.0000
# 4 0.0000 0.0000 0.0000 12.0034 0.0000 0.0000
# 5 0.0000 0.0000 0.0000 0.0000 25.3185 0.0000
# 6 0.0000 0.0000 0.0000 0.0000 0.0000 21.4379
#
#
#
# Elastic Compliance Matrix: (Units=1/GPa)
#
#
# Indices 1 2 3 4 5 6 
#
# 1 0.009880 -0.007862 -0.007806 0.000000 0.000000 0.000000
# 2 -0.007862 0.070852 0.013897 0.000000 0.000000 0.000000
# 3 -0.007806 0.013897 0.026320 0.000000 0.000000 0.000000
# 4 0.000000 0.000000 0.000000 0.083310 0.000000 0.000000
# 5 0.000000 0.000000 0.000000 0.000000 0.039497 0.000000
# 6 0.000000 0.000000 0.000000 0.000000 0.000000 0.046646
#
#
# Mechanical properties :
#
#
# Convention : Reuss Voigt Hill
#
# Bulk Modulus (GPa) = 9.66091 31.14618 20.40354
# Shear Modulus (GPa) = 15.89580 22.84343 19.36961
#
# Velocity S-wave (km/s) = 2.70796 3.24625 2.98925
# Velocity P-wave (km/s) = 3.77283 5.33097 4.61809
#
# Compressibility (1/GPa) = 0.10350993
#
# Stress axis : x y z
#
# Youngs Moduli (GPa) = 101.21467 14.11400 37.99461
#
# Poissons Ratio (x) = 0.11096 0.29659
# Poissons Ratio (y) = 0.79574 -0.52803
# Poissons Ratio (z) = 0.79008 -0.19615
#
# Static dielectric constant tensor:
#      x y z
#    x 1.803320 0.000000 0.000000 
#    y 0.000000 1.785930 0.000000 
#    z 0.000000 0.000000 1.827740 
# 
# From -- ./inp_files/15821.got.cif
#   From: 2010.05.17/outbox.cif.g08.bks.cpg/sg38_8_cif.got.tgz:15821.got - 2010.06.03 18:07:57.
