data_PCOD9357668
_publ_section_title
;
Structure prediction by ZEFSAII (Michael W. Deem and Ramdas Pophale) SiO2 
 PCOD9357668
Probable space group: A M M 2
;
_chemical_formula_sum "Si O2"
_cell_formula_units_Z 64
_cell_length_a 8.506452
_cell_length_b 23.985051
_cell_length_c 19.783202
_cell_angle_alpha 90.000000
_cell_angle_beta 90.000000
_cell_angle_gamma 90.000000
_cell_volume 4036.320907
_symmetry_space_group_name_H-M "A M M 2"
_symmetry_group_IT_number 38
_symmetry_cell_setting 'orthorhombic'
loop_
_space_group_symop_operation_xyz
x,y,z
-x,-y,z
-x,y,z
x,-y,z
x,1/2+y,1/2+z
-x,1/2-y,1/2+z
-x,1/2+y,1/2+z
x,1/2-y,1/2+z
loop_
_atom_site_type_symbol
_atom_site_label
_atom_site_fract_x
_atom_site_fract_y
_atom_site_fract_z
Si Si1 0.313888 0.772460 0.670650
Si Si2 0.809385 0.063716 0.161136
Si Si3 0.188507 0.252146 0.527817
Si Si4 0.687198 0.878537 0.025806
Si Si5 0.190341 0.435607 0.389413
Si Si6 0.810594 0.838188 0.792599
Si Si7 0.189720 0.334711 0.750804
Si Si8 0.191022 0.770698 0.378916
O O1 0.500000 0.767151 0.672102
O O2 0.256158 0.777263 0.594041
O O3 0.260600 0.821756 0.720644
O O4 0.240935 0.715749 0.701952
O O5 0.757401 0.106979 0.219182
O O6 0.000000 0.065136 0.158182
O O7 0.760803 0.000000 0.172744
O O8 0.745435 0.086396 0.090160
O O9 0.238229 0.316999 0.528879
O O10 0.244714 0.227226 0.456098
O O11 0.000000 0.249509 0.530331
O O12 0.500000 0.873255 0.027715
O O13 0.740297 0.909234 0.957486
O O14 0.236551 0.500000 0.381925
O O15 0.236144 0.396377 0.326473
O O16 0.000000 0.433128 0.394795
O O17 0.765501 0.788506 0.844734
O O18 0.000000 0.836707 0.786492
O O19 0.244170 0.317947 0.826083
O O20 0.000000 0.334977 0.751807
O O21 0.000000 0.771889 0.380491
#
# Coordination Sequence:
#
# PCOD9357668 Si02
#       8
#     8   8   8   8   8   8   8   8
#     4  11  21  31  46  72  99 124 158 199 246 294
#     4  10  20  33  50  69  93 131 171 200 233 284
#     4  11  19  32  51  70  94 129 165 201 241 291
#     4  12  23  32  44  68 102 135 166 203 242 283
#     4  10  20  35  54  72  94 130 174 209 238 284
#     4   9  17  33  51  70  94 126 163 199 242 288
#     4   9  17  32  50  68  92 124 159 198 240 287
#     4   8  15  28  49  70  88 117 158 197 237 284
#
# _framework density 15.856024
#
# number of rings (size 3 to 8) (size 9 to 14) (size 15 to 20)
#    0.000    2.000    2.500    3.750    0.000    2.500 
#    0.000    0.625    0.000    0.000    0.000    0.875 
#    0.000    5.000    0.000    0.000    0.000    0.000 
#
# Total GULP energy -178519.120391 kJ/mol
# GULP energy per Si atom -5578.722512 kJ/mol
# Density = 1.581993 g / cm^3
# Si number density = 15.856024 Si / 1000 Ang^3
#
#
#
# Elastic Constant Matrix: (Units=GPa)
#
#
# Indices 1 2 3 4 5 6 
#
# 1 11.1174 15.2324 16.6057 0.0000 0.0000 0.0000
# 2 15.2324 82.9165 64.9840 0.0000 0.0000 0.0000
# 3 16.6057 64.9840 148.0656 0.0000 0.0000 0.0000
# 4 0.0000 0.0000 0.0000 17.9635 0.0000 0.0000
# 5 0.0000 0.0000 0.0000 0.0000 -9.2892 0.0000
# 6 0.0000 0.0000 0.0000 0.0000 0.0000 -1.4074
#
#
#
# Elastic Compliance Matrix: (Units=1/GPa)
#
#
# Indices 1 2 3 4 5 6 
#
# 1 0.123537 -0.018042 -0.005936 0.000000 0.000000 0.000000
# 2 -0.018042 0.021019 -0.007201 0.000000 0.000000 0.000000
# 3 -0.005936 -0.007201 0.010580 0.000000 0.000000 0.000000
# 4 0.000000 0.000000 0.000000 0.055668 0.000000 0.000000
# 5 0.000000 0.000000 0.000000 0.000000 -0.107652 0.000000
# 6 0.000000 0.000000 0.000000 0.000000 0.000000 -0.710529
#
#
# Mechanical properties :
#
#
# Convention : Reuss Voigt Hill
#
# Bulk Modulus (GPa) = 10.77867 48.41597 29.59732
# Shear Modulus (GPa) = -9.72589 11.13855 0.70633
#
# Velocity S-wave (km/s) = -2.47935 2.65331 0.66815
# Velocity P-wave (km/s) = 1.17629 6.32359 4.39341
#
# Compressibility (1/GPa) = 0.09277585
#
# Stress axis : x y z
#
# Youngs Moduli (GPa) = 8.09475 47.57661 94.51700
#
# Poissons Ratio (x) = 0.85839 0.56108
# Poissons Ratio (y) = 0.14605 0.68065
# Poissons Ratio (z) = 0.04805 0.34262
#
# Static dielectric constant tensor:
#      x y z
#    x 1.532000 0.000000 0.000000 
#    y 0.000000 1.517290 0.000000 
#    z 0.000000 0.000000 1.537450 
# 
# From -- ./inp_files/17275.got.cif
#   From: 2010.05.17/outbox.cif.g08.bks.cpg/sg38_9_cif.got.tgz:17275.got - 2010.06.03 18:07:57.
