data_PCOD9357253
_publ_section_title
;
Structure prediction by ZEFSAII (Michael W. Deem and Ramdas Pophale) SiO2 
 PCOD9357253
Probable space group: A M M 2
;
_chemical_formula_sum "Si O2"
_cell_formula_units_Z 48
_cell_length_a 7.724143
_cell_length_b 28.104068
_cell_length_c 10.050837
_cell_angle_alpha 90.000000
_cell_angle_beta 90.000000
_cell_angle_gamma 90.000000
_cell_volume 2181.834089
_symmetry_space_group_name_H-M "A M M 2"
_symmetry_group_IT_number 38
_symmetry_cell_setting 'orthorhombic'
loop_
_space_group_symop_operation_xyz
x,y,z
-x,-y,z
-x,y,z
x,-y,z
x,1/2+y,1/2+z
-x,1/2-y,1/2+z
-x,1/2+y,1/2+z
x,1/2-y,1/2+z
loop_
_atom_site_type_symbol
_atom_site_label
_atom_site_fract_x
_atom_site_fract_y
_atom_site_fract_z
Si Si1 0.209997 0.625738 0.530330
Si Si2 0.803387 0.303107 0.911826
Si Si3 0.211450 0.404883 0.012806
Si Si4 0.211846 0.445244 0.295478
Si Si5 0.789591 0.948976 0.243702
Si Si6 0.694697 0.771309 0.119147
O O1 0.263101 0.592890 0.406974
O O2 0.266974 0.595808 0.658777
O O3 0.281583 0.678401 0.544506
O O4 0.000000 0.629646 0.528668
O O5 0.726802 0.352825 0.965480
O O6 0.727743 0.280500 0.776199
O O7 0.000000 0.314442 0.871276
O O8 0.803313 0.266986 0.036054
O O9 0.256984 0.441228 0.896022
O O10 0.000000 0.402500 0.020578
O O11 0.270002 0.424525 0.153987
O O12 0.267602 0.500000 0.317040
O O13 0.000000 0.446415 0.297077
O O14 0.000000 0.949107 0.235340
O O15 0.729312 0.000000 0.192042
O O16 0.500000 0.754103 0.104421
#
# Coordination Sequence:
#
# PCOD9357253 Si02
#       6
#     8   8   8   8   8   8
#     4  10  19  34  56  85 119 157 200 245 295 360
#     4  11  23  42  66  92 120 159 207 256 304 371
#     4   9  17  30  51  84 119 149 188 242 300 352
#     4   9  17  29  50  86 125 155 192 248 306 354
#     4   9  15  26  49  81 115 149 190 246 302 348
#     4  12  26  43  62  90 124 161 201 255 317 373
#
# _framework density 21.999841
#
# number of rings (size 3 to 8) (size 9 to 14) (size 15 to 20)
#    0.000    2.000    1.667    3.000    2.333    4.000 
#    0.000    0.000    0.000    2.000    0.000    0.000 
#    0.000    0.000    0.000    0.000    0.000    0.000 
#
# Total GULP energy -133998.663804 kJ/mol
# GULP energy per Si atom -5583.277659 kJ/mol
# Density = 2.194977 g / cm^3
# Si number density = 21.999841 Si / 1000 Ang^3
#
#
#
# Elastic Constant Matrix: (Units=GPa)
#
#
# Indices 1 2 3 4 5 6 
#
# 1 40.0925 -8.6528 1.4654 0.0000 0.0000 0.0000
# 2 -8.6528 96.4505 -0.1176 0.0000 0.0000 0.0000
# 3 1.4654 -0.1176 82.1610 0.0000 0.0000 0.0000
# 4 0.0000 0.0000 0.0000 31.4402 0.0000 0.0000
# 5 0.0000 0.0000 0.0000 0.0000 -65.3060 0.0000
# 6 0.0000 0.0000 0.0000 0.0000 0.0000 -70.0804
#
#
#
# Elastic Compliance Matrix: (Units=1/GPa)
#
#
# Indices 1 2 3 4 5 6 
#
# 1 0.025451 0.002283 -0.000451 0.000000 0.000000 0.000000
# 2 0.002283 0.010573 -0.000026 0.000000 0.000000 0.000000
# 3 -0.000451 -0.000026 0.012179 0.000000 0.000000 0.000000
# 4 0.000000 0.000000 0.000000 0.031806 0.000000 0.000000
# 5 0.000000 0.000000 0.000000 0.000000 -0.015313 0.000000
# 6 0.000000 0.000000 0.000000 0.000000 0.000000 -0.014269
#
#
# Mechanical properties :
#
#
# Convention : Reuss Voigt Hill
#
# Bulk Modulus (GPa) = 19.29886 22.67709 20.98798
# Shear Modulus (GPa) = 78.01870 -5.72198 36.14836
#
# Velocity S-wave (km/s) = 5.96157 -1.61449 4.05794
# Velocity P-wave (km/s) = 7.49522 2.61817 5.61396
#
# Compressibility (1/GPa) = 0.05181653
#
# Stress axis : x y z
#
# Youngs Moduli (GPa) = 39.29046 94.58255 82.10698
#
# Poissons Ratio (x) = -0.21591 0.03700
# Poissons Ratio (y) = -0.08969 0.00210
# Poissons Ratio (z) = 0.01771 0.00242
#
# Static dielectric constant tensor:
#      x y z
#    x 2.229360 0.000000 0.000000 
#    y 0.000000 1.809310 0.000000 
#    z 0.000000 0.000000 1.784980 
# 
# From -- ./inp_files/3766.got.cif
#   From: 2010.05.17/outbox.cif.g08.bks.cpg/sg38_2_cif.got.tgz:3766.got - 2010.06.03 18:07:57.
