data_PCOD9357561
_publ_section_title
;
Structure prediction by ZEFSAII (Michael W. Deem and Ramdas Pophale) SiO2 
 PCOD9357561
Probable space group: A M M 2
;
_chemical_formula_sum "Si O2"
_cell_formula_units_Z 64
_cell_length_a 8.749525
_cell_length_b 23.994057
_cell_length_c 19.618170
_cell_angle_alpha 90.000000
_cell_angle_beta 90.000000
_cell_angle_gamma 90.000000
_cell_volume 4118.571939
_symmetry_space_group_name_H-M "A M M 2"
_symmetry_group_IT_number 38
_symmetry_cell_setting 'orthorhombic'
loop_
_space_group_symop_operation_xyz
x,y,z
-x,-y,z
-x,y,z
x,-y,z
x,1/2+y,1/2+z
-x,1/2-y,1/2+z
-x,1/2+y,1/2+z
x,1/2-y,1/2+z
loop_
_atom_site_type_symbol
_atom_site_label
_atom_site_fract_x
_atom_site_fract_y
_atom_site_fract_z
Si Si1 0.184833 0.832200 0.484080
Si Si2 0.817279 0.340322 0.438930
Si Si3 0.183672 0.880946 0.712306
Si Si4 0.317646 0.256530 0.209785
Si Si5 0.316868 0.564659 0.348925
Si Si6 0.185926 0.937020 0.569204
Si Si7 0.682799 0.274649 0.560488
Si Si8 0.817001 0.230227 0.350800
O O1 0.232198 0.892318 0.512050
O O2 0.258178 0.784295 0.530750
O O3 0.223343 0.816925 0.406243
O O4 0.000000 0.827184 0.490387
O O5 0.745824 0.396208 0.408943
O O6 0.756268 0.321547 0.512517
O O7 0.777661 0.289241 0.387252
O O8 0.000000 0.344300 0.440339
O O9 0.241434 0.817588 0.709156
O O10 0.250323 0.911334 0.778392
O O11 0.229802 0.912950 0.643192
O O12 0.000000 0.880762 0.716735
O O13 0.500000 0.263725 0.210334
O O14 0.275555 0.224630 0.140181
O O15 0.264258 0.226679 0.278624
O O16 0.500000 0.568414 0.346933
O O17 0.273114 0.500000 0.356940
O O18 0.000000 0.938450 0.568540
O O19 0.241150 0.000000 0.559314
O O20 0.500000 0.277194 0.554121
O O21 0.000000 0.229842 0.340876
#
# Coordination Sequence:
#
# PCOD9357561 Si02
#       8
#     8   8   8   8   8   8   8   8
#     4   9  17  31  48  68  94 124 161 202 244 291
#     4  10  20  34  52  73  95 126 165 205 246 289
#     4  11  20  31  48  69  98 135 172 207 237 280
#     4  11  21  31  47  71  99 131 163 199 247 298
#     4  11  23  36  50  70 100 136 169 204 245 289
#     4   9  17  29  47  70  95 127 166 204 241 281
#     4  10  20  32  48  70  97 126 159 200 249 299
#     4   9  18  30  47  69  93 123 159 200 246 293
#
# _framework density 15.539368
#
# number of rings (size 3 to 8) (size 9 to 14) (size 15 to 20)
#    0.000    2.000    2.500    3.000    0.000    5.000 
#    0.000    0.000    0.000    1.125    0.000    0.875 
#    0.000    3.000    0.000    0.000    0.000    0.000 
#
# Total GULP energy -178546.871210 kJ/mol
# GULP energy per Si atom -5579.589725 kJ/mol
# Density = 1.550400 g / cm^3
# Si number density = 15.539368 Si / 1000 Ang^3
#
#
#
# Elastic Constant Matrix: (Units=GPa)
#
#
# Indices 1 2 3 4 5 6 
#
# 1 34.3633 29.1662 44.8584 0.0000 0.0000 0.0000
# 2 29.1662 103.1763 75.8937 0.0000 0.0000 0.0000
# 3 44.8584 75.8937 144.2950 0.0000 0.0000 0.0000
# 4 0.0000 0.0000 0.0000 17.9506 0.0000 0.0000
# 5 0.0000 0.0000 0.0000 0.0000 24.1611 0.0000
# 6 0.0000 0.0000 0.0000 0.0000 0.0000 16.0986
#
#
#
# Elastic Compliance Matrix: (Units=1/GPa)
#
#
# Indices 1 2 3 4 5 6 
#
# 1 0.050183 -0.004421 -0.013276 0.000000 0.000000 0.000000
# 2 -0.004421 0.016197 -0.007145 0.000000 0.000000 0.000000
# 3 -0.013276 -0.007145 0.014815 0.000000 0.000000 0.000000
# 4 0.000000 0.000000 0.000000 0.055708 0.000000 0.000000
# 5 0.000000 0.000000 0.000000 0.000000 0.041389 0.000000
# 6 0.000000 0.000000 0.000000 0.000000 0.000000 0.062117
#
#
# Mechanical properties :
#
#
# Convention : Reuss Voigt Hill
#
# Bulk Modulus (GPa) = 31.73262 64.63014 48.18138
# Shear Modulus (GPa) = 16.63349 20.43647 18.53498
#
# Velocity S-wave (km/s) = 3.27526 3.63042 3.45741
# Velocity P-wave (km/s) = 5.89646 7.69771 6.85649
#
# Compressibility (1/GPa) = 0.03151332
#
# Stress axis : x y z
#
# Youngs Moduli (GPa) = 19.92691 61.73828 67.49702
#
# Poissons Ratio (x) = 0.27292 0.89609
# Poissons Ratio (y) = 0.08809 0.48226
# Poissons Ratio (z) = 0.26455 0.44112
#
# Static dielectric constant tensor:
#      x y z
#    x 1.520670 0.000000 0.000000 
#    y 0.000000 1.500420 0.000000 
#    z 0.000000 0.000000 1.520110 
# 
# From -- ./inp_files/17291.got.cif
#   From: 2010.05.17/outbox.cif.g08.bks.cpg/sg38_9_cif.got.tgz:17291.got - 2010.06.03 18:07:57.
