data_PCOD9357057
_publ_section_title
;
Structure prediction by ZEFSAII (Michael W. Deem and Ramdas Pophale) SiO2 
 PCOD9357057
Probable space group: A M M 2
;
_chemical_formula_sum "Si O2"
_cell_formula_units_Z 58
_cell_length_a 15.716929
_cell_length_b 7.655618
_cell_length_c 25.544634
_cell_angle_alpha 90.000000
_cell_angle_beta 90.000000
_cell_angle_gamma 90.000000
_cell_volume 3073.602004
_symmetry_space_group_name_H-M "A M M 2"
_symmetry_group_IT_number 38
_symmetry_cell_setting 'orthorhombic'
loop_
_space_group_symop_operation_xyz
x,y,z
-x,-y,z
-x,y,z
x,-y,z
x,1/2+y,1/2+z
-x,1/2-y,1/2+z
-x,1/2+y,1/2+z
x,1/2-y,1/2+z
loop_
_atom_site_type_symbol
_atom_site_label
_atom_site_fract_x
_atom_site_fract_y
_atom_site_fract_z
Si Si1 0.406001 0.210854 0.734860
Si Si2 0.903646 0.793508 0.354840
Si Si3 0.905527 0.788641 0.677815
Si Si4 0.903491 0.210841 0.974998
Si Si5 0.808765 0.793529 0.076281
Si Si6 0.775427 0.706116 0.264458
Si Si7 0.623877 0.700169 0.111634
Si Si8 0.500000 0.500000 0.575709
O O1 0.500000 0.278994 0.749571
O O2 0.321062 0.276504 0.764094
O O3 0.391587 0.243526 0.672997
O O4 0.409717 0.000000 0.741306
O O5 0.882490 0.760003 0.415537
O O6 0.831215 0.723838 0.316547
O O7 0.000000 0.722311 0.345049
O O8 0.907298 0.000000 0.346396
O O9 0.881894 0.735904 0.619199
O O10 0.833354 0.720967 0.717342
O O11 0.000000 0.728598 0.692769
O O12 0.905287 0.000000 0.680451
O O13 0.000000 0.272707 0.985255
O O14 0.904450 0.000000 0.977709
O O15 0.840205 0.273629 0.020032
O O16 0.723263 0.708809 0.098082
O O17 0.792992 0.000000 0.072106
O O18 0.766165 0.500000 0.253646
O O19 0.595862 0.500000 0.103607
O O20 0.573377 0.845100 0.079496
#
# Coordination Sequence:
#
# PCOD9357057 Si02
#       8
#     8   8   8   8   8   8   8   2
#     4   9  17  32  54  79 107 144 183 226 279 336
#     4  10  21  36  53  77 106 138 183 235 285 337
#     4  10  20  32  48  74 112 155 190 221 272 346
#     4   9  19  36  57  79 107 145 188 233 278 330
#     4  11  21  34  53  82 114 146 188 233 281 343
#     4  10  19  33  53  76 106 143 185 227 275 338
#     4  11  21  36  56  81 117 151 187 238 286 340
#     4  12  22  36  56  86 110 152 198 236 288 346
#
# _framework density 18.870367999999999
#
# number of rings (size 3 to 8) (size 9 to 14) (size 15 to 20)
#    0.000    1.931    2.759    1.862    0.000    3.862 
#    1.241    1.379    0.000    0.000    1.793    0.000 
#    0.000    0.000    0.000    0.000    0.000    0.000 
#
# Total GULP energy -161571.186914 kJ/mol
# GULP energy per Si atom -5571.420238 kJ/mol
# Density = 1.882742 g / cm^3
# Si number density = 18.870368 Si / 1000 Ang^3
#
#
#
# Elastic Constant Matrix: (Units=GPa)
#
#
# Indices 1 2 3 4 5 6 
#
# 1 164.1900 13.6287 64.2399 0.0000 0.0000 0.0000
# 2 13.6287 57.2073 -3.7879 0.0000 0.0000 0.0000
# 3 64.2399 -3.7879 69.1451 0.0000 0.0000 0.0000
# 4 0.0000 0.0000 0.0000 11.9647 0.0000 0.0000
# 5 0.0000 0.0000 0.0000 0.0000 38.0659 0.0000
# 6 0.0000 0.0000 0.0000 0.0000 0.0000 17.3066
#
#
#
# Elastic Compliance Matrix: (Units=1/GPa)
#
#
# Indices 1 2 3 4 5 6 
#
# 1 0.010066 -0.003028 -0.009517 0.000000 0.000000 0.000000
# 2 -0.003028 0.018455 0.003824 0.000000 0.000000 0.000000
# 3 -0.009517 0.003824 0.023514 0.000000 0.000000 0.000000
# 4 0.000000 0.000000 0.000000 0.083579 0.000000 0.000000
# 5 0.000000 0.000000 0.000000 0.000000 0.026270 0.000000
# 6 0.000000 0.000000 0.000000 0.000000 0.000000 0.057781
#
#
# Mechanical properties :
#
#
# Convention : Reuss Voigt Hill
#
# Bulk Modulus (GPa) = 28.90832 48.74487 38.82659
# Shear Modulus (GPa) = 20.10954 27.89823 24.00388
#
# Velocity S-wave (km/s) = 3.26800 3.84919 3.57044
# Velocity P-wave (km/s) = 5.43989 6.75592 6.13331
#
# Compressibility (1/GPa) = 0.03459212
#
# Stress axis : x y z
#
# Youngs Moduli (GPa) = 99.34839 54.18609 42.52764
#
# Poissons Ratio (x) = 0.16408 0.40475
# Poissons Ratio (y) = 0.30084 -0.16264
# Poissons Ratio (z) = 0.94554 -0.20722
#
# Static dielectric constant tensor:
#      x y z
#    x 1.677070 0.000000 0.000000 
#    y 0.000000 1.692420 0.000000 
#    z 0.000000 0.000000 1.624810 
# 
# From -- ./inp_files/22824.got.cif
#   From: 2010.05.17/outbox.cif.g08.bks.cpg/sg38_12_cif.got.tgz:22824.got - 2010.06.03 18:07:57.
