data_PCOD9357294
_publ_section_title
;
Structure prediction by ZEFSAII (Michael W. Deem and Ramdas Pophale) SiO2 
 PCOD9357294
Probable space group: A M M 2
;
_chemical_formula_sum "Si O2"
_cell_formula_units_Z 56
_cell_length_a 14.312948
_cell_length_b 20.746722
_cell_length_c 9.021353
_cell_angle_alpha 90.000000
_cell_angle_beta 90.000000
_cell_angle_gamma 90.000000
_cell_volume 2678.861482
_symmetry_space_group_name_H-M "A M M 2"
_symmetry_group_IT_number 38
_symmetry_cell_setting 'orthorhombic'
loop_
_space_group_symop_operation_xyz
x,y,z
-x,-y,z
-x,y,z
x,-y,z
x,1/2+y,1/2+z
-x,1/2-y,1/2+z
-x,1/2+y,1/2+z
x,1/2-y,1/2+z
loop_
_atom_site_type_symbol
_atom_site_label
_atom_site_fract_x
_atom_site_fract_y
_atom_site_fract_z
Si Si1 0.000000 0.341739 0.667521
Si Si2 0.608479 0.198537 0.081195
Si Si3 0.105908 0.161546 0.612271
Si Si4 0.000000 0.755543 0.920775
Si Si5 0.394032 0.426925 0.114612
Si Si6 0.364110 0.426952 0.769788
Si Si7 0.852805 0.074007 0.339745
Si Si8 0.708887 0.689834 0.268774
O O1 0.000000 0.325676 0.494156
O O2 0.086586 0.382200 0.729679
O O3 0.000000 0.272782 0.755433
O O4 0.500000 0.218338 0.049773
O O5 0.672282 0.193511 0.935522
O O6 0.605066 0.129408 0.161716
O O7 0.661013 0.249797 0.185837
O O8 0.089373 0.220147 0.496436
O O9 0.140667 0.104197 0.504750
O O10 0.180391 0.183230 0.734832
O O11 0.000000 0.144648 0.663345
O O12 0.500000 0.423383 0.171479
O O13 0.358690 0.500000 0.134373
O O14 0.333258 0.374285 0.195096
O O15 0.396718 0.414970 0.938264
O O16 0.391533 0.500000 0.727060
O O17 0.252475 0.424811 0.783400
O O18 0.885197 0.000000 0.342014
#
# Coordination Sequence:
#
# PCOD9357294 Si02
#       8
#     4   8   8   4   8   8   8   8
#     4  10  19  34  58  88 123 166 204 264 306 372
#     4  12  27  44  66  93 131 175 221 276 337 402
#     4   9  21  39  61  94 128 166 211 265 323 386
#     4   8  20  34  54  84 122 152 210 240 310 360
#     4  10  20  37  64  94 125 164 213 268 325 394
#     4  10  22  40  65  94 128 168 215 268 333 397
#     4  10  19  36  63  95 124 164 215 264 319 385
#     4  12  25  43  66  94 131 172 220 272 336 396
#
# _framework density 20.904402999999999
#
# number of rings (size 3 to 8) (size 9 to 14) (size 15 to 20)
#    0.429    1.286    2.143    2.786    2.000    2.571 
#    0.000    0.000    0.000    0.000    0.000    1.000 
#    0.000    0.000    0.000    0.000    0.000    0.000 
#
# Total GULP energy -156330.707790 kJ/mol
# GULP energy per Si atom -5583.239564 kJ/mol
# Density = 2.085682 g / cm^3
# Si number density = 20.904403 Si / 1000 Ang^3
#
#
#
# Elastic Constant Matrix: (Units=GPa)
#
#
# Indices 1 2 3 4 5 6 
#
# 1 124.0940 29.7906 21.7403 0.0000 0.0000 0.0000
# 2 29.7906 104.9559 60.3782 0.0000 0.0000 0.0000
# 3 21.7403 60.3782 90.9458 0.0000 0.0000 0.0000
# 4 0.0000 0.0000 0.0000 38.6430 0.0000 0.0000
# 5 0.0000 0.0000 0.0000 0.0000 16.3733 0.0000
# 6 0.0000 0.0000 0.0000 0.0000 0.0000 24.8028
#
#
#
# Elastic Compliance Matrix: (Units=1/GPa)
#
#
# Indices 1 2 3 4 5 6 
#
# 1 0.008676 -0.002054 -0.000710 0.000000 0.000000 0.000000
# 2 -0.002054 0.015901 -0.010066 0.000000 0.000000 0.000000
# 3 -0.000710 -0.010066 0.017848 0.000000 0.000000 0.000000
# 4 0.000000 0.000000 0.000000 0.025878 0.000000 0.000000
# 5 0.000000 0.000000 0.000000 0.000000 0.061075 0.000000
# 6 0.000000 0.000000 0.000000 0.000000 0.000000 0.040318
#
#
# Mechanical properties :
#
#
# Convention : Reuss Voigt Hill
#
# Bulk Modulus (GPa) = 59.64776 60.42376 60.03576
# Shear Modulus (GPa) = 24.88245 29.83626 27.35935
#
# Velocity S-wave (km/s) = 3.45381 3.78202 3.62164
# Velocity P-wave (km/s) = 6.67088 6.93103 6.80220
#
# Compressibility (1/GPa) = 0.01676509
#
# Stress axis : x y z
#
# Youngs Moduli (GPa) = 115.26143 62.88763 56.02872
#
# Poissons Ratio (x) = 0.12917 0.03980
# Poissons Ratio (y) = 0.23674 0.56397
# Poissons Ratio (z) = 0.08188 0.63302
#
# Static dielectric constant tensor:
#      x y z
#    x 1.803310 0.000000 0.000000 
#    y 0.000000 1.748260 0.000000 
#    z 0.000000 0.000000 1.758130 
# 
# From -- ./inp_files/5771.got.cif
#   From: 2010.05.17/outbox.cif.g08.bks.cpg/sg38_3_cif.got.tgz:5771.got - 2010.06.03 18:07:57.
