data_PCOD9357889
_publ_section_title
;
Structure prediction by ZEFSAII (Michael W. Deem and Ramdas Pophale) SiO2 
 PCOD9357889
Probable space group: A M M 2
;
_chemical_formula_sum "Si O2"
_cell_formula_units_Z 64
_cell_length_a 20.338707
_cell_length_b 8.405675
_cell_length_c 20.974482
_cell_angle_alpha 90.000000
_cell_angle_beta 90.000000
_cell_angle_gamma 90.000000
_cell_volume 3585.809209
_symmetry_space_group_name_H-M "A M M 2"
_symmetry_group_IT_number 38
_symmetry_cell_setting 'orthorhombic'
loop_
_space_group_symop_operation_xyz
x,y,z
-x,-y,z
-x,y,z
x,-y,z
x,1/2+y,1/2+z
-x,1/2-y,1/2+z
-x,1/2+y,1/2+z
x,1/2-y,1/2+z
loop_
_atom_site_type_symbol
_atom_site_label
_atom_site_fract_x
_atom_site_fract_y
_atom_site_fract_z
Si Si1 0.924355 0.690361 0.311610
Si Si2 0.424504 0.807645 0.310681
Si Si3 0.322649 0.192477 0.562716
Si Si4 0.676513 0.693849 0.918183
Si Si5 0.172945 0.809522 0.420289
Si Si6 0.825047 0.809270 0.061820
Si Si7 0.424557 0.307732 0.169792
Si Si8 0.075587 0.307785 0.671572
O O1 0.923904 0.500000 0.311720
O O2 0.877041 0.751171 0.366905
O O3 0.903735 0.749971 0.241593
O O4 0.000000 0.744796 0.321671
O O5 0.500000 0.756388 0.322566
O O6 0.374592 0.750442 0.365015
O O7 0.405555 0.750226 0.240196
O O8 0.423790 0.000000 0.310874
O O9 0.340479 0.242700 0.490515
O O10 0.248649 0.249424 0.575573
O O11 0.374446 0.248104 0.615472
O O12 0.322241 0.000000 0.563317
O O13 0.675400 0.500000 0.917081
O O14 0.751907 0.743170 0.905869
O O15 0.156304 0.748521 0.491058
O O16 0.172796 0.000000 0.421781
O O17 0.875975 0.752995 0.115706
O O18 0.824875 0.000000 0.061875
O O19 0.500000 0.255965 0.157856
O O20 0.424062 0.500000 0.169654
O O21 0.075991 0.500000 0.671818
O O22 0.000000 0.255291 0.661044
#
# Coordination Sequence:
#
# PCOD9357889 Si02
#       8
#     8   8   8   8   8   8   8   8
#     4  10  21  36  54  77 104 132 166 210 254 299
#     4   9  17  30  49  71  95 125 161 201 245 294
#     4   9  18  33  51  71  97 130 167 207 250 298
#     4   8  16  31  49  70  95 123 160 203 241 282
#     4  10  20  35  54  75 103 137 171 209 252 302
#     4  10  20  34  53  77 104 134 169 211 256 301
#     4   9  18  32  49  70  97 128 162 202 248 297
#     4   9  19  36  55  74  99 132 168 206 250 300
#
# _framework density 17.848132
#
# number of rings (size 3 to 8) (size 9 to 14) (size 15 to 20)
#    0.000    2.750    0.000    1.875    0.000    4.250 
#    0.000   10.625    0.000    0.000    0.000    3.500 
#    0.000    0.000    0.000    0.000    0.000    0.000 
#
# Total GULP energy -178451.610137 kJ/mol
# GULP energy per Si atom -5576.612817 kJ/mol
# Density = 1.780751 g / cm^3
# Si number density = 17.848132 Si / 1000 Ang^3
#
#
#
# Elastic Constant Matrix: (Units=GPa)
#
#
# Indices 1 2 3 4 5 6 
#
# 1 116.0337 18.5984 137.2564 0.0000 0.0000 0.0000
# 2 18.5984 13.2930 23.8971 0.0000 0.0000 0.0000
# 3 137.2564 23.8971 195.3203 0.0000 0.0000 0.0000
# 4 0.0000 0.0000 0.0000 30.6119 0.0000 0.0000
# 5 0.0000 0.0000 0.0000 0.0000 45.3215 0.0000
# 6 0.0000 0.0000 0.0000 0.0000 0.0000 22.1566
#
#
#
# Elastic Compliance Matrix: (Units=1/GPa)
#
#
# Indices 1 2 3 4 5 6 
#
# 1 0.051905 -0.009037 -0.035369 0.000000 0.000000 0.000000
# 2 -0.009037 0.098013 -0.005641 0.000000 0.000000 0.000000
# 3 -0.035369 -0.005641 0.030665 0.000000 0.000000 0.000000
# 4 0.000000 0.000000 0.000000 0.032667 0.000000 0.000000
# 5 0.000000 0.000000 0.000000 0.000000 0.022065 0.000000
# 6 0.000000 0.000000 0.000000 0.000000 0.000000 0.045133
#
#
# Mechanical properties :
#
#
# Convention : Reuss Voigt Hill
#
# Bulk Modulus (GPa) = 12.42425 76.01677 44.22051
# Shear Modulus (GPa) = 12.27378 29.27767 20.77573
#
# Velocity S-wave (km/s) = 2.62521 4.05455 3.41549
# Velocity P-wave (km/s) = 4.02059 8.03757 6.35483
#
# Compressibility (1/GPa) = 0.08048776
#
# Stress axis : x y z
#
# Youngs Moduli (GPa) = 19.26590 10.20274 32.61056
#
# Poissons Ratio (x) = 0.09220 1.15342
# Poissons Ratio (y) = 0.17411 0.18396
# Poissons Ratio (z) = 0.68142 0.05755
#
# Static dielectric constant tensor:
#      x y z
#    x 1.605860 0.000000 0.000000 
#    y 0.000000 1.619600 0.000000 
#    z 0.000000 0.000000 1.586090 
# 
# From -- ./inp_files/18967.got.cif
#   From: 2010.05.17/outbox.cif.g08.bks.cpg/sg38_10_cif.got.tgz:18967.got - 2010.06.03 18:07:57.
