data_PCOD9357308
_publ_section_title
;
Structure prediction by ZEFSAII (Michael W. Deem and Ramdas Pophale) SiO2 
 PCOD9357308
Probable space group: A M M 2
;
_chemical_formula_sum "Si O2"
_cell_formula_units_Z 64
_cell_length_a 15.893499
_cell_length_b 8.659256
_cell_length_c 24.362410
_cell_angle_alpha 90.000000
_cell_angle_beta 90.000000
_cell_angle_gamma 90.000000
_cell_volume 3352.898032
_symmetry_space_group_name_H-M "A M M 2"
_symmetry_group_IT_number 38
_symmetry_cell_setting 'orthorhombic'
loop_
_space_group_symop_operation_xyz
x,y,z
-x,-y,z
-x,y,z
x,-y,z
x,1/2+y,1/2+z
-x,1/2-y,1/2+z
-x,1/2+y,1/2+z
x,1/2-y,1/2+z
loop_
_atom_site_type_symbol
_atom_site_label
_atom_site_fract_x
_atom_site_fract_y
_atom_site_fract_z
Si Si1 0.248132 0.814644 0.601860
Si Si2 0.647736 0.815860 0.795680
Si Si3 0.165485 0.185173 0.292086
Si Si4 0.593116 0.811974 0.674075
Si Si5 0.594389 0.684433 0.911010
Si Si6 0.094510 0.314102 0.910828
Si Si7 0.249998 0.183478 0.979484
Si Si8 0.904735 0.813905 0.172541
O O1 0.330220 0.759753 0.635930
O O2 0.250219 0.751809 0.540442
O O3 0.165062 0.759295 0.633559
O O4 0.249346 0.000000 0.600675
O O5 0.746147 0.772993 0.794473
O O6 0.609387 0.766963 0.737226
O O7 0.607109 0.734131 0.847947
O O8 0.637113 0.000000 0.801357
O O9 0.113159 0.220290 0.346870
O O10 0.117820 0.223162 0.235794
O O11 0.181885 0.000000 0.292095
O O12 0.500000 0.761564 0.656376
O O13 0.594270 0.000000 0.673179
O O14 0.500000 0.728725 0.928789
O O15 0.602500 0.500000 0.915127
O O16 0.667852 0.760133 0.946573
O O17 0.099030 0.500000 0.916890
O O18 0.167386 0.240655 0.947199
O O19 0.000000 0.264121 0.925494
O O20 0.249695 0.000000 0.981798
O O21 0.000000 0.764445 0.159938
O O22 0.900773 0.000000 0.167247
#
# Coordination Sequence:
#
# PCOD9357308 Si02
#       8
#     8   8   8   8   8   8   8   8
#     4  11  23  41  63  86 116 157 207 254 301 356
#     4  11  20  34  60  93 127 161 195 239 299 360
#     4  10  19  34  60  90 125 161 196 242 300 363
#     4   9  19  36  59  88 121 155 192 237 293 354
#     4  11  24  42  64  91 123 161 203 247 299 361
#     4  10  21  39  64  92 122 160 203 245 297 362
#     4  12  26  43  63  88 120 158 204 256 309 360
#     4  10  21  38  61  90 124 161 200 246 302 359
#
# _framework density 19.087965000000001
#
# number of rings (size 3 to 8) (size 9 to 14) (size 15 to 20)
#    0.000    1.500    2.500    3.000    0.000    4.500 
#    0.000    1.250    0.000    5.625    0.000    0.000 
#    0.000    0.000    0.000    0.000    0.000    0.000 
#
# Total GULP energy -178856.350645 kJ/mol
# GULP energy per Si atom -5589.260958 kJ/mol
# Density = 1.904452 g / cm^3
# Si number density = 19.087965 Si / 1000 Ang^3
#
#
#
# Elastic Constant Matrix: (Units=GPa)
#
#
# Indices 1 2 3 4 5 6 
#
# 1 190.9274 49.5940 86.7220 0.0000 0.0000 0.0000
# 2 49.5940 40.2101 39.7391 0.0000 0.0000 0.0000
# 3 86.7220 39.7391 151.4571 0.0000 0.0000 0.0000
# 4 0.0000 0.0000 0.0000 11.9348 0.0000 0.0000
# 5 0.0000 0.0000 0.0000 0.0000 0.0538 0.0000
# 6 0.0000 0.0000 0.0000 0.0000 0.0000 17.8083
#
#
#
# Elastic Compliance Matrix: (Units=1/GPa)
#
#
# Indices 1 2 3 4 5 6 
#
# 1 0.008541 -0.007697 -0.002871 0.000000 0.000000 0.000000
# 2 -0.007697 0.040512 -0.006222 0.000000 0.000000 0.000000
# 3 -0.002871 -0.006222 0.009879 0.000000 0.000000 0.000000
# 4 0.000000 0.000000 0.000000 0.083789 0.000000 0.000000
# 5 0.000000 0.000000 0.000000 0.000000 18.577432 0.000000
# 6 0.000000 0.000000 0.000000 0.000000 0.000000 0.056154
#
#
# Mechanical properties :
#
#
# Convention : Reuss Voigt Hill
#
# Bulk Modulus (GPa) = 39.44528 81.63388 60.53958
# Shear Modulus (GPa) = 0.26570 19.72867 9.99718
#
# Velocity S-wave (km/s) = 0.37350 3.21840 2.29103
# Velocity P-wave (km/s) = 4.57120 7.52800 6.22763
#
# Compressibility (1/GPa) = 0.02535158
#
# Stress axis : x y z
#
# Youngs Moduli (GPa) = 117.08419 24.68413 101.22502
#
# Poissons Ratio (x) = 0.18999 0.29061
# Poissons Ratio (y) = 0.90117 0.62986
# Poissons Ratio (z) = 0.33614 0.15359
#
# Static dielectric constant tensor:
#      x y z
#    x 1.656390 0.000000 0.000000 
#    y 0.000000 1.644530 0.000000 
#    z 0.000000 0.000000 1.635310 
# 
# From -- ./inp_files/22872.got.cif
#   From: 2010.05.17/outbox.cif.g08.bks.cpg/sg38_12_cif.got.tgz:22872.got - 2010.06.03 18:07:57.
