data_PCOD9357048
_publ_section_title
;
Structure prediction by ZEFSAII (Michael W. Deem and Ramdas Pophale) SiO2 
 PCOD9357048
Probable space group: A M M 2
;
_chemical_formula_sum "Si O2"
_cell_formula_units_Z 64
_cell_length_a 8.311476
_cell_length_b 31.482230
_cell_length_c 15.065836
_cell_angle_alpha 90.000000
_cell_angle_beta 90.000000
_cell_angle_gamma 90.000000
_cell_volume 3942.183884
_symmetry_space_group_name_H-M "A M M 2"
_symmetry_group_IT_number 38
_symmetry_cell_setting 'orthorhombic'
loop_
_space_group_symop_operation_xyz
x,y,z
-x,-y,z
-x,y,z
x,-y,z
x,1/2+y,1/2+z
-x,1/2-y,1/2+z
-x,1/2+y,1/2+z
x,1/2-y,1/2+z
loop_
_atom_site_type_symbol
_atom_site_label
_atom_site_fract_x
_atom_site_fract_y
_atom_site_fract_z
Si Si1 0.192401 0.951418 0.855270
Si Si2 0.696254 0.367514 0.636268
Si Si3 0.305338 0.273783 0.958206
Si Si4 0.304449 0.175937 0.953386
Si Si5 0.692775 0.868613 0.773891
Si Si6 0.809646 0.706648 0.153051
Si Si7 0.694398 0.452103 0.555595
Si Si8 0.305082 0.208788 0.259558
O O1 0.250068 0.917045 0.783577
O O2 0.000000 0.950443 0.859497
O O3 0.244058 0.000000 0.835993
O O4 0.258102 0.940863 0.954160
O O5 0.500000 0.367825 0.640834
O O6 0.745262 0.346999 0.542724
O O7 0.748852 0.416428 0.625871
O O8 0.751064 0.334231 0.710604
O O9 0.500000 0.275814 0.961376
O O10 0.255516 0.224569 0.956494
O O11 0.253053 0.291400 0.862385
O O12 0.241748 0.292349 0.050115
O O13 0.500000 0.174935 0.951224
O O14 0.246786 0.153363 0.864865
O O15 0.500000 0.868519 0.773343
O O16 0.750502 0.837241 0.697008
O O17 0.743311 0.748221 0.206409
O O18 0.000000 0.708834 0.159540
O O19 0.500000 0.452545 0.557448
O O20 0.753172 0.500000 0.573040
O O21 0.500000 0.209146 0.258678
#
# Coordination Sequence:
#
# PCOD9357048 Si02
#       8
#     8   8   8   8   8   8   8   8
#     4  10  20  32  46  70 104 134 161 201 252 298
#     4   9  15  26  45  71  96 123 163 208 244 285
#     4  10  19  34  51  67  91 129 173 208 242 291
#     4   9  15  25  47  72  94 120 160 207 242 279
#     4  11  20  34  53  73  96 132 175 206 240 292
#     4  12  24  34  47  72 103 130 160 203 257 305
#     4   9  16  27  45  69  98 133 169 203 244 298
#     4  10  19  33  53  71  92 129 174 211 246 296
#
# _framework density 16.234656000000001
#
# number of rings (size 3 to 8) (size 9 to 14) (size 15 to 20)
#    0.000    2.000    3.750    1.875    0.000    1.250 
#    0.000    1.875    0.000    0.000    0.000    0.875 
#    0.000    3.000    0.000    0.000    0.000    0.000 
#
# Total GULP energy -178347.291039 kJ/mol
# GULP energy per Si atom -5573.352845 kJ/mol
# Density = 1.619771 g / cm^3
# Si number density = 16.234656 Si / 1000 Ang^3
#
#
#
# Elastic Constant Matrix: (Units=GPa)
#
#
# Indices 1 2 3 4 5 6 
#
# 1 22.9138 18.0753 16.8762 0.0000 0.0000 0.0000
# 2 18.0753 137.4968 70.6509 0.0000 0.0000 0.0000
# 3 16.8762 70.6509 110.4582 0.0000 0.0000 0.0000
# 4 0.0000 0.0000 0.0000 23.4967 0.0000 0.0000
# 5 0.0000 0.0000 0.0000 0.0000 -4.0079 0.0000
# 6 0.0000 0.0000 0.0000 0.0000 0.0000 13.6651
#
#
#
# Elastic Compliance Matrix: (Units=1/GPa)
#
#
# Indices 1 2 3 4 5 6 
#
# 1 0.050605 -0.003992 -0.005178 0.000000 0.000000 0.000000
# 2 -0.003992 0.011148 -0.006521 0.000000 0.000000 0.000000
# 3 -0.005178 -0.006521 0.014015 0.000000 0.000000 0.000000
# 4 0.000000 0.000000 0.000000 0.042559 0.000000 0.000000
# 5 0.000000 0.000000 0.000000 0.000000 -0.249505 0.000000
# 6 0.000000 0.000000 0.000000 0.000000 0.000000 0.073179
#
#
# Mechanical properties :
#
#
# Convention : Reuss Voigt Hill
#
# Bulk Modulus (GPa) = 22.52944 53.56373 38.04659
# Shear Modulus (GPa) = -422.95104 17.64854 -202.65125
#
# Velocity S-wave (km/s) = -16.15825 3.30068 -11.18469
# Velocity P-wave (km/s) = 18.28145 6.89863 11.97122
#
# Compressibility (1/GPa) = 0.04438636
#
# Stress axis : x y z
#
# Youngs Moduli (GPa) = 19.76106 89.70042 71.35137
#
# Poissons Ratio (x) = 0.35805 0.36949
# Poissons Ratio (y) = 0.07888 0.46526
# Poissons Ratio (z) = 0.10233 0.58491
#
# Static dielectric constant tensor:
#      x y z
#    x 1.556760 0.000000 0.000000 
#    y 0.000000 1.577900 0.000000 
#    z 0.000000 0.000000 1.539800 
# 
# From -- ./inp_files/13086.got.cif
#   From: 2010.05.17/outbox.cif.g08.bks.cpg/sg38_7_cif.got.tgz:13086.got - 2010.06.03 18:07:57.
