data_PCOD9357319
_publ_section_title
;
Structure prediction by ZEFSAII (Michael W. Deem and Ramdas Pophale) SiO2 
 PCOD9357319
Probable space group: A M M 2
;
_chemical_formula_sum "Si O2"
_cell_formula_units_Z 40
_cell_length_a 8.368841
_cell_length_b 26.491334
_cell_length_c 9.795551
_cell_angle_alpha 90.000000
_cell_angle_beta 90.000000
_cell_angle_gamma 90.000000
_cell_volume 2171.690918
_symmetry_space_group_name_H-M "A M M 2"
_symmetry_group_IT_number 38
_symmetry_cell_setting 'orthorhombic'
loop_
_space_group_symop_operation_xyz
x,y,z
-x,-y,z
-x,y,z
x,-y,z
x,1/2+y,1/2+z
-x,1/2-y,1/2+z
-x,1/2+y,1/2+z
x,1/2-y,1/2+z
loop_
_atom_site_type_symbol
_atom_site_label
_atom_site_fract_x
_atom_site_fract_y
_atom_site_fract_z
Si Si1 0.194458 0.795294 0.258450
Si Si2 0.695316 0.500000 0.259251
Si Si3 0.191430 0.408669 0.758026
Si Si4 0.308801 0.591881 0.067696
Si Si5 0.193380 0.703088 0.073252
Si Si6 0.309129 0.000000 0.072616
O O1 0.246184 0.851884 0.218765
O O2 0.250875 0.749222 0.165948
O O3 0.239766 0.787858 0.416036
O O4 0.000000 0.795102 0.252349
O O5 0.500000 0.500000 0.261256
O O6 0.746029 0.450697 0.174034
O O7 0.750380 0.500000 0.416070
O O8 0.254314 0.450974 0.656416
O O9 0.000000 0.409427 0.755499
O O10 0.243997 0.417729 0.914738
O O11 0.500000 0.590063 0.060385
O O12 0.255734 0.647819 0.111926
O O13 0.000000 0.701357 0.078897
O O14 0.500000 0.000000 0.068513
#
# Coordination Sequence:
#
# PCOD9357319 Si02
#       6
#     8   4   8   8   8   4
#     4   8  16  30  50  72  99 132 167 206 255 304
#     4   9  21  37  52  72 104 139 172 209 260 316
#     4  10  20  36  56  80 105 136 178 220 258 313
#     4  10  19  35  56  77 102 140 180 215 258 313
#     4   9  17  32  51  74 102 135 172 215 261 308
#     4  11  22  37  54  76 106 139 170 215 272 318
#
# _framework density 18.418828000000001
#
# number of rings (size 3 to 8) (size 9 to 14) (size 15 to 20)
#    0.000    2.600    0.000    3.300    0.000    2.400 
#    0.000   12.500    0.000    0.000    0.000    0.000 
#    0.000    0.000    0.000    0.000    0.000    0.000 
#
# Total GULP energy -111567.494633 kJ/mol
# GULP energy per Si atom -5578.374732 kJ/mol
# Density = 1.837691 g / cm^3
# Si number density = 18.418828 Si / 1000 Ang^3
#
#
#
# Elastic Constant Matrix: (Units=GPa)
#
#
# Indices 1 2 3 4 5 6 
#
# 1 31.5880 28.4813 23.4456 0.0000 0.0000 0.0000
# 2 28.4813 213.6424 140.3097 0.0000 0.0000 0.0000
# 3 23.4456 140.3097 127.4639 0.0000 0.0000 0.0000
# 4 0.0000 0.0000 0.0000 39.9011 0.0000 0.0000
# 5 0.0000 0.0000 0.0000 0.0000 19.4093 0.0000
# 6 0.0000 0.0000 0.0000 0.0000 0.0000 9.8179
#
#
#
# Elastic Compliance Matrix: (Units=1/GPa)
#
#
# Indices 1 2 3 4 5 6 
#
# 1 0.036826 -0.001663 -0.004943 0.000000 0.000000 0.000000
# 2 -0.001663 0.016969 -0.018373 0.000000 0.000000 0.000000
# 3 -0.004943 -0.018373 0.028980 0.000000 0.000000 0.000000
# 4 0.000000 0.000000 0.000000 0.025062 0.000000 0.000000
# 5 0.000000 0.000000 0.000000 0.000000 0.051522 0.000000
# 6 0.000000 0.000000 0.000000 0.000000 0.000000 0.101855
#
#
# Mechanical properties :
#
#
# Convention : Reuss Voigt Hill
#
# Bulk Modulus (GPa) = 30.47323 84.12971 57.30147
# Shear Modulus (GPa) = 15.52259 25.85618 20.68939
#
# Velocity S-wave (km/s) = 2.90618 3.75078 3.35516
# Velocity P-wave (km/s) = 5.27652 8.03324 6.79612
#
# Compressibility (1/GPa) = 0.03281568
#
# Stress axis : x y z
#
# Youngs Moduli (GPa) = 27.15477 58.93035 34.50686
#
# Poissons Ratio (x) = 0.09800 0.17057
# Poissons Ratio (y) = 0.04516 0.63401
# Poissons Ratio (z) = 0.13423 1.08275
#
# Static dielectric constant tensor:
#      x y z
#    x 1.638410 0.000000 0.000000 
#    y 0.000000 1.636690 0.000000 
#    z 0.000000 0.000000 1.612720 
# 
# From -- ./inp_files/3475.got.cif
#   From: 2010.05.17/outbox.cif.g08.bks.cpg/sg38_2_cif.got.tgz:3475.got - 2010.06.03 18:07:57.
