data_PCOD9357808
_publ_section_title
;
Structure prediction by ZEFSAII (Michael W. Deem and Ramdas Pophale) SiO2 
 PCOD9357808
Probable space group: A M M 2
;
_chemical_formula_sum "Si O2"
_cell_formula_units_Z 56
_cell_length_a 17.105508
_cell_length_b 8.690907
_cell_length_c 20.916936
_cell_angle_alpha 90.000000
_cell_angle_beta 90.000000
_cell_angle_gamma 90.000000
_cell_volume 3109.561472
_symmetry_space_group_name_H-M "A M M 2"
_symmetry_group_IT_number 38
_symmetry_cell_setting 'orthorhombic'
loop_
_space_group_symop_operation_xyz
x,y,z
-x,-y,z
-x,y,z
x,-y,z
x,1/2+y,1/2+z
-x,1/2-y,1/2+z
-x,1/2+y,1/2+z
x,1/2-y,1/2+z
loop_
_atom_site_type_symbol
_atom_site_label
_atom_site_fract_x
_atom_site_fract_y
_atom_site_fract_z
Si Si1 0.658249 0.184441 0.936960
Si Si2 0.251581 0.312632 0.565315
Si Si3 0.663205 0.184253 0.194766
Si Si4 0.500000 0.183367 0.740702
Si Si5 0.089969 0.183175 0.370382
Si Si6 0.761166 0.317439 0.311009
Si Si7 0.912003 0.313828 0.513283
Si Si8 0.500000 0.317959 0.884436
O O1 0.714659 0.214357 0.876828
O O2 0.576677 0.265188 0.922444
O O3 0.645704 0.000000 0.940132
O O4 0.700258 0.233938 0.002236
O O5 0.250984 0.500000 0.566135
O O6 0.295076 0.262204 0.629475
O O7 0.161175 0.263914 0.556646
O O8 0.578093 0.255784 0.206625
O O9 0.717710 0.231991 0.253880
O O10 0.655220 0.000000 0.192780
O O11 0.500000 0.240826 0.814236
O O12 0.500000 0.000000 0.741273
O O13 0.151325 0.260186 0.323021
O O14 0.100866 0.250748 0.441713
O O15 0.000000 0.213117 0.352274
O O16 0.102294 0.000000 0.372225
O O17 0.758751 0.500000 0.299787
O O18 0.910538 0.500000 0.509936
O O19 0.000000 0.267590 0.533726
O O20 0.500000 0.500000 0.875378
#
# Coordination Sequence:
#
# PCOD9357808 Si02
#       8
#     8   8   8   4   8   8   8   4
#     4  10  20  37  60  83 113 149 189 234 284 339
#     4   9  19  37  58  85 116 152 192 232 282 342
#     4  11  23  39  61  85 116 153 193 238 287 343
#     4  12  24  41  60  81 113 151 195 237 286 352
#     4  10  20  33  53  85 121 153 191 243 294 335
#     4  11  21  36  60  85 114 151 192 235 284 344
#     4   9  16  31  57  85 113 148 192 236 282 344
#     4  12  24  37  58  89 117 145 191 243 294 336
#
# _framework density 18.008970000000001
#
# number of rings (size 3 to 8) (size 9 to 14) (size 15 to 20)
#    0.000    1.714    2.857    2.571    0.000    2.000 
#    0.000    6.429    0.000    2.571    0.000    0.000 
#    0.000    0.000    0.000    0.000    0.000    0.000 
#
# Total GULP energy -156351.891023 kJ/mol
# GULP energy per Si atom -5583.996108 kJ/mol
# Density = 1.796798 g / cm^3
# Si number density = 18.008970 Si / 1000 Ang^3
#
#
#
# Elastic Constant Matrix: (Units=GPa)
#
#
# Indices 1 2 3 4 5 6 
#
# 1 164.9197 48.4327 78.2534 0.0000 0.0000 0.0000
# 2 48.4327 43.9167 43.2541 0.0000 0.0000 0.0000
# 3 78.2534 43.2541 118.4917 0.0000 0.0000 0.0000
# 4 0.0000 0.0000 0.0000 22.4335 0.0000 0.0000
# 5 0.0000 0.0000 0.0000 0.0000 16.4735 0.0000
# 6 0.0000 0.0000 0.0000 0.0000 0.0000 27.0466
#
#
#
# Elastic Compliance Matrix: (Units=1/GPa)
#
#
# Indices 1 2 3 4 5 6 
#
# 1 0.010080 -0.007120 -0.004058 0.000000 0.000000 0.000000
# 2 -0.007120 0.040582 -0.010112 0.000000 0.000000 0.000000
# 3 -0.004058 -0.010112 0.014811 0.000000 0.000000 0.000000
# 4 0.000000 0.000000 0.000000 0.044576 0.000000 0.000000
# 5 0.000000 0.000000 0.000000 0.000000 0.060703 0.000000
# 6 0.000000 0.000000 0.000000 0.000000 0.000000 0.036973
#
#
# Mechanical properties :
#
#
# Convention : Reuss Voigt Hill
#
# Bulk Modulus (GPa) = 43.68163 74.13429 58.90796
# Shear Modulus (GPa) = 19.38473 23.68325 21.53399
#
# Velocity S-wave (km/s) = 3.28440 3.63034 3.46169
# Velocity P-wave (km/s) = 6.22023 7.66988 6.98277
#
# Compressibility (1/GPa) = 0.02289292
#
# Stress axis : x y z
#
# Youngs Moduli (GPa) = 99.20739 24.64172 67.51942
#
# Poissons Ratio (x) = 0.17544 0.27399
# Poissons Ratio (y) = 0.70633 0.68275
# Poissons Ratio (z) = 0.40257 0.24918
#
# Static dielectric constant tensor:
#      x y z
#    x 1.623560 0.000000 0.000000 
#    y 0.000000 1.609090 0.000000 
#    z 0.000000 0.000000 1.587390 
# 
# From -- ./inp_files/21162.got.cif
#   From: 2010.05.17/outbox.cif.g08.bks.cpg/sg38_11_cif.got.tgz:21162.got - 2010.06.03 18:07:57.
