data_PCOD9357851
_publ_section_title
;
Structure prediction by ZEFSAII (Michael W. Deem and Ramdas Pophale) SiO2 
 PCOD9357851
Probable space group: A M M 2
;
_chemical_formula_sum "Si O2"
_cell_formula_units_Z 64
_cell_length_a 20.590875
_cell_length_b 8.646638
_cell_length_c 20.621637
_cell_angle_alpha 90.000000
_cell_angle_beta 90.000000
_cell_angle_gamma 90.000000
_cell_volume 3671.514241
_symmetry_space_group_name_H-M "A M M 2"
_symmetry_group_IT_number 38
_symmetry_cell_setting 'orthorhombic'
loop_
_space_group_symop_operation_xyz
x,y,z
-x,-y,z
-x,y,z
x,-y,z
x,1/2+y,1/2+z
-x,1/2-y,1/2+z
-x,1/2+y,1/2+z
x,1/2-y,1/2+z
loop_
_atom_site_type_symbol
_atom_site_label
_atom_site_fract_x
_atom_site_fract_y
_atom_site_fract_z
Si Si1 0.321724 0.812056 0.821940
Si Si2 0.924726 0.813409 0.572666
Si Si3 0.680125 0.814592 0.673882
Si Si4 0.425181 0.686631 0.575009
Si Si5 0.176768 0.316012 0.675500
Si Si6 0.924964 0.186444 0.423566
Si Si7 0.573825 0.311368 0.426073
Si Si8 0.826459 0.185331 0.818158
O O1 0.336610 0.766128 0.747868
O O2 0.373458 0.755451 0.874434
O O3 0.247382 0.766133 0.835796
O O4 0.323470 0.000000 0.823650
O O5 0.875431 0.740131 0.623182
O O6 0.909796 0.769339 0.498047
O O7 0.000000 0.771060 0.585659
O O8 0.920472 0.000000 0.576726
O O9 0.626216 0.757306 0.624082
O O10 0.751548 0.748468 0.659148
O O11 0.683982 0.000000 0.672636
O O12 0.500000 0.730068 0.589871
O O13 0.421305 0.500000 0.577983
O O14 0.411791 0.733348 0.500351
O O15 0.179086 0.500000 0.677190
O O16 0.159350 0.252987 0.747031
O O17 0.876697 0.258754 0.371845
O O18 0.000000 0.229960 0.410721
O O19 0.921067 0.000000 0.419837
O O20 0.500000 0.263544 0.410291
O O21 0.574330 0.500000 0.425004
O O22 0.827525 0.000000 0.813524
#
# Coordination Sequence:
#
# PCOD9357851 Si02
#       8
#     8   8   8   8   8   8   8   8
#     4   8  16  30  47  70  98 126 163 209 250 291
#     4   9  19  37  58  79 107 140 172 213 265 315
#     4  10  20  34  52  75 103 134 170 214 263 313
#     4   9  18  32  50  74 104 136 169 207 254 309
#     4  11  22  36  55  77 104 139 178 220 265 316
#     4   9  19  36  56  78 105 136 170 210 258 313
#     4   8  14  27  48  72  98 128 163 204 247 292
#     4  10  20  34  52  76 107 139 173 216 260 306
#
# _framework density 17.431501000000001
#
# number of rings (size 3 to 8) (size 9 to 14) (size 15 to 20)
#    0.000    2.750    0.000    4.125    0.000    3.250 
#    0.000    3.750    0.000    3.750    0.000    0.000 
#    0.000    0.000    0.000    0.000    0.000    0.000 
#
# Total GULP energy -178457.599907 kJ/mol
# GULP energy per Si atom -5576.799997 kJ/mol
# Density = 1.739183 g / cm^3
# Si number density = 17.431501 Si / 1000 Ang^3
#
#
#
# Elastic Constant Matrix: (Units=GPa)
#
#
# Indices 1 2 3 4 5 6 
#
# 1 156.6502 51.1697 147.1045 0.0000 0.0000 0.0000
# 2 51.1697 43.6833 50.8861 0.0000 0.0000 0.0000
# 3 147.1045 50.8861 161.5904 0.0000 0.0000 0.0000
# 4 0.0000 0.0000 0.0000 22.7693 0.0000 0.0000
# 5 0.0000 0.0000 0.0000 0.0000 43.5876 0.0000
# 6 0.0000 0.0000 0.0000 0.0000 0.0000 23.5943
#
#
#
# Elastic Compliance Matrix: (Units=1/GPa)
#
#
# Indices 1 2 3 4 5 6 
#
# 1 0.045695 -0.008005 -0.039078 0.000000 0.000000 0.000000
# 2 -0.008005 0.037557 -0.004540 0.000000 0.000000 0.000000
# 3 -0.039078 -0.004540 0.043193 0.000000 0.000000 0.000000
# 4 0.000000 0.000000 0.000000 0.043919 0.000000 0.000000
# 5 0.000000 0.000000 0.000000 0.000000 0.022942 0.000000
# 6 0.000000 0.000000 0.000000 0.000000 0.000000 0.042383
#
#
# Mechanical properties :
#
#
# Convention : Reuss Voigt Hill
#
# Bulk Modulus (GPa) = 43.10355 95.58271 69.34313
# Shear Modulus (GPa) = 14.42302 25.50781 19.96542
#
# Velocity S-wave (km/s) = 2.87960 3.82948 3.38799
# Velocity P-wave (km/s) = 5.98642 8.63166 7.42774
#
# Compressibility (1/GPa) = 0.02319995
#
# Stress axis : x y z
#
# Youngs Moduli (GPa) = 21.88414 26.62609 23.15198
#
# Poissons Ratio (x) = 0.21314 0.90473
# Poissons Ratio (y) = 0.17518 0.10510
# Poissons Ratio (z) = 0.85519 0.12087
#
# Static dielectric constant tensor:
#      x y z
#    x 1.575020 0.000000 0.000000 
#    y 0.000000 1.588600 0.000000 
#    z 0.000000 0.000000 1.575280 
# 
# From -- ./inp_files/21448.got.cif
#   From: 2010.05.17/outbox.cif.g08.bks.cpg/sg38_11_cif.got.tgz:21448.got - 2010.06.03 18:07:57.
