data_PCOD9357215
_publ_section_title
;
Structure prediction by ZEFSAII (Michael W. Deem and Ramdas Pophale) SiO2 
 PCOD9357215
Probable space group: A M M 2
;
_chemical_formula_sum "Si O2"
_cell_formula_units_Z 64
_cell_length_a 8.573011
_cell_length_b 29.120779
_cell_length_c 13.023987
_cell_angle_alpha 90.000000
_cell_angle_beta 90.000000
_cell_angle_gamma 90.000000
_cell_volume 3251.474284
_symmetry_space_group_name_H-M "A M M 2"
_symmetry_group_IT_number 38
_symmetry_cell_setting 'orthorhombic'
loop_
_space_group_symop_operation_xyz
x,y,z
-x,-y,z
-x,y,z
x,-y,z
x,1/2+y,1/2+z
-x,1/2-y,1/2+z
-x,1/2+y,1/2+z
x,1/2-y,1/2+z
loop_
_atom_site_type_symbol
_atom_site_label
_atom_site_fract_x
_atom_site_fract_y
_atom_site_fract_z
Si Si1 0.810274 0.950752 0.606490
Si Si2 0.822078 0.679301 0.948252
Si Si3 0.821992 0.072076 0.387300
Si Si4 0.310841 0.553210 0.458160
Si Si5 0.313250 0.197131 0.233550
Si Si6 0.187648 0.380946 0.279116
Si Si7 0.687080 0.703589 0.168552
Si Si8 0.312644 0.904776 0.175723
O O1 0.751291 0.949692 0.489923
O O2 0.758363 0.909933 0.678989
O O3 0.000000 0.947281 0.599312
O O4 0.772337 0.000000 0.654357
O O5 0.745093 0.686268 0.058201
O O6 0.000000 0.696003 0.951533
O O7 0.825895 0.625558 0.919665
O O8 0.730804 0.701009 0.853158
O O9 0.736667 0.068918 0.279182
O O10 0.000000 0.056077 0.373740
O O11 0.500000 0.554002 0.454175
O O12 0.261749 0.500000 0.440260
O O13 0.247679 0.589881 0.375787
O O14 0.260890 0.570458 0.571549
O O15 0.500000 0.195642 0.224641
O O16 0.257774 0.243791 0.180685
O O17 0.254691 0.148241 0.188394
O O18 0.249641 0.329814 0.258158
O O19 0.000000 0.379993 0.281322
O O20 0.500000 0.702610 0.172154
O O21 0.500000 0.903190 0.172999
#
# Coordination Sequence:
#
# PCOD9357215 Si02
#       8
#     8   8   8   8   8   8   8   8
#     4   9  17  31  52  78 109 142 175 221 282 341
#     4  10  19  34  55  80 112 146 182 234 293 344
#     4   9  17  32  53  79 109 141 179 227 282 339
#     4  10  22  40  60  84 119 161 201 245 301 361
#     4   9  20  37  56  81 110 150 199 241 291 356
#     4  11  22  38  58  83 114 150 199 248 296 353
#     4  11  22  36  57  83 114 154 199 244 297 359
#     4   9  19  37  58  79 110 151 192 237 288 345
#
# _framework density 19.683378999999999
#
# number of rings (size 3 to 8) (size 9 to 14) (size 15 to 20)
#    0.000    2.250    1.250    1.500    0.000    4.250 
#    0.000    2.500    0.000    1.500    0.000    0.000 
#    0.000    0.000    0.000    0.000    0.000    0.000 
#
# Total GULP energy -178434.604606 kJ/mol
# GULP energy per Si atom -5576.081394 kJ/mol
# Density = 1.963858 g / cm^3
# Si number density = 19.683379 Si / 1000 Ang^3
#
#
#
# Elastic Constant Matrix: (Units=GPa)
#
#
# Indices 1 2 3 4 5 6 
#
# 1 10.6646 11.5046 7.6519 0.0000 0.0000 0.0000
# 2 11.5046 58.1447 20.5071 0.0000 0.0000 0.0000
# 3 7.6519 20.5071 102.4295 0.0000 0.0000 0.0000
# 4 0.0000 0.0000 0.0000 18.8929 0.0000 0.0000
# 5 0.0000 0.0000 0.0000 0.0000 19.5218 0.0000
# 6 0.0000 0.0000 0.0000 0.0000 0.0000 3.6504
#
#
#
# Elastic Compliance Matrix: (Units=1/GPa)
#
#
# Indices 1 2 3 4 5 6 
#
# 1 0.121174 -0.022362 -0.004575 0.000000 0.000000 0.000000
# 2 -0.022362 0.022632 -0.002861 0.000000 0.000000 0.000000
# 3 -0.004575 -0.002861 0.010677 0.000000 0.000000 0.000000
# 4 0.000000 0.000000 0.000000 0.052930 0.000000 0.000000
# 5 0.000000 0.000000 0.000000 0.000000 0.051225 0.000000
# 6 0.000000 0.000000 0.000000 0.000000 0.000000 0.273943
#
#
# Mechanical properties :
#
#
# Convention : Reuss Voigt Hill
#
# Bulk Modulus (GPa) = 10.53878 27.84068 19.18973
# Shear Modulus (GPa) = 8.01533 17.18472 12.60002
#
# Velocity S-wave (km/s) = 2.02014 2.95796 2.53283
# Velocity P-wave (km/s) = 3.28741 5.08340 4.28066
#
# Compressibility (1/GPa) = 0.09488762
#
# Stress axis : x y z
#
# Youngs Moduli (GPa) = 8.25261 44.18540 93.65663
#
# Poissons Ratio (x) = 0.98807 0.42850
# Poissons Ratio (y) = 0.18454 0.26791
# Poissons Ratio (z) = 0.03776 0.12639
#
# Static dielectric constant tensor:
#      x y z
#    x 1.680320 0.000000 0.000000 
#    y 0.000000 1.730900 0.000000 
#    z 0.000000 0.000000 1.676980 
# 
# From -- ./inp_files/8659.got.cif
#   From: 2010.05.17/outbox.cif.g08.bks.cpg/sg38_5_cif.got.tgz:8659.got - 2010.06.03 18:07:57.
