data_PCOD9357480
_publ_section_title
;
Structure prediction by ZEFSAII (Michael W. Deem and Ramdas Pophale) SiO2 
 PCOD9357480
Probable space group: A M M 2
;
_chemical_formula_sum "Si O2"
_cell_formula_units_Z 56
_cell_length_a 7.467157
_cell_length_b 14.229493
_cell_length_c 30.658532
_cell_angle_alpha 90.000000
_cell_angle_beta 90.000000
_cell_angle_gamma 90.000000
_cell_volume 3257.587314
_symmetry_space_group_name_H-M "A M M 2"
_symmetry_group_IT_number 38
_symmetry_cell_setting 'orthorhombic'
loop_
_space_group_symop_operation_xyz
x,y,z
-x,-y,z
-x,y,z
x,-y,z
x,1/2+y,1/2+z
-x,1/2-y,1/2+z
-x,1/2+y,1/2+z
x,1/2-y,1/2+z
loop_
_atom_site_type_symbol
_atom_site_label
_atom_site_fract_x
_atom_site_fract_y
_atom_site_fract_z
Si Si1 0.212821 0.394086 0.337570
Si Si2 0.291456 0.280557 0.250706
Si Si3 0.720026 0.608978 0.167192
Si Si4 0.719628 0.393285 0.803714
Si Si5 0.714049 0.712778 0.890550
Si Si6 0.291735 0.614104 0.071961
Si Si7 0.280466 0.109424 0.476487
O O1 0.280086 0.500000 0.344854
O O2 0.283082 0.350081 0.292344
O O3 0.250406 0.319569 0.375954
O O4 0.000000 0.398197 0.332766
O O5 0.500000 0.263879 0.241123
O O6 0.215937 0.329026 0.207637
O O7 0.217103 0.181583 0.267789
O O8 0.500000 0.609356 0.166610
O O9 0.771714 0.500000 0.173445
O O10 0.781987 0.642158 0.119214
O O11 0.500000 0.391610 0.803758
O O12 0.775697 0.500000 0.797025
O O13 0.777686 0.352884 0.850670
O O14 0.500000 0.702410 0.891781
O O15 0.780406 0.675023 0.936877
O O16 0.500000 0.643125 0.071835
O O17 0.288173 0.500000 0.072285
O O18 0.216733 0.640510 0.024633
O O19 0.500000 0.110325 0.477760
O O20 0.230605 0.000000 0.469063
#
# Coordination Sequence:
#
# PCOD9357480 Si02
#       7
#     8   8   8   8   8   8   8
#     4  10  20  31  40  52  74 101 125 154 193 231
#     4   9  16  25  40  59  75  98 132 162 185 214
#     4   8  12  18  30  51  78 102 124 153 186 218
#     4   8  13  21  33  51  74  95 118 152 188 217
#     4   9  16  25  40  59  74  94 125 157 187 220
#     4   7  10  16  27  48  79 106 122 144 183 224
#     4   8  12  19  34  57  82 104 126 152 183 221
#
# _framework density 17.190636000000001
#
# number of rings (size 3 to 8) (size 9 to 14) (size 15 to 20)
#    0.000    3.571    0.000    3.857    0.000    3.429 
#    0.000    0.000    0.000   10.714    0.000    2.000 
#    0.000    9.143    0.000    0.000    0.000    0.571 
#
# Total GULP energy -155888.536041 kJ/mol
# GULP energy per Si atom -5567.447716 kJ/mol
# Density = 1.715151 g / cm^3
# Si number density = 17.190636 Si / 1000 Ang^3
#
#
#
# Elastic Constant Matrix: (Units=GPa)
#
#
# Indices 1 2 3 4 5 6 
#
# 1 48.1090 -0.3338 2.9424 0.0000 0.0000 0.0000
# 2 -0.3338 127.3480 88.7688 0.0000 0.0000 0.0000
# 3 2.9424 88.7688 161.8060 0.0000 0.0000 0.0000
# 4 0.0000 0.0000 0.0000 26.9950 0.0000 0.0000
# 5 0.0000 0.0000 0.0000 0.0000 -18.5428 0.0000
# 6 0.0000 0.0000 0.0000 0.0000 0.0000 44.9981
#
#
#
# Elastic Compliance Matrix: (Units=1/GPa)
#
#
# Indices 1 2 3 4 5 6 
#
# 1 0.020830 0.000516 -0.000662 0.000000 0.000000 0.000000
# 2 0.000516 0.012728 -0.006992 0.000000 0.000000 0.000000
# 3 -0.000662 -0.006992 0.010028 0.000000 0.000000 0.000000
# 4 0.000000 0.000000 0.000000 0.037044 0.000000 0.000000
# 5 0.000000 0.000000 0.000000 0.000000 -0.053929 0.000000
# 6 0.000000 0.000000 0.000000 0.000000 0.000000 0.022223
#
#
# Mechanical properties :
#
#
# Convention : Reuss Voigt Hill
#
# Bulk Modulus (GPa) = 34.11771 57.77977 45.94874
# Shear Modulus (GPa) = 68.52176 27.08242 47.80209
#
# Velocity S-wave (km/s) = 6.32032 3.97346 5.27896
# Velocity P-wave (km/s) = 8.55288 7.39833 7.99647
#
# Compressibility (1/GPa) = 0.02931029
#
# Stress axis : x y z
#
# Youngs Moduli (GPa) = 48.00724 78.56932 99.71946
#
# Poissons Ratio (x) = -0.04054 0.06600
# Poissons Ratio (y) = -0.02477 0.69723
# Poissons Ratio (z) = 0.03177 0.54935
#
# Static dielectric constant tensor:
#      x y z
#    x 1.636320 0.000000 0.000000 
#    y 0.000000 1.566640 0.000000 
#    z 0.000000 0.000000 1.613130 
# 
# From -- ./inp_files/24649.got.cif
#   From: 2010.05.17/outbox.cif.g08.bks.cpg/sg38_13_cif.got.tgz:24649.got - 2010.06.03 18:07:57.
