data_PCOD9357087
_publ_section_title
;
Structure prediction by ZEFSAII (Michael W. Deem and Ramdas Pophale) SiO2 
 PCOD9357087
Probable space group: A M M 2
;
_chemical_formula_sum "Si O2"
_cell_formula_units_Z 48
_cell_length_a 14.625649
_cell_length_b 7.724905
_cell_length_c 21.258658
_cell_angle_alpha 90.000000
_cell_angle_beta 90.000000
_cell_angle_gamma 90.000000
_cell_volume 2401.840364
_symmetry_space_group_name_H-M "A M M 2"
_symmetry_group_IT_number 38
_symmetry_cell_setting 'orthorhombic'
loop_
_space_group_symop_operation_xyz
x,y,z
-x,-y,z
-x,y,z
x,-y,z
x,1/2+y,1/2+z
-x,1/2-y,1/2+z
-x,1/2+y,1/2+z
x,1/2-y,1/2+z
loop_
_atom_site_type_symbol
_atom_site_label
_atom_site_fract_x
_atom_site_fract_y
_atom_site_fract_z
Si Si1 0.290828 0.790912 0.781790
Si Si2 0.898126 0.704878 0.329798
Si Si3 0.605284 0.211779 0.907189
Si Si4 0.711255 0.292350 0.531260
Si Si5 0.897412 0.793554 0.474055
Si Si6 0.395437 0.292137 0.653851
O O1 0.186744 0.725477 0.789719
O O2 0.347371 0.730637 0.842757
O O3 0.341955 0.744576 0.718024
O O4 0.287584 0.000000 0.785003
O O5 0.903725 0.500000 0.317094
O O6 0.875736 0.723935 0.404050
O O7 0.000000 0.779402 0.319768
O O8 0.500000 0.264928 0.909903
O O9 0.607057 0.000000 0.907377
O O10 0.660005 0.271800 0.968544
O O11 0.701992 0.500000 0.531616
O O12 0.818112 0.253945 0.522438
O O13 0.662068 0.225826 0.593989
O O14 0.000000 0.732517 0.490605
O O15 0.899556 0.000000 0.468922
O O16 0.500000 0.226024 0.655196
O O17 0.401021 0.500000 0.647673
#
# Coordination Sequence:
#
# PCOD9357087 Si02
#       6
#     8   8   8   8   8   8
#     4  10  19  33  54  80 107 140 180 220 265 316
#     4   9  17  32  55  81 107 138 179 221 261 312
#     4   9  16  28  50  78 102 128 173 226 264 302
#     4  10  19  35  56  77 103 141 184 220 258 313
#     4  10  20  33  52  81 113 140 168 214 275 323
#     4  10  22  38  55  77 108 145 180 219 269 318
#
# _framework density 19.984676
#
# number of rings (size 3 to 8) (size 9 to 14) (size 15 to 20)
#    0.000    2.333    1.667    1.500    0.000    5.333 
#    0.000    0.833    0.000    4.500    0.000    0.000 
#    0.000    0.000    0.000    0.000    0.000    0.000 
#
# Total GULP energy -133952.946050 kJ/mol
# GULP energy per Si atom -5581.372752 kJ/mol
# Density = 1.993919 g / cm^3
# Si number density = 19.984676 Si / 1000 Ang^3
#
#
#
# Elastic Constant Matrix: (Units=GPa)
#
#
# Indices 1 2 3 4 5 6 
#
# 1 201.8274 4.4420 107.8674 0.0000 0.0000 0.0000
# 2 4.4420 30.1542 1.9115 0.0000 0.0000 0.0000
# 3 107.8674 1.9115 156.1051 0.0000 0.0000 0.0000
# 4 0.0000 0.0000 0.0000 21.3879 0.0000 0.0000
# 5 0.0000 0.0000 0.0000 0.0000 30.3074 0.0000
# 6 0.0000 0.0000 0.0000 0.0000 0.0000 12.5553
#
#
#
# Elastic Compliance Matrix: (Units=1/GPa)
#
#
# Indices 1 2 3 4 5 6 
#
# 1 0.007876 -0.000816 -0.005432 0.000000 0.000000 0.000000
# 2 -0.000816 0.033273 0.000156 0.000000 0.000000 0.000000
# 3 -0.005432 0.000156 0.010158 0.000000 0.000000 0.000000
# 4 0.000000 0.000000 0.000000 0.046755 0.000000 0.000000
# 5 0.000000 0.000000 0.000000 0.000000 0.032995 0.000000
# 6 0.000000 0.000000 0.000000 0.000000 0.000000 0.079648
#
#
# Mechanical properties :
#
#
# Convention : Reuss Voigt Hill
#
# Bulk Modulus (GPa) = 25.56022 68.50317 47.03170
# Shear Modulus (GPa) = 21.19273 31.10784 26.15028
#
# Velocity S-wave (km/s) = 3.25999 3.94964 3.62127
# Velocity P-wave (km/s) = 5.19497 7.42642 6.40857
#
# Compressibility (1/GPa) = 0.03912329
#
# Stress axis : x y z
#
# Youngs Moduli (GPa) = 126.96856 30.05423 98.44787
#
# Poissons Ratio (x) = 0.02452 0.53479
# Poissons Ratio (y) = 0.10359 -0.01539
# Poissons Ratio (z) = 0.68972 -0.00470
#
# Static dielectric constant tensor:
#      x y z
#    x 1.736150 0.000000 0.000000 
#    y 0.000000 1.746900 0.000000 
#    z 0.000000 0.000000 1.661050 
# 
# From -- ./inp_files/18143.got.cif
#   From: 2010.05.17/outbox.cif.g08.bks.cpg/sg38_10_cif.got.tgz:18143.got - 2010.06.03 18:07:57.
