data_PCOD9357579
_publ_section_title
;
Structure prediction by ZEFSAII (Michael W. Deem and Ramdas Pophale) SiO2 
 PCOD9357579
Probable space group: A M M 2
;
_chemical_formula_sum "Si O2"
_cell_formula_units_Z 56
_cell_length_a 8.675588
_cell_length_b 16.702186
_cell_length_c 23.650569
_cell_angle_alpha 90.000000
_cell_angle_beta 90.000000
_cell_angle_gamma 90.000000
_cell_volume 3426.997826
_symmetry_space_group_name_H-M "A M M 2"
_symmetry_group_IT_number 38
_symmetry_cell_setting 'orthorhombic'
loop_
_space_group_symop_operation_xyz
x,y,z
-x,-y,z
-x,y,z
x,-y,z
x,1/2+y,1/2+z
-x,1/2-y,1/2+z
-x,1/2+y,1/2+z
x,1/2-y,1/2+z
loop_
_atom_site_type_symbol
_atom_site_label
_atom_site_fract_x
_atom_site_fract_y
_atom_site_fract_z
Si Si1 0.186902 0.500000 0.402010
Si Si2 0.814559 0.500000 0.271749
Si Si3 0.815395 0.654358 0.473178
Si Si4 0.316634 0.755612 0.377202
Si Si5 0.815129 0.591547 0.820319
Si Si6 0.685104 0.671186 0.259901
Si Si7 0.315227 0.093497 0.089023
Si Si8 0.815818 0.673896 0.701662
O O1 0.238590 0.500000 0.337482
O O2 0.236968 0.422206 0.436118
O O3 0.000000 0.500000 0.400979
O O4 0.751494 0.583383 0.247345
O O5 0.000000 0.500000 0.269569
O O6 0.760741 0.728357 0.435339
O O7 0.745180 0.642114 0.534838
O O8 0.000000 0.653890 0.477386
O O9 0.500000 0.748318 0.381897
O O10 0.268786 0.844829 0.359874
O O11 0.265754 0.700216 0.323414
O O12 0.770290 0.500000 0.830036
O O13 0.781571 0.617516 0.755769
O O14 0.000000 0.598916 0.827917
O O15 0.500000 0.669555 0.258703
O O16 0.746242 0.739594 0.217686
O O17 0.500000 0.094184 0.089441
O O18 0.252816 0.134282 0.145801
O O19 0.264011 0.000000 0.085189
O O20 0.000000 0.680680 0.696398
#
# Coordination Sequence:
#
# PCOD9357579 Si02
#       8
#     4   4   8   8   8   8   8   8
#     4   9  18  29  47  73 103 135 171 210 245 288
#     4  11  19  31  51  77 105 137 175 212 253 304
#     4  11  20  34  52  74 103 138 176 211 248 297
#     4  10  20  32  48  74 106 137 168 207 259 309
#     4   9  18  33  53  76 101 132 172 214 255 300
#     4  10  20  33  49  74 106 138 170 210 261 310
#     4  11  23  36  51  75 106 139 172 210 256 305
#     4  10  20  35  54  75 101 136 176 216 254 300
#
# _framework density 16.340831999999999
#
# number of rings (size 3 to 8) (size 9 to 14) (size 15 to 20)
#    0.000    1.857    2.143    2.786    0.000    3.429 
#    0.000    0.000    0.000    0.000    1.857    0.000 
#    0.000    0.000    0.000    0.000    0.000    0.000 
#
# Total GULP energy -156285.449605 kJ/mol
# GULP energy per Si atom -5581.623200 kJ/mol
# Density = 1.630364 g / cm^3
# Si number density = 16.340832 Si / 1000 Ang^3
#
#
#
# Elastic Constant Matrix: (Units=GPa)
#
#
# Indices 1 2 3 4 5 6 
#
# 1 55.2570 40.6332 39.3765 0.0000 0.0000 0.0000
# 2 40.6332 115.3900 50.4066 0.0000 0.0000 0.0000
# 3 39.3765 50.4066 105.5624 0.0000 0.0000 0.0000
# 4 0.0000 0.0000 0.0000 23.1022 0.0000 0.0000
# 5 0.0000 0.0000 0.0000 0.0000 25.7506 0.0000
# 6 0.0000 0.0000 0.0000 0.0000 0.0000 26.6663
#
#
#
# Elastic Compliance Matrix: (Units=1/GPa)
#
#
# Indices 1 2 3 4 5 6 
#
# 1 0.028288 -0.006763 -0.007323 0.000000 0.000000 0.000000
# 2 -0.006763 0.012567 -0.003478 0.000000 0.000000 0.000000
# 3 -0.007323 -0.003478 0.013866 0.000000 0.000000 0.000000
# 4 0.000000 0.000000 0.000000 0.043286 0.000000 0.000000
# 5 0.000000 0.000000 0.000000 0.000000 0.038834 0.000000
# 6 0.000000 0.000000 0.000000 0.000000 0.000000 0.037501
#
#
# Mechanical properties :
#
#
# Convention : Reuss Voigt Hill
#
# Bulk Modulus (GPa) = 51.03717 59.67134 55.35426
# Shear Modulus (GPa) = 23.14812 24.82335 23.98573
#
# Velocity S-wave (km/s) = 3.76783 3.90179 3.83540
# Velocity P-wave (km/s) = 7.08728 7.54285 7.31861
#
# Compressibility (1/GPa) = 0.01959356
#
# Stress axis : x y z
#
# Youngs Moduli (GPa) = 35.35010 79.57320 72.12121
#
# Poissons Ratio (x) = 0.53812 0.52814
# Poissons Ratio (y) = 0.23906 0.25086
# Poissons Ratio (z) = 0.25887 0.27678
#
# Static dielectric constant tensor:
#      x y z
#    x 1.545080 0.000000 0.000000 
#    y 0.000000 1.547820 0.000000 
#    z 0.000000 0.000000 1.526260 
# 
# From -- ./inp_files/19863.got.cif
#   From: 2010.05.17/outbox.cif.g08.bks.cpg/sg38_10_cif.got.tgz:19863.got - 2010.06.03 18:07:57.
