data_PCOD9357243
_publ_section_title
;
Structure prediction by ZEFSAII (Michael W. Deem and Ramdas Pophale) SiO2 
 PCOD9357243
Probable space group: A M M 2
;
_chemical_formula_sum "Si O2"
_cell_formula_units_Z 46
_cell_length_a 24.427837
_cell_length_b 17.595674
_cell_length_c 5.022627
_cell_angle_alpha 90.000000
_cell_angle_beta 90.000000
_cell_angle_gamma 90.000000
_cell_volume 2158.846915
_symmetry_space_group_name_H-M "A M M 2"
_symmetry_group_IT_number 38
_symmetry_cell_setting 'orthorhombic'
loop_
_space_group_symop_operation_xyz
x,y,z
-x,-y,z
-x,y,z
x,-y,z
x,1/2+y,1/2+z
-x,1/2-y,1/2+z
-x,1/2+y,1/2+z
x,1/2-y,1/2+z
loop_
_atom_site_type_symbol
_atom_site_label
_atom_site_fract_x
_atom_site_fract_y
_atom_site_fract_z
Si Si1 0.291078 0.909097 0.475690
Si Si2 0.436586 0.198901 0.736864
Si Si3 0.000000 0.198461 0.827764
Si Si4 0.391777 0.415815 0.633375
Si Si5 0.777685 0.091166 0.963605
Si Si6 0.500000 0.500000 0.786598
Si Si7 0.881577 0.804595 0.935192
O O1 0.346909 0.883310 0.334400
O O2 0.269562 0.881202 0.759037
O O3 0.297391 0.000000 0.501014
O O4 0.243430 0.894059 0.260989
O O5 0.500000 0.174747 0.760551
O O6 0.428623 0.268904 0.942952
O O7 0.401587 0.132575 0.869666
O O8 0.942206 0.159969 0.894009
O O9 0.000000 0.272329 0.024351
O O10 0.371398 0.500000 0.547034
O O11 0.450685 0.435008 0.767822
O O12 0.784272 0.000000 0.931861
O O13 0.833359 0.135190 0.906329
O O14 0.877495 0.762397 0.217405
#
# Coordination Sequence:
#
# PCOD9357243 Si02
#       7
#     8   8   4   8   8   2   8
#     4   9  19  34  56  75 106 137 177 215 271 314
#     4  10  20  35  52  73 101 130 156 196 258 316
#     4   8  16  30  51  78 109 144 178 216 268 312
#     4   9  17  35  59  80 102 132 178 223 259 319
#     4  10  20  36  54  78 104 146 177 217 261 324
#     4   8  16  32  64  82 104 122 190 224 272 298
#     4  10  19  34  56  82 111 144 183 225 263 310
#
# _framework density 21.307670999999999
#
# number of rings (size 3 to 8) (size 9 to 14) (size 15 to 20)
#    0.522    2.087    0.870    1.043    0.000    1.391 
#    0.000    8.261    0.000    7.304    0.000   10.957 
#    0.000    0.000    0.000    0.000    0.000    0.000 
#
# Total GULP energy -128128.508192 kJ/mol
# GULP energy per Si atom -5570.804704 kJ/mol
# Density = 2.125917 g / cm^3
# Si number density = 21.307671 Si / 1000 Ang^3
#
#
#
# Elastic Constant Matrix: (Units=GPa)
#
#
# Indices 1 2 3 4 5 6 
#
# 1 130.8360 23.8301 11.9026 0.0000 0.0000 0.0000
# 2 23.8301 31.8701 1.8504 0.0000 0.0000 0.0000
# 3 11.9026 1.8504 71.2669 0.0000 0.0000 0.0000
# 4 0.0000 0.0000 0.0000 16.4888 0.0000 0.0000
# 5 0.0000 0.0000 0.0000 0.0000 24.6680 0.0000
# 6 0.0000 0.0000 0.0000 0.0000 0.0000 35.3698
#
#
#
# Elastic Compliance Matrix: (Units=1/GPa)
#
#
# Indices 1 2 3 4 5 6 
#
# 1 0.008972 -0.006631 -0.001326 0.000000 0.000000 0.000000
# 2 -0.006631 0.036326 0.000164 0.000000 0.000000 0.000000
# 3 -0.001326 0.000164 0.014249 0.000000 0.000000 0.000000
# 4 0.000000 0.000000 0.000000 0.060647 0.000000 0.000000
# 5 0.000000 0.000000 0.000000 0.000000 0.040538 0.000000
# 6 0.000000 0.000000 0.000000 0.000000 0.000000 0.028273
#
#
# Mechanical properties :
#
#
# Convention : Reuss Voigt Hill
#
# Bulk Modulus (GPa) = 22.74770 34.34879 28.54825
# Shear Modulus (GPa) = 22.80555 28.39798 25.60177
#
# Velocity S-wave (km/s) = 3.27509 3.65466 3.47007
# Velocity P-wave (km/s) = 5.00006 5.82787 5.42977
#
# Compressibility (1/GPa) = 0.04396049
#
# Stress axis : x y z
#
# Youngs Moduli (GPa) = 111.46266 27.52833 70.18040
#
# Poissons Ratio (x) = 0.18255 0.09307
# Poissons Ratio (y) = 0.73914 -0.01153
# Poissons Ratio (z) = 0.14782 -0.00452
#
# Static dielectric constant tensor:
#      x y z
#    x 1.808590 0.000000 0.000000 
#    y 0.000000 1.798020 0.000000 
#    z 0.000000 0.000000 1.803200 
# 
# From -- ./inp_files/2092.got.cif
#   From: 2010.05.17/outbox.cif.g08.bks.cpg/sg38_2_cif.got.tgz:2092.got - 2010.06.03 18:07:57.
