data_PCOD9357635
_publ_section_title
;
Structure prediction by ZEFSAII (Michael W. Deem and Ramdas Pophale) SiO2 
 PCOD9357635
Probable space group: A M M 2
;
_chemical_formula_sum "Si O2"
_cell_formula_units_Z 40
_cell_length_a 7.920327
_cell_length_b 7.527582
_cell_length_c 34.003268
_cell_angle_alpha 90.000000
_cell_angle_beta 90.000000
_cell_angle_gamma 90.000000
_cell_volume 2027.305814
_symmetry_space_group_name_H-M "A M M 2"
_symmetry_group_IT_number 38
_symmetry_cell_setting 'orthorhombic'
loop_
_space_group_symop_operation_xyz
x,y,z
-x,-y,z
-x,y,z
x,-y,z
x,1/2+y,1/2+z
-x,1/2-y,1/2+z
-x,1/2+y,1/2+z
x,1/2-y,1/2+z
loop_
_atom_site_type_symbol
_atom_site_label
_atom_site_fract_x
_atom_site_fract_y
_atom_site_fract_z
Si Si1 0.298825 0.500000 0.863821
Si Si2 0.698214 0.787494 0.798920
Si Si3 0.305791 0.282686 0.597248
Si Si4 0.000000 0.710150 0.649988
Si Si5 0.701130 0.698243 0.510630
Si Si6 0.000000 0.712854 0.241762
Si Si7 0.194859 0.500000 0.953208
O O1 0.500000 0.500000 0.869783
O O2 0.258288 0.327294 0.837468
O O3 0.219749 0.500000 0.906668
O O4 0.500000 0.752227 0.789169
O O5 0.830731 0.732413 0.765203
O O6 0.714251 0.000000 0.805546
O O7 0.500000 0.223715 0.603739
O O8 0.310917 0.500000 0.597110
O O9 0.170880 0.221011 0.629433
O O10 0.242615 0.232450 0.553447
O O11 0.000000 0.500000 0.641930
O O12 0.000000 0.732935 0.696588
O O13 0.500000 0.684107 0.515388
O O14 0.770301 0.500000 0.503935
O O15 0.731766 0.827571 0.474621
O O16 0.000000 0.500000 0.242398
O O17 0.000000 0.500000 0.962636
#
# Coordination Sequence:
#
# PCOD9357635 Si02
#       7
#     4   8   8   4   8   4   4
#     4  10  22  40  62  86 114 152 196 241 287 350
#     4   9  20  39  62  85 112 151 193 237 292 349
#     4   8  16  33  55  79 110 151 198 239 287 346
#     4  10  20  32  54  84 111 147 184 240 295 343
#     4   9  19  39  63  81 111 163 207 247 293 343
#     4  10  22  38  56  82 115 151 186 235 292 358
#     4  12  26  36  54  96 128 154 194 250 298 361
#
# _framework density 19.730618
#
# number of rings (size 3 to 8) (size 9 to 14) (size 15 to 20)
#    0.000    2.600    0.000    2.100    4.200    2.000 
#    1.800    2.000    0.000    0.000    0.000    0.000 
#    0.000    0.000    0.000    0.000    0.000    0.000 
#
# Total GULP energy -111562.328200 kJ/mol
# GULP energy per Si atom -5578.116410 kJ/mol
# Density = 1.968571 g / cm^3
# Si number density = 19.730618 Si / 1000 Ang^3
#
#
#
# Elastic Constant Matrix: (Units=GPa)
#
#
# Indices 1 2 3 4 5 6 
#
# 1 85.8934 28.1052 68.7213 0.0000 0.0000 0.0000
# 2 28.1052 68.0505 42.1174 0.0000 0.0000 0.0000
# 3 68.7213 42.1174 146.3264 0.0000 0.0000 0.0000
# 4 0.0000 0.0000 0.0000 42.0907 0.0000 0.0000
# 5 0.0000 0.0000 0.0000 0.0000 38.0854 0.0000
# 6 0.0000 0.0000 0.0000 0.0000 0.0000 7.2147
#
#
#
# Elastic Compliance Matrix: (Units=1/GPa)
#
#
# Indices 1 2 3 4 5 6 
#
# 1 0.019091 -0.002842 -0.008148 0.000000 0.000000 0.000000
# 2 -0.002842 0.018303 -0.003934 0.000000 0.000000 0.000000
# 3 -0.008148 -0.003934 0.011793 0.000000 0.000000 0.000000
# 4 0.000000 0.000000 0.000000 0.023758 0.000000 0.000000
# 5 0.000000 0.000000 0.000000 0.000000 0.026257 0.000000
# 6 0.000000 0.000000 0.000000 0.000000 0.000000 0.138606
#
#
# Mechanical properties :
#
#
# Convention : Reuss Voigt Hill
#
# Bulk Modulus (GPa) = 51.70529 64.23978 57.97253
# Shear Modulus (GPa) = 18.24135 28.23325 23.23730
#
# Velocity S-wave (km/s) = 3.04389 3.78688 3.43553
# Velocity P-wave (km/s) = 6.21419 7.19372 6.72183
#
# Compressibility (1/GPa) = 0.01934038
#
# Stress axis : x y z
#
# Youngs Moduli (GPa) = 52.37973 54.63520 84.79610
#
# Poissons Ratio (x) = 0.15526 0.69093
# Poissons Ratio (y) = 0.14885 0.33356
# Poissons Ratio (z) = 0.42680 0.21491
#
# Static dielectric constant tensor:
#      x y z
#    x 1.699700 0.000000 0.000000 
#    y 0.000000 1.698160 0.000000 
#    z 0.000000 0.000000 1.657390 
# 
# From -- ./inp_files/23304.got.cif
#   From: 2010.05.17/outbox.cif.g08.bks.cpg/sg38_12_cif.got.tgz:23304.got - 2010.06.03 18:07:57.
