data_PCOD9357158
_publ_section_title
;
Structure prediction by ZEFSAII (Michael W. Deem and Ramdas Pophale) SiO2 
 PCOD9357158
Probable space group: A M M 2
;
_chemical_formula_sum "Si O2"
_cell_formula_units_Z 64
_cell_length_a 12.809173
_cell_length_b 28.254488
_cell_length_c 9.853881
_cell_angle_alpha 90.000000
_cell_angle_beta 90.000000
_cell_angle_gamma 90.000000
_cell_volume 3566.283353
_symmetry_space_group_name_H-M "A M M 2"
_symmetry_group_IT_number 38
_symmetry_cell_setting 'orthorhombic'
loop_
_space_group_symop_operation_xyz
x,y,z
-x,-y,z
-x,y,z
x,-y,z
x,1/2+y,1/2+z
-x,1/2-y,1/2+z
-x,1/2+y,1/2+z
x,1/2-y,1/2+z
loop_
_atom_site_type_symbol
_atom_site_label
_atom_site_fract_x
_atom_site_fract_y
_atom_site_fract_z
Si Si1 0.753134 0.446234 0.936130
Si Si2 0.300905 0.878027 0.938810
Si Si3 0.249927 0.228820 0.327129
Si Si4 0.620917 0.280253 0.550693
Si Si5 0.622498 0.444130 0.667217
Si Si6 0.122749 0.146962 0.470039
Si Si7 0.875970 0.174201 0.785824
Si Si8 0.379843 0.446799 0.208816
O O1 0.793558 0.500000 0.920384
O O2 0.668565 0.438155 0.817555
O O3 0.839465 0.405757 0.935983
O O4 0.693683 0.443077 0.079097
O O5 0.188216 0.860222 0.886501
O O6 0.353214 0.906928 0.816823
O O7 0.364140 0.831102 0.979404
O O8 0.308099 0.912933 0.066407
O O9 0.330983 0.242827 0.445396
O O10 0.311523 0.220269 0.187847
O O11 0.186041 0.183670 0.377707
O O12 0.172603 0.273597 0.306856
O O13 0.500000 0.271058 0.579440
O O14 0.500000 0.430281 0.658195
O O15 0.628440 0.500000 0.633771
O O16 0.142577 0.158498 0.629588
O O17 0.000000 0.152581 0.447026
O O18 0.000000 0.173888 0.810909
O O19 0.500000 0.442635 0.165885
O O20 0.366554 0.500000 0.267807
#
# Coordination Sequence:
#
# PCOD9357158 Si02
#       8
#     8   8   8   8   8   8   8   8
#     4  10  21  38  58  88 123 155 196 244 297 358
#     4  11  21  36  57  86 117 152 196 244 296 348
#     4  11  22  42  62  89 116 154 202 242 293 349
#     4  11  23  38  59  86 124 158 189 237 295 363
#     4  10  20  36  59  86 122 161 194 238 295 355
#     4  11  22  40  64  88 116 156 202 248 300 347
#     4  10  22  41  61  85 116 151 198 252 298 344
#     4  10  19  33  56  84 116 154 199 244 288 349
#
# _framework density 17.945855000000002
#
# number of rings (size 3 to 8) (size 9 to 14) (size 15 to 20)
#    0.000    1.500    2.500    3.375    0.000    2.750 
#    0.000    6.875    0.000    2.250    0.000    0.000 
#    0.000    0.000    0.000    0.000    0.000    0.000 
#
# Total GULP energy -178700.711604 kJ/mol
# GULP energy per Si atom -5584.397238 kJ/mol
# Density = 1.790501 g / cm^3
# Si number density = 17.945855 Si / 1000 Ang^3
#
#
#
# Elastic Constant Matrix: (Units=GPa)
#
#
# Indices 1 2 3 4 5 6 
#
# 1 97.7649 53.0545 40.3603 0.0000 0.0000 0.0000
# 2 53.0545 104.5872 49.6263 0.0000 0.0000 0.0000
# 3 40.3603 49.6263 97.7167 0.0000 0.0000 0.0000
# 4 0.0000 0.0000 0.0000 92.6144 0.0000 0.0000
# 5 0.0000 0.0000 0.0000 0.0000 23.0558 0.0000
# 6 0.0000 0.0000 0.0000 0.0000 0.0000 -14.0317
#
#
#
# Elastic Compliance Matrix: (Units=1/GPa)
#
#
# Indices 1 2 3 4 5 6 
#
# 1 0.014762 -0.006054 -0.003022 0.000000 0.000000 0.000000
# 2 -0.006054 0.015080 -0.005158 0.000000 0.000000 0.000000
# 3 -0.003022 -0.005158 0.014102 0.000000 0.000000 0.000000
# 4 0.000000 0.000000 0.000000 0.010797 0.000000 0.000000
# 5 0.000000 0.000000 0.000000 0.000000 0.043373 0.000000
# 6 0.000000 0.000000 0.000000 0.000000 0.000000 -0.071267
#
#
# Mechanical properties :
#
#
# Convention : Reuss Voigt Hill
#
# Bulk Modulus (GPa) = 64.62360 65.12788 64.87574
# Shear Modulus (GPa) = 82.68055 30.79621 56.73838
#
# Velocity S-wave (km/s) = 6.79502 4.14703 5.62895
# Velocity P-wave (km/s) = 9.88188 7.70069 8.85867
#
# Compressibility (1/GPa) = 0.01547422
#
# Stress axis : x y z
#
# Youngs Moduli (GPa) = 67.74231 66.31331 70.91424
#
# Poissons Ratio (x) = 0.40147 0.21434
# Poissons Ratio (y) = 0.41012 0.36577
# Poissons Ratio (z) = 0.20475 0.34204
#
# Static dielectric constant tensor:
#      x y z
#    x 1.579290 0.000000 0.000000 
#    y 0.000000 1.617210 0.000000 
#    z 0.000000 0.000000 1.603000 
# 
# From -- ./inp_files/4917.got.cif
#   From: 2010.05.17/outbox.cif.g08.bks.cpg/sg38_3_cif.got.tgz:4917.got - 2010.06.03 18:07:57.
