data_PCOD9357862
_publ_section_title
;
Structure prediction by ZEFSAII (Michael W. Deem and Ramdas Pophale) SiO2 
 PCOD9357862
Probable space group: A M M 2
;
_chemical_formula_sum "Si O2"
_cell_formula_units_Z 48
_cell_length_a 15.863521
_cell_length_b 8.919948
_cell_length_c 18.854464
_cell_angle_alpha 90.000000
_cell_angle_beta 90.000000
_cell_angle_gamma 90.000000
_cell_volume 2667.940263
_symmetry_space_group_name_H-M "A M M 2"
_symmetry_group_IT_number 38
_symmetry_cell_setting 'orthorhombic'
loop_
_space_group_symop_operation_xyz
x,y,z
-x,-y,z
-x,y,z
x,-y,z
x,1/2+y,1/2+z
-x,1/2-y,1/2+z
-x,1/2+y,1/2+z
x,1/2-y,1/2+z
loop_
_atom_site_type_symbol
_atom_site_label
_atom_site_fract_x
_atom_site_fract_y
_atom_site_fract_z
Si Si1 0.846626 0.167901 0.072820
Si Si2 0.267675 0.822274 0.679284
Si Si3 0.193266 0.819574 0.316219
Si Si4 0.597341 0.319756 0.059102
Si Si5 0.000000 0.175714 0.326919
Si Si6 0.000000 0.324725 0.996988
Si Si7 0.288773 0.331401 0.448022
O O1 0.814001 0.277326 0.133446
O O2 0.921938 0.241725 0.031075
O O3 0.865456 0.000000 0.100108
O O4 0.773828 0.155951 0.014580
O O5 0.252685 0.734712 0.752059
O O6 0.346090 0.777097 0.628136
O O7 0.272585 0.000000 0.691958
O O8 0.094581 0.766571 0.306031
O O9 0.237216 0.755036 0.387140
O O10 0.190619 0.000000 0.320662
O O11 0.500000 0.278468 0.069468
O O12 0.604360 0.500000 0.053827
O O13 0.632986 0.251544 0.985661
O O14 0.000000 0.187692 0.412260
O O15 0.000000 0.000000 0.306246
O O16 0.000000 0.500000 0.014382
O O17 0.310417 0.500000 0.423542
#
# Coordination Sequence:
#
# PCOD9357862 Si02
#       7
#     8   8   8   8   4   4   8
#     4  10  20  34  52  77 107 142 184 228 277 331
#     4  10  21  37  56  81 112 147 186 232 285 339
#     4  11  21  37  57  80 113 154 194 235 282 333
#     4   9  19  38  63  86 109 142 184 230 283 342
#     4   9  20  34  53  78 107 147 193 236 278 321
#     4  11  19  32  53  78 105 141 191 238 280 323
#     4  10  20  34  55  83 112 142 180 227 278 334
#
# _framework density 17.991408
#
# number of rings (size 3 to 8) (size 9 to 14) (size 15 to 20)
#    0.000    2.000    1.667    2.250    0.000    3.000 
#    0.000    5.000    0.000    3.000    0.000    0.000 
#    0.000    0.000    0.000    0.000    0.000    0.000 
#
# Total GULP energy -133668.113241 kJ/mol
# GULP energy per Si atom -5569.504718 kJ/mol
# Density = 1.795046 g / cm^3
# Si number density = 17.991408 Si / 1000 Ang^3
#
#
#
# Elastic Constant Matrix: (Units=GPa)
#
#
# Indices 1 2 3 4 5 6 
#
# 1 104.4250 40.1108 28.7072 0.0000 0.0000 0.0000
# 2 40.1108 59.3756 26.5633 0.0000 0.0000 0.0000
# 3 28.7072 26.5633 73.2396 0.0000 0.0000 0.0000
# 4 0.0000 0.0000 0.0000 31.4420 0.0000 0.0000
# 5 0.0000 0.0000 0.0000 0.0000 106.7471 0.0000
# 6 0.0000 0.0000 0.0000 0.0000 0.0000 35.0841
#
#
#
# Elastic Compliance Matrix: (Units=1/GPa)
#
#
# Indices 1 2 3 4 5 6 
#
# 1 0.013255 -0.007914 -0.002325 0.000000 0.000000 0.000000
# 2 -0.007914 0.024829 -0.005903 0.000000 0.000000 0.000000
# 3 -0.002325 -0.005903 0.016706 0.000000 0.000000 0.000000
# 4 0.000000 0.000000 0.000000 0.031805 0.000000 0.000000
# 5 0.000000 0.000000 0.000000 0.000000 0.009368 0.000000
# 6 0.000000 0.000000 0.000000 0.000000 0.000000 0.028503
#
#
# Mechanical properties :
#
#
# Convention : Reuss Voigt Hill
#
# Bulk Modulus (GPa) = 44.43359 47.53366 45.98362
# Shear Modulus (GPa) = 30.44065 44.09858 37.26961
#
# Velocity S-wave (km/s) = 4.11780 4.95622 4.55634
# Velocity P-wave (km/s) = 6.88179 7.69608 7.30030
#
# Compressibility (1/GPa) = 0.02250550
#
# Stress axis : x y z
#
# Youngs Moduli (GPa) = 75.44045 40.27478 59.85788
#
# Poissons Ratio (x) = 0.31875 0.13918
# Poissons Ratio (y) = 0.59707 0.35335
# Poissons Ratio (z) = 0.17541 0.23775
#
# Static dielectric constant tensor:
#      x y z
#    x 1.560350 0.000000 0.000000 
#    y 0.000000 1.634320 0.000000 
#    z 0.000000 0.000000 1.613380 
# 
# From -- ./inp_files/18171.got.cif
#   From: 2010.05.17/outbox.cif.g08.bks.cpg/sg38_10_cif.got.tgz:18171.got - 2010.06.03 18:07:57.
