data_PCOD9357743
_publ_section_title
;
Structure prediction by ZEFSAII (Michael W. Deem and Ramdas Pophale) SiO2 
 PCOD9357743
Probable space group: A M M 2
;
_chemical_formula_sum "Si O2"
_cell_formula_units_Z 56
_cell_length_a 8.840402
_cell_length_b 24.289375
_cell_length_c 14.099770
_cell_angle_alpha 90.000000
_cell_angle_beta 90.000000
_cell_angle_gamma 90.000000
_cell_volume 3027.613147
_symmetry_space_group_name_H-M "A M M 2"
_symmetry_group_IT_number 38
_symmetry_cell_setting 'orthorhombic'
loop_
_space_group_symop_operation_xyz
x,y,z
-x,-y,z
-x,y,z
x,-y,z
x,1/2+y,1/2+z
-x,1/2-y,1/2+z
-x,1/2+y,1/2+z
x,1/2-y,1/2+z
loop_
_atom_site_type_symbol
_atom_site_label
_atom_site_fract_x
_atom_site_fract_y
_atom_site_fract_z
Si Si1 0.180857 0.830726 0.907790
Si Si2 0.679653 0.616537 0.898146
Si Si3 0.181132 0.437110 0.715233
Si Si4 0.681047 0.833662 0.111288
Si Si5 0.680492 0.768615 0.298353
Si Si6 0.180808 0.935116 0.579883
Si Si7 0.815843 0.062107 0.797555
O O1 0.231121 0.784261 0.833829
O O2 0.232707 0.890249 0.868633
O O3 0.000000 0.831449 0.916720
O O4 0.254030 0.819010 0.009328
O O5 0.500000 0.607994 0.889303
O O6 0.763022 0.578562 0.820667
O O7 0.710952 0.679447 0.867649
O O8 0.735547 0.601198 0.002283
O O9 0.223092 0.500000 0.692887
O O10 0.254328 0.392359 0.645713
O O11 0.000000 0.432321 0.710955
O O12 0.500000 0.836577 0.108708
O O13 0.722328 0.789916 0.193452
O O14 0.500000 0.758078 0.300389
O O15 0.227497 0.924744 0.688793
O O16 0.000000 0.926406 0.572755
O O17 0.208898 0.000000 0.560847
O O18 0.000000 0.061222 0.798215
O O19 0.765053 0.000000 0.820841
#
# Coordination Sequence:
#
# PCOD9357743 Si02
#       7
#     8   8   8   8   8   8   8
#     4  11  22  36  60  88 108 136 179 224 272 323
#     4  10  20  33  51  77 110 148 186 225 276 332
#     4  10  20  34  54  81 112 146 186 232 278 323
#     4  10  22  40  59  80 111 148 183 222 272 330
#     4   9  21  40  56  74 106 146 182 219 267 321
#     4   9  17  31  52  77 107 144 182 222 271 323
#     4   8  17  35  55  77 108 141 174 216 266 320
#
# _framework density 18.496418999999999
#
# number of rings (size 3 to 8) (size 9 to 14) (size 15 to 20)
#    0.000    2.429    0.000    3.857    0.000    8.286 
#    0.000    5.714    0.000    3.000    0.000    0.000 
#    0.000    0.000    0.000    0.000    0.000    0.000 
#
# Total GULP energy -156290.632925 kJ/mol
# GULP energy per Si atom -5581.808319 kJ/mol
# Density = 1.845432 g / cm^3
# Si number density = 18.496419 Si / 1000 Ang^3
#
#
#
# Elastic Constant Matrix: (Units=GPa)
#
#
# Indices 1 2 3 4 5 6 
#
# 1 38.5173 40.6788 33.4743 0.0000 0.0000 0.0000
# 2 40.6788 92.9592 63.6812 0.0000 0.0000 0.0000
# 3 33.4743 63.6812 102.1794 0.0000 0.0000 0.0000
# 4 0.0000 0.0000 0.0000 14.4279 0.0000 0.0000
# 5 0.0000 0.0000 0.0000 0.0000 23.8912 0.0000
# 6 0.0000 0.0000 0.0000 0.0000 0.0000 -15.7145
#
#
#
# Elastic Compliance Matrix: (Units=1/GPa)
#
#
# Indices 1 2 3 4 5 6 
#
# 1 0.049556 -0.018434 -0.004746 0.000000 0.000000 0.000000
# 2 -0.018434 0.025629 -0.009934 0.000000 0.000000 0.000000
# 3 -0.004746 -0.009934 0.017532 0.000000 0.000000 0.000000
# 4 0.000000 0.000000 0.000000 0.069310 0.000000 0.000000
# 5 0.000000 0.000000 0.000000 0.000000 0.041856 0.000000
# 6 0.000000 0.000000 0.000000 0.000000 0.000000 -0.063636
#
#
# Mechanical properties :
#
#
# Convention : Reuss Voigt Hill
#
# Bulk Modulus (GPa) = 37.75065 56.59160 47.17113
# Shear Modulus (GPa) = 23.22275 10.90904 17.06590
#
# Velocity S-wave (km/s) = 3.54719 2.43120 3.04083
# Velocity P-wave (km/s) = 6.10170 6.20833 6.15525
#
# Compressibility (1/GPa) = 0.02648961
#
# Stress axis : x y z
#
# Youngs Moduli (GPa) = 20.17934 39.01766 57.03703
#
# Poissons Ratio (x) = 0.71927 0.27068
# Poissons Ratio (y) = 0.37200 0.56660
# Poissons Ratio (z) = 0.09576 0.38760
#
# Static dielectric constant tensor:
#      x y z
#    x 1.624360 0.000000 0.000000 
#    y 0.000000 1.629580 0.000000 
#    z 0.000000 0.000000 1.626840 
# 
# From -- ./inp_files/12439.got.cif
#   From: 2010.05.17/outbox.cif.g08.bks.cpg/sg38_7_cif.got.tgz:12439.got - 2010.06.03 18:07:57.
