data_PCOD9357581
_publ_section_title
;
Structure prediction by ZEFSAII (Michael W. Deem and Ramdas Pophale) SiO2 
 PCOD9357581
Probable space group: A M M 2
;
_chemical_formula_sum "Si O2"
_cell_formula_units_Z 64
_cell_length_a 9.799250
_cell_length_b 13.881323
_cell_length_c 24.877247
_cell_angle_alpha 90.000000
_cell_angle_beta 90.000000
_cell_angle_gamma 90.000000
_cell_volume 3383.966193
_symmetry_space_group_name_H-M "A M M 2"
_symmetry_group_IT_number 38
_symmetry_cell_setting 'orthorhombic'
loop_
_space_group_symop_operation_xyz
x,y,z
-x,-y,z
-x,y,z
x,-y,z
x,1/2+y,1/2+z
-x,1/2-y,1/2+z
-x,1/2+y,1/2+z
x,1/2-y,1/2+z
loop_
_atom_site_type_symbol
_atom_site_label
_atom_site_fract_x
_atom_site_fract_y
_atom_site_fract_z
Si Si1 0.659286 0.108879 0.950970
Si Si2 0.347550 0.386520 0.739094
Si Si3 0.153956 0.615169 0.645635
Si Si4 0.339468 0.611435 0.133793
Si Si5 0.158575 0.681686 0.357348
Si Si6 0.338695 0.791135 0.059639
Si Si7 0.158717 0.115183 0.739228
Si Si8 0.844866 0.606476 0.840627
O O1 0.500000 0.117901 0.936462
O O2 0.750250 0.123879 0.898699
O O3 0.679675 0.000000 0.972587
O O4 0.688331 0.187182 0.997264
O O5 0.500000 0.344130 0.739190
O O6 0.362367 0.500000 0.725807
O O7 0.243997 0.346265 0.695078
O O8 0.270612 0.385730 0.795584
O O9 0.143816 0.500000 0.651147
O O10 0.239829 0.640299 0.593237
O O11 0.000000 0.653930 0.644783
O O12 0.500000 0.620152 0.147654
O O13 0.313506 0.500000 0.118409
O O14 0.313864 0.685516 0.084975
O O15 0.249869 0.632512 0.186633
O O16 0.200458 0.667247 0.294869
O O17 0.166878 0.794856 0.373038
O O18 0.000000 0.651776 0.360224
O O19 0.500000 0.813796 0.068735
O O20 0.000000 0.139820 0.728666
O O21 0.165799 0.000000 0.749917
O O22 0.832267 0.500000 0.866388
O O23 0.000000 0.609326 0.816713
#
# Coordination Sequence:
#
# PCOD9357581 Si02
#       8
#     8   8   8   8   8   8   8   8
#     4  10  22  40  60  83 113 146 182 232 289 342
#     4   9  17  29  46  70 103 142 180 219 265 318
#     4  10  20  32  48  74 107 142 181 223 268 324
#     4   9  19  36  57  82 112 145 183 227 276 333
#     4  10  21  36  57  83 111 149 193 235 280 332
#     4  10  21  37  57  80 108 144 184 227 282 337
#     4   9  18  33  53  79 111 145 182 229 282 330
#     4   9  18  33  51  74 109 149 186 227 275 324
#
# _framework density 18.912718000000002
#
# number of rings (size 3 to 8) (size 9 to 14) (size 15 to 20)
#    0.000    2.500    0.000    1.500    1.750    5.500 
#    0.000    1.875    0.000    0.750    0.000    0.000 
#    0.000    0.000    0.000    0.000    0.000    0.000 
#
# Total GULP energy -178348.764168 kJ/mol
# GULP energy per Si atom -5573.398880 kJ/mol
# Density = 1.886967 g / cm^3
# Si number density = 18.912718 Si / 1000 Ang^3
#
#
#
# Elastic Constant Matrix: (Units=GPa)
#
#
# Indices 1 2 3 4 5 6 
#
# 1 71.0248 29.4796 40.1852 0.0000 0.0000 0.0000
# 2 29.4796 93.9040 33.5799 0.0000 0.0000 0.0000
# 3 40.1852 33.5799 74.2981 0.0000 0.0000 0.0000
# 4 0.0000 0.0000 0.0000 24.8166 0.0000 0.0000
# 5 0.0000 0.0000 0.0000 0.0000 31.9423 0.0000
# 6 0.0000 0.0000 0.0000 0.0000 0.0000 12.3483
#
#
#
# Elastic Compliance Matrix: (Units=1/GPa)
#
#
# Indices 1 2 3 4 5 6 
#
# 1 0.020981 -0.003016 -0.009984 0.000000 0.000000 0.000000
# 2 -0.003016 0.013136 -0.004306 0.000000 0.000000 0.000000
# 3 -0.009984 -0.004306 0.020805 0.000000 0.000000 0.000000
# 4 0.000000 0.000000 0.000000 0.040296 0.000000 0.000000
# 5 0.000000 0.000000 0.000000 0.000000 0.031306 0.000000
# 6 0.000000 0.000000 0.000000 0.000000 0.000000 0.080983
#
#
# Mechanical properties :
#
#
# Convention : Reuss Voigt Hill
#
# Bulk Modulus (GPa) = 49.23796 49.52404 49.38100
# Shear Modulus (GPa) = 20.08932 22.88692 21.48812
#
# Velocity S-wave (km/s) = 3.26270 3.48247 3.37437
# Velocity P-wave (km/s) = 6.34700 6.51249 6.43028
#
# Compressibility (1/GPa) = 0.02030953
#
# Stress axis : x y z
#
# Youngs Moduli (GPa) = 47.66311 76.12854 48.06427
#
# Poissons Ratio (x) = 0.22961 0.47990
# Poissons Ratio (y) = 0.14376 0.20694
# Poissons Ratio (z) = 0.47589 0.32777
#
# Static dielectric constant tensor:
#      x y z
#    x 1.652190 0.000000 0.000000 
#    y 0.000000 1.714860 0.000000 
#    z 0.000000 0.000000 1.621640 
# 
# From -- ./inp_files/22184.got.cif
#   From: 2010.05.17/outbox.cif.g08.bks.cpg/sg38_12_cif.got.tgz:22184.got - 2010.06.03 18:07:57.
