data_PCOD9357565
_publ_section_title
;
Structure prediction by ZEFSAII (Michael W. Deem and Ramdas Pophale) SiO2 
 PCOD9357565
Probable space group: A M M 2
;
_chemical_formula_sum "Si O2"
_cell_formula_units_Z 64
_cell_length_a 15.278619
_cell_length_b 14.282584
_cell_length_c 17.397649
_cell_angle_alpha 90.000000
_cell_angle_beta 90.000000
_cell_angle_gamma 90.000000
_cell_volume 3796.482940
_symmetry_space_group_name_H-M "A M M 2"
_symmetry_group_IT_number 38
_symmetry_cell_setting 'orthorhombic'
loop_
_space_group_symop_operation_xyz
x,y,z
-x,-y,z
-x,y,z
x,-y,z
x,1/2+y,1/2+z
-x,1/2-y,1/2+z
-x,1/2+y,1/2+z
x,1/2-y,1/2+z
loop_
_atom_site_type_symbol
_atom_site_label
_atom_site_fract_x
_atom_site_fract_y
_atom_site_fract_z
Si Si1 0.401832 0.109001 0.719010
Si Si2 0.092212 0.607550 0.524374
Si Si3 0.240637 0.762384 0.962061
Si Si4 0.602960 0.608959 0.403399
Si Si5 0.101980 0.781510 0.338298
Si Si6 0.163836 0.392148 0.690567
Si Si7 0.102356 0.891241 0.728587
Si Si8 0.751702 0.711115 0.133198
O O1 0.500000 0.140700 0.701074
O O2 0.390147 0.114004 0.810876
O O3 0.330511 0.167061 0.674819
O O4 0.393768 0.000000 0.697967
O O5 0.092444 0.500000 0.501285
O O6 0.173736 0.656795 0.487619
O O7 0.100234 0.611034 0.616595
O O8 0.000000 0.651455 0.500753
O O9 0.329151 0.814165 0.935004
O O10 0.181478 0.707816 0.899076
O O11 0.256122 0.707230 0.041446
O O12 0.500000 0.625411 0.423233
O O13 0.623574 0.500000 0.425531
O O14 0.119501 0.851607 0.266997
O O15 0.111866 0.676436 0.302515
O O16 0.000000 0.793298 0.363188
O O17 0.191878 0.500000 0.700043
O O18 0.237089 0.317558 0.663994
O O19 0.163336 0.845551 0.663531
O O20 0.000000 0.887359 0.706624
O O21 0.125694 0.000000 0.743110
#
# Coordination Sequence:
#
# PCOD9357565 Si02
#       8
#     8   8   8   8   8   8   8   8
#     4   9  18  35  60  83  98 120 161 209 254 302
#     4   9  17  29  46  67  92 126 166 205 244 286
#     4  11  21  30  44  71 105 134 157 195 251 306
#     4   9  18  33  53  75  97 123 158 203 257 310
#     4  10  20  32  48  72 100 132 169 208 251 297
#     4   9  18  33  51  68  91 132 181 215 235 266
#     4   9  18  33  53  75  99 131 172 215 256 297
#     4  10  20  32  51  75 102 134 165 202 247 296
#
# _framework density 16.857707999999999
#
# number of rings (size 3 to 8) (size 9 to 14) (size 15 to 20)
#    0.000    2.500    0.000    3.750    0.000    7.250 
#    0.000    2.500    0.000    0.375    0.000    0.000 
#    0.000    0.000    0.000    0.000    0.000    0.000 
#
# Total GULP energy -178229.021282 kJ/mol
# GULP energy per Si atom -5569.656915 kJ/mol
# Density = 1.681934 g / cm^3
# Si number density = 16.857708 Si / 1000 Ang^3
#
#
#
# Elastic Constant Matrix: (Units=GPa)
#
#
# Indices 1 2 3 4 5 6 
#
# 1 87.0393 22.9685 30.3039 0.0000 0.0000 0.0000
# 2 22.9685 58.0799 16.3432 0.0000 0.0000 0.0000
# 3 30.3039 16.3432 50.8871 0.0000 0.0000 0.0000
# 4 0.0000 0.0000 0.0000 18.0417 0.0000 0.0000
# 5 0.0000 0.0000 0.0000 0.0000 -190.3478 0.0000
# 6 0.0000 0.0000 0.0000 0.0000 0.0000 10.9451
#
#
#
# Elastic Compliance Matrix: (Units=1/GPa)
#
#
# Indices 1 2 3 4 5 6 
#
# 1 0.015226 -0.003815 -0.007842 0.000000 0.000000 0.000000
# 2 -0.003815 0.019884 -0.004114 0.000000 0.000000 0.000000
# 3 -0.007842 -0.004114 0.025643 0.000000 0.000000 0.000000
# 4 0.000000 0.000000 0.000000 0.055427 0.000000 0.000000
# 5 0.000000 0.000000 0.000000 0.000000 -0.005254 0.000000
# 6 0.000000 0.000000 0.000000 0.000000 0.000000 0.091365
#
#
# Mechanical properties :
#
#
# Convention : Reuss Voigt Hill
#
# Bulk Modulus (GPa) = 34.23431 37.24862 35.74146
# Shear Modulus (GPa) = 20.52793 -23.84616 -1.65911
#
# Velocity S-wave (km/s) = 3.49337 -3.76514 -0.99314
# Velocity P-wave (km/s) = 6.05173 1.80061 4.46461
#
# Compressibility (1/GPa) = 0.02921046
#
# Stress axis : x y z
#
# Youngs Moduli (GPa) = 65.67698 50.29178 38.99727
#
# Poissons Ratio (x) = 0.19184 0.30582
# Poissons Ratio (y) = 0.25053 0.16045
# Poissons Ratio (z) = 0.51505 0.20692
#
# Static dielectric constant tensor:
#      x y z
#    x 1.573010 0.000000 0.000000 
#    y 0.000000 1.570720 0.000000 
#    z 0.000000 0.000000 1.589010 
# 
# From -- ./inp_files/18503.got.cif
#   From: 2010.05.17/outbox.cif.g08.bks.cpg/sg38_10_cif.got.tgz:18503.got - 2010.06.03 18:07:57.
