data_PCOD9357615
_publ_section_title
;
Structure prediction by ZEFSAII (Michael W. Deem and Ramdas Pophale) SiO2 
 PCOD9357615
Probable space group: A M M 2
;
_chemical_formula_sum "Si O2"
_cell_formula_units_Z 56
_cell_length_a 15.915488
_cell_length_b 8.895909
_cell_length_c 20.508544
_cell_angle_alpha 90.000000
_cell_angle_beta 90.000000
_cell_angle_gamma 90.000000
_cell_volume 2903.655708
_symmetry_space_group_name_H-M "A M M 2"
_symmetry_group_IT_number 38
_symmetry_cell_setting 'orthorhombic'
loop_
_space_group_symop_operation_xyz
x,y,z
-x,-y,z
-x,y,z
x,-y,z
x,1/2+y,1/2+z
-x,1/2-y,1/2+z
-x,1/2+y,1/2+z
x,1/2-y,1/2+z
loop_
_atom_site_type_symbol
_atom_site_label
_atom_site_fract_x
_atom_site_fract_y
_atom_site_fract_z
Si Si1 0.091632 0.819966 0.936640
Si Si2 0.677186 0.323263 0.755158
Si Si3 0.092517 0.321154 0.653397
Si Si4 0.269040 0.178369 0.621626
Si Si5 0.727085 0.682030 0.486420
Si Si6 0.594507 0.180170 0.875523
Si Si7 0.132624 0.174087 0.302568
O O1 0.101160 0.777354 0.860631
O O2 0.000000 0.763971 0.959667
O O3 0.091377 0.000000 0.943548
O O4 0.177265 0.766338 0.970947
O O5 0.663638 0.500000 0.745041
O O6 0.684765 0.242699 0.685578
O O7 0.611965 0.254486 0.805788
O O8 0.768278 0.304782 0.789827
O O9 0.106744 0.500000 0.641587
O O10 0.171631 0.230997 0.627129
O O11 0.092856 0.299796 0.731664
O O12 0.000000 0.282087 0.627824
O O13 0.301569 0.249769 0.554740
O O14 0.274328 0.000000 0.620727
O O15 0.727131 0.500000 0.490358
O O16 0.664692 0.726997 0.428040
O O17 0.500000 0.215059 0.897941
O O18 0.601763 0.000000 0.868208
O O19 0.117040 0.000000 0.320468
#
# Coordination Sequence:
#
# PCOD9357615 Si02
#       7
#     8   8   8   8   8   8   8
#     4  10  20  32  50  78 111 152 198 238 283 340
#     4  10  20  37  61  87 116 152 194 236 290 355
#     4   9  18  33  52  76 110 153 199 246 299 356
#     4  11  23  37  57  83 115 155 201 249 298 346
#     4  10  21  39  58  81 120 161 196 238 294 354
#     4  10  21  39  66  96 121 148 187 238 296 355
#     4   9  17  30  50  77 109 145 187 236 287 337
#
# _framework density 19.286033
#
# number of rings (size 3 to 8) (size 9 to 14) (size 15 to 20)
#    0.000    2.143    1.429    3.000    0.000    5.429 
#    0.000    2.143    0.000    2.571    0.000    0.000 
#    0.000    0.000    0.000    0.000    0.000    0.000 
#
# Total GULP energy -156301.843725 kJ/mol
# GULP energy per Si atom -5582.208704 kJ/mol
# Density = 1.924214 g / cm^3
# Si number density = 19.286033 Si / 1000 Ang^3
#
#
#
# Elastic Constant Matrix: (Units=GPa)
#
#
# Indices 1 2 3 4 5 6 
#
# 1 82.7546 32.2380 45.6659 0.0000 0.0000 0.0000
# 2 32.2380 29.8109 37.2909 0.0000 0.0000 0.0000
# 3 45.6659 37.2909 115.7939 0.0000 0.0000 0.0000
# 4 0.0000 0.0000 0.0000 30.7331 0.0000 0.0000
# 5 0.0000 0.0000 0.0000 0.0000 -6.5130 0.0000
# 6 0.0000 0.0000 0.0000 0.0000 0.0000 15.7484
#
#
#
# Elastic Compliance Matrix: (Units=1/GPa)
#
#
# Indices 1 2 3 4 5 6 
#
# 1 0.021062 -0.020742 -0.001626 0.000000 0.000000 0.000000
# 2 -0.020742 0.076602 -0.016489 0.000000 0.000000 0.000000
# 3 -0.001626 -0.016489 0.014588 0.000000 0.000000 0.000000
# 4 0.000000 0.000000 0.000000 0.032538 0.000000 0.000000
# 5 0.000000 0.000000 0.000000 0.000000 -0.153539 0.000000
# 6 0.000000 0.000000 0.000000 0.000000 0.000000 0.063499
#
#
# Mechanical properties :
#
#
# Convention : Reuss Voigt Hill
#
# Bulk Modulus (GPa) = 28.95504 50.97214 39.96359
# Shear Modulus (GPa) = 34.72778 15.53802 25.13290
#
# Velocity S-wave (km/s) = 4.24803 2.84150 3.61386
# Velocity P-wave (km/s) = 6.25357 6.10348 6.17898
#
# Compressibility (1/GPa) = 0.03453630
#
# Stress axis : x y z
#
# Youngs Moduli (GPa) = 47.47969 13.05443 68.55102
#
# Poissons Ratio (x) = 0.27078 0.11148
# Poissons Ratio (y) = 0.98483 1.13036
# Poissons Ratio (z) = 0.07721 0.21526
#
# Static dielectric constant tensor:
#      x y z
#    x 1.707400 0.000000 0.000000 
#    y 0.000000 1.644870 0.000000 
#    z 0.000000 0.000000 1.662230 
# 
# From -- ./inp_files/21062.got.cif
#   From: 2010.05.17/outbox.cif.g08.bks.cpg/sg38_11_cif.got.tgz:21062.got - 2010.06.03 18:07:57.
