data_PCOD9357950
_publ_section_title
;
Structure prediction by ZEFSAII (Michael W. Deem and Ramdas Pophale) SiO2 
 PCOD9357950
Probable space group: A M M 2
;
_chemical_formula_sum "Si O2"
_cell_formula_units_Z 48
_cell_length_a 18.218352
_cell_length_b 7.377383
_cell_length_c 15.745955
_cell_angle_alpha 90.000000
_cell_angle_beta 90.000000
_cell_angle_gamma 90.000000
_cell_volume 2116.315562
_symmetry_space_group_name_H-M "A M M 2"
_symmetry_group_IT_number 38
_symmetry_cell_setting 'orthorhombic'
loop_
_space_group_symop_operation_xyz
x,y,z
-x,-y,z
-x,y,z
x,-y,z
x,1/2+y,1/2+z
-x,1/2-y,1/2+z
-x,1/2+y,1/2+z
x,1/2-y,1/2+z
loop_
_atom_site_type_symbol
_atom_site_label
_atom_site_fract_x
_atom_site_fract_y
_atom_site_fract_z
Si Si1 0.684039 0.278833 0.793490
Si Si2 0.417440 0.214311 0.141247
Si Si3 0.683372 0.281468 0.980355
Si Si4 0.157812 0.709328 0.031576
Si Si5 0.000000 0.222088 0.551050
Si Si6 0.157104 0.779479 0.232168
Si Si7 0.000000 0.292777 0.752610
O O1 0.684356 0.500000 0.790760
O O2 0.631899 0.212606 0.718285
O O3 0.768361 0.224059 0.777986
O O4 0.659227 0.223232 0.886927
O O5 0.500000 0.288149 0.136512
O O6 0.372387 0.233852 0.054571
O O7 0.423708 0.000000 0.156912
O O8 0.687685 0.500000 0.980645
O O9 0.765943 0.211713 0.998442
O O10 0.156705 0.500000 0.003410
O O11 0.076789 0.782408 0.010137
O O12 0.161746 0.717467 0.134292
O O13 0.000000 0.288927 0.648846
O O14 0.000000 0.000000 0.554645
O O15 0.080263 0.715186 0.272920
O O16 0.154288 0.000000 0.230597
O O17 0.000000 0.500000 0.783953
#
# Coordination Sequence:
#
# PCOD9357950 Si02
#       7
#     8   8   8   8   4   8   4
#     4   9  18  33  53  76 103 135 167 201 247 305
#     4  10  21  38  58  77  99 131 168 205 253 312
#     4  10  20  34  54  80 106 133 169 209 251 300
#     4   9  16  27  45  70 100 133 169 207 247 291
#     4   8  14  24  39  63  97 134 166 200 245 291
#     4   9  15  27  47  69  97 132 169 207 247 291
#     4   8  14  22  39  69  95 122 166 212 245 279
#
# _framework density 22.680927000000001
#
# number of rings (size 3 to 8) (size 9 to 14) (size 15 to 20)
#    0.000    2.833    1.667    0.000    0.000    1.000 
#    0.000    4.167    0.000    5.000    0.000    0.000 
#    0.000   13.333    0.000    0.000    0.000    0.000 
#
# Total GULP energy -133931.468169 kJ/mol
# GULP energy per Si atom -5580.477840 kJ/mol
# Density = 2.262930 g / cm^3
# Si number density = 22.680927 Si / 1000 Ang^3
#
#
#
# Elastic Constant Matrix: (Units=GPa)
#
#
# Indices 1 2 3 4 5 6 
#
# 1 229.0461 7.8883 97.3662 0.0000 0.0000 0.0000
# 2 7.8883 85.0769 -8.6181 0.0000 0.0000 0.0000
# 3 97.3662 -8.6181 121.7736 0.0000 0.0000 0.0000
# 4 0.0000 0.0000 0.0000 13.7151 0.0000 0.0000
# 5 0.0000 0.0000 0.0000 0.0000 -11.6818 0.0000
# 6 0.0000 0.0000 0.0000 0.0000 0.0000 7.1602
#
#
#
# Elastic Compliance Matrix: (Units=1/GPa)
#
#
# Indices 1 2 3 4 5 6 
#
# 1 0.006729 -0.001177 -0.005464 0.000000 0.000000 0.000000
# 2 -0.001177 0.012045 0.001794 0.000000 0.000000 0.000000
# 3 -0.005464 0.001794 0.012707 0.000000 0.000000 0.000000
# 4 0.000000 0.000000 0.000000 0.072912 0.000000 0.000000
# 5 0.000000 0.000000 0.000000 0.000000 -0.085603 0.000000
# 6 0.000000 0.000000 0.000000 0.000000 0.000000 0.139660
#
#
# Mechanical properties :
#
#
# Convention : Reuss Voigt Hill
#
# Bulk Modulus (GPa) = 45.89880 69.90771 57.90326
# Shear Modulus (GPa) = 28.50510 24.45606 26.48058
#
# Velocity S-wave (km/s) = 3.54897 3.28726 3.42062
# Velocity P-wave (km/s) = 6.08886 6.73032 6.41761
#
# Compressibility (1/GPa) = 0.02178706
#
# Stress axis : x y z
#
# Youngs Moduli (GPa) = 148.60947 83.02239 78.69391
#
# Poissons Ratio (x) = 0.09775 0.42996
# Poissons Ratio (y) = 0.17497 -0.14116
# Poissons Ratio (z) = 0.81195 -0.14893
#
# Static dielectric constant tensor:
#      x y z
#    x 1.854990 0.000000 0.000000 
#    y 0.000000 1.797010 0.000000 
#    z 0.000000 0.000000 1.799990 
# 
# From -- ./inp_files/15065.got.cif
#   From: 2010.05.17/outbox.cif.g08.bks.cpg/sg38_8_cif.got.tgz:15065.got - 2010.06.03 18:07:57.
