data_PCOD9357378
_publ_section_title
;
Structure prediction by ZEFSAII (Michael W. Deem and Ramdas Pophale) SiO2 
 PCOD9357378
Probable space group: A M M 2
;
_chemical_formula_sum "Si O2"
_cell_formula_units_Z 48
_cell_length_a 8.578596
_cell_length_b 14.895625
_cell_length_c 20.923676
_cell_angle_alpha 90.000000
_cell_angle_beta 90.000000
_cell_angle_gamma 90.000000
_cell_volume 2673.701578
_symmetry_space_group_name_H-M "A M M 2"
_symmetry_group_IT_number 38
_symmetry_cell_setting 'orthorhombic'
loop_
_space_group_symop_operation_xyz
x,y,z
-x,-y,z
-x,y,z
x,-y,z
x,1/2+y,1/2+z
-x,1/2-y,1/2+z
-x,1/2+y,1/2+z
x,1/2-y,1/2+z
loop_
_atom_site_type_symbol
_atom_site_label
_atom_site_fract_x
_atom_site_fract_y
_atom_site_fract_z
Si Si1 0.685270 0.310511 0.459450
Si Si2 0.810028 0.194534 0.198200
Si Si3 0.189768 0.500000 0.657094
Si Si4 0.187319 0.690281 0.073897
Si Si5 0.811872 0.000000 0.758964
Si Si6 0.811464 0.690443 0.319903
Si Si7 0.685525 0.000000 0.614369
Si Si8 0.812627 0.000000 0.007333
O O1 0.500000 0.310722 0.463888
O O2 0.753488 0.241829 0.511492
O O3 0.739130 0.287581 0.387999
O O4 0.749283 0.409757 0.475584
O O5 0.756699 0.092286 0.189303
O O6 0.762433 0.253182 0.136737
O O7 0.761840 0.242138 0.263575
O O8 0.000000 0.194261 0.197943
O O9 0.231563 0.500000 0.582259
O O10 0.000000 0.500000 0.659232
O O11 0.249941 0.589856 0.081447
O O12 0.000000 0.688687 0.073294
O O13 0.768433 0.089901 0.797056
O O14 0.741249 0.000000 0.688194
O O15 0.000000 0.000000 0.751552
O O16 0.000000 0.693179 0.325094
O O17 0.500000 0.000000 0.612204
O O18 0.000000 0.000000 0.002932
#
# Coordination Sequence:
#
# PCOD9357378 Si02
#       8
#     8   8   4   8   4   8   4   4
#     4  12  25  39  56  88 128 161 196 249 310 362
#     4   9  17  32  59  89 115 146 197 252 288 335
#     4   9  16  30  57  94 118 138 184 248 295 332
#     4  11  21  40  65  87 113 158 211 250 287 355
#     4  10  19  35  60  86 116 154 205 252 291 355
#     4  10  20  36  58  85 116 159 205 245 292 358
#     4  12  24  37  58  93 128 154 188 249 317 364
#     4  11  20  36  63  89 118 158 199 243 295 361
#
# _framework density 17.952639999999999
#
# number of rings (size 3 to 8) (size 9 to 14) (size 15 to 20)
#    0.000    1.500    3.333    3.500    0.000    1.333 
#    0.000    0.833    0.000    2.000    0.000    0.000 
#    0.000    0.000    0.000    0.000    0.000    0.000 
#
# Total GULP energy -134105.580685 kJ/mol
# GULP energy per Si atom -5587.732529 kJ/mol
# Density = 1.791178 g / cm^3
# Si number density = 17.952640 Si / 1000 Ang^3
#
#
#
# Elastic Constant Matrix: (Units=GPa)
#
#
# Indices 1 2 3 4 5 6 
#
# 1 55.4478 37.8583 46.7675 0.0000 0.0000 0.0000
# 2 37.8583 167.4383 99.2713 0.0000 0.0000 0.0000
# 3 46.7675 99.2713 174.2188 0.0000 0.0000 0.0000
# 4 0.0000 0.0000 0.0000 25.5283 0.0000 0.0000
# 5 0.0000 0.0000 0.0000 0.0000 0.0611 0.0000
# 6 0.0000 0.0000 0.0000 0.0000 0.0000 17.0719
#
#
#
# Elastic Compliance Matrix: (Units=1/GPa)
#
#
# Indices 1 2 3 4 5 6 
#
# 1 0.023946 -0.002421 -0.005049 0.000000 0.000000 0.000000
# 2 -0.002421 0.009264 -0.004629 0.000000 0.000000 0.000000
# 3 -0.005049 -0.004629 0.009733 0.000000 0.000000 0.000000
# 4 0.000000 0.000000 0.000000 0.039172 0.000000 0.000000
# 5 0.000000 0.000000 0.000000 0.000000 16.378461 0.000000
# 6 0.000000 0.000000 0.000000 0.000000 0.000000 0.058576
#
#
# Mechanical properties :
#
#
# Convention : Reuss Voigt Hill
#
# Bulk Modulus (GPa) = 53.34461 84.98878 69.16670
# Shear Modulus (GPa) = 0.30212 22.74610 11.52411
#
# Velocity S-wave (km/s) = 0.41067 3.56336 2.53636
# Velocity P-wave (km/s) = 5.47754 8.02330 6.86938
#
# Compressibility (1/GPa) = 0.01874604
#
# Stress axis : x y z
#
# Youngs Moduli (GPa) = 41.76006 107.94311 102.74603
#
# Poissons Ratio (x) = 0.26134 0.51873
# Poissons Ratio (y) = 0.10110 0.47560
# Poissons Ratio (z) = 0.21083 0.49965
#
# Static dielectric constant tensor:
#      x y z
#    x 1.599450 0.000000 0.000000 
#    y 0.000000 1.591580 0.000000 
#    z 0.000000 0.000000 1.588630 
# 
# From -- ./inp_files/16716.got.cif
#   From: 2010.05.17/outbox.cif.g08.bks.cpg/sg38_9_cif.got.tgz:16716.got - 2010.06.03 18:07:57.
