data_PCOD9357573
_publ_section_title
;
Structure prediction by ZEFSAII (Michael W. Deem and Ramdas Pophale) SiO2 
 PCOD9357573
Probable space group: A M M 2
;
_chemical_formula_sum "Si O2"
_cell_formula_units_Z 64
_cell_length_a 12.662195
_cell_length_b 20.775907
_cell_length_c 13.328280
_cell_angle_alpha 90.000000
_cell_angle_beta 90.000000
_cell_angle_gamma 90.000000
_cell_volume 3506.251770
_symmetry_space_group_name_H-M "A M M 2"
_symmetry_group_IT_number 38
_symmetry_cell_setting 'orthorhombic'
loop_
_space_group_symop_operation_xyz
x,y,z
-x,-y,z
-x,y,z
x,-y,z
x,1/2+y,1/2+z
-x,1/2-y,1/2+z
-x,1/2+y,1/2+z
x,1/2-y,1/2+z
loop_
_atom_site_type_symbol
_atom_site_label
_atom_site_fract_x
_atom_site_fract_y
_atom_site_fract_z
Si Si1 0.380269 0.192950 0.542950
Si Si2 0.880167 0.669195 0.497615
Si Si3 0.730396 0.573549 0.131603
Si Si4 0.878478 0.423077 0.317035
Si Si5 0.380040 0.428609 0.778617
Si Si6 0.176248 0.930093 0.417183
Si Si7 0.712330 0.693628 0.670497
Si Si8 0.808674 0.292234 0.882219
O O1 0.500000 0.194081 0.506210
O O2 0.354977 0.126710 0.601437
O O3 0.358883 0.252158 0.618504
O O4 0.295142 0.199833 0.453433
O O5 0.852250 0.612497 0.420230
O O6 0.800165 0.673881 0.589364
O O7 0.872028 0.734580 0.432392
O O8 0.000000 0.660150 0.532774
O O9 0.690596 0.500000 0.143470
O O10 0.796628 0.593306 0.229245
O O11 0.810152 0.571950 0.036671
O O12 0.875460 0.500000 0.329191
O O13 0.000000 0.405218 0.290498
O O14 0.500000 0.421058 0.815736
O O15 0.372999 0.500000 0.730436
O O16 0.293485 0.429452 0.866981
O O17 0.350382 0.369718 0.706648
O O18 0.132045 0.861330 0.383263
O O19 0.129158 0.000000 0.389389
O O20 0.769676 0.720905 0.769881
#
# Coordination Sequence:
#
# PCOD9357573 Si02
#       8
#     8   8   8   8   8   8   8   8
#     4  10  20  32  48  73 103 135 170 205 245 297
#     4  10  21  36  54  75  97 126 168 213 256 303
#     4   9  17  30  49  74 102 130 164 205 245 288
#     4   9  18  34  55  76  99 130 167 206 250 301
#     4   9  17  30  51  78 105 136 172 205 241 291
#     4   8  15  28  46  70 100 129 160 199 238 282
#     4  10  20  34  52  75 102 132 165 208 256 297
#     4   9  19  34  50  71 100 132 165 203 252 301
#
# _framework density 18.253111000000001
#
# number of rings (size 3 to 8) (size 9 to 14) (size 15 to 20)
#    0.000    2.750    0.000    1.125    0.000    6.250 
#    0.000   10.625    0.000    2.625    0.000    5.250 
#    0.000    0.000    0.000    0.000    0.000    0.000 
#
# Total GULP energy -178294.455470 kJ/mol
# GULP energy per Si atom -5571.701733 kJ/mol
# Density = 1.821157 g / cm^3
# Si number density = 18.253111 Si / 1000 Ang^3
#
#
#
# Elastic Constant Matrix: (Units=GPa)
#
#
# Indices 1 2 3 4 5 6 
#
# 1 59.9500 7.3833 26.9371 0.0000 0.0000 0.0000
# 2 7.3833 49.6705 17.7644 0.0000 0.0000 0.0000
# 3 26.9371 17.7644 69.6862 0.0000 0.0000 0.0000
# 4 0.0000 0.0000 0.0000 30.5966 0.0000 0.0000
# 5 0.0000 0.0000 0.0000 0.0000 8.6296 0.0000
# 6 0.0000 0.0000 0.0000 0.0000 0.0000 15.4584
#
#
#
# Elastic Compliance Matrix: (Units=1/GPa)
#
#
# Indices 1 2 3 4 5 6 
#
# 1 0.020189 -0.000231 -0.007745 0.000000 0.000000 0.000000
# 2 -0.000231 0.022155 -0.005558 0.000000 0.000000 0.000000
# 3 -0.007745 -0.005558 0.018761 0.000000 0.000000 0.000000
# 4 0.000000 0.000000 0.000000 0.032683 0.000000 0.000000
# 5 0.000000 0.000000 0.000000 0.000000 0.115881 0.000000
# 6 0.000000 0.000000 0.000000 0.000000 0.000000 0.064690
#
#
# Mechanical properties :
#
#
# Convention : Reuss Voigt Hill
#
# Bulk Modulus (GPa) = 29.38093 31.49739 30.43916
# Shear Modulus (GPa) = 15.98601 19.41837 17.70219
#
# Velocity S-wave (km/s) = 2.96260 3.26519 3.11757
# Velocity P-wave (km/s) = 5.27579 5.61326 5.44714
#
# Compressibility (1/GPa) = 0.03403568
#
# Stress axis : x y z
#
# Youngs Moduli (GPa) = 49.53155 45.13662 53.30227
#
# Poissons Ratio (x) = 0.01043 0.41284
# Poissons Ratio (y) = 0.01144 0.29628
# Poissons Ratio (z) = 0.38363 0.25089
#
# Static dielectric constant tensor:
#      x y z
#    x 1.621320 0.000000 0.000000 
#    y 0.000000 1.676230 0.000000 
#    z 0.000000 0.000000 1.594880 
# 
# From -- ./inp_files/9551.got.cif
#   From: 2010.05.17/outbox.cif.g08.bks.cpg/sg38_5_cif.got.tgz:9551.got - 2010.06.03 18:07:57.
