data_PCOD9357027
_publ_section_title
;
Structure prediction by ZEFSAII (Michael W. Deem and Ramdas Pophale) SiO2 
 PCOD9357027
Probable space group: A M M 2
;
_chemical_formula_sum "Si O2"
_cell_formula_units_Z 58
_cell_length_a 7.605443
_cell_length_b 26.782902
_cell_length_c 13.439260
_cell_angle_alpha 90.000000
_cell_angle_beta 90.000000
_cell_angle_gamma 90.000000
_cell_volume 2737.521281
_symmetry_space_group_name_H-M "A M M 2"
_symmetry_group_IT_number 38
_symmetry_cell_setting 'orthorhombic'
loop_
_space_group_symop_operation_xyz
x,y,z
-x,-y,z
-x,y,z
x,-y,z
x,1/2+y,1/2+z
-x,1/2-y,1/2+z
-x,1/2+y,1/2+z
x,1/2-y,1/2+z
loop_
_atom_site_type_symbol
_atom_site_label
_atom_site_fract_x
_atom_site_fract_y
_atom_site_fract_z
Si Si1 0.291459 0.444019 0.290870
Si Si2 0.297925 0.658240 0.369117
Si Si3 0.212242 0.923789 0.170433
Si Si4 0.296367 0.217532 0.686292
Si Si5 0.500000 0.000000 0.096628
Si Si6 0.788079 0.385712 0.090029
Si Si7 0.800748 0.318070 0.582097
Si Si8 0.786591 0.944291 0.399709
O O1 0.500000 0.448524 0.311214
O O2 0.217572 0.500000 0.303921
O O3 0.221749 0.397833 0.357908
O O4 0.265863 0.423768 0.178290
O O5 0.500000 0.652751 0.334323
O O6 0.218274 0.697076 0.290266
O O7 0.301222 0.679215 0.479081
O O8 0.244619 0.865649 0.148940
O O9 0.260970 0.934890 0.285371
O O10 0.000000 0.933958 0.158152
O O11 0.342860 0.956782 0.104073
O O12 0.500000 0.231244 0.699855
O O13 0.281112 0.169167 0.615626
O O14 0.211978 0.266314 0.639572
O O15 0.000000 0.383447 0.090705
O O16 0.726567 0.405784 0.983345
O O17 0.000000 0.325786 0.548990
O O18 0.000000 0.943425 0.401918
O O19 0.728739 0.000000 0.427536
#
# Coordination Sequence:
#
# PCOD9357027 Si02
#       8
#     8   8   8   8   2   8   8   8
#     4   9  18  35  54  81 118 158 196 249 300 343
#     4   9  20  39  61  85 118 155 197 245 294 353
#     4  10  23  42  60  90 129 158 204 256 296 362
#     4  10  22  41  62  86 118 155 196 249 298 351
#     4  12  22  40  68  90 112 178 206 240 310 362
#     4  10  19  32  56  86 115 157 203 243 302 358
#     4  11  24  41  64  91 119 154 193 246 302 353
#     4   9  17  34  55  79 120 161 192 247 307 351
#
# _framework density 21.187051
#
# number of rings (size 3 to 8) (size 9 to 14) (size 15 to 20)
#    0.000    2.207    0.690    2.690    1.931    4.690 
#    3.724    1.379    0.000    0.000    0.000    0.000 
#    0.000    0.000    0.000    0.000    0.000    0.000 
#
# Total GULP energy -161545.361062 kJ/mol
# GULP energy per Si atom -5570.529692 kJ/mol
# Density = 2.113883 g / cm^3
# Si number density = 21.187051 Si / 1000 Ang^3
#
#
#
# Elastic Constant Matrix: (Units=GPa)
#
#
# Indices 1 2 3 4 5 6 
#
# 1 59.6035 12.9758 4.5942 0.0000 0.0000 0.0000
# 2 12.9758 152.1721 37.2238 0.0000 0.0000 0.0000
# 3 4.5942 37.2238 35.7769 0.0000 0.0000 0.0000
# 4 0.0000 0.0000 0.0000 -74.6368 0.0000 0.0000
# 5 0.0000 0.0000 0.0000 0.0000 14.2817 0.0000
# 6 0.0000 0.0000 0.0000 0.0000 0.0000 27.8242
#
#
#
# Elastic Compliance Matrix: (Units=1/GPa)
#
#
# Indices 1 2 3 4 5 6 
#
# 1 0.017117 -0.001237 -0.000911 0.000000 0.000000 0.000000
# 2 -0.001237 0.008904 -0.009106 0.000000 0.000000 0.000000
# 3 -0.000911 -0.009106 0.037542 0.000000 0.000000 0.000000
# 4 0.000000 0.000000 0.000000 -0.013398 0.000000 0.000000
# 5 0.000000 0.000000 0.000000 0.000000 0.070020 0.000000
# 6 0.000000 0.000000 0.000000 0.000000 0.000000 0.035940
#
#
# Mechanical properties :
#
#
# Convention : Reuss Voigt Hill
#
# Bulk Modulus (GPa) = 24.35702 39.68224 32.01963
# Shear Modulus (GPa) = 25.99866 6.34439 16.17153
#
# Velocity S-wave (km/s) = 3.50680 1.73233 2.76574
# Velocity P-wave (km/s) = 5.28375 4.77194 5.03435
#
# Compressibility (1/GPa) = 0.04105592
#
# Stress axis : x y z
#
# Youngs Moduli (GPa) = 58.42147 112.30462 26.63686
#
# Poissons Ratio (x) = 0.13888 0.02428
# Poissons Ratio (y) = 0.07225 0.24255
# Poissons Ratio (z) = 0.05324 1.02261
#
# Static dielectric constant tensor:
#      x y z
#    x 1.771790 0.000000 0.000000 
#    y 0.000000 1.751350 0.000000 
#    z 0.000000 0.000000 1.764370 
# 
# From -- ./inp_files/8323.got.cif
#   From: 2010.05.17/outbox.cif.g08.bks.cpg/sg38_5_cif.got.tgz:8323.got - 2010.06.03 18:07:57.
