data_PCOD9357720
_publ_section_title
;
Structure prediction by ZEFSAII (Michael W. Deem and Ramdas Pophale) SiO2 
 PCOD9357720
Probable space group: A M M 2
;
_chemical_formula_sum "Si O2"
_cell_formula_units_Z 56
_cell_length_a 8.645718
_cell_length_b 16.665882
_cell_length_c 23.437287
_cell_angle_alpha 90.000000
_cell_angle_beta 90.000000
_cell_angle_gamma 90.000000
_cell_volume 3377.043903
_symmetry_space_group_name_H-M "A M M 2"
_symmetry_group_IT_number 38
_symmetry_cell_setting 'orthorhombic'
loop_
_space_group_symop_operation_xyz
x,y,z
-x,-y,z
-x,y,z
x,-y,z
x,1/2+y,1/2+z
-x,1/2-y,1/2+z
-x,1/2+y,1/2+z
x,1/2-y,1/2+z
loop_
_atom_site_type_symbol
_atom_site_label
_atom_site_fract_x
_atom_site_fract_y
_atom_site_fract_z
Si Si1 0.315415 0.827672 0.615930
Si Si2 0.682392 0.500000 0.686959
Si Si3 0.682085 0.144405 0.383497
Si Si4 0.814776 0.327635 0.674339
Si Si5 0.184865 0.094616 0.501753
Si Si6 0.816520 0.755192 0.794644
Si Si7 0.314523 0.092158 0.736707
Si Si8 0.819293 0.500000 0.811880
O O1 0.500000 0.826917 0.607878
O O2 0.256994 0.738904 0.632559
O O3 0.235276 0.864681 0.560686
O O4 0.280175 0.882170 0.671501
O O5 0.500000 0.500000 0.677739
O O6 0.754811 0.417276 0.664031
O O7 0.720842 0.500000 0.754397
O O8 0.500000 0.128454 0.378671
O O9 0.733879 0.138548 0.448797
O O10 0.726322 0.225085 0.350063
O O11 0.777428 0.076466 0.349773
O O12 0.773181 0.299455 0.739183
O O13 0.000000 0.325236 0.670439
O O14 0.000000 0.099178 0.494920
O O15 0.228582 0.000000 0.501307
O O16 0.771792 0.844917 0.776799
O O17 0.000000 0.747158 0.803279
O O18 0.500000 0.100997 0.744230
O O19 0.272352 0.000000 0.746414
O O20 0.000000 0.500000 0.796294
#
# Coordination Sequence:
#
# PCOD9357720 Si02
#       8
#     8   4   8   8   8   8   8   4
#     4  10  20  35  54  77 107 139 179 222 261 310
#     4  12  22  32  52  80 108 142 178 215 262 315
#     4  12  23  35  53  77 106 141 179 217 259 311
#     4  10  20  34  52  75 107 142 176 217 266 315
#     4  11  23  37  54  76 107 143 179 217 261 313
#     4  10  20  33  51  75 107 140 173 216 263 315
#     4   9  18  33  53  77 106 139 175 219 264 308
#     4  12  22  34  50  74 110 144 174 213 258 311
#
# _framework density 16.582550000000001
#
# number of rings (size 3 to 8) (size 9 to 14) (size 15 to 20)
#    0.000    1.429    2.143    4.714    0.000    3.429 
#    0.000    0.000    0.000    0.000    1.857    0.000 
#    0.000    0.000    0.000    0.000    0.000    0.000 
#
# Total GULP energy -156422.170903 kJ/mol
# GULP energy per Si atom -5586.506104 kJ/mol
# Density = 1.654481 g / cm^3
# Si number density = 16.582550 Si / 1000 Ang^3
#
#
#
# Elastic Constant Matrix: (Units=GPa)
#
#
# Indices 1 2 3 4 5 6 
#
# 1 50.1305 27.0142 19.2441 0.0000 0.0000 0.0000
# 2 27.0142 106.2964 33.5875 0.0000 0.0000 0.0000
# 3 19.2441 33.5875 75.2768 0.0000 0.0000 0.0000
# 4 0.0000 0.0000 0.0000 19.9520 0.0000 0.0000
# 5 0.0000 0.0000 0.0000 0.0000 26.5441 0.0000
# 6 0.0000 0.0000 0.0000 0.0000 0.0000 27.9765
#
#
#
# Elastic Compliance Matrix: (Units=1/GPa)
#
#
# Indices 1 2 3 4 5 6 
#
# 1 0.024101 -0.004864 -0.003991 0.000000 0.000000 0.000000
# 2 -0.004864 0.011933 -0.004081 0.000000 0.000000 0.000000
# 3 -0.003991 -0.004081 0.016126 0.000000 0.000000 0.000000
# 4 0.000000 0.000000 0.000000 0.050120 0.000000 0.000000
# 5 0.000000 0.000000 0.000000 0.000000 0.037673 0.000000
# 6 0.000000 0.000000 0.000000 0.000000 0.000000 0.035744
#
#
# Mechanical properties :
#
#
# Convention : Reuss Voigt Hill
#
# Bulk Modulus (GPa) = 38.04053 43.48840 40.76447
# Shear Modulus (GPa) = 23.77188 25.01837 24.39512
#
# Velocity S-wave (km/s) = 3.79033 3.88843 3.83970
# Velocity P-wave (km/s) = 6.49195 6.81485 6.65536
#
# Compressibility (1/GPa) = 0.02628775
#
# Stress axis : x y z
#
# Youngs Moduli (GPa) = 41.49182 83.79900 62.01352
#
# Poissons Ratio (x) = 0.40760 0.24750
# Poissons Ratio (y) = 0.20182 0.25308
# Poissons Ratio (z) = 0.16560 0.34199
#
# Static dielectric constant tensor:
#      x y z
#    x 1.551580 0.000000 0.000000 
#    y 0.000000 1.565920 0.000000 
#    z 0.000000 0.000000 1.534060 
# 
# From -- ./inp_files/19869.got.cif
#   From: 2010.05.17/outbox.cif.g08.bks.cpg/sg38_10_cif.got.tgz:19869.got - 2010.06.03 18:07:57.
