data_PCOD9357229
_publ_section_title
;
Structure prediction by ZEFSAII (Michael W. Deem and Ramdas Pophale) SiO2 
 PCOD9357229
Probable space group: A M M 2
;
_chemical_formula_sum "Si O2"
_cell_formula_units_Z 56
_cell_length_a 20.463258
_cell_length_b 7.602961
_cell_length_c 16.285183
_cell_angle_alpha 90.000000
_cell_angle_beta 90.000000
_cell_angle_gamma 90.000000
_cell_volume 2533.670797
_symmetry_space_group_name_H-M "A M M 2"
_symmetry_group_IT_number 38
_symmetry_cell_setting 'orthorhombic'
loop_
_space_group_symop_operation_xyz
x,y,z
-x,-y,z
-x,y,z
x,-y,z
x,1/2+y,1/2+z
-x,1/2-y,1/2+z
-x,1/2+y,1/2+z
x,1/2-y,1/2+z
loop_
_atom_site_type_symbol
_atom_site_label
_atom_site_fract_x
_atom_site_fract_y
_atom_site_fract_z
Si Si1 0.659515 0.210522 0.052980
Si Si2 0.208745 0.201025 0.288759
Si Si3 0.652350 0.783703 0.232643
Si Si4 0.070661 0.294608 0.741537
Si Si5 0.426035 0.711069 0.892644
Si Si6 0.071468 0.288890 0.050516
Si Si7 0.209834 0.707370 0.472374
O O1 0.632964 0.273242 0.140992
O O2 0.734123 0.269390 0.035247
O O3 0.661788 0.000000 0.059680
O O4 0.616099 0.251980 0.973783
O O5 0.273014 0.276604 0.247000
O O6 0.137935 0.285340 0.274186
O O7 0.220644 0.200405 0.385671
O O8 0.203685 0.000000 0.257315
O O9 0.608857 0.723720 0.309380
O O10 0.652147 0.000000 0.235896
O O11 0.069315 0.500000 0.767362
O O12 0.074468 0.284464 0.642927
O O13 0.000000 0.217656 0.765727
O O14 0.500000 0.778242 0.900262
O O15 0.429132 0.500000 0.885472
O O16 0.072314 0.500000 0.055683
O O17 0.136145 0.234000 0.002792
O O18 0.000000 0.236982 0.015464
O O19 0.219885 0.500000 0.458890
#
# Coordination Sequence:
#
# PCOD9357229 Si02
#       7
#     8   8   8   8   8   8   8
#     4  10  21  38  61  88 117 153 195 237 286 346
#     4  10  19  34  56  79 109 149 192 235 286 346
#     4   9  18  35  59  83 111 152 196 234 279 341
#     4   9  18  33  53  77 106 141 184 238 293 343
#     4  10  21  38  60  87 118 151 191 238 287 343
#     4  10  21  36  54  77 107 147 194 239 288 349
#     4  11  22  35  54  82 115 147 190 244 294 343
#
# _framework density 22.102319999999999
#
# number of rings (size 3 to 8) (size 9 to 14) (size 15 to 20)
#    0.000    2.143    1.429    1.714    0.000    5.714 
#    0.000    4.286    0.000    0.000    0.000    0.000 
#    0.000    0.000    0.000    0.000    0.000    0.000 
#
# Total GULP energy -156303.466618 kJ/mol
# GULP energy per Si atom -5582.266665 kJ/mol
# Density = 2.205201 g / cm^3
# Si number density = 22.102320 Si / 1000 Ang^3
#
#
#
# Elastic Constant Matrix: (Units=GPa)
#
#
# Indices 1 2 3 4 5 6 
#
# 1 158.6094 5.2673 76.1292 0.0000 0.0000 0.0000
# 2 5.2673 49.4478 -5.3297 0.0000 0.0000 0.0000
# 3 76.1292 -5.3297 139.9751 0.0000 0.0000 0.0000
# 4 0.0000 0.0000 0.0000 18.7595 0.0000 0.0000
# 5 0.0000 0.0000 0.0000 0.0000 10.6928 0.0000
# 6 0.0000 0.0000 0.0000 0.0000 0.0000 5.7509
#
#
#
# Elastic Compliance Matrix: (Units=1/GPa)
#
#
# Indices 1 2 3 4 5 6 
#
# 1 0.008632 -0.001431 -0.004749 0.000000 0.000000 0.000000
# 2 -0.001431 0.020544 0.001561 0.000000 0.000000 0.000000
# 3 -0.004749 0.001561 0.009787 0.000000 0.000000 0.000000
# 4 0.000000 0.000000 0.000000 0.053306 0.000000 0.000000
# 5 0.000000 0.000000 0.000000 0.000000 0.093521 0.000000
# 6 0.000000 0.000000 0.000000 0.000000 0.000000 0.173884
#
#
# Mechanical properties :
#
#
# Convention : Reuss Voigt Hill
#
# Bulk Modulus (GPa) = 33.64421 55.57397 44.60909
# Shear Modulus (GPa) = 13.19883 25.17167 19.18525
#
# Velocity S-wave (km/s) = 2.44636 3.37838 2.94941
# Velocity P-wave (km/s) = 4.82023 6.35739 5.64141
#
# Compressibility (1/GPa) = 0.02972280
#
# Stress axis : x y z
#
# Youngs Moduli (GPa) = 115.85039 48.67591 102.18152
#
# Poissons Ratio (x) = 0.06967 0.48528
# Poissons Ratio (y) = 0.16582 -0.15948
# Poissons Ratio (z) = 0.55019 -0.07597
#
# Static dielectric constant tensor:
#      x y z
#    x 1.814590 0.000000 0.000000 
#    y 0.000000 1.864830 0.000000 
#    z 0.000000 0.000000 1.782870 
# 
# From -- ./inp_files/15443.got.cif
#   From: 2010.05.17/outbox.cif.g08.bks.cpg/sg38_8_cif.got.tgz:15443.got - 2010.06.03 18:07:57.
