data_PCOD9357165
_publ_section_title
;
Structure prediction by ZEFSAII (Michael W. Deem and Ramdas Pophale) SiO2 
 PCOD9357165
Probable space group: A M M 2
;
_chemical_formula_sum "Si O2"
_cell_formula_units_Z 56
_cell_length_a 8.827505
_cell_length_b 14.693136
_cell_length_c 23.058423
_cell_angle_alpha 90.000000
_cell_angle_beta 90.000000
_cell_angle_gamma 90.000000
_cell_volume 2990.763506
_symmetry_space_group_name_H-M "A M M 2"
_symmetry_group_IT_number 38
_symmetry_cell_setting 'orthorhombic'
loop_
_space_group_symop_operation_xyz
x,y,z
-x,-y,z
-x,y,z
x,-y,z
x,1/2+y,1/2+z
-x,1/2-y,1/2+z
-x,1/2+y,1/2+z
x,1/2-y,1/2+z
loop_
_atom_site_type_symbol
_atom_site_label
_atom_site_fract_x
_atom_site_fract_y
_atom_site_fract_z
Si Si1 0.684010 0.896703 0.163380
Si Si2 0.317314 0.778053 0.055099
Si Si3 0.180167 0.786585 0.833464
Si Si4 0.819212 0.896048 0.598620
Si Si5 0.317276 0.105053 0.296928
Si Si6 0.677783 0.607924 0.225617
Si Si7 0.682789 0.893917 0.941605
O O1 0.500000 0.895160 0.162973
O O2 0.735517 0.827672 0.114229
O O3 0.728927 0.877910 0.229606
O O4 0.729884 0.000000 0.148832
O O5 0.500000 0.770828 0.056990
O O6 0.246322 0.678372 0.055092
O O7 0.277364 0.840114 0.000268
O O8 0.242247 0.683476 0.834661
O O9 0.242102 0.833769 0.774933
O O10 0.243078 0.844470 0.887088
O O11 0.000000 0.786813 0.833312
O O12 0.748764 0.878196 0.662248
O O13 0.000000 0.889089 0.602223
O O14 0.779295 0.000000 0.582914
O O15 0.500000 0.112688 0.300012
O O16 0.278250 0.000000 0.310849
O O17 0.500000 0.631777 0.223685
O O18 0.691200 0.500000 0.239195
O O19 0.500000 0.890397 0.935345
O O20 0.726176 0.000000 0.944964
#
# Coordination Sequence:
#
# PCOD9357165 Si02
#       7
#     8   8   8   8   8   8   8
#     4   8  14  27  51  83 112 135 164 208 263 319
#     4  10  19  33  57  84 108 140 182 225 269 320
#     4  12  24  36  54  80 112 149 186 229 283 338
#     4  10  21  36  54  80 115 149 180 220 274 333
#     4   9  18  34  57  83 111 144 181 221 268 327
#     4  10  20  35  57  83 111 145 186 232 279 329
#     4  10  22  40  60  82 109 143 186 233 276 324
#
# _framework density 18.724315000000001
#
# number of rings (size 3 to 8) (size 9 to 14) (size 15 to 20)
#    0.000    2.143    0.000    4.714    0.000    7.429 
#    0.000    0.714    0.000    3.000    0.000    0.000 
#    0.000    0.000    0.000    0.000    0.000    0.000 
#
# Total GULP energy -156376.387612 kJ/mol
# GULP energy per Si atom -5584.870986 kJ/mol
# Density = 1.868170 g / cm^3
# Si number density = 18.724315 Si / 1000 Ang^3
#
#
#
# Elastic Constant Matrix: (Units=GPa)
#
#
# Indices 1 2 3 4 5 6 
#
# 1 43.9997 62.4084 38.3561 0.0000 0.0000 0.0000
# 2 62.4084 171.9994 90.4160 0.0000 0.0000 0.0000
# 3 38.3561 90.4160 61.2225 0.0000 0.0000 0.0000
# 4 0.0000 0.0000 0.0000 34.9701 0.0000 0.0000
# 5 0.0000 0.0000 0.0000 0.0000 14.5695 0.0000
# 6 0.0000 0.0000 0.0000 0.0000 0.0000 9.7377
#
#
#
# Elastic Compliance Matrix: (Units=1/GPa)
#
#
# Indices 1 2 3 4 5 6 
#
# 1 0.052339 -0.007840 -0.021212 0.000000 0.000000 0.000000
# 2 -0.007840 0.027169 -0.035213 0.000000 0.000000 0.000000
# 3 -0.021212 -0.035213 0.081627 0.000000 0.000000 0.000000
# 4 0.000000 0.000000 0.000000 0.028596 0.000000 0.000000
# 5 0.000000 0.000000 0.000000 0.000000 0.068637 0.000000
# 6 0.000000 0.000000 0.000000 0.000000 0.000000 0.102694
#
#
# Mechanical properties :
#
#
# Convention : Reuss Voigt Hill
#
# Bulk Modulus (GPa) = 30.66981 73.28695 51.97838
# Shear Modulus (GPa) = 9.99083 17.59154 13.79118
#
# Velocity S-wave (km/s) = 2.31243 3.06846 2.71687
# Velocity P-wave (km/s) = 4.85232 7.19575 6.13693
#
# Compressibility (1/GPa) = 0.03260535
#
# Stress axis : x y z
#
# Youngs Moduli (GPa) = 19.10625 36.80650 12.25088
#
# Poissons Ratio (x) = 0.28856 0.25987
# Poissons Ratio (y) = 0.14979 0.43139
# Poissons Ratio (z) = 0.40528 1.29606
#
# Static dielectric constant tensor:
#      x y z
#    x 1.622570 0.000000 0.000000 
#    y 0.000000 1.662090 0.000000 
#    z 0.000000 0.000000 1.625300 
# 
# From -- ./inp_files/19741.got.cif
#   From: 2010.05.17/outbox.cif.g08.bks.cpg/sg38_10_cif.got.tgz:19741.got - 2010.06.03 18:07:57.
