data_PCOD9357661
_publ_section_title
;
Structure prediction by ZEFSAII (Michael W. Deem and Ramdas Pophale) SiO2 
 PCOD9357661
Probable space group: A M M 2
;
_chemical_formula_sum "Si O2"
_cell_formula_units_Z 64
_cell_length_a 8.619580
_cell_length_b 14.949642
_cell_length_c 28.873320
_cell_angle_alpha 90.000000
_cell_angle_beta 90.000000
_cell_angle_gamma 90.000000
_cell_volume 3720.605482
_symmetry_space_group_name_H-M "A M M 2"
_symmetry_group_IT_number 38
_symmetry_cell_setting 'orthorhombic'
loop_
_space_group_symop_operation_xyz
x,y,z
-x,-y,z
-x,y,z
x,-y,z
x,1/2+y,1/2+z
-x,1/2-y,1/2+z
-x,1/2+y,1/2+z
x,1/2-y,1/2+z
loop_
_atom_site_type_symbol
_atom_site_label
_atom_site_fract_x
_atom_site_fract_y
_atom_site_fract_z
Si Si1 0.814957 0.395115 0.540150
Si Si2 0.187141 0.397376 0.085548
Si Si3 0.311124 0.398513 0.708942
Si Si4 0.814092 0.773483 0.395652
Si Si5 0.188682 0.602088 0.979792
Si Si6 0.314360 0.721838 0.624223
Si Si7 0.685579 0.102765 0.938178
Si Si8 0.687366 0.897025 0.315300
O O1 0.779641 0.500000 0.549151
O O2 0.743891 0.334160 0.579976
O O3 0.750744 0.373721 0.489152
O O4 0.000000 0.383286 0.539592
O O5 0.232013 0.500000 0.095645
O O6 0.254972 0.322562 0.118752
O O7 0.000000 0.393056 0.086617
O O8 0.236621 0.376798 0.032388
O O9 0.500000 0.398417 0.708516
O O10 0.262124 0.500000 0.697002
O O11 0.257946 0.328272 0.670621
O O12 0.265330 0.379858 0.761955
O O13 0.758162 0.829999 0.440610
O O14 0.748950 0.674110 0.401761
O O15 0.758363 0.826908 0.350745
O O16 0.000000 0.770730 0.396466
O O17 0.236186 0.500000 0.969213
O O18 0.000000 0.603374 0.979727
O O19 0.500000 0.721425 0.624364
O O20 0.500000 0.106465 0.939582
O O21 0.732759 0.000000 0.928521
O O22 0.500000 0.892401 0.317544
O O23 0.731875 0.000000 0.326743
#
# Coordination Sequence:
#
# PCOD9357661 Si02
#       8
#     8   8   8   8   8   8   8   8
#     4  10  20  33  49  72 104 138 169 202 244 296
#     4   9  18  33  50  67  94 134 172 203 240 290
#     4   8  16  32  52  73  98 129 164 203 249 298
#     4  11  20  30  50  77 103 130 161 201 249 301
#     4   8  15  28  45  66  94 128 161 189 224 278
#     4  11  20  30  50  76 100 129 168 212 253 297
#     4  10  21  36  52  71  98 133 173 213 247 284
#     4   9  18  34  54  74  99 131 166 205 248 296
#
# _framework density 17.201502000000001
#
# number of rings (size 3 to 8) (size 9 to 14) (size 15 to 20)
#    0.000    2.500    0.000    4.500    0.000    4.000 
#    0.000    1.875    0.000    3.750    0.000    1.750 
#    0.000    0.000    0.000    0.000    0.000    0.000 
#
# Total GULP energy -178552.183201 kJ/mol
# GULP energy per Si atom -5579.755725 kJ/mol
# Density = 1.716235 g / cm^3
# Si number density = 17.201502 Si / 1000 Ang^3
#
#
#
# Elastic Constant Matrix: (Units=GPa)
#
#
# Indices 1 2 3 4 5 6 
#
# 1 23.2315 33.3265 23.5678 0.0000 0.0000 0.0000
# 2 33.3265 128.9088 95.9324 0.0000 0.0000 0.0000
# 3 23.5678 95.9324 100.8915 0.0000 0.0000 0.0000
# 4 0.0000 0.0000 0.0000 33.0091 0.0000 0.0000
# 5 0.0000 0.0000 0.0000 0.0000 9.9978 0.0000
# 6 0.0000 0.0000 0.0000 0.0000 0.0000 27.1089
#
#
#
# Elastic Compliance Matrix: (Units=1/GPa)
#
#
# Indices 1 2 3 4 5 6 
#
# 1 0.068662 -0.019887 0.002871 0.000000 0.000000 0.000000
# 2 -0.019887 0.032291 -0.026058 0.000000 0.000000 0.000000
# 3 0.002871 -0.026058 0.034019 0.000000 0.000000 0.000000
# 4 0.000000 0.000000 0.000000 0.030295 0.000000 0.000000
# 5 0.000000 0.000000 0.000000 0.000000 0.100022 0.000000
# 6 0.000000 0.000000 0.000000 0.000000 0.000000 0.036888
#
#
# Mechanical properties :
#
#
# Convention : Reuss Voigt Hill
#
# Bulk Modulus (GPa) = 20.48269 62.07614 41.27942
# Shear Modulus (GPa) = 12.35785 20.70350 16.53067
#
# Velocity S-wave (km/s) = 2.68324 3.47304 3.10337
# Velocity P-wave (km/s) = 4.64037 7.22832 6.07378
#
# Compressibility (1/GPa) = 0.04882170
#
# Stress axis : x y z
#
# Youngs Moduli (GPa) = 14.56409 30.96814 29.39559
#
# Poissons Ratio (x) = 0.61587 -0.08439
# Poissons Ratio (y) = 0.28964 0.76600
# Poissons Ratio (z) = -0.04181 0.80698
#
# Static dielectric constant tensor:
#      x y z
#    x 1.584380 0.000000 0.000000 
#    y 0.000000 1.591370 0.000000 
#    z 0.000000 0.000000 1.566880 
# 
# From -- ./inp_files/24706.got.cif
#   From: 2010.05.17/outbox.cif.g08.bks.cpg/sg38_13_cif.got.tgz:24706.got - 2010.06.03 18:07:57.
