data_PCOD9357332
_publ_section_title
;
Structure prediction by ZEFSAII (Michael W. Deem and Ramdas Pophale) SiO2 
 PCOD9357332
Probable space group: A M M 2
;
_chemical_formula_sum "Si O2"
_cell_formula_units_Z 64
_cell_length_a 8.726261
_cell_length_b 21.115273
_cell_length_c 20.098194
_cell_angle_alpha 90.000000
_cell_angle_beta 90.000000
_cell_angle_gamma 90.000000
_cell_volume 3703.240635
_symmetry_space_group_name_H-M "A M M 2"
_symmetry_group_IT_number 38
_symmetry_cell_setting 'orthorhombic'
loop_
_space_group_symop_operation_xyz
x,y,z
-x,-y,z
-x,y,z
x,-y,z
x,1/2+y,1/2+z
-x,1/2-y,1/2+z
-x,1/2+y,1/2+z
x,1/2-y,1/2+z
loop_
_atom_site_type_symbol
_atom_site_label
_atom_site_fract_x
_atom_site_fract_y
_atom_site_fract_z
Si Si1 0.815802 0.237246 0.432770
Si Si2 0.817216 0.878372 0.793064
Si Si3 0.317853 0.928788 0.658484
Si Si4 0.184050 0.685446 0.075172
Si Si5 0.682731 0.763718 0.293148
Si Si6 0.183583 0.571054 0.567126
Si Si7 0.184829 0.188614 0.159244
Si Si8 0.682578 0.620983 0.432789
O O1 0.776370 0.197187 0.498161
O O2 0.746708 0.212298 0.363806
O O3 0.749941 0.308096 0.441770
O O4 0.000000 0.241570 0.427861
O O5 0.762270 0.917017 0.729354
O O6 0.753439 0.806761 0.784525
O O7 0.750349 0.903094 0.862838
O O8 0.000000 0.876099 0.796329
O O9 0.500000 0.922724 0.667779
O O10 0.261140 0.875073 0.608189
O O11 0.283623 0.000000 0.635016
O O12 0.225234 0.748978 0.116203
O O13 0.000000 0.678684 0.080071
O O14 0.500000 0.758761 0.295344
O O15 0.737517 0.804692 0.230747
O O16 0.214271 0.500000 0.591696
O O17 0.229789 0.626133 0.618264
O O18 0.264147 0.581849 0.496518
O O19 0.000000 0.577562 0.556896
O O20 0.000000 0.188285 0.167197
O O21 0.500000 0.623829 0.428335
#
# Coordination Sequence:
#
# PCOD9357332 Si02
#       8
#     8   8   8   8   8   8   8   8
#     4  10  19  35  57  82 111 142 181 228 271 318
#     4  11  21  35  55  77 107 147 188 227 265 317
#     4  11  24  39  55  79 112 146 181 225 275 327
#     4  10  20  35  59  84 108 142 183 228 272 319
#     4  11  21  33  53  84 114 143 179 223 277 328
#     4  10  21  38  58  79 108 147 188 227 269 321
#     4  10  19  35  57  83 110 142 184 228 272 318
#     4  11  21  33  52  79 113 148 182 223 270 324
#
# _framework density 17.282160999999999
#
# number of rings (size 3 to 8) (size 9 to 14) (size 15 to 20)
#    0.000    1.500    2.500    5.625    0.000    3.250 
#    0.000    0.000    0.000    0.750    0.000    1.750 
#    0.000    0.000    0.000    0.000    0.000    0.000 
#
# Total GULP energy -178773.582529 kJ/mol
# GULP energy per Si atom -5586.674454 kJ/mol
# Density = 1.724283 g / cm^3
# Si number density = 17.282161 Si / 1000 Ang^3
#
#
#
# Elastic Constant Matrix: (Units=GPa)
#
#
# Indices 1 2 3 4 5 6 
#
# 1 83.4523 51.7599 58.4338 0.0000 0.0000 0.0000
# 2 51.7599 101.7504 66.8552 0.0000 0.0000 0.0000
# 3 58.4338 66.8552 133.0647 0.0000 0.0000 0.0000
# 4 0.0000 0.0000 0.0000 22.3248 0.0000 0.0000
# 5 0.0000 0.0000 0.0000 0.0000 -45.7320 0.0000
# 6 0.0000 0.0000 0.0000 0.0000 0.0000 8.2858
#
#
#
# Elastic Compliance Matrix: (Units=1/GPa)
#
#
# Indices 1 2 3 4 5 6 
#
# 1 0.019830 -0.006517 -0.005434 0.000000 0.000000 0.000000
# 2 -0.006517 0.016813 -0.005585 0.000000 0.000000 0.000000
# 3 -0.005434 -0.005585 0.012708 0.000000 0.000000 0.000000
# 4 0.000000 0.000000 0.000000 0.044793 0.000000 0.000000
# 5 0.000000 0.000000 0.000000 0.000000 -0.021867 0.000000
# 6 0.000000 0.000000 0.000000 0.000000 0.000000 0.120689
#
#
# Mechanical properties :
#
#
# Convention : Reuss Voigt Hill
#
# Bulk Modulus (GPa) = 70.03781 74.70725 72.37253
# Shear Modulus (GPa) = 21.47791 6.39028 13.93410
#
# Velocity S-wave (km/s) = 3.52913 1.92501 2.84257
# Velocity P-wave (km/s) = 7.56442 6.94713 7.26234
#
# Compressibility (1/GPa) = 0.01427800
#
# Stress axis : x y z
#
# Youngs Moduli (GPa) = 50.42956 59.47741 78.69364
#
# Poissons Ratio (x) = 0.38762 0.42759
# Poissons Ratio (y) = 0.32865 0.43954
# Poissons Ratio (z) = 0.27401 0.33221
#
# Static dielectric constant tensor:
#      x y z
#    x 1.577060 0.000000 0.000000 
#    y 0.000000 1.578570 0.000000 
#    z 0.000000 0.000000 1.586330 
# 
# From -- ./inp_files/20087.got.cif
#   From: 2010.05.17/outbox.cif.g08.bks.cpg/sg38_11_cif.got.tgz:20087.got - 2010.06.03 18:07:57.
