data_PCOD9357789
_publ_section_title
;
Structure prediction by ZEFSAII (Michael W. Deem and Ramdas Pophale) SiO2 
 PCOD9357789
Probable space group: A M M 2
;
_chemical_formula_sum "Si O2"
_cell_formula_units_Z 64
_cell_length_a 25.044124
_cell_length_b 7.476337
_cell_length_c 15.892523
_cell_angle_alpha 90.000000
_cell_angle_beta 90.000000
_cell_angle_gamma 90.000000
_cell_volume 2975.689162
_symmetry_space_group_name_H-M "A M M 2"
_symmetry_group_IT_number 38
_symmetry_cell_setting 'orthorhombic'
loop_
_space_group_symop_operation_xyz
x,y,z
-x,-y,z
-x,y,z
x,-y,z
x,1/2+y,1/2+z
-x,1/2-y,1/2+z
-x,1/2+y,1/2+z
x,1/2-y,1/2+z
loop_
_atom_site_type_symbol
_atom_site_label
_atom_site_fract_x
_atom_site_fract_y
_atom_site_fract_z
Si Si1 0.244820 0.213005 0.564050
Si Si2 0.438664 0.718365 0.910203
Si Si3 0.941961 0.785761 0.465997
Si Si4 0.439412 0.215179 0.219835
Si Si5 0.826801 0.719173 0.909615
Si Si6 0.172703 0.715174 0.725091
Si Si7 0.365184 0.787606 0.561784
Si Si8 0.058319 0.285859 0.665735
O O1 0.210355 0.282783 0.485478
O O2 0.212060 0.239947 0.649512
O O3 0.305050 0.284607 0.567743
O O4 0.248496 0.000000 0.551977
O O5 0.500000 0.771354 0.927528
O O6 0.437978 0.500000 0.910980
O O7 0.425107 0.774504 0.814710
O O8 0.399030 0.783231 0.982566
O O9 0.887916 0.720595 0.423322
O O10 0.937721 0.748923 0.565746
O O11 0.000000 0.716919 0.437331
O O12 0.942821 0.000000 0.454456
O O13 0.500000 0.277889 0.200885
O O14 0.398248 0.264358 0.147464
O O15 0.441200 0.000000 0.222186
O O16 0.827274 0.500000 0.912773
O O17 0.808412 0.773982 0.817006
O O18 0.169267 0.500000 0.727054
O O19 0.112585 0.783130 0.707129
O O20 0.360828 0.000000 0.548108
O O21 0.057541 0.500000 0.678489
O O22 0.000000 0.217407 0.693929
#
# Coordination Sequence:
#
# PCOD9357789 Si02
#       8
#     8   8   8   8   8   8   8   8
#     4  10  21  37  52  71 103 136 170 215 256 290
#     4   8  15  30  52  77 104 134 167 200 241 299
#     4   9  16  28  50  75  97 126 163 202 249 306
#     4   9  18  33  54  81 110 136 164 204 252 297
#     4   9  18  33  52  73  98 129 168 212 254 300
#     4  10  20  34  54  76  97 130 172 209 254 308
#     4  10  20  33  53  77 101 136 176 210 248 294
#     4   9  17  29  47  73 103 128 154 199 256 308
#
# _framework density 21.507622999999999
#
# number of rings (size 3 to 8) (size 9 to 14) (size 15 to 20)
#    0.000    2.750    1.250    1.125    0.000    2.750 
#    0.000    6.875    0.000    0.750    0.000    3.500 
#    0.000    0.000    0.000    0.000    0.000    0.000 
#
# Total GULP energy -178617.572944 kJ/mol
# GULP energy per Si atom -5581.799154 kJ/mol
# Density = 2.145867 g / cm^3
# Si number density = 21.507623 Si / 1000 Ang^3
#
#
#
# Elastic Constant Matrix: (Units=GPa)
#
#
# Indices 1 2 3 4 5 6 
#
# 1 195.8228 8.2591 133.7501 0.0000 0.0000 0.0000
# 2 8.2591 61.8674 -0.5967 0.0000 0.0000 0.0000
# 3 133.7501 -0.5967 176.1204 0.0000 0.0000 0.0000
# 4 0.0000 0.0000 0.0000 21.0641 0.0000 0.0000
# 5 0.0000 0.0000 0.0000 0.0000 -5.0939 0.0000
# 6 0.0000 0.0000 0.0000 0.0000 0.0000 13.4112
#
#
#
# Elastic Compliance Matrix: (Units=1/GPa)
#
#
# Indices 1 2 3 4 5 6 
#
# 1 0.010750 -0.001514 -0.008169 0.000000 0.000000 0.000000
# 2 -0.001514 0.016377 0.001205 0.000000 0.000000 0.000000
# 3 -0.008169 0.001205 0.011886 0.000000 0.000000 0.000000
# 4 0.000000 0.000000 0.000000 0.047474 0.000000 0.000000
# 5 0.000000 0.000000 0.000000 0.000000 -0.196312 0.000000
# 6 0.000000 0.000000 0.000000 0.000000 0.000000 0.074564
#
#
# Mechanical properties :
#
#
# Convention : Reuss Voigt Hill
#
# Bulk Modulus (GPa) = 45.33560 79.62620 62.48090
# Shear Modulus (GPa) = -456.53111 25.36948 -215.58082
#
# Velocity S-wave (km/s) = -14.58512 3.43819 -10.02258
# Velocity P-wave (km/s) = 16.20215 7.27078 10.23829
#
# Compressibility (1/GPa) = 0.02205772
#
# Stress axis : x y z
#
# Youngs Moduli (GPa) = 93.02280 61.06001 84.13442
#
# Poissons Ratio (x) = 0.09244 0.68729
# Poissons Ratio (y) = 0.14083 -0.10140
# Poissons Ratio (z) = 0.75990 -0.07359
#
# Static dielectric constant tensor:
#      x y z
#    x 1.771220 0.000000 0.000000 
#    y 0.000000 1.701910 0.000000 
#    z 0.000000 0.000000 1.751240 
# 
# From -- ./inp_files/15825.got.cif
#   From: 2010.05.17/outbox.cif.g08.bks.cpg/sg38_8_cif.got.tgz:15825.got - 2010.06.03 18:07:57.
