data_PCOD9357537
_publ_section_title
;
Structure prediction by ZEFSAII (Michael W. Deem and Ramdas Pophale) SiO2 
 PCOD9357537
Probable space group: A M M 2
;
_chemical_formula_sum "Si O2"
_cell_formula_units_Z 48
_cell_length_a 9.675158
_cell_length_b 9.230986
_cell_length_c 32.257877
_cell_angle_alpha 90.000000
_cell_angle_beta 90.000000
_cell_angle_gamma 90.000000
_cell_volume 2880.991254
_symmetry_space_group_name_H-M "A M M 2"
_symmetry_group_IT_number 38
_symmetry_cell_setting 'orthorhombic'
loop_
_space_group_symop_operation_xyz
x,y,z
-x,-y,z
-x,y,z
x,-y,z
x,1/2+y,1/2+z
-x,1/2-y,1/2+z
-x,1/2+y,1/2+z
x,1/2-y,1/2+z
loop_
_atom_site_type_symbol
_atom_site_label
_atom_site_fract_x
_atom_site_fract_y
_atom_site_fract_z
Si Si1 0.831766 0.334055 0.992400
Si Si2 0.831403 0.332198 0.574392
Si Si3 0.159411 0.323149 0.665921
Si Si4 0.658896 0.323563 0.743184
Si Si5 0.334547 0.327366 0.836552
Si Si6 0.835737 0.327714 0.408138
O O1 0.786371 0.500000 0.988896
O O2 0.792405 0.243271 0.951861
O O3 0.000000 0.333183 0.993524
O O4 0.785065 0.261645 0.035363
O O5 0.790269 0.500000 0.568868
O O6 0.788257 0.279769 0.620175
O O7 0.000000 0.330746 0.575187
O O8 0.160723 0.500000 0.665445
O O9 0.248261 0.273639 0.704995
O O10 0.000000 0.278408 0.670559
O O11 0.500000 0.278633 0.737593
O O12 0.660347 0.500000 0.742897
O O13 0.704744 0.282125 0.789556
O O14 0.500000 0.305698 0.840647
O O15 0.309087 0.500000 0.840743
O O16 0.250224 0.242086 0.870969
O O17 0.816792 0.500000 0.409730
O O18 0.000000 0.298737 0.402519
#
# Coordination Sequence:
#
# PCOD9357537 Si02
#       6
#     8   8   8   8   8   8
#     4   9  16  26  42  64  89 117 149 184 224 271
#     4   8  13  22  37  58  85 115 146 180 217 259
#     4   8  13  21  36  60  86 112 145 182 217 255
#     4   8  14  25  41  62  88 116 146 181 220 262
#     4   9  18  32  49  69  93 122 156 192 231 276
#     4  10  20  32  47  69  95 121 152 192 235 276
#
# _framework density 16.660933
#
# number of rings (size 3 to 8) (size 9 to 14) (size 15 to 20)
#    0.000    3.333    0.000    3.000    0.000    4.000 
#    0.000    1.667    0.000    2.000    0.000    4.667 
#    0.000    0.000    0.000    0.000    0.000    0.000 
#
# Total GULP energy -133604.089514 kJ/mol
# GULP energy per Si atom -5566.837063 kJ/mol
# Density = 1.662301 g / cm^3
# Si number density = 16.660933 Si / 1000 Ang^3
#
#
#
# Elastic Constant Matrix: (Units=GPa)
#
#
# Indices 1 2 3 4 5 6 
#
# 1 30.2317 29.3800 65.9276 0.0000 0.0000 0.0000
# 2 29.3800 55.1448 70.2134 0.0000 0.0000 0.0000
# 3 65.9276 70.2134 209.8596 0.0000 0.0000 0.0000
# 4 0.0000 0.0000 0.0000 23.8631 0.0000 0.0000
# 5 0.0000 0.0000 0.0000 0.0000 -12.6751 0.0000
# 6 0.0000 0.0000 0.0000 0.0000 0.0000 13.6385
#
#
#
# Elastic Compliance Matrix: (Units=1/GPa)
#
#
# Indices 1 2 3 4 5 6 
#
# 1 0.127770 -0.029557 -0.030250 0.000000 0.000000 0.000000
# 2 -0.029557 0.038430 -0.003572 0.000000 0.000000 0.000000
# 3 -0.030250 -0.003572 0.015463 0.000000 0.000000 0.000000
# 4 0.000000 0.000000 0.000000 0.041906 0.000000 0.000000
# 5 0.000000 0.000000 0.000000 0.000000 -0.078895 0.000000
# 6 0.000000 0.000000 0.000000 0.000000 0.000000 0.073322
#
#
# Mechanical properties :
#
#
# Convention : Reuss Voigt Hill
#
# Bulk Modulus (GPa) = 18.21345 69.58645 43.89995
# Shear Modulus (GPa) = 13.77200 13.61299 13.69249
#
# Velocity S-wave (km/s) = 2.87819 2.86153 2.86987
# Velocity P-wave (km/s) = 4.69051 7.26462 6.11456
#
# Compressibility (1/GPa) = 0.05490448
#
# Stress axis : x y z
#
# Youngs Moduli (GPa) = 7.82656 26.02156 64.66901
#
# Poissons Ratio (x) = 0.76912 1.95625
# Poissons Ratio (y) = 0.23133 0.23101
# Poissons Ratio (z) = 0.23675 0.09295
#
# Static dielectric constant tensor:
#      x y z
#    x 1.547210 0.000000 0.000000 
#    y 0.000000 1.557460 0.000000 
#    z 0.000000 0.000000 1.572370 
# 
# From -- ./inp_files/23681.got.cif
#   From: 2010.05.17/outbox.cif.g08.bks.cpg/sg38_12_cif.got.tgz:23681.got - 2010.06.03 18:07:57.
