data_PCOD9357172
_publ_section_title
;
Structure prediction by ZEFSAII (Michael W. Deem and Ramdas Pophale) SiO2 
 PCOD9357172
Probable space group: A M M 2
;
_chemical_formula_sum "Si O2"
_cell_formula_units_Z 58
_cell_length_a 7.214026
_cell_length_b 16.159237
_cell_length_c 19.142497
_cell_angle_alpha 90.000000
_cell_angle_beta 90.000000
_cell_angle_gamma 90.000000
_cell_volume 2231.501286
_symmetry_space_group_name_H-M "A M M 2"
_symmetry_group_IT_number 38
_symmetry_cell_setting 'orthorhombic'
loop_
_space_group_symop_operation_xyz
x,y,z
-x,-y,z
-x,y,z
x,-y,z
x,1/2+y,1/2+z
-x,1/2-y,1/2+z
-x,1/2+y,1/2+z
x,1/2-y,1/2+z
loop_
_atom_site_type_symbol
_atom_site_label
_atom_site_fract_x
_atom_site_fract_y
_atom_site_fract_z
Si Si1 0.722253 0.689518 0.444350
Si Si2 0.000000 0.000000 0.529074
Si Si3 0.723321 0.625302 0.958173
Si Si4 0.723470 0.408631 0.158084
Si Si5 0.707013 0.771314 0.184455
Si Si6 0.723117 0.088188 0.822214
Si Si7 0.785847 0.908712 0.078299
Si Si8 0.724460 0.593374 0.794514
O O1 0.500000 0.693407 0.442300
O O2 0.779380 0.779770 0.466953
O O3 0.789376 0.663958 0.367906
O O4 0.774721 0.618889 0.498397
O O5 0.161784 0.928188 0.511904
O O6 0.500000 0.615250 0.967648
O O7 0.765919 0.602025 0.877131
O O8 0.500000 0.412933 0.144927
O O9 0.804300 0.500000 0.134662
O O10 0.783314 0.312706 0.147583
O O11 0.764853 0.409845 0.241155
O O12 0.500000 0.746198 0.209325
O O13 0.693431 0.838446 0.123724
O O14 0.788437 0.827603 0.248082
O O15 0.500000 0.088211 0.826062
O O16 0.786765 0.000000 0.851347
O O17 0.000000 0.909135 0.099522
O O18 0.709202 0.000000 0.088700
O O19 0.500000 0.594615 0.788577
O O20 0.783678 0.500000 0.771721
#
# Coordination Sequence:
#
# PCOD9357172 Si02
#       8
#     8   2   8   8   8   8   8   8
#     4  10  20  35  60  85 111 146 191 242 285 344
#     4  12  22  36  60  86 118 172 194 240 300 368
#     4  10  21  37  58  89 123 156 199 248 298 356
#     4   8  14  26  49  83 118 141 168 222 284 339
#     4  10  19  33  58  83 106 148 198 237 288 349
#     4   8  13  24  48  85 117 141 173 219 281 346
#     4  11  25  42  56  77 113 151 186 241 298 351
#     4   9  16  30  52  81 118 148 181 240 296 346
#
# _framework density 25.99147
#
# number of rings (size 3 to 8) (size 9 to 14) (size 15 to 20)
#    0.000    2.483    0.690    3.103    0.966    5.517 
#    1.241    0.000    1.517    0.414    0.000    1.931 
#    0.000    0.000    0.000    0.000    0.000    0.000 
#
# Total GULP energy -161739.556967 kJ/mol
# GULP energy per Si atom -5577.226102 kJ/mol
# Density = 2.593231 g / cm^3
# Si number density = 25.991470 Si / 1000 Ang^3
#
#
#
# Elastic Constant Matrix: (Units=GPa)
#
#
# Indices 1 2 3 4 5 6 
#
# 1 114.9372 2.9050 -35.7495 0.0000 0.0000 0.0000
# 2 2.9050 245.3191 37.7910 0.0000 0.0000 0.0000
# 3 -35.7495 37.7910 69.3686 0.0000 0.0000 0.0000
# 4 0.0000 0.0000 0.0000 327.1436 0.0000 0.0000
# 5 0.0000 0.0000 0.0000 0.0000 -288.6249 0.0000
# 6 0.0000 0.0000 0.0000 0.0000 0.0000 20.0373
#
#
#
# Elastic Compliance Matrix: (Units=1/GPa)
#
#
# Indices 1 2 3 4 5 6 
#
# 1 0.010606 -0.001056 0.006041 0.000000 0.000000 0.000000
# 2 -0.001056 0.004555 -0.003026 0.000000 0.000000 0.000000
# 3 0.006041 -0.003026 0.019178 0.000000 0.000000 0.000000
# 4 0.000000 0.000000 0.000000 0.003057 0.000000 0.000000
# 5 0.000000 0.000000 0.000000 0.000000 -0.003465 0.000000
# 6 0.000000 0.000000 0.000000 0.000000 0.000000 0.049907
#
#
# Mechanical properties :
#
#
# Convention : Reuss Voigt Hill
#
# Bulk Modulus (GPa) = 26.13872 48.83531 37.48702
# Shear Modulus (GPa) = 53.95396 40.02308 46.98852
#
# Velocity S-wave (km/s) = 4.56107 3.92836 4.25649
# Velocity P-wave (km/s) = 6.14950 6.27740 6.21378
#
# Compressibility (1/GPa) = 0.03825741
#
# Stress axis : x y z
#
# Youngs Moduli (GPa) = 94.28460 219.54116 52.14404
#
# Poissons Ratio (x) = 0.23189 -0.31502
# Poissons Ratio (y) = 0.09959 0.15778
# Poissons Ratio (z) = -0.56961 0.66429
#
# Static dielectric constant tensor:
#      x y z
#    x 2.185180 0.000000 0.000000 
#    y 0.000000 2.039760 0.000000 
#    z 0.000000 0.000000 2.062480 
# 
# From -- ./inp_files/22086.got.cif
#   From: 2010.05.17/outbox.cif.g08.bks.cpg/sg38_12_cif.got.tgz:22086.got - 2010.06.03 18:07:57.
