data_PCOD9357953
_publ_section_title
;
Structure prediction by ZEFSAII (Michael W. Deem and Ramdas Pophale) SiO2 
 PCOD9357953
Probable space group: A M M 2
;
_chemical_formula_sum "Si O2"
_cell_formula_units_Z 56
_cell_length_a 8.786852
_cell_length_b 14.596602
_cell_length_c 23.524222
_cell_angle_alpha 90.000000
_cell_angle_beta 90.000000
_cell_angle_gamma 90.000000
_cell_volume 3017.173934
_symmetry_space_group_name_H-M "A M M 2"
_symmetry_group_IT_number 38
_symmetry_cell_setting 'orthorhombic'
loop_
_space_group_symop_operation_xyz
x,y,z
-x,-y,z
-x,y,z
x,-y,z
x,1/2+y,1/2+z
-x,1/2-y,1/2+z
-x,1/2+y,1/2+z
x,1/2-y,1/2+z
loop_
_atom_site_type_symbol
_atom_site_label
_atom_site_fract_x
_atom_site_fract_y
_atom_site_fract_z
Si Si1 0.818822 0.392671 0.593170
Si Si2 0.816046 0.606077 0.371595
Si Si3 0.683242 0.103444 0.216294
Si Si4 0.317763 0.208254 0.762903
Si Si5 0.177639 0.109593 0.654440
Si Si6 0.318145 0.894313 0.530686
Si Si7 0.816130 0.279279 0.482483
O O1 0.793355 0.500000 0.580050
O O2 0.738148 0.372598 0.652690
O O3 0.768473 0.332336 0.539938
O O4 0.000000 0.379620 0.600773
O O5 0.766498 0.500000 0.374235
O O6 0.754256 0.655601 0.315729
O O7 0.769421 0.662441 0.427590
O O8 0.000000 0.606137 0.369682
O O9 0.500000 0.101668 0.216123
O O10 0.731096 0.185177 0.257927
O O11 0.737871 0.000000 0.229424
O O12 0.500000 0.204370 0.766994
O O13 0.264674 0.160187 0.704708
O O14 0.247671 0.127992 0.592539
O O15 0.000000 0.136027 0.654667
O O16 0.187349 0.000000 0.663782
O O17 0.500000 0.887533 0.533907
O O18 0.253022 0.821666 0.486274
O O19 0.277876 0.000000 0.517686
O O20 0.000000 0.273956 0.482744
#
# Coordination Sequence:
#
# PCOD9357953 Si02
#       7
#     8   8   8   8   8   8   8
#     4   9  17  30  51  80 109 135 167 210 260 313
#     4  10  22  40  59  79 106 140 177 218 265 318
#     4   9  19  35  52  73 104 139 172 209 258 314
#     4  11  22  35  54  79 107 141 181 225 270 315
#     4  10  20  34  54  80 110 144 179 217 266 322
#     4  10  21  36  54  79 111 143 176 218 267 317
#     4  10  20  35  56  79 105 140 179 218 262 314
#
# _framework density 18.560416
#
# number of rings (size 3 to 8) (size 9 to 14) (size 15 to 20)
#    0.000    2.143    0.000    3.000    0.000   10.000 
#    0.000    0.714    0.000    5.143    0.000    0.000 
#    0.000    0.000    0.000    0.000    0.000    0.000 
#
# Total GULP energy -156354.731867 kJ/mol
# GULP energy per Si atom -5584.097567 kJ/mol
# Density = 1.851817 g / cm^3
# Si number density = 18.560416 Si / 1000 Ang^3
#
#
#
# Elastic Constant Matrix: (Units=GPa)
#
#
# Indices 1 2 3 4 5 6 
#
# 1 17.7918 34.1167 23.5671 0.0000 0.0000 0.0000
# 2 34.1167 143.7275 99.2665 0.0000 0.0000 0.0000
# 3 23.5671 99.2665 88.1976 0.0000 0.0000 0.0000
# 4 0.0000 0.0000 0.0000 35.1171 0.0000 0.0000
# 5 0.0000 0.0000 0.0000 0.0000 72.9588 0.0000
# 6 0.0000 0.0000 0.0000 0.0000 0.0000 26.8878
#
#
#
# Elastic Compliance Matrix: (Units=1/GPa)
#
#
# Indices 1 2 3 4 5 6 
#
# 1 0.103161 -0.024472 -0.000022 0.000000 0.000000 0.000000
# 2 -0.024472 0.037053 -0.035164 0.000000 0.000000 0.000000
# 3 -0.000022 -0.035164 0.050921 0.000000 0.000000 0.000000
# 4 0.000000 0.000000 0.000000 0.028476 0.000000 0.000000
# 5 0.000000 0.000000 0.000000 0.000000 0.013706 0.000000
# 6 0.000000 0.000000 0.000000 0.000000 0.000000 0.037192
#
#
# Mechanical properties :
#
#
# Convention : Reuss Voigt Hill
#
# Bulk Modulus (GPa) = 13.92389 62.62416 38.27402
# Shear Modulus (GPa) = 12.08419 33.17719 22.63069
#
# Velocity S-wave (km/s) = 2.55438 4.23250 3.49563
# Velocity P-wave (km/s) = 4.02716 7.59601 6.07937
#
# Compressibility (1/GPa) = 0.07181903
#
# Stress axis : x y z
#
# Youngs Moduli (GPa) = 9.69356 26.98866 19.63841
#
# Poissons Ratio (x) = 0.66048 0.00043
# Poissons Ratio (y) = 0.23722 0.69056
# Poissons Ratio (z) = 0.00021 0.94902
#
# Static dielectric constant tensor:
#      x y z
#    x 1.623740 0.000000 0.000000 
#    y 0.000000 1.674190 0.000000 
#    z 0.000000 0.000000 1.598570 
# 
# From -- ./inp_files/19743.got.cif
#   From: 2010.05.17/outbox.cif.g08.bks.cpg/sg38_10_cif.got.tgz:19743.got - 2010.06.03 18:07:57.
