data_PCOD9357675
_publ_section_title
;
Structure prediction by ZEFSAII (Michael W. Deem and Ramdas Pophale) SiO2 
 PCOD9357675
Probable space group: A M M 2
;
_chemical_formula_sum "Si O2"
_cell_formula_units_Z 48
_cell_length_a 14.814815
_cell_length_b 15.285546
_cell_length_c 10.262015
_cell_angle_alpha 90.000000
_cell_angle_beta 90.000000
_cell_angle_gamma 90.000000
_cell_volume 2323.859323
_symmetry_space_group_name_H-M "A M M 2"
_symmetry_group_IT_number 38
_symmetry_cell_setting 'orthorhombic'
loop_
_space_group_symop_operation_xyz
x,y,z
-x,-y,z
-x,y,z
x,-y,z
x,1/2+y,1/2+z
-x,1/2-y,1/2+z
-x,1/2+y,1/2+z
x,1/2-y,1/2+z
loop_
_atom_site_type_symbol
_atom_site_label
_atom_site_fract_x
_atom_site_fract_y
_atom_site_fract_z
Si Si1 0.396503 0.404669 0.138160
Si Si2 0.396681 0.598480 0.450935
Si Si3 0.724451 0.739114 0.588983
Si Si4 0.813895 0.900464 0.226860
Si Si5 0.107689 0.907695 0.932023
Si Si6 0.896020 0.719218 0.930278
O O1 0.500000 0.396449 0.093078
O O2 0.361543 0.500000 0.094192
O O3 0.398187 0.405535 0.295149
O O4 0.339471 0.321552 0.100367
O O5 0.500000 0.618245 0.494510
O O6 0.372999 0.500000 0.498888
O O7 0.324414 0.670082 0.492902
O O8 0.739142 0.676255 0.714639
O O9 0.820188 0.778283 0.541521
O O10 0.881575 0.861153 0.333229
O O11 0.786075 0.000000 0.256638
O O12 0.857335 0.902130 0.081398
O O13 0.124097 0.814702 0.863974
O O14 0.000000 0.913715 0.937178
O O15 0.143621 0.000000 0.876044
O O16 0.000000 0.720481 0.976479
#
# Coordination Sequence:
#
# PCOD9357675 Si02
#       6
#     8   8   8   8   8   8
#     4   9  19  36  57  82 112 143 172 206 260 328
#     4   9  18  34  57  83 108 135 170 214 267 327
#     4  11  20  34  55  81 107 139 178 225 265 310
#     4  10  20  33  50  72 100 136 176 219 269 317
#     4   8  15  30  51  71  91 122 169 221 268 312
#     4  10  21  34  50  75 106 142 185 228 267 310
#
# _framework density 20.655296
#
# number of rings (size 3 to 8) (size 9 to 14) (size 15 to 20)
#    0.000    2.500    0.000    3.500    0.000    3.000 
#    0.000    0.833    0.000    1.000    0.000   18.667 
#    0.000    0.000    0.000    0.000    0.000    0.000 
#
# Total GULP energy -133638.237780 kJ/mol
# GULP energy per Si atom -5568.259908 kJ/mol
# Density = 2.060828 g / cm^3
# Si number density = 20.655296 Si / 1000 Ang^3
#
#
#
# Elastic Constant Matrix: (Units=GPa)
#
#
# Indices 1 2 3 4 5 6 
#
# 1 99.4395 65.6043 18.1358 0.0000 0.0000 0.0000
# 2 65.6043 174.5815 26.3145 0.0000 0.0000 0.0000
# 3 18.1358 26.3145 17.0451 0.0000 0.0000 0.0000
# 4 0.0000 0.0000 0.0000 23.9825 0.0000 0.0000
# 5 0.0000 0.0000 0.0000 0.0000 20.5341 0.0000
# 6 0.0000 0.0000 0.0000 0.0000 0.0000 25.8945
#
#
#
# Elastic Compliance Matrix: (Units=1/GPa)
#
#
# Indices 1 2 3 4 5 6 
#
# 1 0.014371 -0.004034 -0.009062 0.000000 0.000000 0.000000
# 2 -0.004034 0.008598 -0.008981 0.000000 0.000000 0.000000
# 3 -0.009062 -0.008981 0.082174 0.000000 0.000000 0.000000
# 4 0.000000 0.000000 0.000000 0.041697 0.000000 0.000000
# 5 0.000000 0.000000 0.000000 0.000000 0.048699 0.000000
# 6 0.000000 0.000000 0.000000 0.000000 0.000000 0.038618
#
#
# Mechanical properties :
#
#
# Convention : Reuss Voigt Hill
#
# Bulk Modulus (GPa) = 16.39649 56.79726 36.59687
# Shear Modulus (GPa) = 16.74249 26.14965 21.44607
#
# Velocity S-wave (km/s) = 2.85013 3.56195 3.22574
# Velocity P-wave (km/s) = 4.33433 6.66889 5.62407
#
# Compressibility (1/GPa) = 0.06098867
#
# Stress axis : x y z
#
# Youngs Moduli (GPa) = 69.58604 116.31067 12.16923
#
# Poissons Ratio (x) = 0.46923 0.11028
# Poissons Ratio (y) = 0.28073 0.10929
# Poissons Ratio (z) = 0.63059 1.04456
#
# Static dielectric constant tensor:
#      x y z
#    x 1.780790 0.000000 0.000000 
#    y 0.000000 1.816830 0.000000 
#    z 0.000000 0.000000 1.738780 
# 
# From -- ./inp_files/10006.got.cif
#   From: 2010.05.17/outbox.cif.g08.bks.cpg/sg38_6_cif.got.tgz:10006.got - 2010.06.03 18:07:57.
