data_PCOD9357546
_publ_section_title
;
Structure prediction by ZEFSAII (Michael W. Deem and Ramdas Pophale) SiO2 
 PCOD9357546
Probable space group: A M M 2
;
_chemical_formula_sum "Si O2"
_cell_formula_units_Z 64
_cell_length_a 14.551801
_cell_length_b 8.886475
_cell_length_c 31.982017
_cell_angle_alpha 90.000000
_cell_angle_beta 90.000000
_cell_angle_gamma 90.000000
_cell_volume 4135.729448
_symmetry_space_group_name_H-M "A M M 2"
_symmetry_group_IT_number 38
_symmetry_cell_setting 'orthorhombic'
loop_
_space_group_symop_operation_xyz
x,y,z
-x,-y,z
-x,y,z
x,-y,z
x,1/2+y,1/2+z
-x,1/2-y,1/2+z
-x,1/2+y,1/2+z
x,1/2-y,1/2+z
loop_
_atom_site_type_symbol
_atom_site_label
_atom_site_fract_x
_atom_site_fract_y
_atom_site_fract_z
Si Si1 0.607928 0.819133 0.106510
Si Si2 0.105531 0.179395 0.063519
Si Si3 0.391640 0.321005 0.267913
Si Si4 0.717272 0.680083 0.691269
Si Si5 0.394055 0.683444 0.946722
Si Si6 0.105374 0.320390 0.155696
Si Si7 0.388435 0.173732 0.354684
Si Si8 0.283060 0.680742 0.028656
O O1 0.500000 0.781358 0.108260
O O2 0.658159 0.778691 0.149875
O O3 0.657192 0.739467 0.067756
O O4 0.616235 0.000000 0.101378
O O5 0.118505 0.248086 0.109822
O O6 0.181650 0.252208 0.034086
O O7 0.000000 0.209780 0.050990
O O8 0.118684 0.000000 0.065865
O O9 0.500000 0.281597 0.263228
O O10 0.382996 0.500000 0.264140
O O11 0.333963 0.240608 0.232021
O O12 0.361922 0.268202 0.314168
O O13 0.723717 0.500000 0.692683
O O14 0.817615 0.751385 0.685417
O O15 0.500000 0.732235 0.952962
O O16 0.395450 0.500000 0.945609
O O17 0.360155 0.730947 0.900638
O O18 0.331686 0.729107 0.985570
O O19 0.116528 0.500000 0.152589
O O20 0.000000 0.288629 0.168541
O O21 0.500000 0.173363 0.356381
O O22 0.359170 0.000000 0.349397
O O23 0.279672 0.500000 0.029822
#
# Coordination Sequence:
#
# PCOD9357546 Si02
#       8
#     8   8   8   8   8   8   8   8
#     4  10  21  34  45  62  94 133 168 197 227 272
#     4  10  20  34  50  67  91 125 163 201 241 286
#     4  10  20  32  47  70 100 129 161 202 244 285
#     4  11  21  33  50  70  95 130 167 197 233 284
#     4   8  15  28  46  70  98 127 159 194 234 285
#     4  10  20  34  52  73  95 120 155 201 248 287
#     4   8  14  28  49  68  90 123 161 198 237 283
#     4  11  20  30  48  72  97 126 161 200 243 286
#
# _framework density 15.474900999999999
#
# number of rings (size 3 to 8) (size 9 to 14) (size 15 to 20)
#    0.000    2.250    1.250    3.375    0.000    4.000 
#    0.000    1.250    0.000    3.000    0.000    0.875 
#    0.000    5.000    0.000    0.000    0.000    0.000 
#
# Total GULP energy -178489.335965 kJ/mol
# GULP energy per Si atom -5577.791749 kJ/mol
# Density = 1.543968 g / cm^3
# Si number density = 15.474901 Si / 1000 Ang^3
#
#
#
# Elastic Constant Matrix: (Units=GPa)
#
#
# Indices 1 2 3 4 5 6 
#
# 1 102.0852 44.9365 68.8503 0.0000 0.0000 0.0000
# 2 44.9365 44.6844 45.3387 0.0000 0.0000 0.0000
# 3 68.8503 45.3387 134.2076 0.0000 0.0000 0.0000
# 4 0.0000 0.0000 0.0000 21.8082 0.0000 0.0000
# 5 0.0000 0.0000 0.0000 0.0000 8.4077 0.0000
# 6 0.0000 0.0000 0.0000 0.0000 0.0000 24.6289
#
#
#
# Elastic Compliance Matrix: (Units=1/GPa)
#
#
# Indices 1 2 3 4 5 6 
#
# 1 0.019699 -0.014540 -0.005194 0.000000 0.000000 0.000000
# 2 -0.014540 0.044783 -0.007670 0.000000 0.000000 0.000000
# 3 -0.005194 -0.007670 0.012707 0.000000 0.000000 0.000000
# 4 0.000000 0.000000 0.000000 0.045854 0.000000 0.000000
# 5 0.000000 0.000000 0.000000 0.000000 0.118938 0.000000
# 6 0.000000 0.000000 0.000000 0.000000 0.000000 0.040603
#
#
# Mechanical properties :
#
#
# Convention : Reuss Voigt Hill
#
# Bulk Modulus (GPa) = 44.67942 66.58091 55.63017
# Shear Modulus (GPa) = 14.49896 19.09242 16.79569
#
# Velocity S-wave (km/s) = 3.06426 3.51631 3.29804
# Velocity P-wave (km/s) = 6.43851 7.72039 7.10841
#
# Compressibility (1/GPa) = 0.02238167
#
# Stress axis : x y z
#
# Youngs Moduli (GPa) = 50.76373 22.32968 78.69926
#
# Poissons Ratio (x) = 0.32468 0.40875
# Poissons Ratio (y) = 0.73812 0.60359
# Poissons Ratio (z) = 0.26366 0.17126
#
# Static dielectric constant tensor:
#      x y z
#    x 1.509820 0.000000 0.000000 
#    y 0.000000 1.517400 0.000000 
#    z 0.000000 0.000000 1.504630 
# 
# From -- ./inp_files/25094.got.cif
#   From: 2010.05.17/outbox.cif.g08.bks.cpg/sg38_13_cif.got.tgz:25094.got - 2010.06.03 18:07:57.
