data_PCOD9357284
_publ_section_title
;
Structure prediction by ZEFSAII (Michael W. Deem and Ramdas Pophale) SiO2 
 PCOD9357284
Probable space group: A M M 2
;
_chemical_formula_sum "Si O2"
_cell_formula_units_Z 64
_cell_length_a 24.596594
_cell_length_b 8.348827
_cell_length_c 15.579965
_cell_angle_alpha 90.000000
_cell_angle_beta 90.000000
_cell_angle_gamma 90.000000
_cell_volume 3199.388005
_symmetry_space_group_name_H-M "A M M 2"
_symmetry_group_IT_number 38
_symmetry_cell_setting 'orthorhombic'
loop_
_space_group_symop_operation_xyz
x,y,z
-x,-y,z
-x,y,z
x,-y,z
x,1/2+y,1/2+z
-x,1/2-y,1/2+z
-x,1/2+y,1/2+z
x,1/2-y,1/2+z
loop_
_atom_site_type_symbol
_atom_site_label
_atom_site_fract_x
_atom_site_fract_y
_atom_site_fract_z
Si Si1 0.859724 0.696349 0.158300
Si Si2 0.438638 0.692156 0.232693
Si Si3 0.627333 0.311576 0.574815
Si Si4 0.644922 0.805762 0.878918
Si Si5 0.236146 0.814570 0.396671
Si Si6 0.255861 0.687212 0.101206
Si Si7 0.878930 0.812586 0.845613
Si Si8 0.061064 0.808758 0.508898
O O1 0.857333 0.500000 0.155575
O O2 0.797008 0.748932 0.150964
O O3 0.885972 0.743561 0.248135
O O4 0.895959 0.753218 0.078932
O O5 0.500000 0.753937 0.243286
O O6 0.440264 0.500000 0.240948
O O7 0.414987 0.732209 0.139251
O O8 0.397372 0.749978 0.306743
O O9 0.616715 0.500000 0.573082
O O10 0.628020 0.253398 0.475636
O O11 0.687821 0.278874 0.611220
O O12 0.705912 0.744785 0.862048
O O13 0.646595 0.000000 0.879264
O O14 0.240353 0.804944 0.500307
O O15 0.184586 0.713811 0.367056
O O16 0.227117 0.000000 0.374053
O O17 0.265401 0.500000 0.123015
O O18 0.915070 0.724322 0.915363
O O19 0.891753 0.000000 0.850351
O O20 0.000000 0.744597 0.518896
O O21 0.058717 0.000000 0.521128
#
# Coordination Sequence:
#
# PCOD9357284 Si02
#       8
#     8   8   8   8   8   8   8   8
#     4   9  19  36  57  83 111 151 194 228 275 339
#     4  10  22  40  60  81 110 154 200 232 272 342
#     4  10  21  36  56  86 117 145 184 237 293 334
#     4   9  20  38  58  82 114 151 190 232 284 340
#     4  10  19  34  58  85 116 150 189 233 282 339
#     4   9  17  34  58  80 111 151 191 228 273 341
#     4  11  22  35  57  88 118 147 187 237 287 336
#     4  10  21  41  64  82 110 154 198 236 279 337
#
# _framework density 20.003824999999999
#
# number of rings (size 3 to 8) (size 9 to 14) (size 15 to 20)
#    0.000    2.250    1.250    1.125    1.750    3.000 
#    0.000    4.375    0.000    0.000    0.000    0.000 
#    0.000    0.000    0.000    0.000    0.000    0.000 
#
# Total GULP energy -178667.665094 kJ/mol
# GULP energy per Si atom -5583.364534 kJ/mol
# Density = 1.995830 g / cm^3
# Si number density = 20.003825 Si / 1000 Ang^3
#
#
#
# Elastic Constant Matrix: (Units=GPa)
#
#
# Indices 1 2 3 4 5 6 
#
# 1 63.7573 -7.3795 4.2160 0.0000 0.0000 0.0000
# 2 -7.3795 3.0801 -2.1361 0.0000 0.0000 0.0000
# 3 4.2160 -2.1361 38.2298 0.0000 0.0000 0.0000
# 4 0.0000 0.0000 0.0000 23.9649 0.0000 0.0000
# 5 0.0000 0.0000 0.0000 0.0000 8.4088 0.0000
# 6 0.0000 0.0000 0.0000 0.0000 0.0000 19.9394
#
#
#
# Elastic Compliance Matrix: (Units=1/GPa)
#
#
# Indices 1 2 3 4 5 6 
#
# 1 0.021713 0.052393 0.000533 0.000000 0.000000 0.000000
# 2 0.052393 0.464179 0.020158 0.000000 0.000000 0.000000
# 3 0.000533 0.020158 0.027225 0.000000 0.000000 0.000000
# 4 0.000000 0.000000 0.000000 0.041728 0.000000 0.000000
# 5 0.000000 0.000000 0.000000 0.000000 0.118922 0.000000
# 6 0.000000 0.000000 0.000000 0.000000 0.000000 0.050152
#
#
# Mechanical properties :
#
#
# Convention : Reuss Voigt Hill
#
# Bulk Modulus (GPa) = 1.51679 10.49642 6.00661
# Shear Modulus (GPa) = 6.26949 17.82041 12.04495
#
# Velocity S-wave (km/s) = 1.77227 2.98795 2.45650
# Velocity P-wave (km/s) = 2.22437 4.14275 3.32492
#
# Compressibility (1/GPa) = 0.65928678
#
# Stress axis : x y z
#
# Youngs Moduli (GPa) = 46.05444 2.15434 36.73073
#
# Poissons Ratio (x) = -0.11287 -0.01958
# Poissons Ratio (y) = -2.41293 -0.74043
# Poissons Ratio (z) = -0.02454 -0.04343
#
# Static dielectric constant tensor:
#      x y z
#    x 1.685910 0.000000 0.000000 
#    y 0.000000 1.701820 0.000000 
#    z 0.000000 0.000000 1.714000 
# 
# From -- ./inp_files/15769.got.cif
#   From: 2010.05.17/outbox.cif.g08.bks.cpg/sg38_8_cif.got.tgz:15769.got - 2010.06.03 18:07:57.
