data_PCOD9357099
_publ_section_title
;
Structure prediction by ZEFSAII (Michael W. Deem and Ramdas Pophale) SiO2 
 PCOD9357099
Probable space group: A M M 2
;
_chemical_formula_sum "Si O2"
_cell_formula_units_Z 56
_cell_length_a 8.621290
_cell_length_b 23.411102
_cell_length_c 14.715244
_cell_angle_alpha 90.000000
_cell_angle_beta 90.000000
_cell_angle_gamma 90.000000
_cell_volume 2970.035080
_symmetry_space_group_name_H-M "A M M 2"
_symmetry_group_IT_number 38
_symmetry_cell_setting 'orthorhombic'
loop_
_space_group_symop_operation_xyz
x,y,z
-x,-y,z
-x,y,z
x,-y,z
x,1/2+y,1/2+z
-x,1/2-y,1/2+z
-x,1/2+y,1/2+z
x,1/2-y,1/2+z
loop_
_atom_site_type_symbol
_atom_site_label
_atom_site_fract_x
_atom_site_fract_y
_atom_site_fract_z
Si Si1 0.187632 0.110968 0.267250
Si Si2 0.185797 0.500000 0.444738
Si Si3 0.313839 0.655632 0.945664
Si Si4 0.313934 0.846562 0.651173
Si Si5 0.810750 0.500000 0.654202
Si Si6 0.183864 0.778326 0.155512
Si Si7 0.685722 0.108803 0.838371
Si Si8 0.183494 0.782081 0.941188
O O1 0.251781 0.113391 0.368903
O O2 0.238049 0.168986 0.216271
O O3 0.000000 0.111089 0.270004
O O4 0.237813 0.056419 0.208787
O O5 0.241237 0.500000 0.549605
O O6 0.242864 0.443853 0.392579
O O7 0.000000 0.500000 0.446437
O O8 0.500000 0.656800 0.944649
O O9 0.251034 0.719172 0.923519
O O10 0.259183 0.641388 0.048404
O O11 0.500000 0.849437 0.649381
O O12 0.266509 0.781527 0.673551
O O13 0.260222 0.886695 0.733315
O O14 0.000000 0.500000 0.652586
O O15 0.000000 0.770192 0.170981
O O16 0.204396 0.792822 0.049057
O O17 0.500000 0.103569 0.839777
O O18 0.734647 0.167995 0.885843
O O19 0.000000 0.782041 0.921150
#
# Coordination Sequence:
#
# PCOD9357099 Si02
#       8
#     8   4   8   8   4   8   8   8
#     4  10  19  34  55  78 104 140 179 219 267 319
#     4  11  23  41  62  83 106 138 177 219 264 317
#     4  10  20  35  53  78 110 143 178 221 268 318
#     4   9  20  36  53  74 106 143 176 212 264 319
#     4   9  20  39  60  79 106 140 177 219 266 317
#     4   9  18  31  51  79 110 140 175 217 266 319
#     4  11  22  37  56  80 109 144 181 221 267 316
#     4  10  19  33  54  82 112 144 179 219 266 320
#
# _framework density 18.854996
#
# number of rings (size 3 to 8) (size 9 to 14) (size 15 to 20)
#    0.000    2.143    0.000    3.214    0.000    7.429 
#    0.000    3.929    0.000    2.571    0.000    0.000 
#    0.000    0.000    0.000    0.000    0.000    0.000 
#
# Total GULP energy -156348.888417 kJ/mol
# GULP energy per Si atom -5583.888872 kJ/mol
# Density = 1.881208 g / cm^3
# Si number density = 18.854996 Si / 1000 Ang^3
#
#
#
# Elastic Constant Matrix: (Units=GPa)
#
#
# Indices 1 2 3 4 5 6 
#
# 1 27.7948 19.1636 32.4945 0.0000 0.0000 0.0000
# 2 19.1636 79.8414 101.1002 0.0000 0.0000 0.0000
# 3 32.4945 101.1002 161.7375 0.0000 0.0000 0.0000
# 4 0.0000 0.0000 0.0000 35.0015 0.0000 0.0000
# 5 0.0000 0.0000 0.0000 0.0000 25.7473 0.0000
# 6 0.0000 0.0000 0.0000 0.0000 0.0000 -24.8034
#
#
#
# Elastic Compliance Matrix: (Units=1/GPa)
#
#
# Indices 1 2 3 4 5 6 
#
# 1 0.047199 0.003256 -0.011518 0.000000 0.000000 0.000000
# 2 0.003256 0.060303 -0.038349 0.000000 0.000000 0.000000
# 3 -0.011518 -0.038349 0.032468 0.000000 0.000000 0.000000
# 4 0.000000 0.000000 0.000000 0.028570 0.000000 0.000000
# 5 0.000000 0.000000 0.000000 0.000000 0.038839 0.000000
# 6 0.000000 0.000000 0.000000 0.000000 0.000000 -0.040317
#
#
# Mechanical properties :
#
#
# Convention : Reuss Voigt Hill
#
# Bulk Modulus (GPa) = 21.39101 63.87669 42.63385
# Shear Modulus (GPa) = 18.12469 14.96345 16.54407
#
# Velocity S-wave (km/s) = 3.10379 2.82016 2.96537
# Velocity P-wave (km/s) = 4.92081 6.67501 5.86388
#
# Compressibility (1/GPa) = 0.04674860
#
# Stress axis : x y z
#
# Youngs Moduli (GPa) = 21.18710 16.58287 30.79911
#
# Poissons Ratio (x) = -0.05400 0.35475
# Poissons Ratio (y) = -0.06899 1.18112
# Poissons Ratio (z) = 0.24404 0.63594
#
# Static dielectric constant tensor:
#      x y z
#    x 1.639970 0.000000 0.000000 
#    y 0.000000 1.613940 0.000000 
#    z 0.000000 0.000000 1.687860 
# 
# From -- ./inp_files/12482.got.cif
#   From: 2010.05.17/outbox.cif.g08.bks.cpg/sg38_7_cif.got.tgz:12482.got - 2010.06.03 18:07:57.
