data_PCOD9357870
_publ_section_title
;
Structure prediction by ZEFSAII (Michael W. Deem and Ramdas Pophale) SiO2 
 PCOD9357870
Probable space group: A M M 2
;
_chemical_formula_sum "Si O2"
_cell_formula_units_Z 40
_cell_length_a 7.452891
_cell_length_b 9.472948
_cell_length_c 30.614908
_cell_angle_alpha 90.000000
_cell_angle_beta 90.000000
_cell_angle_gamma 90.000000
_cell_volume 2161.438494
_symmetry_space_group_name_H-M "A M M 2"
_symmetry_group_IT_number 38
_symmetry_cell_setting 'orthorhombic'
loop_
_space_group_symop_operation_xyz
x,y,z
-x,-y,z
-x,y,z
x,-y,z
x,1/2+y,1/2+z
-x,1/2-y,1/2+z
-x,1/2+y,1/2+z
x,1/2-y,1/2+z
loop_
_atom_site_type_symbol
_atom_site_label
_atom_site_fract_x
_atom_site_fract_y
_atom_site_fract_z
Si Si1 0.218924 0.338088 0.804280
Si Si2 0.219121 0.837218 0.888274
Si Si3 0.204782 0.828285 0.984765
Si Si4 0.500000 0.168333 0.645483
Si Si5 0.211945 0.166738 0.718407
Si Si6 0.500000 0.170639 0.054586
O O1 0.276792 0.500000 0.803563
O O2 0.278191 0.257624 0.847939
O O3 0.271069 0.255630 0.760468
O O4 0.000000 0.336358 0.804944
O O5 0.000000 0.837908 0.888876
O O6 0.275384 0.000000 0.882277
O O7 0.272524 0.785550 0.936577
O O8 0.329637 0.788143 0.024851
O O9 0.000000 0.780712 0.990534
O O10 0.203604 0.000000 0.983083
O O11 0.328275 0.200855 0.675900
O O12 0.500000 0.254737 0.601020
O O13 0.500000 0.000000 0.636623
O O14 0.000000 0.191043 0.711055
O O15 0.236450 0.000000 0.727861
O O16 0.500000 0.000000 0.059617
#
# Coordination Sequence:
#
# PCOD9357870 Si02
#       6
#     8   8   8   4   8   4
#     4   9  16  26  44  73 105 131 158 196 239 282
#     4   8  13  24  44  67  94 131 167 195 229 277
#     4   8  15  29  49  73  99 127 162 200 234 277
#     4  10  22  38  53  72  97 123 158 205 249 290
#     4   9  18  34  54  72  94 128 165 197 234 285
#     4  10  20  34  53  74  95 123 160 203 249 290
#
# _framework density 18.506195999999999
#
# number of rings (size 3 to 8) (size 9 to 14) (size 15 to 20)
#    0.000    3.200    0.000    1.800    0.000    4.000 
#    0.000    2.000    0.000    4.800    0.000    0.000 
#    0.000    0.000    0.000    0.000    0.000    0.000 
#
# Total GULP energy -111544.283102 kJ/mol
# GULP energy per Si atom -5577.214155 kJ/mol
# Density = 1.846407 g / cm^3
# Si number density = 18.506196 Si / 1000 Ang^3
#
#
#
# Elastic Constant Matrix: (Units=GPa)
#
#
# Indices 1 2 3 4 5 6 
#
# 1 80.4097 36.9314 70.9423 0.0000 0.0000 0.0000
# 2 36.9314 69.4573 96.2736 0.0000 0.0000 0.0000
# 3 70.9423 96.2736 224.8825 0.0000 0.0000 0.0000
# 4 0.0000 0.0000 0.0000 36.7430 0.0000 0.0000
# 5 0.0000 0.0000 0.0000 0.0000 34.5882 0.0000
# 6 0.0000 0.0000 0.0000 0.0000 0.0000 6.1842
#
#
#
# Elastic Compliance Matrix: (Units=1/GPa)
#
#
# Indices 1 2 3 4 5 6 
#
# 1 0.017697 -0.004111 -0.003823 0.000000 0.000000 0.000000
# 2 -0.004111 0.036363 -0.014270 0.000000 0.000000 0.000000
# 3 -0.003823 -0.014270 0.011762 0.000000 0.000000 0.000000
# 4 0.000000 0.000000 0.000000 0.027216 0.000000 0.000000
# 5 0.000000 0.000000 0.000000 0.000000 0.028912 0.000000
# 6 0.000000 0.000000 0.000000 0.000000 0.000000 0.161702
#
#
# Mechanical properties :
#
#
# Convention : Reuss Voigt Hill
#
# Bulk Modulus (GPa) = 46.69888 87.00488 66.85188
# Shear Modulus (GPa) = 14.91652 26.87658 20.89655
#
# Velocity S-wave (km/s) = 2.84214 3.81504 3.36395
# Velocity P-wave (km/s) = 6.00494 8.15610 7.16175
#
# Compressibility (1/GPa) = 0.02141379
#
# Stress axis : x y z
#
# Youngs Moduli (GPa) = 56.50602 27.50025 85.01938
#
# Poissons Ratio (x) = 0.11305 0.32502
# Poissons Ratio (y) = 0.23230 1.21327
# Poissons Ratio (z) = 0.21602 0.39244
#
# Static dielectric constant tensor:
#      x y z
#    x 1.690950 0.000000 0.000000 
#    y 0.000000 1.613680 0.000000 
#    z 0.000000 0.000000 1.605160 
# 
# From -- ./inp_files/23222.got.cif
#   From: 2010.05.17/outbox.cif.g08.bks.cpg/sg38_12_cif.got.tgz:23222.got - 2010.06.03 18:07:57.
