data_PCOD9357980
_publ_section_title
;
Structure prediction by ZEFSAII (Michael W. Deem and Ramdas Pophale) SiO2 
 PCOD9357980
Probable space group: A M M 2
;
_chemical_formula_sum "Si O2"
_cell_formula_units_Z 40
_cell_length_a 13.257612
_cell_length_b 8.193061
_cell_length_c 20.117727
_cell_angle_alpha 90.000000
_cell_angle_beta 90.000000
_cell_angle_gamma 90.000000
_cell_volume 2185.196033
_symmetry_space_group_name_H-M "A M M 2"
_symmetry_group_IT_number 38
_symmetry_cell_setting 'orthorhombic'
loop_
_space_group_symop_operation_xyz
x,y,z
-x,-y,z
-x,y,z
x,-y,z
x,1/2+y,1/2+z
-x,1/2-y,1/2+z
-x,1/2+y,1/2+z
x,1/2-y,1/2+z
loop_
_atom_site_type_symbol
_atom_site_label
_atom_site_fract_x
_atom_site_fract_y
_atom_site_fract_z
Si Si1 0.757182 0.186576 0.458830
Si Si2 0.388276 0.308468 0.083898
Si Si3 0.880064 0.500000 0.656206
Si Si4 0.119589 0.500000 0.496384
Si Si5 0.617799 0.688237 0.344327
Si Si6 0.705400 0.178681 0.215745
O O1 0.689762 0.209658 0.524630
O O2 0.835472 0.335950 0.463231
O O3 0.682320 0.209181 0.396754
O O4 0.798027 0.000000 0.458702
O O5 0.500000 0.259885 0.061634
O O6 0.389564 0.500000 0.101627
O O7 0.355879 0.213677 0.149171
O O8 0.859407 0.500000 0.576683
O O9 0.821154 0.652545 0.690915
O O10 0.000000 0.500000 0.666467
O O11 0.000000 0.500000 0.489364
O O12 0.500000 0.738166 0.338420
O O13 0.618779 0.500000 0.366930
O O14 0.674261 0.700041 0.273478
O O15 0.676378 0.000000 0.242559
#
# Coordination Sequence:
#
# PCOD9357980 Si02
#       6
#     8   8   4   4   8   8
#     4  11  22  40  63  90 123 163 206 255 310 371
#     4  10  20  34  54  84 120 155 197 247 309 377
#     4   9  20  40  64  86 114 159 202 263 323 361
#     4  11  22  44  68  92 124 157 208 267 319 365
#     4  11  23  38  59  86 127 170 203 247 313 378
#     4  10  20  35  57  85 114 156 200 256 301 372
#
# _framework density 18.304995000000002
#
# number of rings (size 3 to 8) (size 9 to 14) (size 15 to 20)
#    0.600    1.000    3.000    2.400    0.000    5.600 
#    0.000    1.000    0.000    1.800    0.000    0.000 
#    0.000    0.000    0.000    0.000    0.000    0.000 
#
# Total GULP energy -111432.275081 kJ/mol
# GULP energy per Si atom -5571.613754 kJ/mol
# Density = 1.826333 g / cm^3
# Si number density = 18.304995 Si / 1000 Ang^3
#
#
#
# Elastic Constant Matrix: (Units=GPa)
#
#
# Indices 1 2 3 4 5 6 
#
# 1 105.3227 50.4970 22.2301 0.0000 0.0000 0.0000
# 2 50.4970 87.5270 24.5255 0.0000 0.0000 0.0000
# 3 22.2301 24.5255 68.2094 0.0000 0.0000 0.0000
# 4 0.0000 0.0000 0.0000 33.1976 0.0000 0.0000
# 5 0.0000 0.0000 0.0000 0.0000 17.2231 0.0000
# 6 0.0000 0.0000 0.0000 0.0000 0.0000 20.3847
#
#
#
# Elastic Compliance Matrix: (Units=1/GPa)
#
#
# Indices 1 2 3 4 5 6 
#
# 1 0.013311 -0.007188 -0.001754 0.000000 0.000000 0.000000
# 2 -0.007188 0.016587 -0.003621 0.000000 0.000000 0.000000
# 3 -0.001754 -0.003621 0.016534 0.000000 0.000000 0.000000
# 4 0.000000 0.000000 0.000000 0.030123 0.000000 0.000000
# 5 0.000000 0.000000 0.000000 0.000000 0.058062 0.000000
# 6 0.000000 0.000000 0.000000 0.000000 0.000000 0.049056
#
#
# Mechanical properties :
#
#
# Convention : Reuss Voigt Hill
#
# Bulk Modulus (GPa) = 46.93498 50.61824 48.77661
# Shear Modulus (GPa) = 23.15873 25.08151 24.12012
#
# Velocity S-wave (km/s) = 3.56077 3.70564 3.63392
# Velocity P-wave (km/s) = 6.52699 6.78393 6.65670
#
# Compressibility (1/GPa) = 0.02130607
#
# Stress axis : x y z
#
# Youngs Moduli (GPa) = 75.12487 60.28863 60.48015
#
# Poissons Ratio (x) = 0.43337 0.10606
# Poissons Ratio (y) = 0.54002 0.21902
# Poissons Ratio (z) = 0.13174 0.21832
#
# Static dielectric constant tensor:
#      x y z
#    x 1.612910 0.000000 0.000000 
#    y 0.000000 1.648140 0.000000 
#    z 0.000000 0.000000 1.610750 
# 
# From -- ./inp_files/20502.got.cif
#   From: 2010.05.17/outbox.cif.g08.bks.cpg/sg38_11_cif.got.tgz:20502.got - 2010.06.03 18:07:57.
