data_PCOD9357845
_publ_section_title
;
Structure prediction by ZEFSAII (Michael W. Deem and Ramdas Pophale) SiO2 
 PCOD9357845
Probable space group: A M M 2
;
_chemical_formula_sum "Si O2"
_cell_formula_units_Z 64
_cell_length_a 8.396037
_cell_length_b 20.332809
_cell_length_c 20.983552
_cell_angle_alpha 90.000000
_cell_angle_beta 90.000000
_cell_angle_gamma 90.000000
_cell_volume 3582.207430
_symmetry_space_group_name_H-M "A M M 2"
_symmetry_group_IT_number 38
_symmetry_cell_setting 'orthorhombic'
loop_
_space_group_symop_operation_xyz
x,y,z
-x,-y,z
-x,y,z
x,-y,z
x,1/2+y,1/2+z
-x,1/2-y,1/2+z
-x,1/2+y,1/2+z
x,1/2-y,1/2+z
loop_
_atom_site_type_symbol
_atom_site_label
_atom_site_fract_x
_atom_site_fract_y
_atom_site_fract_z
Si Si1 0.192507 0.075563 0.563660
Si Si2 0.690599 0.424399 0.923219
Si Si3 0.805880 0.824496 0.816440
Si Si4 0.309039 0.823961 0.173714
Si Si5 0.192664 0.823862 0.672007
Si Si6 0.192530 0.575554 0.424795
Si Si7 0.190703 0.826147 0.315199
Si Si8 0.692399 0.424499 0.565205
O O1 0.249033 0.095527 0.493311
O O2 0.248498 0.124918 0.618688
O O3 0.000000 0.075944 0.564036
O O4 0.244891 0.000000 0.574692
O O5 0.500000 0.424006 0.923492
O O6 0.744933 0.500000 0.912392
O O7 0.750599 0.376277 0.868424
O O8 0.756584 0.841623 0.744175
O O9 0.750168 0.875324 0.869829
O O10 0.756686 0.749121 0.829134
O O11 0.000000 0.825626 0.817314
O O12 0.500000 0.823467 0.173532
O O13 0.248435 0.750423 0.159620
O O14 0.251599 0.842710 0.244449
O O15 0.252515 0.875344 0.120345
O O16 0.000000 0.823948 0.671476
O O17 0.244520 0.500000 0.413778
O O18 0.249220 0.595431 0.495101
O O19 0.000000 0.576100 0.424341
O O20 0.000000 0.826415 0.313956
O O21 0.500000 0.424148 0.565027
O O22 0.744916 0.500000 0.576356
#
# Coordination Sequence:
#
# PCOD9357845 Si02
#       8
#     8   8   8   8   8   8   8   8
#     4   9  18  33  53  76 101 132 172 214 255 302
#     4  10  21  36  53  74 102 134 167 207 255 307
#     4   8  16  31  49  72 101 129 159 199 247 292
#     4  10  20  34  52  74 100 132 169 208 252 303
#     4   9  18  33  52  74 102 135 169 209 254 298
#     4   9  17  30  50  74  98 126 162 202 241 286
#     4  10  20  35  54  75 101 132 166 207 252 299
#     4   9  19  35  51  68  95 129 162 199 244 292
#
# _framework density 17.866078999999999
#
# number of rings (size 3 to 8) (size 9 to 14) (size 15 to 20)
#    0.000    2.750    0.000    1.875    0.000    4.250 
#    0.000   10.625    0.000    0.000    0.000    3.500 
#    0.000    0.000    0.000    0.000    0.000    0.000 
#
# Total GULP energy -178451.474307 kJ/mol
# GULP energy per Si atom -5576.608572 kJ/mol
# Density = 1.782542 g / cm^3
# Si number density = 17.866079 Si / 1000 Ang^3
#
#
#
# Elastic Constant Matrix: (Units=GPa)
#
#
# Indices 1 2 3 4 5 6 
#
# 1 13.4819 17.9040 23.0752 0.0000 0.0000 0.0000
# 2 17.9040 115.4488 137.5348 0.0000 0.0000 0.0000
# 3 23.0752 137.5348 196.5275 0.0000 0.0000 0.0000
# 4 0.0000 0.0000 0.0000 45.3305 0.0000 0.0000
# 5 0.0000 0.0000 0.0000 0.0000 166.8338 0.0000
# 6 0.0000 0.0000 0.0000 0.0000 0.0000 20.4144
#
#
#
# Elastic Compliance Matrix: (Units=1/GPa)
#
#
# Indices 1 2 3 4 5 6 
#
# 1 0.094233 -0.008616 -0.005034 0.000000 0.000000 0.000000
# 2 -0.008616 0.052875 -0.035992 0.000000 0.000000 0.000000
# 3 -0.005034 -0.035992 0.030867 0.000000 0.000000 0.000000
# 4 0.000000 0.000000 0.000000 0.022060 0.000000 0.000000
# 5 0.000000 0.000000 0.000000 0.000000 0.005994 0.000000
# 6 0.000000 0.000000 0.000000 0.000000 0.000000 0.048985
#
#
# Mechanical properties :
#
#
# Convention : Reuss Voigt Hill
#
# Bulk Modulus (GPa) = 12.70802 75.83179 44.26991
# Shear Modulus (GPa) = 13.13960 56.31200 34.72580
#
# Velocity S-wave (km/s) = 2.71486 5.62026 4.41349
# Velocity P-wave (km/s) = 4.11772 9.20072 7.12772
#
# Compressibility (1/GPa) = 0.07869047
#
# Stress axis : x y z
#
# Youngs Moduli (GPa) = 10.61204 18.91248 32.39671
#
# Poissons Ratio (x) = 0.16295 0.16310
# Poissons Ratio (y) = 0.09143 1.16601
# Poissons Ratio (z) = 0.05343 0.68069
#
# Static dielectric constant tensor:
#      x y z
#    x 1.614360 0.000000 0.000000 
#    y 0.000000 1.606480 0.000000 
#    z 0.000000 0.000000 1.587470 
# 
# From -- ./inp_files/17229.got.cif
#   From: 2010.05.17/outbox.cif.g08.bks.cpg/sg38_9_cif.got.tgz:17229.got - 2010.06.03 18:07:57.
