data_PCOD9357435
_publ_section_title
;
Structure prediction by ZEFSAII (Michael W. Deem and Ramdas Pophale) SiO2 
 PCOD9357435
Probable space group: A M M 2
;
_chemical_formula_sum "Si O2"
_cell_formula_units_Z 58
_cell_length_a 7.372770
_cell_length_b 23.508450
_cell_length_c 15.903711
_cell_angle_alpha 90.000000
_cell_angle_beta 90.000000
_cell_angle_gamma 90.000000
_cell_volume 2756.469278
_symmetry_space_group_name_H-M "A M M 2"
_symmetry_group_IT_number 38
_symmetry_cell_setting 'orthorhombic'
loop_
_space_group_symop_operation_xyz
x,y,z
-x,-y,z
-x,y,z
x,-y,z
x,1/2+y,1/2+z
-x,1/2-y,1/2+z
-x,1/2+y,1/2+z
x,1/2-y,1/2+z
loop_
_atom_site_type_symbol
_atom_site_label
_atom_site_fract_x
_atom_site_fract_y
_atom_site_fract_z
Si Si1 0.703785 0.235659 0.215390
Si Si2 0.277021 0.316993 0.882116
Si Si3 0.203246 0.147981 0.791166
Si Si4 0.500000 0.000000 0.006838
Si Si5 0.281186 0.727459 0.526920
Si Si6 0.720688 0.937049 0.453694
Si Si7 0.213467 0.599543 0.466715
Si Si8 0.718440 0.563667 0.147837
O O1 0.500000 0.213599 0.201092
O O2 0.788129 0.197107 0.288133
O O3 0.694541 0.296088 0.262394
O O4 0.782611 0.242320 0.121833
O O5 0.500000 0.314967 0.881107
O O6 0.221331 0.380646 0.906253
O O7 0.219245 0.270812 0.953123
O O8 0.273869 0.112632 0.870262
O O9 0.200115 0.108285 0.710451
O O10 0.000000 0.166240 0.814550
O O11 0.341028 0.050623 0.003216
O O12 0.500000 0.732516 0.525208
O O13 0.232386 0.661880 0.509234
O O14 0.500000 0.937663 0.452090
O O15 0.773432 0.930280 0.551238
O O16 0.779661 0.000000 0.424680
O O17 0.000000 0.583493 0.467274
O O18 0.500000 0.569926 0.150555
O O19 0.763677 0.500000 0.175592
#
# Coordination Sequence:
#
# PCOD9357435 Si02
#       8
#     8   8   8   2   8   8   8   8
#     4  10  20  33  58  85 114 154 205 250 309 379
#     4   9  16  28  51  80 113 155 199 251 308 364
#     4  11  23  35  50  81 120 154 196 249 308 373
#     4  12  26  44  72  86 124 172 214 264 328 374
#     4  10  19  36  60  86 119 162 210 264 320 374
#     4   8  14  27  47  77 114 150 191 243 300 357
#     4  11  25  42  64  94 125 165 216 264 319 387
#     4   9  18  30  50  75 104 146 192 234 289 363
#
# _framework density 21.041408000000001
#
# number of rings (size 3 to 8) (size 9 to 14) (size 15 to 20)
#    0.000    2.207    2.069    2.276    2.897    3.034 
#    0.000    0.000    1.517    0.000    0.000    0.000 
#    0.000    0.000    0.000    0.000    0.000    0.000 
#
# Total GULP energy -161545.462696 kJ/mol
# GULP energy per Si atom -5570.533196 kJ/mol
# Density = 2.099352 g / cm^3
# Si number density = 21.041408 Si / 1000 Ang^3
#
#
#
# Elastic Constant Matrix: (Units=GPa)
#
#
# Indices 1 2 3 4 5 6 
#
# 1 90.5602 12.5276 8.5171 0.0000 0.0000 0.0000
# 2 12.5276 88.0293 26.8808 0.0000 0.0000 0.0000
# 3 8.5171 26.8808 79.5165 0.0000 0.0000 0.0000
# 4 0.0000 0.0000 0.0000 31.6238 0.0000 0.0000
# 5 0.0000 0.0000 0.0000 0.0000 -1.2158 0.0000
# 6 0.0000 0.0000 0.0000 0.0000 0.0000 -15.6407
#
#
#
# Elastic Compliance Matrix: (Units=1/GPa)
#
#
# Indices 1 2 3 4 5 6 
#
# 1 0.011303 -0.001382 -0.000744 0.000000 0.000000 0.000000
# 2 -0.001382 0.012836 -0.004191 0.000000 0.000000 0.000000
# 3 -0.000744 -0.004191 0.014073 0.000000 0.000000 0.000000
# 4 0.000000 0.000000 0.000000 0.031622 0.000000 0.000000
# 5 0.000000 0.000000 0.000000 0.000000 -0.822521 0.000000
# 6 0.000000 0.000000 0.000000 0.000000 0.000000 -0.063936
#
#
# Mechanical properties :
#
#
# Convention : Reuss Voigt Hill
#
# Bulk Modulus (GPa) = 39.09434 39.32856 39.21145
# Shear Modulus (GPa) = -6.28565 16.96550 5.33993
#
# Velocity S-wave (km/s) = -1.73025 2.84261 1.59478
# Velocity P-wave (km/s) = 3.82471 5.43190 4.69755
#
# Compressibility (1/GPa) = 0.02557915
#
# Stress axis : x y z
#
# Youngs Moduli (GPa) = 88.46867 77.90380 71.06024
#
# Poissons Ratio (x) = 0.10763 0.05285
# Poissons Ratio (y) = 0.12222 0.29784
# Poissons Ratio (z) = 0.06579 0.32652
#
# Static dielectric constant tensor:
#      x y z
#    x 1.775040 0.000000 0.000000 
#    y 0.000000 1.874280 0.000000 
#    z 0.000000 0.000000 1.756370 
# 
# From -- ./inp_files/12670.got.cif
#   From: 2010.05.17/outbox.cif.g08.bks.cpg/sg38_7_cif.got.tgz:12670.got - 2010.06.03 18:07:57.
