data_PCOD9357937
_publ_section_title
;
Structure prediction by ZEFSAII (Michael W. Deem and Ramdas Pophale) SiO2 
 PCOD9357937
Probable space group: A M M 2
;
_chemical_formula_sum "Si O2"
_cell_formula_units_Z 48
_cell_length_a 9.310706
_cell_length_b 8.664528
_cell_length_c 32.285439
_cell_angle_alpha 90.000000
_cell_angle_beta 90.000000
_cell_angle_gamma 90.000000
_cell_volume 2604.559115
_symmetry_space_group_name_H-M "A M M 2"
_symmetry_group_IT_number 38
_symmetry_cell_setting 'orthorhombic'
loop_
_space_group_symop_operation_xyz
x,y,z
-x,-y,z
-x,y,z
x,-y,z
x,1/2+y,1/2+z
-x,1/2-y,1/2+z
-x,1/2+y,1/2+z
x,1/2-y,1/2+z
loop_
_atom_site_type_symbol
_atom_site_label
_atom_site_fract_x
_atom_site_fract_y
_atom_site_fract_z
Si Si1 0.666293 0.186718 0.818130
Si Si2 0.666877 0.814095 0.479544
Si Si3 0.834783 0.311566 0.235646
Si Si4 0.326559 0.680815 0.566688
Si Si5 0.332959 0.686053 0.153790
Si Si6 0.166150 0.813272 0.397275
O O1 0.500000 0.235126 0.817934
O O2 0.746286 0.237040 0.776120
O O3 0.747661 0.249692 0.858155
O O4 0.669882 0.000000 0.819159
O O5 0.500000 0.764533 0.474510
O O6 0.723771 0.754166 0.523606
O O7 0.758949 0.763101 0.440116
O O8 0.667815 0.000000 0.480778
O O9 0.833729 0.500000 0.235379
O O10 0.758504 0.261327 0.193218
O O11 0.000000 0.261707 0.237880
O O12 0.500000 0.703392 0.566668
O O13 0.296516 0.500000 0.566830
O O14 0.275993 0.755110 0.609636
O O15 0.500000 0.734653 0.158592
O O16 0.331609 0.500000 0.152997
O O17 0.000000 0.765088 0.395700
O O18 0.170931 0.000000 0.396200
#
# Coordination Sequence:
#
# PCOD9357937 Si02
#       6
#     8   8   8   8   8   8
#     4  10  20  34  54  79 104 132 169 211 253 299
#     4   9  17  31  51  72  95 127 167 207 246 292
#     4   9  17  30  49  73 100 130 165 205 247 292
#     4   9  17  29  47  72  99 125 158 203 250 293
#     4   9  16  28  48  71  94 124 164 205 243 288
#     4  10  21  36  53  75 104 136 169 207 253 304
#
# _framework density 18.429223
#
# number of rings (size 3 to 8) (size 9 to 14) (size 15 to 20)
#    0.000    2.667    0.000    2.000    0.000    6.667 
#    0.000    3.333    0.000    8.500    0.000    0.000 
#    0.000    0.000    0.000    0.000    0.000    0.000 
#
# Total GULP energy -133864.781477 kJ/mol
# GULP energy per Si atom -5577.699228 kJ/mol
# Density = 1.838728 g / cm^3
# Si number density = 18.429223 Si / 1000 Ang^3
#
#
#
# Elastic Constant Matrix: (Units=GPa)
#
#
# Indices 1 2 3 4 5 6 
#
# 1 124.5962 14.7351 112.2560 0.0000 0.0000 0.0000
# 2 14.7351 -7.6037 33.1869 0.0000 0.0000 0.0000
# 3 112.2560 33.1869 231.3478 0.0000 0.0000 0.0000
# 4 0.0000 0.0000 0.0000 29.7133 0.0000 0.0000
# 5 0.0000 0.0000 0.0000 0.0000 -7.5378 0.0000
# 6 0.0000 0.0000 0.0000 0.0000 0.0000 14.5877
#
#
#
# Elastic Compliance Matrix: (Units=1/GPa)
#
#
# Indices 1 2 3 4 5 6 
#
# 1 0.014229 -0.001574 -0.006679 0.000000 0.000000 0.000000
# 2 -0.001574 -0.080703 0.012341 0.000000 0.000000 0.000000
# 3 -0.006679 0.012341 0.005793 0.000000 0.000000 0.000000
# 4 0.000000 0.000000 0.000000 0.033655 0.000000 0.000000
# 5 0.000000 0.000000 0.000000 0.000000 -0.132664 0.000000
# 6 0.000000 0.000000 0.000000 0.000000 0.000000 0.068551
#
#
# Mechanical properties :
#
#
# Convention : Reuss Voigt Hill
#
# Bulk Modulus (GPa) = -19.04565 74.29957 27.62696
# Shear Modulus (GPa) = -42.80190 19.89680 -11.45255
#
# Velocity S-wave (km/s) = -4.82446 3.28934 -2.49556
# Velocity P-wave (km/s) = 6.43357 7.40473 2.59222
#
# Compressibility (1/GPa) = -0.05250544
#
# Stress axis : x y z
#
# Youngs Moduli (GPa) = 70.27804 -12.39108 172.62799
#
# Poissons Ratio (x) = -0.01951 1.15290
# Poissons Ratio (y) = 0.11065 -2.13037
# Poissons Ratio (z) = 0.46935 0.15292
#
# Static dielectric constant tensor:
#      x y z
#    x 1.624620 0.000000 0.000000 
#    y 0.000000 1.631350 0.000000 
#    z 0.000000 0.000000 1.618030 
# 
# From -- ./inp_files/23345.got.cif
#   From: 2010.05.17/outbox.cif.g08.bks.cpg/sg38_12_cif.got.tgz:23345.got - 2010.06.03 18:07:57.
