data_PCOD9357425
_publ_section_title
;
Structure prediction by ZEFSAII (Michael W. Deem and Ramdas Pophale) SiO2 
 PCOD9357425
Probable space group: A M M 2
;
_chemical_formula_sum "Si O2"
_cell_formula_units_Z 56
_cell_length_a 11.818422
_cell_length_b 24.201559
_cell_length_c 10.729413
_cell_angle_alpha 90.000000
_cell_angle_beta 90.000000
_cell_angle_gamma 90.000000
_cell_volume 3068.872170
_symmetry_space_group_name_H-M "A M M 2"
_symmetry_group_IT_number 38
_symmetry_cell_setting 'orthorhombic'
loop_
_space_group_symop_operation_xyz
x,y,z
-x,-y,z
-x,y,z
x,-y,z
x,1/2+y,1/2+z
-x,1/2-y,1/2+z
-x,1/2+y,1/2+z
x,1/2-y,1/2+z
loop_
_atom_site_type_symbol
_atom_site_label
_atom_site_fract_x
_atom_site_fract_y
_atom_site_fract_z
Si Si1 0.864923 0.564382 0.430820
Si Si2 0.000000 0.189301 0.214415
Si Si3 0.227694 0.656519 0.302832
Si Si4 0.000000 0.786635 0.912439
Si Si5 0.630966 0.709502 0.512777
Si Si6 0.633810 0.935651 0.373937
Si Si7 0.632869 0.333713 0.060643
Si Si8 0.226173 0.870704 0.170381
O O1 0.844922 0.500000 0.438916
O O2 0.801913 0.592087 0.314706
O O3 0.813052 0.595198 0.549548
O O4 0.000000 0.573685 0.426633
O O5 0.888280 0.152786 0.227897
O O6 0.000000 0.231018 0.330641
O O7 0.000000 0.212449 0.066605
O O8 0.328021 0.676369 0.392538
O O9 0.272262 0.669665 0.166920
O O10 0.114435 0.684245 0.360842
O O11 0.500000 0.700276 0.538889
O O12 0.647151 0.774970 0.490412
O O13 0.701918 0.682584 0.625501
O O14 0.500000 0.934985 0.343858
O O15 0.649471 0.889637 0.482053
O O16 0.704468 0.910993 0.259366
O O17 0.663501 0.000000 0.402436
O O18 0.500000 0.334183 0.104260
#
# Coordination Sequence:
#
# PCOD9357425 Si02
#       8
#     8   4   8   4   8   8   8   8
#     4  10  19  36  59  82 113 150 195 244 295 351
#     4  12  24  38  60  91 132 168 211 251 318 375
#     4  11  21  38  58  85 120 152 205 241 308 365
#     4  12  24  40  58  91 130 174 201 253 314 387
#     4  10  21  35  58  89 119 149 195 250 304 361
#     4  10  23  42  62  87 122 164 208 255 313 376
#     4  10  23  39  60  87 118 161 199 249 312 371
#     4  11  20  38  60  90 118 155 203 251 309 360
#
# _framework density 18.247745999999999
#
# number of rings (size 3 to 8) (size 9 to 14) (size 15 to 20)
#    0.000    1.429    4.286    2.143    4.000    0.571 
#    0.000    0.000    0.000    8.143    0.000    0.000 
#    0.000    0.000    0.000    0.000    0.000    0.000 
#
# Total GULP energy -156017.174979 kJ/mol
# GULP energy per Si atom -5572.041964 kJ/mol
# Density = 1.820621 g / cm^3
# Si number density = 18.247746 Si / 1000 Ang^3
#
#
#
# Elastic Constant Matrix: (Units=GPa)
#
#
# Indices 1 2 3 4 5 6 
#
# 1 59.6722 45.5009 14.2940 0.0000 0.0000 0.0000
# 2 45.5009 126.0138 21.1648 0.0000 0.0000 0.0000
# 3 14.2940 21.1648 29.8209 0.0000 0.0000 0.0000
# 4 0.0000 0.0000 0.0000 25.9016 0.0000 0.0000
# 5 0.0000 0.0000 0.0000 0.0000 22.9229 0.0000
# 6 0.0000 0.0000 0.0000 0.0000 0.0000 26.3488
#
#
#
# Elastic Compliance Matrix: (Units=1/GPa)
#
#
# Indices 1 2 3 4 5 6 
#
# 1 0.024063 -0.007665 -0.006094 0.000000 0.000000 0.000000
# 2 -0.007665 0.011451 -0.004453 0.000000 0.000000 0.000000
# 3 -0.006094 -0.004453 0.039615 0.000000 0.000000 0.000000
# 4 0.000000 0.000000 0.000000 0.038608 0.000000 0.000000
# 5 0.000000 0.000000 0.000000 0.000000 0.043625 0.000000
# 6 0.000000 0.000000 0.000000 0.000000 0.000000 0.037952
#
#
# Mechanical properties :
#
#
# Convention : Reuss Voigt Hill
#
# Bulk Modulus (GPa) = 25.83657 41.93625 33.88641
# Shear Modulus (GPa) = 20.43823 24.00445 22.22134
#
# Velocity S-wave (km/s) = 3.35033 3.63088 3.49343
# Velocity P-wave (km/s) = 5.39961 6.37254 5.90614
#
# Compressibility (1/GPa) = 0.03870483
#
# Stress axis : x y z
#
# Youngs Moduli (GPa) = 41.55815 87.32657 25.24289
#
# Poissons Ratio (x) = 0.66936 0.15383
# Poissons Ratio (y) = 0.31854 0.11241
# Poissons Ratio (z) = 0.25325 0.38889
#
# Static dielectric constant tensor:
#      x y z
#    x 1.629070 0.000000 0.000000 
#    y 0.000000 1.653200 0.000000 
#    z 0.000000 0.000000 1.639490 
# 
# From -- ./inp_files/9545.got.cif
#   From: 2010.05.17/outbox.cif.g08.bks.cpg/sg38_5_cif.got.tgz:9545.got - 2010.06.03 18:07:57.
