data_PCOD9357639
_publ_section_title
;
Structure prediction by ZEFSAII (Michael W. Deem and Ramdas Pophale) SiO2 
 PCOD9357639
Probable space group: A M M 2
;
_chemical_formula_sum "Si O2"
_cell_formula_units_Z 40
_cell_length_a 7.876444
_cell_length_b 7.514839
_cell_length_c 34.106893
_cell_angle_alpha 90.000000
_cell_angle_beta 90.000000
_cell_angle_gamma 90.000000
_cell_volume 2018.794110
_symmetry_space_group_name_H-M "A M M 2"
_symmetry_group_IT_number 38
_symmetry_cell_setting 'orthorhombic'
loop_
_space_group_symop_operation_xyz
x,y,z
-x,-y,z
-x,y,z
x,-y,z
x,1/2+y,1/2+z
-x,1/2-y,1/2+z
-x,1/2+y,1/2+z
x,1/2-y,1/2+z
loop_
_atom_site_type_symbol
_atom_site_label
_atom_site_fract_x
_atom_site_fract_y
_atom_site_fract_z
Si Si1 0.205559 0.500000 0.857141
Si Si2 0.694668 0.787943 0.794879
Si Si3 0.305166 0.282436 0.593960
Si Si4 0.000000 0.710652 0.647100
Si Si5 0.703950 0.700532 0.506988
Si Si6 0.000000 0.286752 0.238635
Si Si7 0.201198 0.500000 0.946264
O O1 0.269365 0.327692 0.833430
O O2 0.268127 0.500000 0.901920
O O3 0.000000 0.500000 0.856221
O O4 0.500000 0.758782 0.782223
O O5 0.832161 0.729862 0.762396
O O6 0.716262 0.000000 0.802070
O O7 0.500000 0.223120 0.600287
O O8 0.310448 0.500000 0.593865
O O9 0.243394 0.232791 0.550186
O O10 0.170717 0.220374 0.626207
O O11 0.000000 0.500000 0.639288
O O12 0.000000 0.733940 0.693516
O O13 0.500000 0.691823 0.509521
O O14 0.769352 0.500000 0.500993
O O15 0.748215 0.829596 0.471792
O O16 0.000000 0.500000 0.239327
O O17 0.000000 0.500000 0.942909
#
# Coordination Sequence:
#
# PCOD9357639 Si02
#       7
#     4   8   8   4   8   4   4
#     4  11  23  41  63  88 127 161 200 251 305 364
#     4  10  22  41  66  90 116 159 203 244 302 365
#     4   8  16  33  54  79 112 152 200 243 290 350
#     4  10  20  32  56  84 111 151 190 242 301 351
#     4   9  19  38  61  81 114 164 205 248 297 344
#     4  10  22  40  58  84 121 153 190 247 302 364
#     4  11  25  37  55  95 126 156 200 249 297 361
#
# _framework density 19.813807000000001
#
# number of rings (size 3 to 8) (size 9 to 14) (size 15 to 20)
#    0.000    2.400    1.000    1.800    2.800    3.600 
#    1.800    4.000    0.000    0.000    0.000    0.000 
#    0.000    0.000    0.000    0.000    0.000    0.000 
#
# Total GULP energy -111636.658615 kJ/mol
# GULP energy per Si atom -5581.832931 kJ/mol
# Density = 1.976871 g / cm^3
# Si number density = 19.813807 Si / 1000 Ang^3
#
#
#
# Elastic Constant Matrix: (Units=GPa)
#
#
# Indices 1 2 3 4 5 6 
#
# 1 116.7271 34.4220 84.3063 0.0000 0.0000 0.0000
# 2 34.4220 73.2082 53.0389 0.0000 0.0000 0.0000
# 3 84.3063 53.0389 196.3388 0.0000 0.0000 0.0000
# 4 0.0000 0.0000 0.0000 42.1267 0.0000 0.0000
# 5 0.0000 0.0000 0.0000 0.0000 -22.9728 0.0000
# 6 0.0000 0.0000 0.0000 0.0000 0.0000 10.0757
#
#
#
# Elastic Compliance Matrix: (Units=1/GPa)
#
#
# Indices 1 2 3 4 5 6 
#
# 1 0.012784 -0.002529 -0.004806 0.000000 0.000000 0.000000
# 2 -0.002529 0.017484 -0.003637 0.000000 0.000000 0.000000
# 3 -0.004806 -0.003637 0.008140 0.000000 0.000000 0.000000
# 4 0.000000 0.000000 0.000000 0.023738 0.000000 0.000000
# 5 0.000000 0.000000 0.000000 0.000000 -0.043530 0.000000
# 6 0.000000 0.000000 0.000000 0.000000 0.000000 0.099248
#
#
# Mechanical properties :
#
#
# Convention : Reuss Voigt Hill
#
# Bulk Modulus (GPa) = 60.74290 81.08983 70.91636
# Shear Modulus (GPa) = 34.41245 20.14638 27.27942
#
# Velocity S-wave (km/s) = 4.17200 3.19217 3.71454
# Velocity P-wave (km/s) = 7.34377 7.38927 7.36655
#
# Compressibility (1/GPa) = 0.01646283
#
# Stress axis : x y z
#
# Youngs Moduli (GPa) = 78.22258 57.19558 122.85714
#
# Poissons Ratio (x) = 0.14464 0.59048
# Poissons Ratio (y) = 0.19782 0.44686
# Poissons Ratio (z) = 0.37595 0.20803
#
# Static dielectric constant tensor:
#      x y z
#    x 1.715040 0.000000 0.000000 
#    y 0.000000 1.698400 0.000000 
#    z 0.000000 0.000000 1.675370 
# 
# From -- ./inp_files/23303.got.cif
#   From: 2010.05.17/outbox.cif.g08.bks.cpg/sg38_12_cif.got.tgz:23303.got - 2010.06.03 18:07:57.
