data_PCOD9357681
_publ_section_title
;
Structure prediction by ZEFSAII (Michael W. Deem and Ramdas Pophale) SiO2 
 PCOD9357681
Probable space group: A M M 2
;
_chemical_formula_sum "Si O2"
_cell_formula_units_Z 48
_cell_length_a 9.000238
_cell_length_b 24.278851
_cell_length_c 13.864215
_cell_angle_alpha 90.000000
_cell_angle_beta 90.000000
_cell_angle_gamma 90.000000
_cell_volume 3029.545004
_symmetry_space_group_name_H-M "A M M 2"
_symmetry_group_IT_number 38
_symmetry_cell_setting 'orthorhombic'
loop_
_space_group_symop_operation_xyz
x,y,z
-x,-y,z
-x,y,z
x,-y,z
x,1/2+y,1/2+z
-x,1/2-y,1/2+z
-x,1/2+y,1/2+z
x,1/2-y,1/2+z
loop_
_atom_site_type_symbol
_atom_site_label
_atom_site_fract_x
_atom_site_fract_y
_atom_site_fract_z
Si Si1 0.177869 0.563670 0.535540
Si Si2 0.676893 0.832541 0.716337
Si Si3 0.677022 0.835250 0.140949
Si Si4 0.176927 0.727521 0.814522
Si Si5 0.675960 0.226461 0.518145
Si Si6 0.177873 0.936416 0.808605
O O1 0.214202 0.500000 0.558115
O O2 0.262906 0.607607 0.599941
O O3 0.211614 0.572665 0.422098
O O4 0.000000 0.570436 0.546981
O O5 0.500000 0.828278 0.731601
O O6 0.757145 0.786511 0.781500
O O7 0.706433 0.815831 0.605404
O O8 0.736458 0.892035 0.745490
O O9 0.500000 0.836433 0.155610
O O10 0.756246 0.816298 0.239059
O O11 0.708133 0.786814 0.062964
O O12 0.000000 0.728488 0.808227
O O13 0.230948 0.716239 0.922660
O O14 0.500000 0.224302 0.495571
O O15 0.000000 0.929748 0.797116
O O16 0.214574 0.000000 0.785943
#
# Coordination Sequence:
#
# PCOD9357681 Si02
#       6
#     8   8   8   8   8   8
#     4   9  18  32  49  71 100 131 162 197 237 282
#     4  10  20  33  50  72  99 130 161 197 240 285
#     4  10  20  33  50  72  99 129 160 197 240 286
#     4  11  21  32  50  73  97 127 161 199 242 287
#     4   9  19  34  49  69  98 128 159 198 241 285
#     4   9  18  32  50  73 101 131 161 196 238 283
#
# _framework density 15.843964
#
# number of rings (size 3 to 8) (size 9 to 14) (size 15 to 20)
#    0.000    2.333    0.000    5.500    0.000    8.000 
#    0.000    1.667    0.000    1.000    0.000    4.667 
#    0.000    0.000    0.000    0.000    0.000    0.000 
#
# Total GULP energy -133932.215681 kJ/mol
# GULP energy per Si atom -5580.508987 kJ/mol
# Density = 1.580790 g / cm^3
# Si number density = 15.843964 Si / 1000 Ang^3
#
#
#
# Elastic Constant Matrix: (Units=GPa)
#
#
# Indices 1 2 3 4 5 6 
#
# 1 87.4712 70.1569 76.7766 0.0000 0.0000 0.0000
# 2 70.1569 119.7442 77.3114 0.0000 0.0000 0.0000
# 3 76.7766 77.3114 104.9805 0.0000 0.0000 0.0000
# 4 0.0000 0.0000 0.0000 18.4287 0.0000 0.0000
# 5 0.0000 0.0000 0.0000 0.0000 26.7787 0.0000
# 6 0.0000 0.0000 0.0000 0.0000 0.0000 28.5918
#
#
#
# Elastic Compliance Matrix: (Units=1/GPa)
#
#
# Indices 1 2 3 4 5 6 
#
# 1 0.035249 -0.007641 -0.020152 0.000000 0.000000 0.000000
# 2 -0.007641 0.017578 -0.007356 0.000000 0.000000 0.000000
# 3 -0.020152 -0.007356 0.029681 0.000000 0.000000 0.000000
# 4 0.000000 0.000000 0.000000 0.054263 0.000000 0.000000
# 5 0.000000 0.000000 0.000000 0.000000 0.037343 0.000000
# 6 0.000000 0.000000 0.000000 0.000000 0.000000 0.034975
#
#
# Mechanical properties :
#
#
# Convention : Reuss Voigt Hill
#
# Bulk Modulus (GPa) = 81.90902 84.52063 83.21483
# Shear Modulus (GPa) = 17.63932 20.62323 19.13128
#
# Velocity S-wave (km/s) = 3.34026 3.61175 3.47865
# Velocity P-wave (km/s) = 8.16615 8.41751 8.29278
#
# Compressibility (1/GPa) = 0.01220867
#
# Stress axis : x y z
#
# Youngs Moduli (GPa) = 28.36963 56.89028 33.69159
#
# Poissons Ratio (x) = 0.43471 0.67894
# Poissons Ratio (y) = 0.21678 0.24785
# Poissons Ratio (z) = 0.57170 0.41851
#
# Static dielectric constant tensor:
#      x y z
#    x 1.525200 0.000000 0.000000 
#    y 0.000000 1.513720 0.000000 
#    z 0.000000 0.000000 1.511140 
# 
# From -- ./inp_files/8117.got.cif
#   From: 2010.05.17/outbox.cif.g08.bks.cpg/sg38_5_cif.got.tgz:8117.got - 2010.06.03 18:07:57.
