data_PCOD9357488
_publ_section_title
;
Structure prediction by ZEFSAII (Michael W. Deem and Ramdas Pophale) SiO2 
 PCOD9357488
Probable space group: A M M 2
;
_chemical_formula_sum "Si O2"
_cell_formula_units_Z 64
_cell_length_a 9.314432
_cell_length_b 21.346330
_cell_length_c 22.516765
_cell_angle_alpha 90.000000
_cell_angle_beta 90.000000
_cell_angle_gamma 90.000000
_cell_volume 4476.984500
_symmetry_space_group_name_H-M "A M M 2"
_symmetry_group_IT_number 38
_symmetry_cell_setting 'orthorhombic'
loop_
_space_group_symop_operation_xyz
x,y,z
-x,-y,z
-x,y,z
x,-y,z
x,1/2+y,1/2+z
-x,1/2-y,1/2+z
-x,1/2+y,1/2+z
x,1/2-y,1/2+z
loop_
_atom_site_type_symbol
_atom_site_label
_atom_site_fract_x
_atom_site_fract_y
_atom_site_fract_z
Si Si1 0.172756 0.166646 0.699340
Si Si2 0.834333 0.348909 0.384843
Si Si3 0.171807 0.571559 0.968428
Si Si4 0.663971 0.153109 0.377833
Si Si5 0.329596 0.425708 0.288646
Si Si6 0.163482 0.732579 0.791619
Si Si7 0.665833 0.267505 0.473546
Si Si8 0.828257 0.680469 0.060873
O O1 0.256430 0.112639 0.734789
O O2 0.208159 0.232652 0.731316
O O3 0.205140 0.169729 0.629791
O O4 0.000000 0.157255 0.707037
O O5 0.746954 0.401256 0.348698
O O6 0.837188 0.289458 0.339603
O O7 0.753547 0.323947 0.443237
O O8 0.000000 0.366482 0.395917
O O9 0.213437 0.500000 0.980323
O O10 0.247147 0.598949 0.910093
O O11 0.000000 0.574138 0.960508
O O12 0.206853 0.618169 0.022774
O O13 0.500000 0.134774 0.368506
O O14 0.735994 0.179400 0.318281
O O15 0.666321 0.211279 0.424620
O O16 0.500000 0.411936 0.291041
O O17 0.310287 0.500000 0.281485
O O18 0.000000 0.709793 0.786321
O O19 0.500000 0.283782 0.484866
O O20 0.743947 0.237616 0.530442
O O21 0.000000 0.691251 0.055338
#
# Coordination Sequence:
#
# PCOD9357488 Si02
#       8
#     8   8   8   8   8   8   8   8
#     4   9  18  30  44  61  82 112 147 179 209 243
#     4   9  16  27  44  62  79 103 136 174 214 253
#     4   9  17  28  41  57  79 109 141 171 203 237
#     4   9  16  25  39  58  77 100 130 166 208 248
#     4  10  20  31  42  59  85 115 145 178 215 254
#     4   8  14  25  40  58  78 100 129 167 210 249
#     4   9  16  26  41  61  83 106 133 168 213 257
#     4   9  17  29  43  60  83 111 145 179 206 240
#
# _framework density 14.295337
#
# number of rings (size 3 to 8) (size 9 to 14) (size 15 to 20)
#    0.000    3.000    0.000    2.250    0.000    8.250 
#    0.000    1.250    0.000    0.000    0.000    0.000 
#    0.000    1.000    0.000    5.750    0.000    4.000 
#
# Total GULP energy -178147.629438 kJ/mol
# GULP energy per Si atom -5567.113420 kJ/mol
# Density = 1.426280 g / cm^3
# Si number density = 14.295337 Si / 1000 Ang^3
#
#
#
# Elastic Constant Matrix: (Units=GPa)
#
#
# Indices 1 2 3 4 5 6 
#
# 1 76.7604 44.4351 61.7648 0.0000 0.0000 0.0000
# 2 44.4351 47.0529 65.2418 0.0000 0.0000 0.0000
# 3 61.7648 65.2418 87.7838 0.0000 0.0000 0.0000
# 4 0.0000 0.0000 0.0000 13.0212 0.0000 0.0000
# 5 0.0000 0.0000 0.0000 0.0000 13.4468 0.0000
# 6 0.0000 0.0000 0.0000 0.0000 0.0000 19.4984
#
#
#
# Elastic Compliance Matrix: (Units=1/GPa)
#
#
# Indices 1 2 3 4 5 6 
#
# 1 0.028730 -0.029404 0.001639 0.000000 0.000000 0.000000
# 2 -0.029404 -0.666548 0.516074 0.000000 0.000000 0.000000
# 3 0.001639 0.516074 -0.373313 0.000000 0.000000 0.000000
# 4 0.000000 0.000000 0.000000 0.076798 0.000000 0.000000
# 5 0.000000 0.000000 0.000000 0.000000 0.074367 0.000000
# 6 0.000000 0.000000 0.000000 0.000000 0.000000 0.051286
#
#
# Mechanical properties :
#
#
# Convention : Reuss Voigt Hill
#
# Bulk Modulus (GPa) = -28.97426 61.60894 16.31734
# Shear Modulus (GPa) = -2.78272 11.87033 4.54380
#
# Velocity S-wave (km/s) = -1.39672 2.88473 1.78478
# Velocity P-wave (km/s) = 4.78680 7.36793 3.96061
#
# Compressibility (1/GPa) = -0.03451339
#
# Stress axis : x y z
#
# Youngs Moduli (GPa) = 34.80622 -1.50027 -2.67872
#
# Poissons Ratio (x) = -0.04411 0.00439
# Poissons Ratio (y) = 1.02346 1.38242
# Poissons Ratio (z) = -0.05704 0.77425
#
# Static dielectric constant tensor:
#      x y z
#    x 1.482670 0.000000 0.000000 
#    y 0.000000 1.452140 0.000000 
#    z 0.000000 0.000000 1.460180 
# 
# From -- ./inp_files/17303.got.cif
#   From: 2010.05.17/outbox.cif.g08.bks.cpg/sg38_9_cif.got.tgz:17303.got - 2010.06.03 18:07:57.
