data_PCOD9357519
_publ_section_title
;
Structure prediction by ZEFSAII (Michael W. Deem and Ramdas Pophale) SiO2 
 PCOD9357519
Probable space group: A M M 2
;
_chemical_formula_sum "Si O2"
_cell_formula_units_Z 64
_cell_length_a 14.852735
_cell_length_b 15.762813
_cell_length_c 14.739940
_cell_angle_alpha 90.000000
_cell_angle_beta 90.000000
_cell_angle_gamma 90.000000
_cell_volume 3450.927788
_symmetry_space_group_name_H-M "A M M 2"
_symmetry_group_IT_number 38
_symmetry_cell_setting 'orthorhombic'
loop_
_space_group_symop_operation_xyz
x,y,z
-x,-y,z
-x,y,z
x,-y,z
x,1/2+y,1/2+z
-x,1/2-y,1/2+z
-x,1/2+y,1/2+z
x,1/2-y,1/2+z
loop_
_atom_site_type_symbol
_atom_site_label
_atom_site_fract_x
_atom_site_fract_y
_atom_site_fract_z
Si Si1 0.224920 0.251974 0.419430
Si Si2 0.894592 0.405917 0.979320
Si Si3 0.275080 0.751975 0.208107
Si Si4 0.105294 0.901412 0.876156
Si Si5 0.101606 0.668450 0.171624
Si Si6 0.394706 0.098588 0.251381
Si Si7 0.394592 0.905917 0.648217
Si Si8 0.601606 0.831550 0.455913
O O1 0.163634 0.170188 0.439758
O O2 0.250000 0.250000 0.313769
O O3 0.168453 0.337548 0.431894
O O4 0.320089 0.237736 0.468865
O O5 0.863650 0.500000 0.952289
O O6 0.889921 0.396202 0.088271
O O7 0.000000 0.396678 0.954136
O O8 0.179911 0.737736 0.158673
O O9 0.331547 0.837548 0.195643
O O10 0.336367 0.670188 0.187779
O O11 0.113053 0.877002 0.768924
O O12 0.000000 0.888600 0.899721
O O13 0.127905 0.000000 0.888007
O O14 0.000000 0.703930 0.169071
O O15 0.500000 0.111399 0.227817
O O16 0.386947 0.122998 0.358614
O O17 0.372095 0.000000 0.239532
O O18 0.500000 0.896679 0.673401
O O19 0.389921 0.896202 0.539267
O O20 0.363650 0.000000 0.675248
O O21 0.500000 0.796070 0.458467
#
# Coordination Sequence:
#
# PCOD9357519 Si02
#       8
#     8   8   8   8   8   8   8   8
#     4  10  20  31  48  73 104 137 168 201 244 300
#     4  10  20  34  54  80 106 129 158 203 258 309
#     4  10  20  31  48  73 104 137 168 201 244 300
#     4   9  17  31  51  74 101 134 173 212 247 290
#     4   9  18  32  51  75 103 134 165 203 254 305
#     4   9  17  31  51  74 101 134 173 212 247 290
#     4  10  20  34  54  80 106 129 158 203 258 309
#     4   9  18  32  51  75 103 134 165 203 254 305
#
# _framework density 18.545738
#
# number of rings (size 3 to 8) (size 9 to 14) (size 15 to 20)
#    0.000    2.500    0.000    2.250    0.000   10.000 
#    0.000    0.000    0.000    3.750    0.000    3.500 
#    0.000    4.000    0.000    0.000    0.000    0.000 
#
# Total GULP energy -178391.361916 kJ/mol
# GULP energy per Si atom -5574.730060 kJ/mol
# Density = 1.850353 g / cm^3
# Si number density = 18.545738 Si / 1000 Ang^3
#
#
#
# Elastic Constant Matrix: (Units=GPa)
#
#
# Indices 1 2 3 4 5 6 
#
# 1 120.5638 110.6649 22.2561 0.0000 0.0000 0.0000
# 2 110.6649 158.7125 25.0093 0.0000 0.0000 0.0000
# 3 22.2561 25.0093 26.0690 0.0000 0.0000 0.0000
# 4 0.0000 0.0000 0.0000 18.8527 0.0000 0.0000
# 5 0.0000 0.0000 0.0000 0.0000 28.6179 0.0000
# 6 0.0000 0.0000 0.0000 0.0000 0.0000 19.8502
#
#
#
# Elastic Compliance Matrix: (Units=1/GPa)
#
#
# Indices 1 2 3 4 5 6 
#
# 1 0.023612 -0.015654 -0.005141 0.000000 0.000000 0.000000
# 2 -0.015654 0.017800 -0.003713 0.000000 0.000000 0.000000
# 3 -0.005141 -0.003713 0.046311 0.000000 0.000000 0.000000
# 4 0.000000 0.000000 0.000000 0.053043 0.000000 0.000000
# 5 0.000000 0.000000 0.000000 0.000000 0.034943 0.000000
# 6 0.000000 0.000000 0.000000 0.000000 0.000000 0.050377
#
#
# Mechanical properties :
#
#
# Convention : Reuss Voigt Hill
#
# Bulk Modulus (GPa) = 25.83438 69.02289 47.42863
# Shear Modulus (GPa) = 17.36091 23.29184 20.32638
#
# Velocity S-wave (km/s) = 3.06292 3.54773 3.31420
# Velocity P-wave (km/s) = 5.14480 7.35393 6.34623
#
# Compressibility (1/GPa) = 0.03870812
#
# Stress axis : x y z
#
# Youngs Moduli (GPa) = 42.35186 56.17835 21.59328
#
# Poissons Ratio (x) = 0.87939 0.11101
# Poissons Ratio (y) = 0.66296 0.08017
# Poissons Ratio (z) = 0.21773 0.20858
#
# Static dielectric constant tensor:
#      x y z
#    x 1.691760 0.000000 0.000000 
#    y 0.000000 1.591430 0.000000 
#    z 0.000000 0.000000 1.640080 
# 
# From -- ./inp_files/18498.got.cif
#   From: 2010.05.17/outbox.cif.g08.bks.cpg/sg38_10_cif.got.tgz:18498.got - 2010.06.03 18:07:57.
