data_PCOD9357195
_publ_section_title
;
Structure prediction by ZEFSAII (Michael W. Deem and Ramdas Pophale) SiO2 
 PCOD9357195
Probable space group: A M M 2
;
_chemical_formula_sum "Si O2"
_cell_formula_units_Z 64
_cell_length_a 8.634759
_cell_length_b 20.171627
_cell_length_c 21.260561
_cell_angle_alpha 90.000000
_cell_angle_beta 90.000000
_cell_angle_gamma 90.000000
_cell_volume 3703.103663
_symmetry_space_group_name_H-M "A M M 2"
_symmetry_group_IT_number 38
_symmetry_cell_setting 'orthorhombic'
loop_
_space_group_symop_operation_xyz
x,y,z
-x,-y,z
-x,y,z
x,-y,z
x,1/2+y,1/2+z
-x,1/2-y,1/2+z
-x,1/2+y,1/2+z
x,1/2-y,1/2+z
loop_
_atom_site_type_symbol
_atom_site_label
_atom_site_fract_x
_atom_site_fract_y
_atom_site_fract_z
Si Si1 0.688330 0.573430 0.617130
Si Si2 0.314645 0.713121 0.564639
Si Si3 0.186518 0.209303 0.309201
Si Si4 0.815084 0.209842 0.931727
Si Si5 0.684782 0.425449 0.384509
Si Si6 0.814440 0.074545 0.744192
Si Si7 0.686532 0.074304 0.264479
Si Si8 0.186842 0.210457 0.684020
O O1 0.500000 0.572898 0.614682
O O2 0.740482 0.500000 0.596222
O O3 0.741251 0.637737 0.579336
O O4 0.730724 0.581887 0.690721
O O5 0.500000 0.712111 0.562327
O O6 0.249481 0.735151 0.497724
O O7 0.260555 0.758668 0.622132
O O8 0.240544 0.247725 0.371505
O O9 0.243795 0.134279 0.303627
O O10 0.235955 0.248143 0.245972
O O11 0.000000 0.210204 0.309697
O O12 0.760895 0.134297 0.921960
O O13 0.000000 0.212012 0.932378
O O14 0.500000 0.421335 0.391028
O O15 0.733589 0.500000 0.403587
O O16 0.731952 0.417406 0.311382
O O17 0.771569 0.134067 0.697944
O O18 0.000000 0.079894 0.755637
O O19 0.782287 0.000000 0.720956
O O20 0.500000 0.077803 0.266959
O O21 0.733365 0.000000 0.284214
O O22 0.000000 0.214985 0.678971
#
# Coordination Sequence:
#
# PCOD9357195 Si02
#       8
#     8   8   8   8   8   8   8   8
#     4   8  15  29  48  71 102 136 168 203 247 302
#     4  11  22  35  53  79 106 141 180 219 268 318
#     4  10  20  34  54  79 106 138 178 221 265 309
#     4  11  23  39  54  74 107 147 183 222 268 318
#     4  10  20  33  51  78 110 143 180 221 265 316
#     4   9  17  32  55  80 107 140 178 221 268 317
#     4   9  17  31  53  80 107 136 170 212 264 315
#     4  10  19  34  54  79 107 138 177 223 268 317
#
# _framework density 17.282800999999999
#
# number of rings (size 3 to 8) (size 9 to 14) (size 15 to 20)
#    0.000    2.250    2.500    1.875    0.000    3.000 
#    0.000    1.250    0.000    1.875    0.000    1.750 
#    0.000    0.000    0.000    0.000    0.000    0.000 
#
# Total GULP energy -178521.750366 kJ/mol
# GULP energy per Si atom -5578.804699 kJ/mol
# Density = 1.724346 g / cm^3
# Si number density = 17.282801 Si / 1000 Ang^3
#
#
#
# Elastic Constant Matrix: (Units=GPa)
#
#
# Indices 1 2 3 4 5 6 
#
# 1 19.9638 25.5756 29.0738 0.0000 0.0000 0.0000
# 2 25.5756 110.2667 62.7733 0.0000 0.0000 0.0000
# 3 29.0738 62.7733 115.2592 0.0000 0.0000 0.0000
# 4 0.0000 0.0000 0.0000 21.8364 0.0000 0.0000
# 5 0.0000 0.0000 0.0000 0.0000 9.9585 0.0000
# 6 0.0000 0.0000 0.0000 0.0000 0.0000 25.7718
#
#
#
# Elastic Compliance Matrix: (Units=1/GPa)
#
#
# Indices 1 2 3 4 5 6 
#
# 1 0.087853 -0.011249 -0.016034 0.000000 0.000000 0.000000
# 2 -0.011249 0.014585 -0.005106 0.000000 0.000000 0.000000
# 3 -0.016034 -0.005106 0.015501 0.000000 0.000000 0.000000
# 4 0.000000 0.000000 0.000000 0.045795 0.000000 0.000000
# 5 0.000000 0.000000 0.000000 0.000000 0.100416 0.000000
# 6 0.000000 0.000000 0.000000 0.000000 0.000000 0.038802
#
#
# Mechanical properties :
#
#
# Convention : Reuss Voigt Hill
#
# Bulk Modulus (GPa) = 18.81069 53.37055 36.09062
# Shear Modulus (GPa) = 12.97185 20.05113 16.51149
#
# Velocity S-wave (km/s) = 2.74262 3.40983 3.09426
# Velocity P-wave (km/s) = 4.57569 6.81545 5.80462
#
# Compressibility (1/GPa) = 0.05316126
#
# Stress axis : x y z
#
# Youngs Moduli (GPa) = 11.38271 68.56548 64.51044
#
# Poissons Ratio (x) = 0.77128 1.03437
# Poissons Ratio (y) = 0.12804 0.32937
# Poissons Ratio (z) = 0.18251 0.35007
#
# Static dielectric constant tensor:
#      x y z
#    x 1.593710 0.000000 0.000000 
#    y 0.000000 1.602850 0.000000 
#    z 0.000000 0.000000 1.569570 
# 
# From -- ./inp_files/20236.got.cif
#   From: 2010.05.17/outbox.cif.g08.bks.cpg/sg38_11_cif.got.tgz:20236.got - 2010.06.03 18:07:57.
