data_PCOD9357975
_publ_section_title
;
Structure prediction by ZEFSAII (Michael W. Deem and Ramdas Pophale) SiO2 
 PCOD9357975
Probable space group: A M M 2
;
_chemical_formula_sum "Si O2"
_cell_formula_units_Z 40
_cell_length_a 7.956798
_cell_length_b 7.475217
_cell_length_c 33.902503
_cell_angle_alpha 90.000000
_cell_angle_beta 90.000000
_cell_angle_gamma 90.000000
_cell_volume 2016.479913
_symmetry_space_group_name_H-M "A M M 2"
_symmetry_group_IT_number 38
_symmetry_cell_setting 'orthorhombic'
loop_
_space_group_symop_operation_xyz
x,y,z
-x,-y,z
-x,y,z
x,-y,z
x,1/2+y,1/2+z
-x,1/2-y,1/2+z
-x,1/2+y,1/2+z
x,1/2-y,1/2+z
loop_
_atom_site_type_symbol
_atom_site_label
_atom_site_fract_x
_atom_site_fract_y
_atom_site_fract_z
Si Si1 0.697610 0.285737 0.567070
Si Si2 0.800351 0.705701 0.350983
Si Si3 0.000000 0.214123 0.123667
Si Si4 0.000000 0.788039 0.715903
Si Si5 0.702640 0.500000 0.002058
Si Si6 0.701618 0.000000 0.412810
Si Si7 0.684348 0.218534 0.765175
O O1 0.500000 0.247753 0.576452
O O2 0.711223 0.500000 0.561031
O O3 0.830366 0.229579 0.600728
O O4 0.745097 0.174164 0.528055
O O5 0.749121 0.500000 0.358006
O O6 0.715347 0.770829 0.310549
O O7 0.000000 0.708584 0.343716
O O8 0.759121 0.828774 0.387874
O O9 0.000000 0.265086 0.169228
O O10 0.000000 0.000000 0.122242
O O11 0.166777 0.716800 0.737148
O O12 0.000000 0.000000 0.723697
O O13 0.500000 0.500000 0.999044
O O14 0.768252 0.500000 0.957559
O O15 0.500000 0.000000 0.413805
O O16 0.500000 0.275310 0.751963
O O17 0.687563 0.000000 0.765227
#
# Coordination Sequence:
#
# PCOD9357975 Si02
#       7
#     8   8   4   4   4   4   8
#     4   9  19  38  61  83 114 153 190 238 293 347
#     4  10  20  38  60  82 118 164 203 247 297 350
#     4  10  22  38  56  84 113 147 192 233 290 362
#     4  10  20  34  54  82 113 143 186 246 295 343
#     4   9  20  38  60  86 117 153 197 242 289 351
#     4  11  23  37  57  93 125 153 205 254 297 361
#     4   9  17  33  56  80 111 154 199 238 288 350
#
# _framework density 19.836549999999999
#
# number of rings (size 3 to 8) (size 9 to 14) (size 15 to 20)
#    0.000    2.400    1.000    0.900    1.400    2.800 
#    5.400    2.000    0.000    0.000    0.000    0.000 
#    0.000    0.000    0.000    0.000    0.000    0.000 
#
# Total GULP energy -111642.212950 kJ/mol
# GULP energy per Si atom -5582.110647 kJ/mol
# Density = 1.979140 g / cm^3
# Si number density = 19.836550 Si / 1000 Ang^3
#
#
#
# Elastic Constant Matrix: (Units=GPa)
#
#
# Indices 1 2 3 4 5 6 
#
# 1 128.8512 32.3734 86.9470 0.0000 0.0000 0.0000
# 2 32.3734 73.2632 42.6619 0.0000 0.0000 0.0000
# 3 86.9470 42.6619 172.8817 0.0000 0.0000 0.0000
# 4 0.0000 0.0000 0.0000 36.7831 0.0000 0.0000
# 5 0.0000 0.0000 0.0000 0.0000 61.9273 0.0000
# 6 0.0000 0.0000 0.0000 0.0000 0.0000 27.8411
#
#
#
# Elastic Compliance Matrix: (Units=1/GPa)
#
#
# Indices 1 2 3 4 5 6 
#
# 1 0.012016 -0.002091 -0.005527 0.000000 0.000000 0.000000
# 2 -0.002091 0.016304 -0.002972 0.000000 0.000000 0.000000
# 3 -0.005527 -0.002972 0.009297 0.000000 0.000000 0.000000
# 4 0.000000 0.000000 0.000000 0.027186 0.000000 0.000000
# 5 0.000000 0.000000 0.000000 0.000000 0.016148 0.000000
# 6 0.000000 0.000000 0.000000 0.000000 0.000000 0.035918
#
#
# Mechanical properties :
#
#
# Convention : Reuss Voigt Hill
#
# Bulk Modulus (GPa) = 60.83669 77.66229 69.24949
# Shear Modulus (GPa) = 34.83635 39.51123 37.17379
#
# Velocity S-wave (km/s) = 4.19521 4.46785 4.33367
# Velocity P-wave (km/s) = 7.36220 8.11490 7.74770
#
# Compressibility (1/GPa) = 0.01643745
#
# Stress axis : x y z
#
# Youngs Moduli (GPa) = 83.22322 61.33531 107.55752
#
# Poissons Ratio (x) = 0.12826 0.59448
# Poissons Ratio (y) = 0.17402 0.31962
# Poissons Ratio (z) = 0.45998 0.18227
#
# Static dielectric constant tensor:
#      x y z
#    x 1.682480 0.000000 0.000000 
#    y 0.000000 1.714670 0.000000 
#    z 0.000000 0.000000 1.658190 
# 
# From -- ./inp_files/23289.got.cif
#   From: 2010.05.17/outbox.cif.g08.bks.cpg/sg38_12_cif.got.tgz:23289.got - 2010.06.03 18:07:57.
