data_PCOD9357749
_publ_section_title
;
Structure prediction by ZEFSAII (Michael W. Deem and Ramdas Pophale) SiO2 
 PCOD9357749
Probable space group: A M M 2
;
_chemical_formula_sum "Si O2"
_cell_formula_units_Z 58
_cell_length_a 14.324025
_cell_length_b 9.575707
_cell_length_c 25.819366
_cell_angle_alpha 90.000000
_cell_angle_beta 90.000000
_cell_angle_gamma 90.000000
_cell_volume 3541.453087
_symmetry_space_group_name_H-M "A M M 2"
_symmetry_group_IT_number 38
_symmetry_cell_setting 'orthorhombic'
loop_
_space_group_symop_operation_xyz
x,y,z
-x,-y,z
-x,y,z
x,-y,z
x,1/2+y,1/2+z
-x,1/2-y,1/2+z
-x,1/2+y,1/2+z
x,1/2-y,1/2+z
loop_
_atom_site_type_symbol
_atom_site_label
_atom_site_fract_x
_atom_site_fract_y
_atom_site_fract_z
Si Si1 0.111794 0.335051 0.802020
Si Si2 0.110847 0.664190 0.198293
Si Si3 0.202580 0.837725 0.589923
Si Si4 0.601413 0.212020 0.544681
Si Si5 0.891264 0.834188 0.997944
Si Si6 0.218892 0.166736 0.891004
Si Si7 0.390445 0.841179 0.424092
Si Si8 0.500000 0.000000 0.041516
O O1 0.134740 0.500000 0.802397
O O2 0.132517 0.262706 0.746843
O O3 0.165850 0.249562 0.845939
O O4 0.000000 0.321973 0.810451
O O5 0.128536 0.500000 0.210717
O O6 0.168007 0.702793 0.146989
O O7 0.000000 0.676761 0.187143
O O8 0.313358 0.822525 0.581629
O O9 0.153297 0.747876 0.545574
O O10 0.176875 0.000000 0.582865
O O11 0.500000 0.152352 0.560190
O O12 0.623527 0.164066 0.486252
O O13 0.580272 0.376719 0.541512
O O14 0.835545 0.806839 0.944959
O O15 0.000000 0.796878 0.991549
O O16 0.885548 0.000000 0.007862
O O17 0.321840 0.230911 0.898131
O O18 0.220189 0.000000 0.881839
O O19 0.500000 0.810307 0.415339
O O20 0.370964 0.000000 0.406714
#
# Coordination Sequence:
#
# PCOD9357749 Si02
#       8
#     8   8   8   8   8   8   8   2
#     4  10  21  38  58  80 105 137 182 231 275 320
#     4   9  19  36  56  78 106 141 181 223 268 322
#     4  11  21  33  54  81 110 143 178 221 271 321
#     4   9  19  32  52  74 109 143 183 220 262 317
#     4  10  22  35  48  73 110 147 180 214 261 321
#     4  11  22  34  56  79 107 144 182 220 267 322
#     4  10  20  33  51  78 111 143 177 222 268 315
#     4   8  20  32  50  76 106 148 186 224 264 312
#
# _framework density 16.377459000000002
#
# number of rings (size 3 to 8) (size 9 to 14) (size 15 to 20)
#    0.414    1.655    1.379    2.069    1.931    4.414 
#    0.000    1.379    0.000    0.828    0.000    1.931 
#    0.000    0.000    0.000    0.000    0.000    0.000 
#
# Total GULP energy -161447.368364 kJ/mol
# GULP energy per Si atom -5567.150633 kJ/mol
# Density = 1.634018 g / cm^3
# Si number density = 16.377459 Si / 1000 Ang^3
#
#
#
# Elastic Constant Matrix: (Units=GPa)
#
#
# Indices 1 2 3 4 5 6 
#
# 1 92.7495 57.4364 64.6988 0.0000 0.0000 0.0000
# 2 57.4364 111.6561 73.9748 0.0000 0.0000 0.0000
# 3 64.6988 73.9748 113.2399 0.0000 0.0000 0.0000
# 4 0.0000 0.0000 0.0000 23.8770 0.0000 0.0000
# 5 0.0000 0.0000 0.0000 0.0000 15.1193 0.0000
# 6 0.0000 0.0000 0.0000 0.0000 0.0000 30.7714
#
#
#
# Elastic Compliance Matrix: (Units=1/GPa)
#
#
# Indices 1 2 3 4 5 6 
#
# 1 0.019176 -0.004594 -0.007955 0.000000 0.000000 0.000000
# 2 -0.004594 0.016890 -0.008409 0.000000 0.000000 0.000000
# 3 -0.007955 -0.008409 0.018869 0.000000 0.000000 0.000000
# 4 0.000000 0.000000 0.000000 0.041881 0.000000 0.000000
# 5 0.000000 0.000000 0.000000 0.000000 0.066141 0.000000
# 6 0.000000 0.000000 0.000000 0.000000 0.000000 0.032498
#
#
# Mechanical properties :
#
#
# Convention : Reuss Voigt Hill
#
# Bulk Modulus (GPa) = 76.80811 78.87393 77.84102
# Shear Modulus (GPa) = 20.68593 22.05590 21.37092
#
# Velocity S-wave (km/s) = 3.55783 3.67375 3.61626
# Velocity P-wave (km/s) = 7.99237 8.14002 8.06653
#
# Compressibility (1/GPa) = 0.01301946
#
# Stress axis : x y z
#
# Youngs Moduli (GPa) = 52.14986 59.20538 52.99639
#
# Poissons Ratio (x) = 0.27197 0.42159
# Poissons Ratio (y) = 0.23956 0.44566
# Poissons Ratio (z) = 0.41485 0.49787
#
# Static dielectric constant tensor:
#      x y z
#    x 1.561170 0.000000 0.000000 
#    y 0.000000 1.557300 0.000000 
#    z 0.000000 0.000000 1.519250 
# 
# From -- ./inp_files/22850.got.cif
#   From: 2010.05.17/outbox.cif.g08.bks.cpg/sg38_12_cif.got.tgz:22850.got - 2010.06.03 18:07:57.
