data_PCOD9357821
_publ_section_title
;
Structure prediction by ZEFSAII (Michael W. Deem and Ramdas Pophale) SiO2 
 PCOD9357821
Probable space group: A M M 2
;
_chemical_formula_sum "Si O2"
_cell_formula_units_Z 56
_cell_length_a 16.895059
_cell_length_b 8.953053
_cell_length_c 20.722533
_cell_angle_alpha 90.000000
_cell_angle_beta 90.000000
_cell_angle_gamma 90.000000
_cell_volume 3134.539219
_symmetry_space_group_name_H-M "A M M 2"
_symmetry_group_IT_number 38
_symmetry_cell_setting 'orthorhombic'
loop_
_space_group_symop_operation_xyz
x,y,z
-x,-y,z
-x,y,z
x,-y,z
x,1/2+y,1/2+z
-x,1/2-y,1/2+z
-x,1/2+y,1/2+z
x,1/2-y,1/2+z
loop_
_atom_site_type_symbol
_atom_site_label
_atom_site_fract_x
_atom_site_fract_y
_atom_site_fract_z
Si Si1 0.337996 0.679647 0.236350
Si Si2 0.500000 0.820615 0.036946
Si Si3 0.770634 0.676071 0.116321
Si Si4 0.091548 0.673865 0.547243
Si Si5 0.751123 0.678842 0.368946
Si Si6 0.500000 0.678824 0.689431
Si Si7 0.090901 0.678520 0.907642
Si Si8 0.661472 0.676815 0.990008
O O1 0.348909 0.500000 0.232582
O O2 0.277242 0.722916 0.179558
O O3 0.298841 0.715331 0.304949
O O4 0.421573 0.756609 0.222738
O O5 0.500000 0.779016 0.113189
O O6 0.500000 0.000000 0.032511
O O7 0.577723 0.753967 0.003545
O O8 0.789439 0.500000 0.121748
O O9 0.849232 0.767469 0.101169
O O10 0.713781 0.695659 0.054504
O O11 0.107092 0.500000 0.532585
O O12 0.102739 0.767728 0.481577
O O13 0.000000 0.689076 0.566537
O O14 0.754795 0.500000 0.375502
O O15 0.839998 0.743888 0.367091
O O16 0.707175 0.749279 0.430489
O O17 0.500000 0.500000 0.693081
O O18 0.099100 0.500000 0.904692
O O19 0.000000 0.718050 0.889878
O O20 0.651559 0.500000 0.978768
#
# Coordination Sequence:
#
# PCOD9357821 Si02
#       8
#     8   4   8   8   8   4   8   8
#     4  10  23  42  62  83 115 158 195 232 285 347
#     4  11  23  38  59  90 121 149 193 244 293 340
#     4  10  20  36  59  85 112 149 195 236 283 341
#     4  10  20  33  54  86 120 152 190 240 293 340
#     4  11  23  39  60  87 119 154 193 239 290 343
#     4  11  23  38  61  90 115 147 191 240 289 340
#     4  10  20  35  57  84 115 153 194 237 288 345
#     4  11  22  37  61  87 115 150 190 240 290 339
#
# _framework density 17.865465
#
# number of rings (size 3 to 8) (size 9 to 14) (size 15 to 20)
#    0.000    1.571    2.857    2.143    0.000    5.143 
#    0.000    1.429    0.000    4.286    0.000    0.000 
#    0.000    0.000    0.000    0.000    0.000    0.000 
#
# Total GULP energy -156425.379170 kJ/mol
# GULP energy per Si atom -5586.620685 kJ/mol
# Density = 1.782480 g / cm^3
# Si number density = 17.865465 Si / 1000 Ang^3
#
#
#
# Elastic Constant Matrix: (Units=GPa)
#
#
# Indices 1 2 3 4 5 6 
#
# 1 133.0880 59.5831 54.3477 0.0000 0.0000 0.0000
# 2 59.5831 65.5137 46.4768 0.0000 0.0000 0.0000
# 3 54.3477 46.4768 95.1319 0.0000 0.0000 0.0000
# 4 0.0000 0.0000 0.0000 24.2639 0.0000 0.0000
# 5 0.0000 0.0000 0.0000 0.0000 20.9284 0.0000
# 6 0.0000 0.0000 0.0000 0.0000 0.0000 36.7271
#
#
#
# Elastic Compliance Matrix: (Units=1/GPa)
#
#
# Indices 1 2 3 4 5 6 
#
# 1 0.013063 -0.010080 -0.002538 0.000000 0.000000 0.000000
# 2 -0.010080 0.031138 -0.009454 0.000000 0.000000 0.000000
# 3 -0.002538 -0.009454 0.016581 0.000000 0.000000 0.000000
# 4 0.000000 0.000000 0.000000 0.041214 0.000000 0.000000
# 5 0.000000 0.000000 0.000000 0.000000 0.047782 0.000000
# 6 0.000000 0.000000 0.000000 0.000000 0.000000 0.027228
#
#
# Mechanical properties :
#
#
# Convention : Reuss Voigt Hill
#
# Bulk Modulus (GPa) = 60.10518 68.28323 64.19420
# Shear Modulus (GPa) = 22.05596 25.27226 23.66411
#
# Velocity S-wave (km/s) = 3.51744 3.76518 3.64342
# Velocity P-wave (km/s) = 7.08610 7.56346 7.32866
#
# Compressibility (1/GPa) = 0.01663750
#
# Stress axis : x y z
#
# Youngs Moduli (GPa) = 76.55169 32.11467 60.31127
#
# Poissons Ratio (x) = 0.32371 0.15308
# Poissons Ratio (y) = 0.77163 0.57020
# Poissons Ratio (z) = 0.19431 0.30362
#
# Static dielectric constant tensor:
#      x y z
#    x 1.603120 0.000000 0.000000 
#    y 0.000000 1.597440 0.000000 
#    z 0.000000 0.000000 1.583390 
# 
# From -- ./inp_files/21136.got.cif
#   From: 2010.05.17/outbox.cif.g08.bks.cpg/sg38_11_cif.got.tgz:21136.got - 2010.06.03 18:07:57.
