data_PCOD9357832
_publ_section_title
;
Structure prediction by ZEFSAII (Michael W. Deem and Ramdas Pophale) SiO2 
 PCOD9357832
Probable space group: A M M 2
;
_chemical_formula_sum "Si O2"
_cell_formula_units_Z 64
_cell_length_a 7.433831
_cell_length_b 17.223549
_cell_length_c 22.657046
_cell_angle_alpha 90.000000
_cell_angle_beta 90.000000
_cell_angle_gamma 90.000000
_cell_volume 2900.939122
_symmetry_space_group_name_H-M "A M M 2"
_symmetry_group_IT_number 38
_symmetry_cell_setting 'orthorhombic'
loop_
_space_group_symop_operation_xyz
x,y,z
-x,-y,z
-x,y,z
x,-y,z
x,1/2+y,1/2+z
-x,1/2-y,1/2+z
-x,1/2+y,1/2+z
x,1/2-y,1/2+z
loop_
_atom_site_type_symbol
_atom_site_label
_atom_site_fract_x
_atom_site_fract_y
_atom_site_fract_z
Si Si1 0.784388 0.585623 0.696930
Si Si2 0.294987 0.587605 0.832708
Si Si3 0.707255 0.887558 0.649329
Si Si4 0.781413 0.281644 0.610154
Si Si5 0.717795 0.583143 0.017937
Si Si6 0.279648 0.086138 0.781398
Si Si7 0.207064 0.252857 0.479440
Si Si8 0.295268 0.239596 0.850258
O O1 0.751231 0.500000 0.673413
O O2 0.701842 0.590893 0.761595
O O3 0.722594 0.647387 0.649756
O O4 0.000000 0.595229 0.705317
O O5 0.500000 0.587637 0.856986
O O6 0.220522 0.500000 0.846539
O O7 0.212917 0.672790 0.847526
O O8 0.500000 0.913075 0.649765
O O9 0.716771 0.795348 0.642683
O O10 0.782666 0.914655 0.586179
O O11 0.781454 0.910087 0.712923
O O12 0.719057 0.281610 0.542366
O O13 0.000000 0.278813 0.608248
O O14 0.500000 0.588200 0.018979
O O15 0.768262 0.500000 0.991810
O O16 0.783831 0.659202 0.985108
O O17 0.500000 0.088444 0.782144
O O18 0.219395 0.164926 0.815054
O O19 0.228739 0.000000 0.804815
O O20 0.298039 0.279571 0.419595
O O21 0.000000 0.276674 0.475178
O O22 0.500000 0.249370 0.827949
#
# Coordination Sequence:
#
# PCOD9357832 Si02
#       8
#     8   8   8   8   8   8   8   8
#     4   9  17  30  49  72  96 122 154 192 236 290
#     4   9  18  32  50  74 102 127 153 191 240 292
#     4   9  16  28  50  77 100 123 153 189 234 292
#     4   9  18  32  48  68  96 127 156 192 242 290
#     4   9  17  30  50  76 103 128 155 191 237 291
#     4   9  17  30  50  75 100 126 160 203 247 291
#     4  10  21  35  49  67  94 129 168 206 242 282
#     4  10  20  34  51  70  95 131 170 205 244 287
#
# _framework density 22.061819
#
# number of rings (size 3 to 8) (size 9 to 14) (size 15 to 20)
#    0.000    2.750    0.000    1.500    0.000    4.750 
#    0.000    2.500    0.000    3.000    0.000    0.000 
#    0.000    0.000    0.000    0.000    0.000    0.000 
#
# Total GULP energy -178434.341261 kJ/mol
# GULP energy per Si atom -5576.073164 kJ/mol
# Density = 2.201161 g / cm^3
# Si number density = 22.061819 Si / 1000 Ang^3
#
#
#
# Elastic Constant Matrix: (Units=GPa)
#
#
# Indices 1 2 3 4 5 6 
#
# 1 67.3016 9.4597 -0.7423 0.0000 0.0000 0.0000
# 2 9.4597 134.2389 66.2615 0.0000 0.0000 0.0000
# 3 -0.7423 66.2615 106.6884 0.0000 0.0000 0.0000
# 4 0.0000 0.0000 0.0000 -9.3961 0.0000 0.0000
# 5 0.0000 0.0000 0.0000 0.0000 17.8518 0.0000
# 6 0.0000 0.0000 0.0000 0.0000 0.0000 6.3470
#
#
#
# Elastic Compliance Matrix: (Units=1/GPa)
#
#
# Indices 1 2 3 4 5 6 
#
# 1 0.015097 -0.001609 0.001104 0.000000 0.000000 0.000000
# 2 -0.001609 0.010914 -0.006790 0.000000 0.000000 0.000000
# 3 0.001104 -0.006790 0.013598 0.000000 0.000000 0.000000
# 4 0.000000 0.000000 0.000000 -0.106427 0.000000 0.000000
# 5 0.000000 0.000000 0.000000 0.000000 0.056017 0.000000
# 6 0.000000 0.000000 0.000000 0.000000 0.000000 0.157554
#
#
# Mechanical properties :
#
#
# Convention : Reuss Voigt Hill
#
# Bulk Modulus (GPa) = 39.96802 50.90964 45.43883
# Shear Modulus (GPa) = 29.46706 18.51054 23.98880
#
# Velocity S-wave (km/s) = 3.65863 2.89974 3.30107
# Velocity P-wave (km/s) = 6.00026 5.85981 5.93045
#
# Compressibility (1/GPa) = 0.02502000
#
# Stress axis : x y z
#
# Youngs Moduli (GPa) = 66.23907 91.62297 73.54158
#
# Poissons Ratio (x) = 0.14742 -0.08121
# Poissons Ratio (y) = 0.10658 0.49933
# Poissons Ratio (z) = -0.07315 0.62210
#
# Static dielectric constant tensor:
#      x y z
#    x 1.883930 0.000000 0.000000 
#    y 0.000000 1.826970 0.000000 
#    z 0.000000 0.000000 1.778960 
# 
# From -- ./inp_files/20068.got.cif
#   From: 2010.05.17/outbox.cif.g08.bks.cpg/sg38_11_cif.got.tgz:20068.got - 2010.06.03 18:07:57.
