data_PCOD9357361
_publ_section_title
;
Structure prediction by ZEFSAII (Michael W. Deem and Ramdas Pophale) SiO2 
 PCOD9357361
Probable space group: A M M 2
;
_chemical_formula_sum "Si O2"
_cell_formula_units_Z 56
_cell_length_a 7.812176
_cell_length_b 19.095995
_cell_length_c 17.415421
_cell_angle_alpha 90.000000
_cell_angle_beta 90.000000
_cell_angle_gamma 90.000000
_cell_volume 2598.054689
_symmetry_space_group_name_H-M "A M M 2"
_symmetry_group_IT_number 38
_symmetry_cell_setting 'orthorhombic'
loop_
_space_group_symop_operation_xyz
x,y,z
-x,-y,z
-x,y,z
x,-y,z
x,1/2+y,1/2+z
-x,1/2-y,1/2+z
-x,1/2+y,1/2+z
x,1/2-y,1/2+z
loop_
_atom_site_type_symbol
_atom_site_label
_atom_site_fract_x
_atom_site_fract_y
_atom_site_fract_z
Si Si1 0.801622 0.304766 0.943210
Si Si2 0.789895 0.919076 0.328136
Si Si3 0.290900 0.079990 0.715772
Si Si4 0.301286 0.794461 0.615495
Si Si5 0.698030 0.832534 0.863246
Si Si6 0.205986 0.582680 0.511855
Si Si7 0.199598 0.352398 0.670053
O O1 0.731540 0.373087 0.900388
O O2 0.787826 0.240154 0.884158
O O3 0.000000 0.315794 0.961793
O O4 0.716504 0.287015 0.024178
O O5 0.729383 0.882562 0.249290
O O6 0.000000 0.916328 0.329098
O O7 0.739781 0.000000 0.330858
O O8 0.500000 0.076369 0.718017
O O9 0.241201 0.129599 0.644677
O O10 0.235049 0.122068 0.791958
O O11 0.229129 0.000000 0.713072
O O12 0.500000 0.788385 0.636023
O O13 0.212085 0.730739 0.659525
O O14 0.500000 0.815897 0.847438
O O15 0.712280 0.879699 0.939259
O O16 0.234354 0.500000 0.509679
O O17 0.272225 0.613837 0.592200
O O18 0.000000 0.595649 0.507192
O O19 0.000000 0.372784 0.670456
#
# Coordination Sequence:
#
# PCOD9357361 Si02
#       7
#     8   8   8   8   8   8   8
#     4  11  22  37  58  84 116 151 190 236 284 334
#     4   9  19  36  59  86 114 148 189 233 284 341
#     4   9  20  38  58  82 113 149 188 234 287 338
#     4  11  22  37  59  84 112 149 193 236 280 335
#     4  11  21  36  59  84 113 150 191 232 281 341
#     4  10  20  33  53  83 118 152 184 225 278 335
#     4  10  19  35  59  84 114 149 185 228 280 341
#
# _framework density 21.554587000000001
#
# number of rings (size 3 to 8) (size 9 to 14) (size 15 to 20)
#    0.000    1.857    1.429    3.000    0.000    3.143 
#    0.000    2.857    0.000    9.000    0.000    0.000 
#    0.000    0.000    0.000    0.000    0.000    0.000 
#
# Total GULP energy -156454.974811 kJ/mol
# GULP energy per Si atom -5587.677672 kJ/mol
# Density = 2.150553 g / cm^3
# Si number density = 21.554587 Si / 1000 Ang^3
#
#
#
# Elastic Constant Matrix: (Units=GPa)
#
#
# Indices 1 2 3 4 5 6 
#
# 1 24.0730 -8.6752 0.9985 0.0000 0.0000 0.0000
# 2 -8.6752 117.3842 31.9068 0.0000 0.0000 0.0000
# 3 0.9985 31.9068 39.5521 0.0000 0.0000 0.0000
# 4 0.0000 0.0000 0.0000 26.8252 0.0000 0.0000
# 5 0.0000 0.0000 0.0000 0.0000 -1.5316 0.0000
# 6 0.0000 0.0000 0.0000 0.0000 0.0000 -0.8559
#
#
#
# Elastic Compliance Matrix: (Units=1/GPa)
#
#
# Indices 1 2 3 4 5 6 
#
# 1 0.043352 0.004485 -0.004712 0.000000 0.000000 0.000000
# 2 0.004485 0.011376 -0.009290 0.000000 0.000000 0.000000
# 3 -0.004712 -0.009290 0.032896 0.000000 0.000000 0.000000
# 4 0.000000 0.000000 0.000000 0.037278 0.000000 0.000000
# 5 0.000000 0.000000 0.000000 0.000000 -0.652932 0.000000
# 6 0.000000 0.000000 0.000000 0.000000 0.000000 -1.168294
#
#
# Mechanical properties :
#
#
# Convention : Reuss Voigt Hill
#
# Bulk Modulus (GPa) = 14.57962 25.49663 20.03813
# Shear Modulus (GPa) = -3.02220 15.33948 6.15864
#
# Velocity S-wave (km/s) = -1.18539 2.67058 1.69217
# Velocity P-wave (km/s) = 2.21477 4.62211 3.62416
#
# Compressibility (1/GPa) = 0.06858887
#
# Stress axis : x y z
#
# Youngs Moduli (GPa) = 23.06696 87.90717 30.39853
#
# Poissons Ratio (x) = -0.39425 0.14325
# Poissons Ratio (y) = -0.10345 0.28240
# Poissons Ratio (z) = 0.10870 0.81666
#
# Static dielectric constant tensor:
#      x y z
#    x 1.793030 0.000000 0.000000 
#    y 0.000000 1.760460 0.000000 
#    z 0.000000 0.000000 1.764000 
# 
# From -- ./inp_files/12396.got.cif
#   From: 2010.05.17/outbox.cif.g08.bks.cpg/sg38_7_cif.got.tgz:12396.got - 2010.06.03 18:07:57.
