data_PCOD9357919
_publ_section_title
;
Structure prediction by ZEFSAII (Michael W. Deem and Ramdas Pophale) SiO2 
 PCOD9357919
Probable space group: A M M 2
;
_chemical_formula_sum "Si O2"
_cell_formula_units_Z 56
_cell_length_a 13.760419
_cell_length_b 22.618708
_cell_length_c 9.469081
_cell_angle_alpha 90.000000
_cell_angle_beta 90.000000
_cell_angle_gamma 90.000000
_cell_volume 2947.184224
_symmetry_space_group_name_H-M "A M M 2"
_symmetry_group_IT_number 38
_symmetry_cell_setting 'orthorhombic'
loop_
_space_group_symop_operation_xyz
x,y,z
-x,-y,z
-x,y,z
x,-y,z
x,1/2+y,1/2+z
-x,1/2-y,1/2+z
-x,1/2+y,1/2+z
x,1/2-y,1/2+z
loop_
_atom_site_type_symbol
_atom_site_label
_atom_site_fract_x
_atom_site_fract_y
_atom_site_fract_z
Si Si1 0.885860 0.378096 0.250000
Si Si2 0.210984 0.343907 0.529266
Si Si3 0.888674 0.386577 0.804789
Si Si4 0.385700 0.205117 0.182717
Si Si5 0.385255 0.323888 0.009762
Si Si6 0.891152 0.778218 0.520438
Si Si7 0.755766 0.064744 0.527165
O O1 0.815180 0.374864 0.383343
O O2 0.881382 0.315929 0.163892
O O3 0.841112 0.424930 0.141334
O O4 0.000000 0.388210 0.283059
O O5 0.141813 0.372181 0.647227
O O6 0.318788 0.339781 0.593573
O O7 0.180475 0.275679 0.510529
O O8 0.000000 0.406870 0.817022
O O9 0.881241 0.325514 0.894894
O O10 0.811088 0.428936 0.878111
O O11 0.500000 0.192814 0.162692
O O12 0.363876 0.198991 0.349785
O O13 0.368643 0.271250 0.122236
O O14 0.500000 0.338448 0.014163
O O15 0.319509 0.381058 0.039241
O O16 0.000000 0.753206 0.514687
O O17 0.711509 0.000000 0.542777
#
# Coordination Sequence:
#
# PCOD9357919 Si02
#       7
#     8   8   8   8   8   8   8
#     4  10  22  36  53  83 118 159 204 245 294 351
#     4  12  20  31  55  82 120 157 193 238 303 360
#     4  10  20  34  53  82 113 152 204 248 291 349
#     4  10  22  37  60  93 128 157 190 247 308 363
#     4  10  22  41  64  96 124 155 199 245 307 363
#     4   9  18  30  48  78 116 155 193 236 293 360
#     4  11  23  42  62  83 115 162 209 249 294 353
#
# _framework density 19.001187999999999
#
# number of rings (size 3 to 8) (size 9 to 14) (size 15 to 20)
#    0.000    1.714    1.429    5.143    4.000    3.714 
#    0.000    0.714    0.000    1.714    0.000    0.000 
#    0.000    0.000    0.000    0.000    0.000    0.000 
#
# Total GULP energy -156349.749572 kJ/mol
# GULP energy per Si atom -5583.919628 kJ/mol
# Density = 1.895794 g / cm^3
# Si number density = 19.001188 Si / 1000 Ang^3
#
#
#
# Elastic Constant Matrix: (Units=GPa)
#
#
# Indices 1 2 3 4 5 6 
#
# 1 83.2635 31.3600 1.2887 0.0000 0.0000 0.0000
# 2 31.3600 55.4434 22.9936 0.0000 0.0000 0.0000
# 3 1.2887 22.9936 68.5442 0.0000 0.0000 0.0000
# 4 0.0000 0.0000 0.0000 4.4250 0.0000 0.0000
# 5 0.0000 0.0000 0.0000 0.0000 28.7635 0.0000
# 6 0.0000 0.0000 0.0000 0.0000 0.0000 7.4561
#
#
#
# Elastic Compliance Matrix: (Units=1/GPa)
#
#
# Indices 1 2 3 4 5 6 
#
# 1 0.015823 -0.010253 0.003142 0.000000 0.000000 0.000000
# 2 -0.010253 0.027595 -0.009064 0.000000 0.000000 0.000000
# 3 0.003142 -0.009064 0.017571 0.000000 0.000000 0.000000
# 4 0.000000 0.000000 0.000000 0.225988 0.000000 0.000000
# 5 0.000000 0.000000 0.000000 0.000000 0.034766 0.000000
# 6 0.000000 0.000000 0.000000 0.000000 0.000000 0.134118
#
#
# Mechanical properties :
#
#
# Convention : Reuss Voigt Hill
#
# Bulk Modulus (GPa) = 34.91822 35.39286 35.15554
# Shear Modulus (GPa) = 10.04507 18.23618 14.14062
#
# Velocity S-wave (km/s) = 2.30174 3.10133 2.73096
# Velocity P-wave (km/s) = 5.04785 5.61172 5.33724
#
# Compressibility (1/GPa) = 0.02863834
#
# Stress axis : x y z
#
# Youngs Moduli (GPa) = 63.19895 36.23872 56.91303
#
# Poissons Ratio (x) = 0.37155 -0.17882
# Poissons Ratio (y) = 0.64797 0.51587
# Poissons Ratio (z) = -0.19857 0.32847
#
# Static dielectric constant tensor:
#      x y z
#    x 1.690670 0.000000 0.000000 
#    y 0.000000 1.653930 0.000000 
#    z 0.000000 0.000000 1.675180 
# 
# From -- ./inp_files/5684.got.cif
#   From: 2010.05.17/outbox.cif.g08.bks.cpg/sg38_3_cif.got.tgz:5684.got - 2010.06.03 18:07:57.
