data_PCOD9357811
_publ_section_title
;
Structure prediction by ZEFSAII (Michael W. Deem and Ramdas Pophale) SiO2 
 PCOD9357811
Probable space group: A M M 2
;
_chemical_formula_sum "Si O2"
_cell_formula_units_Z 56
_cell_length_a 22.011047
_cell_length_b 7.630251
_cell_length_c 15.900894
_cell_angle_alpha 90.000000
_cell_angle_beta 90.000000
_cell_angle_gamma 90.000000
_cell_volume 2670.552180
_symmetry_space_group_name_H-M "A M M 2"
_symmetry_group_IT_number 38
_symmetry_cell_setting 'orthorhombic'
loop_
_space_group_symop_operation_xyz
x,y,z
-x,-y,z
-x,y,z
x,-y,z
x,1/2+y,1/2+z
-x,1/2-y,1/2+z
-x,1/2+y,1/2+z
x,1/2-y,1/2+z
loop_
_atom_site_type_symbol
_atom_site_label
_atom_site_fract_x
_atom_site_fract_y
_atom_site_fract_z
Si Si1 0.368957 0.715556 0.075260
Si Si2 0.711339 0.204701 0.421000
Si Si3 0.930213 0.286088 0.055922
Si Si4 0.931230 0.289436 0.245797
Si Si5 0.152786 0.710291 0.903159
Si Si6 0.500000 0.710728 0.815563
Si Si7 0.634014 0.295523 0.260731
Si Si8 0.500000 0.786641 0.511022
O O1 0.369480 0.500000 0.075336
O O2 0.350099 0.773473 0.168221
O O3 0.437905 0.770909 0.054831
O O4 0.325086 0.778196 0.000870
O O5 0.778264 0.278985 0.404160
O O6 0.669273 0.213858 0.338781
O O7 0.719730 0.000000 0.440931
O O8 0.928842 0.500000 0.055343
O O9 0.914977 0.229532 0.151188
O O10 0.000000 0.234914 0.038487
O O11 0.885457 0.223236 0.983223
O O12 0.934102 0.500000 0.242240
O O13 0.883535 0.244485 0.317521
O O14 0.000000 0.226315 0.265615
O O15 0.155317 0.500000 0.910868
O O16 0.500000 0.500000 0.813467
O O17 0.561773 0.775019 0.773258
O O18 0.500000 0.766578 0.913329
O O19 0.649303 0.500000 0.263053
O O20 0.500000 0.000000 0.511882
#
# Coordination Sequence:
#
# PCOD9357811 Si02
#       8
#     8   8   8   8   8   4   8   4
#     4   9  18  34  56  78 102 139 182 217 257 318
#     4  10  21  38  55  75 107 147 184 215 260 321
#     4   8  15  30  52  77 104 136 177 221 261 310
#     4   9  18  33  54  80 109 139 172 216 271 323
#     4  10  20  33  54  80 105 139 183 224 259 307
#     4  11  20  35  61  84 109 143 172 210 271 328
#     4  11  22  36  58  85 108 134 178 229 267 305
#     4   9  15  29  57  80  97 131 172 208 253 310
#
# _framework density 20.969446999999999
#
# number of rings (size 3 to 8) (size 9 to 14) (size 15 to 20)
#    0.000    2.429    1.429    2.357    0.000    3.714 
#    0.000    5.000    0.000    0.857    0.000    0.000 
#    0.000    0.000    0.000    0.000    0.000    0.000 
#
# Total GULP energy -156341.478615 kJ/mol
# GULP energy per Si atom -5583.624236 kJ/mol
# Density = 2.092172 g / cm^3
# Si number density = 20.969447 Si / 1000 Ang^3
#
#
#
# Elastic Constant Matrix: (Units=GPa)
#
#
# Indices 1 2 3 4 5 6 
#
# 1 145.3498 -6.0748 88.1064 0.0000 0.0000 0.0000
# 2 -6.0748 39.6623 -5.9101 0.0000 0.0000 0.0000
# 3 88.1064 -5.9101 158.7418 0.0000 0.0000 0.0000
# 4 0.0000 0.0000 0.0000 17.7307 0.0000 0.0000
# 5 0.0000 0.0000 0.0000 0.0000 -5.6129 0.0000
# 6 0.0000 0.0000 0.0000 0.0000 0.0000 10.3150
#
#
#
# Elastic Compliance Matrix: (Units=1/GPa)
#
#
# Indices 1 2 3 4 5 6 
#
# 1 0.010390 0.000736 -0.005739 0.000000 0.000000 0.000000
# 2 0.000736 0.025406 0.000537 0.000000 0.000000 0.000000
# 3 -0.005739 0.000537 0.009505 0.000000 0.000000 0.000000
# 4 0.000000 0.000000 0.000000 0.056399 0.000000 0.000000
# 5 0.000000 0.000000 0.000000 0.000000 -0.178161 0.000000
# 6 0.000000 0.000000 0.000000 0.000000 0.000000 0.096946
#
#
# Mechanical properties :
#
#
# Convention : Reuss Voigt Hill
#
# Bulk Modulus (GPa) = 27.49613 55.11080 41.30346
# Shear Modulus (GPa) = 120.36913 22.32872 71.34893
#
# Velocity S-wave (km/s) = 7.58464 3.26670 5.83944
# Velocity P-wave (km/s) = 9.47857 6.36922 8.07497
#
# Compressibility (1/GPa) = 0.03636876
#
# Stress axis : x y z
#
# Youngs Moduli (GPa) = 96.25013 39.36131 105.20853
#
# Poissons Ratio (x) = -0.02897 0.60381
# Poissons Ratio (y) = -0.07085 -0.05653
# Poissons Ratio (z) = 0.55239 -0.02115
#
# Static dielectric constant tensor:
#      x y z
#    x 1.734070 0.000000 0.000000 
#    y 0.000000 1.795030 0.000000 
#    z 0.000000 0.000000 1.738380 
# 
# From -- ./inp_files/15569.got.cif
#   From: 2010.05.17/outbox.cif.g08.bks.cpg/sg38_8_cif.got.tgz:15569.got - 2010.06.03 18:07:57.
