data_PCOD9357223
_publ_section_title
;
Structure prediction by ZEFSAII (Michael W. Deem and Ramdas Pophale) SiO2 
 PCOD9357223
Probable space group: A M M 2
;
_chemical_formula_sum "Si O2"
_cell_formula_units_Z 56
_cell_length_a 8.565735
_cell_length_b 22.569016
_cell_length_c 14.879561
_cell_angle_alpha 90.000000
_cell_angle_beta 90.000000
_cell_angle_gamma 90.000000
_cell_volume 2876.519861
_symmetry_space_group_name_H-M "A M M 2"
_symmetry_group_IT_number 38
_symmetry_cell_setting 'orthorhombic'
loop_
_space_group_symop_operation_xyz
x,y,z
-x,-y,z
-x,y,z
x,-y,z
x,1/2+y,1/2+z
-x,1/2-y,1/2+z
-x,1/2+y,1/2+z
x,1/2-y,1/2+z
loop_
_atom_site_type_symbol
_atom_site_label
_atom_site_fract_x
_atom_site_fract_y
_atom_site_fract_z
Si Si1 0.812595 0.144230 0.099720
Si Si2 0.188856 0.780531 0.602378
Si Si3 0.187325 0.220568 0.398610
Si Si4 0.690060 0.500000 0.901222
Si Si5 0.314247 0.853842 0.904940
Si Si6 0.311924 0.500000 0.108743
Si Si7 0.812128 0.389541 0.221330
Si Si8 0.312987 0.612840 0.784732
O O1 0.759101 0.212815 0.114931
O O2 0.750447 0.107567 0.183786
O O3 0.000000 0.143626 0.098165
O O4 0.750258 0.126565 0.001933
O O5 0.229701 0.798955 0.500477
O O6 0.242954 0.828004 0.674900
O O7 0.000000 0.779444 0.607033
O O8 0.251862 0.286885 0.388581
O O9 0.252301 0.173826 0.328157
O O10 0.000000 0.223263 0.390993
O O11 0.500000 0.500000 0.901605
O O12 0.740184 0.441399 0.847670
O O13 0.740519 0.500000 0.004736
O O14 0.500000 0.853457 0.906762
O O15 0.252334 0.892188 0.822006
O O16 0.500000 0.500000 0.110828
O O17 0.248258 0.557335 0.160080
O O18 0.000000 0.389758 0.223512
O O19 0.500000 0.613559 0.782868
#
# Coordination Sequence:
#
# PCOD9357223 Si02
#       8
#     8   8   8   4   8   4   8   8
#     4  10  20  37  58  84 116 150 186 235 290 343
#     4   8  17  32  54  81 112 146 183 226 280 337
#     4  10  19  34  55  84 119 154 189 234 286 340
#     4   9  22  41  60  83 118 153 185 228 282 335
#     4  11  22  37  57  85 116 150 190 236 286 345
#     4  11  23  41  60  83 114 151 191 234 280 335
#     4  11  21  37  59  84 113 150 192 238 287 339
#     4  11  21  36  57  83 113 152 195 237 284 339
#
# _framework density 19.467967999999999
#
# number of rings (size 3 to 8) (size 9 to 14) (size 15 to 20)
#    0.000    1.857    0.000    5.786    0.000    1.143 
#    0.000   11.429    0.000    0.857    0.000    0.000 
#    0.000    0.000    0.000    0.000    0.000    0.000 
#
# Total GULP energy -156457.415505 kJ/mol
# GULP energy per Si atom -5587.764839 kJ/mol
# Density = 1.942366 g / cm^3
# Si number density = 19.467968 Si / 1000 Ang^3
#
#
#
# Elastic Constant Matrix: (Units=GPa)
#
#
# Indices 1 2 3 4 5 6 
#
# 1 88.5000 21.6374 52.0506 0.0000 0.0000 0.0000
# 2 21.6374 43.4349 67.2639 0.0000 0.0000 0.0000
# 3 52.0506 67.2639 195.5578 0.0000 0.0000 0.0000
# 4 0.0000 0.0000 0.0000 35.1500 0.0000 0.0000
# 5 0.0000 0.0000 0.0000 0.0000 32.3951 0.0000
# 6 0.0000 0.0000 0.0000 0.0000 0.0000 20.8315
#
#
#
# Elastic Compliance Matrix: (Units=1/GPa)
#
#
# Indices 1 2 3 4 5 6 
#
# 1 0.013521 -0.002487 -0.002743 0.000000 0.000000 0.000000
# 2 -0.002487 0.049721 -0.016440 0.000000 0.000000 0.000000
# 3 -0.002743 -0.016440 0.011498 0.000000 0.000000 0.000000
# 4 0.000000 0.000000 0.000000 0.028450 0.000000 0.000000
# 5 0.000000 0.000000 0.000000 0.000000 0.030869 0.000000
# 6 0.000000 0.000000 0.000000 0.000000 0.000000 0.048004
#
#
# Mechanical properties :
#
#
# Convention : Reuss Voigt Hill
#
# Bulk Modulus (GPa) = 31.84759 67.71071 49.77915
# Shear Modulus (GPa) = 21.19798 30.11136 25.65467
#
# Velocity S-wave (km/s) = 3.30337 3.93709 3.63407
# Velocity P-wave (km/s) = 5.56275 7.45142 6.57525
#
# Compressibility (1/GPa) = 0.03139955
#
# Stress axis : x y z
#
# Youngs Moduli (GPa) = 73.95901 20.11203 86.96795
#
# Poissons Ratio (x) = 0.05002 0.23858
# Poissons Ratio (y) = 0.18396 1.42977
# Poissons Ratio (z) = 0.20289 0.33064
#
# Static dielectric constant tensor:
#      x y z
#    x 1.654150 0.000000 0.000000 
#    y 0.000000 1.678730 0.000000 
#    z 0.000000 0.000000 1.688690 
# 
# From -- ./inp_files/12454.got.cif
#   From: 2010.05.17/outbox.cif.g08.bks.cpg/sg38_7_cif.got.tgz:12454.got - 2010.06.03 18:07:57.
