data_PCOD9357285
_publ_section_title
;
Structure prediction by ZEFSAII (Michael W. Deem and Ramdas Pophale) SiO2 
 PCOD9357285
Probable space group: A M M 2
;
_chemical_formula_sum "Si O2"
_cell_formula_units_Z 64
_cell_length_a 20.380381
_cell_length_b 19.421500
_cell_length_c 8.211034
_cell_angle_alpha 90.000000
_cell_angle_beta 90.000000
_cell_angle_gamma 90.000000
_cell_volume 3250.071522
_symmetry_space_group_name_H-M "A M M 2"
_symmetry_group_IT_number 38
_symmetry_cell_setting 'orthorhombic'
loop_
_space_group_symop_operation_xyz
x,y,z
-x,-y,z
-x,y,z
x,-y,z
x,1/2+y,1/2+z
-x,1/2-y,1/2+z
-x,1/2+y,1/2+z
x,1/2-y,1/2+z
loop_
_atom_site_type_symbol
_atom_site_label
_atom_site_fract_x
_atom_site_fract_y
_atom_site_fract_z
Si Si1 0.215392 0.808273 0.737270
Si Si2 0.796044 0.418277 0.968582
Si Si3 0.572236 0.423346 0.874972
Si Si4 0.661288 0.305408 0.430958
Si Si5 0.701687 0.421310 0.664785
Si Si6 0.874450 0.710349 0.523626
Si Si7 0.424310 0.800861 0.631327
Si Si8 0.073878 0.345153 0.851718
O O1 0.230270 0.872446 0.619002
O O2 0.278775 0.775632 0.823954
O O3 0.181220 0.750870 0.625654
O O4 0.162309 0.827890 0.876232
O O5 0.792448 0.500000 0.000337
O O6 0.753476 0.403760 0.806339
O O7 0.869807 0.393091 0.928549
O O8 0.500000 0.417404 0.797710
O O9 0.577097 0.500000 0.949160
O O10 0.630322 0.417463 0.748069
O O11 0.577522 0.364474 0.008044
O O12 0.696561 0.368921 0.517958
O O13 0.624786 0.256036 0.557814
O O14 0.604375 0.324037 0.303636
O O15 0.714458 0.500000 0.613484
O O16 0.911936 0.666236 0.659169
O O17 0.917388 0.770476 0.439021
O O18 0.500000 0.776575 0.645212
O O19 0.000000 0.370042 0.876858
#
# Coordination Sequence:
#
# PCOD9357285 Si02
#       8
#     8   8   8   8   8   8   8   8
#     4  10  20  35  57  84 113 148 190 239 291 345
#     4  10  22  40  60  83 115 153 192 240 295 352
#     4   9  19  38  61  82 109 148 189 227 274 338
#     4  12  23  36  57  82 112 150 190 237 293 349
#     4  10  22  39  58  81 109 145 192 242 292 347
#     4   9  19  34  54  86 120 145 187 243 291 337
#     4  11  24  38  55  83 118 151 185 232 287 344
#     4  10  19  34  58  85 116 155 195 237 288 349
#
# _framework density 19.691873000000001
#
# number of rings (size 3 to 8) (size 9 to 14) (size 15 to 20)
#    0.000    1.875    0.000    3.750    0.000    7.250 
#    0.000    1.250    0.000    0.000    0.000    0.000 
#    0.000    0.000    0.000    0.000    0.000    0.000 
#
# Total GULP energy -178693.962326 kJ/mol
# GULP energy per Si atom -5584.186323 kJ/mol
# Density = 1.964705 g / cm^3
# Si number density = 19.691873 Si / 1000 Ang^3
#
#
#
# Elastic Constant Matrix: (Units=GPa)
#
#
# Indices 1 2 3 4 5 6 
#
# 1 107.3280 21.0864 22.6148 0.0000 0.0000 0.0000
# 2 21.0864 57.8881 18.9898 0.0000 0.0000 0.0000
# 3 22.6148 18.9898 69.7499 0.0000 0.0000 0.0000
# 4 0.0000 0.0000 0.0000 26.4826 0.0000 0.0000
# 5 0.0000 0.0000 0.0000 0.0000 27.3639 0.0000
# 6 0.0000 0.0000 0.0000 0.0000 0.0000 17.3384
#
#
#
# Elastic Compliance Matrix: (Units=1/GPa)
#
#
# Indices 1 2 3 4 5 6 
#
# 1 0.010442 -0.002957 -0.002580 0.000000 0.000000 0.000000
# 2 -0.002957 0.019806 -0.004434 0.000000 0.000000 0.000000
# 3 -0.002580 -0.004434 0.016381 0.000000 0.000000 0.000000
# 4 0.000000 0.000000 0.000000 0.037761 0.000000 0.000000
# 5 0.000000 0.000000 0.000000 0.000000 0.036544 0.000000
# 6 0.000000 0.000000 0.000000 0.000000 0.000000 0.057675
#
#
# Mechanical properties :
#
#
# Convention : Reuss Voigt Hill
#
# Bulk Modulus (GPa) = 37.47207 40.03868 38.75538
# Shear Modulus (GPa) = 24.10251 25.72199 24.91225
#
# Velocity S-wave (km/s) = 3.50234 3.61809 3.56069
# Velocity P-wave (km/s) = 5.95195 6.15068 6.05213
#
# Compressibility (1/GPa) = 0.02668654
#
# Stress axis : x y z
#
# Youngs Moduli (GPa) = 95.76779 50.48902 61.04757
#
# Poissons Ratio (x) = 0.14930 0.15753
# Poissons Ratio (y) = 0.28319 0.27066
# Poissons Ratio (z) = 0.24713 0.22385
#
# Static dielectric constant tensor:
#      x y z
#    x 1.717430 0.000000 0.000000 
#    y 0.000000 1.706210 0.000000 
#    z 0.000000 0.000000 1.713060 
# 
# From -- ./inp_files/6847.got.cif
#   From: 2010.05.17/outbox.cif.g08.bks.cpg/sg38_4_cif.got.tgz:6847.got - 2010.06.03 18:07:57.
