data_PCOD9357279
_publ_section_title
;
Structure prediction by ZEFSAII (Michael W. Deem and Ramdas Pophale) SiO2 
 PCOD9357279
Probable space group: A M M 2
;
_chemical_formula_sum "Si O2"
_cell_formula_units_Z 56
_cell_length_a 13.331056
_cell_length_b 23.724512
_cell_length_c 9.976515
_cell_angle_alpha 90.000000
_cell_angle_beta 90.000000
_cell_angle_gamma 90.000000
_cell_volume 3155.300314
_symmetry_space_group_name_H-M "A M M 2"
_symmetry_group_IT_number 38
_symmetry_cell_setting 'orthorhombic'
loop_
_space_group_symop_operation_xyz
x,y,z
-x,-y,z
-x,y,z
x,-y,z
x,1/2+y,1/2+z
-x,1/2-y,1/2+z
-x,1/2+y,1/2+z
x,1/2-y,1/2+z
loop_
_atom_site_type_symbol
_atom_site_label
_atom_site_fract_x
_atom_site_fract_y
_atom_site_fract_z
Si Si1 0.610795 0.339439 0.651180
Si Si2 0.229083 0.754929 0.033693
Si Si3 0.322014 0.436373 0.465647
Si Si4 0.379123 0.062705 0.657629
Si Si5 0.115453 0.564552 0.362451
Si Si6 0.118675 0.810058 0.775079
Si Si7 0.383451 0.839850 0.456991
O O1 0.500000 0.312445 0.635403
O O2 0.702304 0.299086 0.614351
O O3 0.620518 0.391855 0.552925
O O4 0.618551 0.359323 0.803776
O O5 0.169788 0.785443 0.911656
O O6 0.309745 0.712419 0.969998
O O7 0.163743 0.720536 0.143440
O O8 0.352287 0.500000 0.497728
O O9 0.344089 0.426743 0.308705
O O10 0.201283 0.431264 0.475387
O O11 0.500000 0.062372 0.658506
O O12 0.348271 0.111403 0.557022
O O13 0.345001 0.000000 0.617746
O O14 0.128352 0.500000 0.304995
O O15 0.130628 0.621297 0.273985
O O16 0.000000 0.567451 0.409508
O O17 0.000000 0.798730 0.781511
O O18 0.500000 0.825505 0.489070
#
# Coordination Sequence:
#
# PCOD9357279 Si02
#       7
#     8   8   8   8   8   8   8
#     4  11  23  37  54  82 117 156 196 238 292 353
#     4  12  22  41  56  84 118 150 192 244 293 347
#     4  10  19  34  57  86 115 149 193 246 294 342
#     4   9  18  33  54  81 112 149 193 239 289 345
#     4   9  18  34  57  86 115 145 188 240 292 343
#     4  11  23  39  64  89 115 153 195 243 297 355
#     4  10  22  37  55  79 113 156 195 233 289 352
#
# _framework density 17.747913
#
# number of rings (size 3 to 8) (size 9 to 14) (size 15 to 20)
#    0.000    1.714    2.857    2.143    0.000    1.429 
#    0.000    1.429    0.000    0.000    0.000    0.000 
#    0.000    5.714    0.000    0.000    0.000    0.000 
#
# Total GULP energy -156033.643482 kJ/mol
# GULP energy per Si atom -5572.630124 kJ/mol
# Density = 1.770752 g / cm^3
# Si number density = 17.747913 Si / 1000 Ang^3
#
#
#
# Elastic Constant Matrix: (Units=GPa)
#
#
# Indices 1 2 3 4 5 6 
#
# 1 65.7451 34.7623 16.2718 0.0000 0.0000 0.0000
# 2 34.7623 104.1748 48.3561 0.0000 0.0000 0.0000
# 3 16.2718 48.3561 50.2831 0.0000 0.0000 0.0000
# 4 0.0000 0.0000 0.0000 10.9106 0.0000 0.0000
# 5 0.0000 0.0000 0.0000 0.0000 23.6130 0.0000
# 6 0.0000 0.0000 0.0000 0.0000 0.0000 27.1975
#
#
#
# Elastic Compliance Matrix: (Units=1/GPa)
#
#
# Indices 1 2 3 4 5 6 
#
# 1 0.018469 -0.006121 -0.000090 0.000000 0.000000 0.000000
# 2 -0.006121 0.019368 -0.016645 0.000000 0.000000 0.000000
# 3 -0.000090 -0.016645 0.035924 0.000000 0.000000 0.000000
# 4 0.000000 0.000000 0.000000 0.091654 0.000000 0.000000
# 5 0.000000 0.000000 0.000000 0.000000 0.042350 0.000000
# 6 0.000000 0.000000 0.000000 0.000000 0.000000 0.036768
#
#
# Mechanical properties :
#
#
# Convention : Reuss Voigt Hill
#
# Bulk Modulus (GPa) = 35.65275 46.55373 41.10324
# Shear Modulus (GPa) = 16.68920 20.39839 18.54380
#
# Velocity S-wave (km/s) = 3.06983 3.39387 3.23591
# Velocity P-wave (km/s) = 5.71815 6.45332 6.09682
#
# Compressibility (1/GPa) = 0.02804833
#
# Stress axis : x y z
#
# Youngs Moduli (GPa) = 54.14452 51.63095 27.83668
#
# Poissons Ratio (x) = 0.31604 0.00251
# Poissons Ratio (y) = 0.33143 0.46335
# Poissons Ratio (z) = 0.00488 0.85941
#
# Static dielectric constant tensor:
#      x y z
#    x 1.643660 0.000000 0.000000 
#    y 0.000000 1.630210 0.000000 
#    z 0.000000 0.000000 1.566890 
# 
# From -- ./inp_files/5703.got.cif
#   From: 2010.05.17/outbox.cif.g08.bks.cpg/sg38_3_cif.got.tgz:5703.got - 2010.06.03 18:07:57.
