data_PCOD9357320
_publ_section_title
;
Structure prediction by ZEFSAII (Michael W. Deem and Ramdas Pophale) SiO2 
 PCOD9357320
Probable space group: A M M 2
;
_chemical_formula_sum "Si O2"
_cell_formula_units_Z 64
_cell_length_a 19.976397
_cell_length_b 8.221574
_cell_length_c 21.240195
_cell_angle_alpha 90.000000
_cell_angle_beta 90.000000
_cell_angle_gamma 90.000000
_cell_volume 3488.434959
_symmetry_space_group_name_H-M "A M M 2"
_symmetry_group_IT_number 38
_symmetry_cell_setting 'orthorhombic'
loop_
_space_group_symop_operation_xyz
x,y,z
-x,-y,z
-x,y,z
x,-y,z
x,1/2+y,1/2+z
-x,1/2-y,1/2+z
-x,1/2+y,1/2+z
x,1/2-y,1/2+z
loop_
_atom_site_type_symbol
_atom_site_label
_atom_site_fract_x
_atom_site_fract_y
_atom_site_fract_z
Si Si1 0.925577 0.695941 0.082880
Si Si2 0.924494 0.694440 0.439744
Si Si3 0.574942 0.304280 0.212020
Si Si4 0.713511 0.196884 0.764557
Si Si5 0.290764 0.304031 0.014445
Si Si6 0.789275 0.801123 0.638766
Si Si7 0.787128 0.194263 0.390488
Si Si8 0.575573 0.805443 0.068944
O O1 0.926937 0.500000 0.086611
O O2 0.865400 0.753075 0.127000
O O3 0.000000 0.758107 0.098128
O O4 0.911104 0.739594 0.010226
O O5 0.924950 0.500000 0.442640
O O6 0.863824 0.748133 0.395557
O O7 0.000000 0.749128 0.421848
O O8 0.500000 0.241866 0.226849
O O9 0.573073 0.500000 0.216793
O O10 0.636850 0.246241 0.254333
O O11 0.589412 0.262705 0.139027
O O12 0.755669 0.252298 0.703508
O O13 0.748904 0.251948 0.828028
O O14 0.712736 0.000000 0.763955
O O15 0.287842 0.500000 0.013988
O O16 0.252907 0.243958 0.952265
O O17 0.253059 0.248173 0.077841
O O18 0.367506 0.252535 0.021535
O O19 0.788545 0.000000 0.639021
O O20 0.787628 0.000000 0.393181
O O21 0.500000 0.753847 0.051818
O O22 0.577046 0.000000 0.072609
#
# Coordination Sequence:
#
# PCOD9357320 Si02
#       8
#     8   8   8   8   8   8   8   8
#     4   9  16  29  52  80 109 141 178 221 266 312
#     4  10  20  34  54  81 110 140 177 220 267 319
#     4   9  17  32  55  79 104 142 186 220 261 323
#     4  10  20  35  54  77 110 145 179 224 270 317
#     4  10  19  35  56  77 103 139 182 222 262 319
#     4   9  16  31  53  78 105 137 179 220 259 311
#     4  11  23  38  56  79 109 144 182 223 268 321
#     4  10  20  32  50  81 114 139 171 223 278 320
#
# _framework density 18.346336000000001
#
# number of rings (size 3 to 8) (size 9 to 14) (size 15 to 20)
#    0.000    2.250    2.500    1.125    0.000    3.000 
#    0.000    1.875    0.000    4.500    0.000    0.000 
#    0.000    0.000    0.000    0.000    0.000    0.000 
#
# Total GULP energy -178489.665710 kJ/mol
# GULP energy per Si atom -5577.802053 kJ/mol
# Density = 1.830458 g / cm^3
# Si number density = 18.346336 Si / 1000 Ang^3
#
#
#
# Elastic Constant Matrix: (Units=GPa)
#
#
# Indices 1 2 3 4 5 6 
#
# 1 170.0848 14.3621 78.2144 0.0000 0.0000 0.0000
# 2 14.3621 7.7118 9.6154 0.0000 0.0000 0.0000
# 3 78.2144 9.6154 106.2260 0.0000 0.0000 0.0000
# 4 0.0000 0.0000 0.0000 21.9449 0.0000 0.0000
# 5 0.0000 0.0000 0.0000 0.0000 28.0546 0.0000
# 6 0.0000 0.0000 0.0000 0.0000 0.0000 18.5595
#
#
#
# Elastic Compliance Matrix: (Units=1/GPa)
#
#
# Indices 1 2 3 4 5 6 
#
# 1 0.009547 -0.010162 -0.006110 0.000000 0.000000 0.000000
# 2 -0.010162 0.156984 -0.006727 0.000000 0.000000 0.000000
# 3 -0.006110 -0.006727 0.014521 0.000000 0.000000 0.000000
# 4 0.000000 0.000000 0.000000 0.045569 0.000000 0.000000
# 5 0.000000 0.000000 0.000000 0.000000 0.035645 0.000000
# 6 0.000000 0.000000 0.000000 0.000000 0.000000 0.053881
#
#
# Mechanical properties :
#
#
# Convention : Reuss Voigt Hill
#
# Bulk Modulus (GPa) = 7.40445 54.26736 30.83590
# Shear Modulus (GPa) = 12.28008 25.83386 19.05697
#
# Velocity S-wave (km/s) = 2.58998 3.75656 3.22644
# Velocity P-wave (km/s) = 3.60398 6.96127 5.54292
#
# Compressibility (1/GPa) = 0.13505400
#
# Stress axis : x y z
#
# Youngs Moduli (GPa) = 104.74400 6.37007 68.86383
#
# Poissons Ratio (x) = 0.06473 0.42074
# Poissons Ratio (y) = 1.06443 0.46328
# Poissons Ratio (z) = 0.63995 0.04285
#
# Static dielectric constant tensor:
#      x y z
#    x 1.676360 0.000000 0.000000 
#    y 0.000000 1.641060 0.000000 
#    z 0.000000 0.000000 1.591540 
# 
# From -- ./inp_files/18962.got.cif
#   From: 2010.05.17/outbox.cif.g08.bks.cpg/sg38_10_cif.got.tgz:18962.got - 2010.06.03 18:07:57.
