data_PCOD9357884
_publ_section_title
;
Structure prediction by ZEFSAII (Michael W. Deem and Ramdas Pophale) SiO2 
 PCOD9357884
Probable space group: A M M 2
;
_chemical_formula_sum "Si O2"
_cell_formula_units_Z 64
_cell_length_a 8.903272
_cell_length_b 16.020028
_cell_length_c 23.355758
_cell_angle_alpha 90.000000
_cell_angle_beta 90.000000
_cell_angle_gamma 90.000000
_cell_volume 3331.247336
_symmetry_space_group_name_H-M "A M M 2"
_symmetry_group_IT_number 38
_symmetry_cell_setting 'orthorhombic'
loop_
_space_group_symop_operation_xyz
x,y,z
-x,-y,z
-x,y,z
x,-y,z
x,1/2+y,1/2+z
-x,1/2-y,1/2+z
-x,1/2+y,1/2+z
x,1/2-y,1/2+z
loop_
_atom_site_type_symbol
_atom_site_label
_atom_site_fract_x
_atom_site_fract_y
_atom_site_fract_z
Si Si1 0.321364 0.737260 0.260110
Si Si2 0.177718 0.908269 0.221419
Si Si3 0.835005 0.401650 0.035640
Si Si4 0.177865 0.649494 0.594557
Si Si5 0.817764 0.093278 0.967201
Si Si6 0.820401 0.765038 0.877495
Si Si7 0.323129 0.181642 0.634774
Si Si8 0.678044 0.902579 0.419627
O O1 0.500000 0.734931 0.268553
O O2 0.269557 0.832254 0.247652
O O3 0.236826 0.704866 0.315809
O O4 0.284249 0.688035 0.201671
O O5 0.194102 0.904516 0.152286
O O6 0.000000 0.896340 0.233556
O O7 0.223389 0.000000 0.242122
O O8 0.850012 0.500000 0.030674
O O9 0.772216 0.382041 0.097771
O O10 0.000000 0.362461 0.026030
O O11 0.721081 0.379010 0.985116
O O12 0.218855 0.608857 0.534041
O O13 0.278446 0.730175 0.606313
O O14 0.000000 0.672266 0.591655
O O15 0.768050 0.169891 0.926728
O O16 0.000000 0.092676 0.963999
O O17 0.765782 0.000000 0.950181
O O18 0.757554 0.671017 0.884799
O O19 0.000000 0.761241 0.879227
O O20 0.500000 0.166115 0.629438
O O21 0.500000 0.898936 0.411200
O O22 0.725195 0.000000 0.408960
#
# Coordination Sequence:
#
# PCOD9357884 Si02
#       8
#     8   8   8   8   8   8   8   8
#     4  10  22  38  53  71 100 140 183 224 267 318
#     4   9  17  30  51  80 109 135 166 207 257 316
#     4  10  20  34  54  81 110 137 170 216 268 324
#     4   9  16  29  53  81 108 136 165 204 258 319
#     4   9  18  33  54  81 109 137 173 216 264 318
#     4  11  22  36  57  81 107 144 187 232 275 315
#     4  10  20  34  53  76 104 139 176 217 268 323
#     4  10  21  37  58  84 115 149 181 218 269 329
#
# _framework density 19.212024
#
# number of rings (size 3 to 8) (size 9 to 14) (size 15 to 20)
#    0.000    2.250    0.000    3.000    0.000    6.250 
#    0.000    1.250    0.000    6.375    0.000    0.000 
#    0.000    0.000    0.000    0.000    0.000    0.000 
#
# Total GULP energy -178460.958864 kJ/mol
# GULP energy per Si atom -5576.904965 kJ/mol
# Density = 1.916830 g / cm^3
# Si number density = 19.212024 Si / 1000 Ang^3
#
#
#
# Elastic Constant Matrix: (Units=GPa)
#
#
# Indices 1 2 3 4 5 6 
#
# 1 36.9110 11.8919 20.7687 0.0000 0.0000 0.0000
# 2 11.8919 39.2282 24.2518 0.0000 0.0000 0.0000
# 3 20.7687 24.2518 82.0093 0.0000 0.0000 0.0000
# 4 0.0000 0.0000 0.0000 12.4384 0.0000 0.0000
# 5 0.0000 0.0000 0.0000 0.0000 23.6709 0.0000
# 6 0.0000 0.0000 0.0000 0.0000 0.0000 11.2083
#
#
#
# Elastic Compliance Matrix: (Units=1/GPa)
#
#
# Indices 1 2 3 4 5 6 
#
# 1 0.032658 -0.005858 -0.006538 0.000000 0.000000 0.000000
# 2 -0.005858 0.032246 -0.008052 0.000000 0.000000 0.000000
# 3 -0.006538 -0.008052 0.016231 0.000000 0.000000 0.000000
# 4 0.000000 0.000000 0.000000 0.080396 0.000000 0.000000
# 5 0.000000 0.000000 0.000000 0.000000 0.042246 0.000000
# 6 0.000000 0.000000 0.000000 0.000000 0.000000 0.089219
#
#
# Mechanical properties :
#
#
# Convention : Reuss Voigt Hill
#
# Bulk Modulus (GPa) = 24.85231 30.21926 27.53579
# Shear Modulus (GPa) = 14.39651 16.21260 15.30456
#
# Velocity S-wave (km/s) = 2.74039 2.90811 2.82550
# Velocity P-wave (km/s) = 4.79342 5.19996 5.00083
#
# Compressibility (1/GPa) = 0.04023771
#
# Stress axis : x y z
#
# Youngs Moduli (GPa) = 30.61992 31.01187 61.61150
#
# Poissons Ratio (x) = 0.18167 0.40284
# Poissons Ratio (y) = 0.17938 0.49610
# Poissons Ratio (z) = 0.20020 0.24971
#
# Static dielectric constant tensor:
#      x y z
#    x 1.653430 0.000000 0.000000 
#    y 0.000000 1.704680 0.000000 
#    z 0.000000 0.000000 1.684160 
# 
# From -- ./inp_files/22171.got.cif
#   From: 2010.05.17/outbox.cif.g08.bks.cpg/sg38_12_cif.got.tgz:22171.got - 2010.06.03 18:07:57.
