data_PCOD9357313
_publ_section_title
;
Structure prediction by ZEFSAII (Michael W. Deem and Ramdas Pophale) SiO2 
 PCOD9357313
Probable space group: A M M 2
;
_chemical_formula_sum "Si O2"
_cell_formula_units_Z 48
_cell_length_a 13.869026
_cell_length_b 14.781943
_cell_length_c 13.366175
_cell_angle_alpha 90.000000
_cell_angle_beta 90.000000
_cell_angle_gamma 90.000000
_cell_volume 2740.214932
_symmetry_space_group_name_H-M "A M M 2"
_symmetry_group_IT_number 38
_symmetry_cell_setting 'orthorhombic'
loop_
_space_group_symop_operation_xyz
x,y,z
-x,-y,z
-x,y,z
x,-y,z
x,1/2+y,1/2+z
-x,1/2-y,1/2+z
-x,1/2+y,1/2+z
x,1/2-y,1/2+z
loop_
_atom_site_type_symbol
_atom_site_label
_atom_site_fract_x
_atom_site_fract_y
_atom_site_fract_z
Si Si1 0.616322 0.000000 0.898150
Si Si2 0.770256 0.752966 0.468050
Si Si3 0.615249 0.697929 0.323155
Si Si4 0.888059 0.734837 0.281327
Si Si5 0.886942 0.106278 0.590405
Si Si6 0.384455 0.500000 0.634642
Si Si7 0.721582 0.178552 0.179440
O O1 0.645242 0.093813 0.844928
O O2 0.500000 0.000000 0.140956
O O3 0.641960 0.000000 0.015844
O O4 0.669729 0.757197 0.407846
O O5 0.845477 0.710136 0.389287
O O6 0.817931 0.844355 0.510865
O O7 0.751254 0.693407 0.565315
O O8 0.500000 0.704652 0.328023
O O9 0.656939 0.738004 0.220248
O O10 0.875333 0.657140 0.197225
O O11 0.819444 0.816287 0.243832
O O12 0.000000 0.757771 0.286650
O O13 0.000000 0.118573 0.561945
O O14 0.867701 0.000000 0.599007
O O15 0.500000 0.500000 0.395591
O O16 0.339700 0.411798 0.685471
#
# Coordination Sequence:
#
# PCOD9357313 Si02
#       7
#     4   8   8   8   8   4   8
#     4   9  18  34  60  84 107 148 192 232 285 338
#     4  10  19  35  54  85 110 148 188 233 287 335
#     4  10  20  36  57  83 115 149 192 240 287 340
#     4   9  19  37  58  80 114 150 187 237 291 339
#     4   9  18  35  59  85 112 148 192 233 284 346
#     4  11  20  36  61  84 117 158 195 234 286 348
#     4  10  21  36  55  88 112 152 193 237 284 339
#
# _framework density 17.516874999999999
#
# number of rings (size 3 to 8) (size 9 to 14) (size 15 to 20)
#    0.000    2.333    1.667    1.000    0.000    1.333 
#   21.000    0.417    0.000    0.000    0.000    0.000 
#    0.000    0.000    0.000    0.000    0.000    0.000 
#
# Total GULP energy -133673.531938 kJ/mol
# GULP energy per Si atom -5569.730497 kJ/mol
# Density = 1.747701 g / cm^3
# Si number density = 17.516875 Si / 1000 Ang^3
#
#
#
# Elastic Constant Matrix: (Units=GPa)
#
#
# Indices 1 2 3 4 5 6 
#
# 1 133.4586 59.4346 49.1455 0.0000 0.0000 0.0000
# 2 59.4346 113.1452 36.5978 0.0000 0.0000 0.0000
# 3 49.1455 36.5978 88.9929 0.0000 0.0000 0.0000
# 4 0.0000 0.0000 0.0000 60.7855 0.0000 0.0000
# 5 0.0000 0.0000 0.0000 0.0000 28.3826 0.0000
# 6 0.0000 0.0000 0.0000 0.0000 0.0000 29.9894
#
#
#
# Elastic Compliance Matrix: (Units=1/GPa)
#
#
# Indices 1 2 3 4 5 6 
#
# 1 0.011033 -0.004412 -0.004279 0.000000 0.000000 0.000000
# 2 -0.004412 0.011958 -0.002481 0.000000 0.000000 0.000000
# 3 -0.004279 -0.002481 0.014620 0.000000 0.000000 0.000000
# 4 0.000000 0.000000 0.000000 0.016451 0.000000 0.000000
# 5 0.000000 0.000000 0.000000 0.000000 0.035233 0.000000
# 6 0.000000 0.000000 0.000000 0.000000 0.000000 0.033345
#
#
# Mechanical properties :
#
#
# Convention : Reuss Voigt Hill
#
# Bulk Modulus (GPa) = 65.49649 69.55029 67.52339
# Shear Modulus (GPa) = 33.31681 36.52608 34.92144
#
# Velocity S-wave (km/s) = 4.36591 4.57135 4.46981
# Velocity P-wave (km/s) = 7.93010 8.22520 8.07900
#
# Compressibility (1/GPa) = 0.01526799
#
# Stress axis : x y z
#
# Youngs Moduli (GPa) = 90.63450 83.62381 68.39842
#
# Poissons Ratio (x) = 0.36893 0.29266
# Poissons Ratio (y) = 0.39986 0.16973
# Poissons Ratio (z) = 0.38780 0.20751
#
# Static dielectric constant tensor:
#      x y z
#    x 1.607070 0.000000 0.000000 
#    y 0.000000 1.585570 0.000000 
#    z 0.000000 0.000000 1.622460 
# 
# From -- ./inp_files/10046.got.cif
#   From: 2010.05.17/outbox.cif.g08.bks.cpg/sg38_6_cif.got.tgz:10046.got - 2010.06.03 18:07:57.
