data_PCOD9357754
_publ_section_title
;
Structure prediction by ZEFSAII (Michael W. Deem and Ramdas Pophale) SiO2 
 PCOD9357754
Probable space group: A M M 2
;
_chemical_formula_sum "Si O2"
_cell_formula_units_Z 64
_cell_length_a 8.354975
_cell_length_b 14.275247
_cell_length_c 24.767490
_cell_angle_alpha 90.000000
_cell_angle_beta 90.000000
_cell_angle_gamma 90.000000
_cell_volume 2954.001983
_symmetry_space_group_name_H-M "A M M 2"
_symmetry_group_IT_number 38
_symmetry_cell_setting 'orthorhombic'
loop_
_space_group_symop_operation_xyz
x,y,z
-x,-y,z
-x,y,z
x,-y,z
x,1/2+y,1/2+z
-x,1/2-y,1/2+z
-x,1/2+y,1/2+z
x,1/2-y,1/2+z
loop_
_atom_site_type_symbol
_atom_site_label
_atom_site_fract_x
_atom_site_fract_y
_atom_site_fract_z
Si Si1 0.180808 0.112319 0.036560
Si Si2 0.680273 0.889320 0.148386
Si Si3 0.690842 0.608257 0.152358
Si Si4 0.809770 0.107274 0.533532
Si Si5 0.189087 0.102934 0.266859
Si Si6 0.192082 0.805417 0.762223
Si Si7 0.692838 0.602913 0.365033
Si Si8 0.682765 0.741115 0.452685
O O1 0.225105 0.145545 0.096602
O O2 0.000000 0.142864 0.022797
O O3 0.184706 0.000000 0.034028
O O4 0.306120 0.157440 0.996264
O O5 0.500000 0.849378 0.154492
O O6 0.781840 0.886821 0.202749
O O7 0.660164 0.000000 0.138093
O O8 0.500000 0.608380 0.156727
O O9 0.748380 0.500000 0.159235
O O10 0.736564 0.636833 0.091351
O O11 0.757818 0.671379 0.200919
O O12 0.764475 0.172882 0.483365
O O13 0.000000 0.108216 0.539883
O O14 0.756542 0.000000 0.523791
O O15 0.253496 0.204082 0.284602
O O16 0.000000 0.100063 0.278458
O O17 0.256696 0.000000 0.282896
O O18 0.260220 0.881877 0.803121
O O19 0.000000 0.804629 0.764342
O O20 0.500000 0.604025 0.370038
O O21 0.749561 0.500000 0.383722
O O22 0.756313 0.690287 0.400245
O O23 0.500000 0.767587 0.441510
#
# Coordination Sequence:
#
# PCOD9357754 Si02
#       8
#     8   8   8   8   8   8   8   8
#     4  10  20  33  51  78 114 154 194 239 293 355
#     4   9  17  29  47  73 106 145 189 235 283 340
#     4  10  21  38  61  89 123 163 204 249 306 370
#     4  10  22  41  64  91 125 161 201 253 308 367
#     4   9  19  36  54  75 111 156 197 240 293 352
#     4  11  23  37  60  91 121 159 207 258 310 364
#     4  10  23  44  66  89 121 159 200 250 306 366
#     4  11  23  39  62  88 117 156 201 250 306 366
#
# _framework density 21.665524999999999
#
# number of rings (size 3 to 8) (size 9 to 14) (size 15 to 20)
#    0.000    2.000    0.000    3.000    1.750    8.000 
#    0.000    0.625    0.000    2.250    0.000    0.000 
#    0.000    0.000    0.000    0.000    0.000    0.000 
#
# Total GULP energy -178530.220990 kJ/mol
# GULP energy per Si atom -5579.069406 kJ/mol
# Density = 2.161621 g / cm^3
# Si number density = 21.665525 Si / 1000 Ang^3
#
#
#
# Elastic Constant Matrix: (Units=GPa)
#
#
# Indices 1 2 3 4 5 6 
#
# 1 26.5164 12.4505 -0.9234 0.0000 0.0000 0.0000
# 2 12.4505 138.2326 32.6786 0.0000 0.0000 0.0000
# 3 -0.9234 32.6786 70.2416 0.0000 0.0000 0.0000
# 4 0.0000 0.0000 0.0000 60.7250 0.0000 0.0000
# 5 0.0000 0.0000 0.0000 0.0000 28.0316 0.0000
# 6 0.0000 0.0000 0.0000 0.0000 0.0000 19.7588
#
#
#
# Elastic Compliance Matrix: (Units=1/GPa)
#
#
# Indices 1 2 3 4 5 6 
#
# 1 0.039752 -0.004162 0.002459 0.000000 0.000000 0.000000
# 2 -0.004162 0.008564 -0.004039 0.000000 0.000000 0.000000
# 3 0.002459 -0.004039 0.016148 0.000000 0.000000 0.000000
# 4 0.000000 0.000000 0.000000 0.016468 0.000000 0.000000
# 5 0.000000 0.000000 0.000000 0.000000 0.035674 0.000000
# 6 0.000000 0.000000 0.000000 0.000000 0.000000 0.050610
#
#
# Mechanical properties :
#
#
# Convention : Reuss Voigt Hill
#
# Bulk Modulus (GPa) = 18.87494 35.93354 27.40424
# Shear Modulus (GPa) = 25.46347 34.42208 29.94277
#
# Velocity S-wave (km/s) = 3.43198 3.99029 3.72162
# Velocity P-wave (km/s) = 4.94323 6.15236 5.58064
#
# Compressibility (1/GPa) = 0.05298030
#
# Stress axis : x y z
#
# Youngs Moduli (GPa) = 25.15585 116.77030 61.92756
#
# Poissons Ratio (x) = 0.48596 -0.15226
# Poissons Ratio (y) = 0.10469 0.25012
# Poissons Ratio (z) = -0.06185 0.47162
#
# Static dielectric constant tensor:
#      x y z
#    x 1.767610 0.000000 0.000000 
#    y 0.000000 1.870860 0.000000 
#    z 0.000000 0.000000 1.754140 
# 
# From -- ./inp_files/22189.got.cif
#   From: 2010.05.17/outbox.cif.g08.bks.cpg/sg38_12_cif.got.tgz:22189.got - 2010.06.03 18:07:57.
