data_PCOD9357951
_publ_section_title
;
Structure prediction by ZEFSAII (Michael W. Deem and Ramdas Pophale) SiO2 
 PCOD9357951
Probable space group: A M M 2
;
_chemical_formula_sum "Si O2"
_cell_formula_units_Z 48
_cell_length_a 17.698181
_cell_length_b 13.815943
_cell_length_c 6.859836
_cell_angle_alpha 90.000000
_cell_angle_beta 90.000000
_cell_angle_gamma 90.000000
_cell_volume 1677.346930
_symmetry_space_group_name_H-M "A M M 2"
_symmetry_group_IT_number 38
_symmetry_cell_setting 'orthorhombic'
loop_
_space_group_symop_operation_xyz
x,y,z
-x,-y,z
-x,y,z
x,-y,z
x,1/2+y,1/2+z
-x,1/2-y,1/2+z
-x,1/2+y,1/2+z
x,1/2-y,1/2+z
loop_
_atom_site_type_symbol
_atom_site_label
_atom_site_fract_x
_atom_site_fract_y
_atom_site_fract_z
Si Si1 0.253813 0.634459 0.538500
Si Si2 0.607704 0.392528 0.107734
Si Si3 0.233826 0.864115 0.495659
Si Si4 0.416340 0.835823 0.156614
Si Si5 0.912940 0.625676 0.449479
Si Si6 0.079818 0.355427 0.904353
O O1 0.301555 0.599657 0.124704
O O2 0.177687 0.598116 0.428451
O O3 0.243924 0.610421 0.768257
O O4 0.346058 0.623956 0.527397
O O5 0.579030 0.500000 0.166084
O O6 0.587502 0.282682 0.178687
O O7 0.591051 0.379539 0.874337
O O8 0.243798 0.749249 0.511839
O O9 0.148003 0.891055 0.534059
O O10 0.500000 0.859226 0.079081
O O11 0.916882 0.612548 0.683126
O O12 0.913964 0.739381 0.396846
O O13 0.000000 0.595813 0.390430
O O14 0.000000 0.382970 0.986594
#
# Coordination Sequence:
#
# PCOD9357951 Si02
#       6
#     8   8   8   8   8   8
#     4   8  14  24  38  60  90 122 160 206 250 298
#     4  10  21  38  59  81 109 145 182 224 273 322
#     4   8  14  25  42  64  91 127 167 205 253 308
#     4  10  20  34  54  80 108 140 180 222 266 320
#     4   8  12  18  30  50  78 114 154 194 240 294
#     4   8  12  18  31  54  85 119 155 198 246 295
#
# _framework density 28.616619
#
# number of rings (size 3 to 8) (size 9 to 14) (size 15 to 20)
#    0.000    3.333    0.000    0.500    0.000    1.333 
#    0.000    0.833    0.000    2.500    0.000    0.000 
#    0.000    0.000    0.000    0.000    0.000 1556.333 
#
# Total GULP energy -133758.741473 kJ/mol
# GULP energy per Si atom -5573.280895 kJ/mol
# Density = 2.855149 g / cm^3
# Si number density = 28.616619 Si / 1000 Ang^3
#
#
#
# Elastic Constant Matrix: (Units=GPa)
#
#
# Indices 1 2 3 4 5 6 
#
# 1 357.3863 17.0727 9.4566 0.0000 0.0000 0.0000
# 2 17.0727 205.7285 4.6715 0.0000 0.0000 0.0000
# 3 9.4566 4.6715 102.2177 0.0000 0.0000 0.0000
# 4 0.0000 0.0000 0.0000 -24.0010 0.0000 0.0000
# 5 0.0000 0.0000 0.0000 0.0000 12.8074 0.0000
# 6 0.0000 0.0000 0.0000 0.0000 0.0000 -72.0502
#
#
#
# Elastic Compliance Matrix: (Units=1/GPa)
#
#
# Indices 1 2 3 4 5 6 
#
# 1 0.002816 -0.000228 -0.000250 0.000000 0.000000 0.000000
# 2 -0.000228 0.004884 -0.000202 0.000000 0.000000 0.000000
# 3 -0.000250 -0.000202 0.009815 0.000000 0.000000 0.000000
# 4 0.000000 0.000000 0.000000 -0.041665 0.000000 0.000000
# 5 0.000000 0.000000 0.000000 0.000000 0.078080 0.000000
# 6 0.000000 0.000000 0.000000 0.000000 0.000000 -0.013879
#
#
# Mechanical properties :
#
#
# Convention : Reuss Voigt Hill
#
# Bulk Modulus (GPa) = 61.90053 80.85936 71.37995
# Shear Modulus (GPa) = 106.84608 25.62670 66.23639
#
# Velocity S-wave (km/s) = 6.11704 2.99577 4.81626
# Velocity P-wave (km/s) = 8.45983 6.34694 7.47838
#
# Compressibility (1/GPa) = 0.01615495
#
# Stress axis : x y z
#
# Youngs Moduli (GPa) = 355.16404 204.73833 101.88059
#
# Poissons Ratio (x) = 0.04668 0.02548
# Poissons Ratio (y) = 0.08097 0.02059
# Poissons Ratio (z) = 0.08881 0.04138
#
# Static dielectric constant tensor:
#      x y z
#    x 2.315660 0.000000 0.000000 
#    y 0.000000 2.152970 0.000000 
#    z 0.000000 0.000000 2.188200 
# 
# From -- ./inp_files/6673.got.cif
#   From: 2010.05.17/outbox.cif.g08.bks.cpg/sg38_4_cif.got.tgz:6673.got - 2010.06.03 18:07:57.
