data_PCOD9357792
_publ_section_title
;
Structure prediction by ZEFSAII (Michael W. Deem and Ramdas Pophale) SiO2 
 PCOD9357792
Probable space group: A M M 2
;
_chemical_formula_sum "Si O2"
_cell_formula_units_Z 64
_cell_length_a 24.998878
_cell_length_b 7.369984
_cell_length_c 15.323224
_cell_angle_alpha 90.000000
_cell_angle_beta 90.000000
_cell_angle_gamma 90.000000
_cell_volume 2823.171183
_symmetry_space_group_name_H-M "A M M 2"
_symmetry_group_IT_number 38
_symmetry_cell_setting 'orthorhombic'
loop_
_space_group_symop_operation_xyz
x,y,z
-x,-y,z
-x,y,z
x,-y,z
x,1/2+y,1/2+z
-x,1/2-y,1/2+z
-x,1/2+y,1/2+z
x,1/2-y,1/2+z
loop_
_atom_site_type_symbol
_atom_site_label
_atom_site_fract_x
_atom_site_fract_y
_atom_site_fract_z
Si Si1 0.129840 0.719510 0.260260
Si Si2 0.244402 0.293697 0.305314
Si Si3 0.621390 0.218133 0.036012
Si Si4 0.559174 0.288358 0.205396
Si Si5 0.939530 0.778256 0.919291
Si Si6 0.737440 0.278825 0.603690
Si Si7 0.641307 0.777825 0.847291
Si Si8 0.147384 0.788347 0.057724
O O1 0.132622 0.500000 0.258764
O O2 0.185001 0.786043 0.305648
O O3 0.081548 0.773024 0.323082
O O4 0.129175 0.775525 0.159128
O O5 0.239372 0.500000 0.338968
O O6 0.258537 0.292440 0.202279
O O7 0.297291 0.212694 0.348281
O O8 0.612468 0.272900 0.936660
O O9 0.621641 0.000000 0.038502
O O10 0.578263 0.278663 0.105971
O O11 0.681052 0.277334 0.063769
O O12 0.500000 0.209848 0.217350
O O13 0.555787 0.500000 0.229408
O O14 0.606802 0.212920 0.265368
O O15 0.000000 0.717966 0.935661
O O16 0.940013 0.000000 0.921913
O O17 0.896915 0.714196 0.991753
O O18 0.738523 0.500000 0.607548
O O19 0.791615 0.217385 0.554944
O O20 0.645258 0.000000 0.843010
O O21 0.151974 0.000000 0.035389
#
# Coordination Sequence:
#
# PCOD9357792 Si02
#       8
#     8   8   8   8   8   8   8   8
#     4   9  18  31  50  75 100 129 167 211 252 293
#     4   9  16  29  51  74  99 130 166 203 246 300
#     4  10  20  33  53  80 104 129 165 209 254 296
#     4  10  21  38  56  73 100 137 171 204 245 297
#     4   9  18  32  50  73 101 135 173 209 250 304
#     4   9  17  29  48  75 105 130 160 206 256 298
#     4   9  18  32  52  77 101 129 164 202 245 296
#     4   9  18  32  50  72 101 135 168 205 251 304
#
# _framework density 22.669543999999998
#
# number of rings (size 3 to 8) (size 9 to 14) (size 15 to 20)
#    0.000    2.750    1.250    0.000    1.750    1.250 
#    0.000    3.125    0.000    0.750    0.000    0.000 
#    0.000    0.000    0.000    0.000    0.000    0.000 
#
# Total GULP energy -178641.690163 kJ/mol
# GULP energy per Si atom -5582.552818 kJ/mol
# Density = 2.261795 g / cm^3
# Si number density = 22.669544 Si / 1000 Ang^3
#
#
#
# Elastic Constant Matrix: (Units=GPa)
#
#
# Indices 1 2 3 4 5 6 
#
# 1 90.7579 1.1806 14.8038 0.0000 0.0000 0.0000
# 2 1.1806 82.3194 -11.5492 0.0000 0.0000 0.0000
# 3 14.8038 -11.5492 43.9557 0.0000 0.0000 0.0000
# 4 0.0000 0.0000 0.0000 14.2930 0.0000 0.0000
# 5 0.0000 0.0000 0.0000 0.0000 15.6656 0.0000
# 6 0.0000 0.0000 0.0000 0.0000 0.0000 -2.8506
#
#
#
# Elastic Compliance Matrix: (Units=1/GPa)
#
#
# Indices 1 2 3 4 5 6 
#
# 1 0.011703 -0.000748 -0.004138 0.000000 0.000000 0.000000
# 2 -0.000748 0.012661 0.003579 0.000000 0.000000 0.000000
# 3 -0.004138 0.003579 0.025084 0.000000 0.000000 0.000000
# 4 0.000000 0.000000 0.000000 0.069965 0.000000 0.000000
# 5 0.000000 0.000000 0.000000 0.000000 0.063834 0.000000
# 6 0.000000 0.000000 0.000000 0.000000 0.000000 -0.350799
#
#
# Mechanical properties :
#
#
# Convention : Reuss Voigt Hill
#
# Bulk Modulus (GPa) = 21.35297 25.10037 23.22667
# Shear Modulus (GPa) = -33.48367 19.59477 -6.94445
#
# Velocity S-wave (km/s) = -3.84739 2.94320 -1.75214
# Velocity P-wave (km/s) = 3.20887 4.75880 2.48489
#
# Compressibility (1/GPa) = 0.04683189
#
# Stress axis : x y z
#
# Youngs Moduli (GPa) = 85.44788 78.98524 39.86593
#
# Poissons Ratio (x) = 0.05911 0.16497
# Poissons Ratio (y) = 0.06395 -0.14266
# Poissons Ratio (z) = 0.35359 -0.28265
#
# Static dielectric constant tensor:
#      x y z
#    x 1.828490 0.000000 0.000000 
#    y 0.000000 2.067740 0.000000 
#    z 0.000000 0.000000 1.803490 
# 
# From -- ./inp_files/15781.got.cif
#   From: 2010.05.17/outbox.cif.g08.bks.cpg/sg38_8_cif.got.tgz:15781.got - 2010.06.03 18:07:57.
