data_PCOD9357013
_publ_section_title
;
Structure prediction by ZEFSAII (Michael W. Deem and Ramdas Pophale) SiO2 
 PCOD9357013
Probable space group: A M M 2
;
_chemical_formula_sum "Si O2"
_cell_formula_units_Z 64
_cell_length_a 17.159735
_cell_length_b 9.141219
_cell_length_c 21.008404
_cell_angle_alpha 90.000000
_cell_angle_beta 90.000000
_cell_angle_gamma 90.000000
_cell_volume 3295.397067
_symmetry_space_group_name_H-M "A M M 2"
_symmetry_group_IT_number 38
_symmetry_cell_setting 'orthorhombic'
loop_
_space_group_symop_operation_xyz
x,y,z
-x,-y,z
-x,y,z
x,-y,z
x,1/2+y,1/2+z
-x,1/2-y,1/2+z
-x,1/2+y,1/2+z
x,1/2-y,1/2+z
loop_
_atom_site_type_symbol
_atom_site_label
_atom_site_fract_x
_atom_site_fract_y
_atom_site_fract_z
Si Si1 0.318092 0.175069 0.729780
Si Si2 0.409633 0.831824 0.340138
Si Si3 0.160981 0.168111 0.579312
Si Si4 0.088907 0.829318 0.827055
Si Si5 0.365401 0.330857 0.465415
Si Si6 0.151498 0.325714 0.707377
Si Si7 0.822049 0.829077 0.952071
Si Si8 0.649326 0.332729 0.091029
O O1 0.361448 0.231407 0.791986
O O2 0.236637 0.259375 0.723487
O O3 0.365967 0.205858 0.664580
O O4 0.304634 0.000000 0.731881
O O5 0.500000 0.828925 0.321407
O O6 0.402223 0.768828 0.411111
O O7 0.381836 0.000000 0.337895
O O8 0.129331 0.260390 0.638586
O O9 0.144224 0.237927 0.510880
O O10 0.255859 0.170514 0.585716
O O11 0.136160 0.000000 0.583454
O O12 0.098471 0.733952 0.764145
O O13 0.145900 0.780625 0.883701
O O14 0.000000 0.822815 0.850089
O O15 0.106988 0.000000 0.811828
O O16 0.388187 0.500000 0.458463
O O17 0.271686 0.320371 0.455067
O O18 0.382173 0.271966 0.536211
O O19 0.153819 0.500000 0.705010
O O20 0.843270 0.000000 0.959589
O O21 0.624558 0.500000 0.079144
#
# Coordination Sequence:
#
# PCOD9357013 Si02
#       8
#     8   8   8   8   8   8   8   8
#     4  10  20  36  59  84 109 139 178 222 268 322
#     4  11  24  39  54  76 109 146 183 224 268 315
#     4   9  17  31  53  80 108 138 175 219 266 318
#     4  10  21  37  55  76 108 148 186 226 271 319
#     4  10  19  32  55  82 107 138 177 221 266 318
#     4  11  21  34  56  83 111 142 178 223 270 319
#     4   9  18  33  54  81 108 136 175 222 271 320
#     4   8  16  31  52  79 108 135 168 216 268 315
#
# _framework density 19.421028
#
# number of rings (size 3 to 8) (size 9 to 14) (size 15 to 20)
#    0.000    2.250    0.000    4.125    0.000    6.750 
#    0.000    1.250    0.000    3.000    0.000    0.000 
#    0.000    0.000    0.000    0.000    0.000    0.000 
#
# Total GULP energy -178644.000915 kJ/mol
# GULP energy per Si atom -5582.625029 kJ/mol
# Density = 1.937683 g / cm^3
# Si number density = 19.421028 Si / 1000 Ang^3
#
#
#
# Elastic Constant Matrix: (Units=GPa)
#
#
# Indices 1 2 3 4 5 6 
#
# 1 12.8953 11.9247 7.6844 0.0000 0.0000 0.0000
# 2 11.9247 100.5044 45.0469 0.0000 0.0000 0.0000
# 3 7.6844 45.0469 87.8190 0.0000 0.0000 0.0000
# 4 0.0000 0.0000 0.0000 40.7119 0.0000 0.0000
# 5 0.0000 0.0000 0.0000 0.0000 -3.2678 0.0000
# 6 0.0000 0.0000 0.0000 0.0000 0.0000 14.0712
#
#
#
# Elastic Compliance Matrix: (Units=1/GPa)
#
#
# Indices 1 2 3 4 5 6 
#
# 1 0.087723 -0.009048 -0.003035 0.000000 0.000000 0.000000
# 2 -0.009048 0.013854 -0.006314 0.000000 0.000000 0.000000
# 3 -0.003035 -0.006314 0.014892 0.000000 0.000000 0.000000
# 4 0.000000 0.000000 0.000000 0.024563 0.000000 0.000000
# 5 0.000000 0.000000 0.000000 0.000000 -0.306018 0.000000
# 6 0.000000 0.000000 0.000000 0.000000 0.000000 0.071067
#
#
# Mechanical properties :
#
#
# Convention : Reuss Voigt Hill
#
# Bulk Modulus (GPa) = 12.55122 36.72563 24.63843
# Shear Modulus (GPa) = -163.56896 19.40725 -72.08086
#
# Velocity S-wave (km/s) = -9.18724 3.16459 -6.09881
# Velocity P-wave (km/s) = 10.29873 5.68367 6.07288
#
# Compressibility (1/GPa) = 0.07967352
#
# Stress axis : x y z
#
# Youngs Moduli (GPa) = 11.39955 72.18381 67.15183
#
# Poissons Ratio (x) = 0.65311 0.20380
# Poissons Ratio (y) = 0.10314 0.42403
# Poissons Ratio (z) = 0.03460 0.45580
#
# Static dielectric constant tensor:
#      x y z
#    x 1.686530 0.000000 0.000000 
#    y 0.000000 1.652640 0.000000 
#    z 0.000000 0.000000 1.671600 
# 
# From -- ./inp_files/21367.got.cif
#   From: 2010.05.17/outbox.cif.g08.bks.cpg/sg38_11_cif.got.tgz:21367.got - 2010.06.03 18:07:57.
