data_PCOD9357104
_publ_section_title
;
Structure prediction by ZEFSAII (Michael W. Deem and Ramdas Pophale) SiO2 
 PCOD9357104
Probable space group: A M M 2
;
_chemical_formula_sum "Si O2"
_cell_formula_units_Z 64
_cell_length_a 18.953605
_cell_length_b 8.246229
_cell_length_c 21.663482
_cell_angle_alpha 90.000000
_cell_angle_beta 90.000000
_cell_angle_gamma 90.000000
_cell_volume 3385.910540
_symmetry_space_group_name_H-M "A M M 2"
_symmetry_group_IT_number 38
_symmetry_cell_setting 'orthorhombic'
loop_
_space_group_symop_operation_xyz
x,y,z
-x,-y,z
-x,y,z
x,-y,z
x,1/2+y,1/2+z
-x,1/2-y,1/2+z
-x,1/2+y,1/2+z
x,1/2-y,1/2+z
loop_
_atom_site_type_symbol
_atom_site_label
_atom_site_fract_x
_atom_site_fract_y
_atom_site_fract_z
Si Si1 0.335403 0.698243 0.059670
Si Si2 0.919741 0.807116 0.942806
Si Si3 0.160199 0.804603 0.322439
Si Si4 0.323299 0.806605 0.326034
Si Si5 0.580913 0.198797 0.438715
Si Si6 0.176114 0.807857 0.187125
Si Si7 0.172049 0.192871 0.557565
Si Si8 0.665207 0.188835 0.693751
O O1 0.335413 0.500000 0.060804
O O2 0.253742 0.748551 0.050194
O O3 0.361234 0.752541 0.127508
O O4 0.383289 0.750183 0.002820
O O5 0.886869 0.767304 0.876265
O O6 0.000000 0.745715 0.946528
O O7 0.920389 0.000000 0.950704
O O8 0.872148 0.735140 0.997287
O O9 0.241977 0.748697 0.329472
O O10 0.138265 0.766609 0.251680
O O11 0.158911 0.000000 0.329058
O O12 0.371808 0.744320 0.381247
O O13 0.353934 0.770223 0.258284
O O14 0.319297 0.000000 0.332427
O O15 0.500000 0.250386 0.433855
O O16 0.581486 0.000000 0.438135
O O17 0.142389 0.768854 0.121139
O O18 0.250095 0.711997 0.188044
O O19 0.192449 0.000000 0.189974
O O20 0.173162 0.000000 0.565449
O O21 0.647893 0.000000 0.698473
#
# Coordination Sequence:
#
# PCOD9357104 Si02
#       8
#     8   8   8   8   8   8   8   8
#     4   8  15  28  46  70  96 121 158 204 241 280
#     4  11  24  38  51  72 103 134 166 208 252 296
#     4   9  18  33  54  76  99 130 165 204 250 299
#     4   9  17  30  49  74 100 125 160 207 252 295
#     4   9  16  27  45  68  95 129 167 204 243 291
#     4   9  17  31  52  79 107 130 159 206 256 298
#     4  10  19  33  55  78 101 132 169 209 251 300
#     4   9  16  27  46  72  99 128 162 202 249 298
#
# _framework density 18.901857
#
# number of rings (size 3 to 8) (size 9 to 14) (size 15 to 20)
#    0.000    2.750    0.000    3.750    0.000    5.500 
#    0.000    1.250    0.000    3.375    0.000    0.000 
#    0.000    0.000    0.000    0.000    0.000    0.000 
#
# Total GULP energy -178329.256620 kJ/mol
# GULP energy per Si atom -5572.789269 kJ/mol
# Density = 1.885884 g / cm^3
# Si number density = 18.901857 Si / 1000 Ang^3
#
#
#
# Elastic Constant Matrix: (Units=GPa)
#
#
# Indices 1 2 3 4 5 6 
#
# 1 39.9930 -0.1196 15.0746 0.0000 0.0000 0.0000
# 2 -0.1196 10.5820 -8.7530 0.0000 0.0000 0.0000
# 3 15.0746 -8.7530 91.2471 0.0000 0.0000 0.0000
# 4 0.0000 0.0000 0.0000 31.7436 0.0000 0.0000
# 5 0.0000 0.0000 0.0000 0.0000 -4.3162 0.0000
# 6 0.0000 0.0000 0.0000 0.0000 0.0000 8.9701
#
#
#
# Elastic Compliance Matrix: (Units=1/GPa)
#
#
# Indices 1 2 3 4 5 6 
#
# 1 0.026794 -0.003648 -0.004776 0.000000 0.000000 0.000000
# 2 -0.003648 0.103141 0.010497 0.000000 0.000000 0.000000
# 3 -0.004776 0.010497 0.012755 0.000000 0.000000 0.000000
# 4 0.000000 0.000000 0.000000 0.031502 0.000000 0.000000
# 5 0.000000 0.000000 0.000000 0.000000 -0.231687 0.000000
# 6 0.000000 0.000000 0.000000 0.000000 0.000000 0.111481
#
#
# Mechanical properties :
#
#
# Convention : Reuss Voigt Hill
#
# Bulk Modulus (GPa) = 6.81039 17.13622 11.97331
# Shear Modulus (GPa) = 50.61338 16.32084 33.46711
#
# Velocity S-wave (km/s) = 5.18026 2.94164 4.21238
# Velocity P-wave (km/s) = 6.27622 4.54128 5.47787
#
# Compressibility (1/GPa) = 0.14683448
#
# Stress axis : x y z
#
# Youngs Moduli (GPa) = 37.32195 9.69544 78.39897
#
# Poissons Ratio (x) = 0.03537 0.37447
# Poissons Ratio (y) = 0.13616 -0.82293
# Poissons Ratio (z) = 0.17827 -0.10177
#
# Static dielectric constant tensor:
#      x y z
#    x 1.633330 0.000000 0.000000 
#    y 0.000000 1.664970 0.000000 
#    z 0.000000 0.000000 1.683450 
# 
# From -- ./inp_files/21360.got.cif
#   From: 2010.05.17/outbox.cif.g08.bks.cpg/sg38_11_cif.got.tgz:21360.got - 2010.06.03 18:07:57.
