data_PCOD9357200
_publ_section_title
;
Structure prediction by ZEFSAII (Michael W. Deem and Ramdas Pophale) SiO2 
 PCOD9357200
Probable space group: A M M 2
;
_chemical_formula_sum "Si O2"
_cell_formula_units_Z 58
_cell_length_a 15.475632
_cell_length_b 7.991239
_cell_length_c 25.753715
_cell_angle_alpha 90.000000
_cell_angle_beta 90.000000
_cell_angle_gamma 90.000000
_cell_volume 3184.948387
_symmetry_space_group_name_H-M "A M M 2"
_symmetry_group_IT_number 38
_symmetry_cell_setting 'orthorhombic'
loop_
_space_group_symop_operation_xyz
x,y,z
-x,-y,z
-x,y,z
x,-y,z
x,1/2+y,1/2+z
-x,1/2-y,1/2+z
-x,1/2+y,1/2+z
x,1/2-y,1/2+z
loop_
_atom_site_type_symbol
_atom_site_label
_atom_site_fract_x
_atom_site_fract_y
_atom_site_fract_z
Si Si1 0.403510 0.305828 0.995330
Si Si2 0.231035 0.307191 0.538349
Si Si3 0.500000 0.000000 0.355773
Si Si4 0.900526 0.202107 0.242372
Si Si5 0.904412 0.701688 0.951955
Si Si6 0.901296 0.802304 0.625721
Si Si7 0.186856 0.297118 0.847976
Si Si8 0.625039 0.688646 0.380492
O O1 0.500000 0.264746 0.015611
O O2 0.406109 0.500000 0.978493
O O3 0.386491 0.203160 0.942860
O O4 0.322490 0.286432 0.033440
O O5 0.253877 0.500000 0.537991
O O6 0.171206 0.266375 0.488771
O O7 0.170441 0.269711 0.587477
O O8 0.426343 0.151835 0.357991
O O9 0.877727 0.270021 0.185648
O O10 0.842943 0.256164 0.290839
O O11 0.000000 0.250259 0.252509
O O12 0.897089 0.000000 0.239778
O O13 0.903935 0.500000 0.956821
O O14 0.883508 0.742580 0.892313
O O15 0.000000 0.761844 0.967251
O O16 0.000000 0.736104 0.617581
O O17 0.904494 0.000000 0.615969
O O18 0.196176 0.500000 0.848029
O O19 0.275698 0.215209 0.865430
O O20 0.598668 0.500000 0.364707
#
# Coordination Sequence:
#
# PCOD9357200 Si02
#       8
#     8   8   2   8   8   8   8   8
#     4  11  21  38  58  82 113 150 189 236 291 348
#     4  12  24  35  53  82 114 148 190 239 291 348
#     4  12  22  40  56  82 114 156 194 248 300 346
#     4   9  18  34  58  85 114 151 195 241 286 337
#     4  10  20  33  51  75 111 157 192 221 272 346
#     4  10  21  38  58  80 109 150 197 244 294 345
#     4  10  19  34  54  82 119 155 190 233 290 349
#     4  12  22  35  57  84 116 153 195 241 293 354
#
# _framework density 18.210657000000001
#
# number of rings (size 3 to 8) (size 9 to 14) (size 15 to 20)
#    0.000    1.379    3.448    3.103    0.000    5.793 
#    0.000    0.000    0.000    2.483    1.793    0.000 
#    0.000    0.000    0.000    0.000    0.000    0.000 
#
# Total GULP energy -161603.863607 kJ/mol
# GULP energy per Si atom -5572.547021 kJ/mol
# Density = 1.816921 g / cm^3
# Si number density = 18.210657 Si / 1000 Ang^3
#
#
#
# Elastic Constant Matrix: (Units=GPa)
#
#
# Indices 1 2 3 4 5 6 
#
# 1 126.1642 24.0686 46.6098 0.0000 0.0000 0.0000
# 2 24.0686 77.9133 9.5418 0.0000 0.0000 0.0000
# 3 46.6098 9.5418 65.8238 0.0000 0.0000 0.0000
# 4 0.0000 0.0000 0.0000 19.8891 0.0000 0.0000
# 5 0.0000 0.0000 0.0000 0.0000 42.6850 0.0000
# 6 0.0000 0.0000 0.0000 0.0000 0.0000 -3.0439
#
#
#
# Elastic Compliance Matrix: (Units=1/GPa)
#
#
# Indices 1 2 3 4 5 6 
#
# 1 0.011205 -0.002535 -0.007567 0.000000 0.000000 0.000000
# 2 -0.002535 0.013640 -0.000182 0.000000 0.000000 0.000000
# 3 -0.007567 -0.000182 0.020577 0.000000 0.000000 0.000000
# 4 0.000000 0.000000 0.000000 0.050279 0.000000 0.000000
# 5 0.000000 0.000000 0.000000 0.000000 0.023427 0.000000
# 6 0.000000 0.000000 0.000000 0.000000 0.000000 -0.328529
#
#
# Mechanical properties :
#
#
# Convention : Reuss Voigt Hill
#
# Bulk Modulus (GPa) = 40.23536 47.81576 44.02556
# Shear Modulus (GPa) = -27.69351 24.55144 -1.57103
#
# Velocity S-wave (km/s) = -3.90389 3.67576 -0.92982
# Velocity P-wave (km/s) = 1.34979 6.65800 4.80369
#
# Compressibility (1/GPa) = 0.02485376
#
# Stress axis : x y z
#
# Youngs Moduli (GPa) = 89.24351 73.31298 48.59855
#
# Poissons Ratio (x) = 0.18583 0.36775
# Poissons Ratio (y) = 0.22621 0.00886
# Poissons Ratio (z) = 0.67531 0.01337
#
# Static dielectric constant tensor:
#      x y z
#    x 1.639810 0.000000 0.000000 
#    y 0.000000 1.653960 0.000000 
#    z 0.000000 0.000000 1.604850 
# 
# From -- ./inp_files/22790.got.cif
#   From: 2010.05.17/outbox.cif.g08.bks.cpg/sg38_12_cif.got.tgz:22790.got - 2010.06.03 18:07:57.
