data_PCOD9357152
_publ_section_title
;
Structure prediction by ZEFSAII (Michael W. Deem and Ramdas Pophale) SiO2 
 PCOD9357152
Probable space group: A M M 2
;
_chemical_formula_sum "Si O2"
_cell_formula_units_Z 64
_cell_length_a 14.603895
_cell_length_b 13.860682
_cell_length_c 13.791816
_cell_angle_alpha 90.000000
_cell_angle_beta 90.000000
_cell_angle_gamma 90.000000
_cell_volume 2791.738630
_symmetry_space_group_name_H-M "A M M 2"
_symmetry_group_IT_number 38
_symmetry_cell_setting 'orthorhombic'
loop_
_space_group_symop_operation_xyz
x,y,z
-x,-y,z
-x,y,z
x,-y,z
x,1/2+y,1/2+z
-x,1/2-y,1/2+z
-x,1/2+y,1/2+z
x,1/2-y,1/2+z
loop_
_atom_site_type_symbol
_atom_site_label
_atom_site_fract_x
_atom_site_fract_y
_atom_site_fract_z
Si Si1 0.789948 0.884129 0.846770
Si Si2 0.599477 0.841686 0.422922
Si Si3 0.894410 0.882059 0.655127
Si Si4 0.797004 0.387018 0.565830
Si Si5 0.399249 0.190288 0.083672
Si Si6 0.893475 0.117878 0.261161
Si Si7 0.397294 0.198463 0.768724
Si Si8 0.801960 0.890038 0.458869
O O1 0.855475 0.850718 0.759423
O O2 0.687215 0.858903 0.812188
O O3 0.796836 0.000000 0.851834
O O4 0.809821 0.847407 0.956131
O O5 0.500000 0.887287 0.440794
O O6 0.598809 0.739162 0.478449
O O7 0.606074 0.807444 0.312064
O O8 0.692252 0.891269 0.453999
O O9 0.836658 0.848906 0.561180
O O10 0.000000 0.854948 0.642693
O O11 0.889691 0.000000 0.657468
O O12 0.820402 0.500000 0.559870
O O13 0.689417 0.375222 0.589796
O O14 0.852781 0.348001 0.658174
O O15 0.500000 0.147162 0.102367
O O16 0.387683 0.282252 0.154809
O O17 0.839057 0.151339 0.357146
O O18 0.000000 0.142281 0.270154
O O19 0.886180 0.000000 0.259043
O O20 0.500000 0.159680 0.787452
O O21 0.836716 0.000000 0.459368
#
# Coordination Sequence:
#
# PCOD9357152 Si02
#       8
#     8   8   8   8   8   8   8   8
#     4  10  20  34  55  84 113 144 184 230 277 323
#     4  10  20  34  52  76 106 141 179 217 268 331
#     4   9  18  33  54  80 108 140 182 230 279 329
#     4  10  20  34  55  84 113 144 184 230 277 323
#     4  10  20  35  54  77 107 146 185 219 268 332
#     4   9  18  33  54  80 108 140 182 230 279 329
#     4  10  20  35  54  77 107 146 185 219 268 332
#     4  10  19  33  56  82 108 142 186 234 276 319
#
# _framework density 22.924783000000001
#
# number of rings (size 3 to 8) (size 9 to 14) (size 15 to 20)
#    0.000    2.250    1.250    1.875    0.000    2.750 
#    0.000    3.750    0.000   17.250    0.000    0.000 
#    0.000    0.000    0.000    0.000    0.000    0.000 
#
# Total GULP energy -178634.627573 kJ/mol
# GULP energy per Si atom -5582.332112 kJ/mol
# Density = 2.287261 g / cm^3
# Si number density = 22.924783 Si / 1000 Ang^3
#
#
#
# Elastic Constant Matrix: (Units=GPa)
#
#
# Indices 1 2 3 4 5 6 
#
# 1 148.2553 9.6586 99.4394 0.0000 0.0000 0.0000
# 2 9.6586 41.1811 19.7254 0.0000 0.0000 0.0000
# 3 99.4394 19.7254 173.1566 0.0000 0.0000 0.0000
# 4 0.0000 0.0000 0.0000 30.3396 0.0000 0.0000
# 5 0.0000 0.0000 0.0000 0.0000 36.4128 0.0000
# 6 0.0000 0.0000 0.0000 0.0000 0.0000 36.2543
#
#
#
# Elastic Compliance Matrix: (Units=1/GPa)
#
#
# Indices 1 2 3 4 5 6 
#
# 1 0.010980 0.000471 -0.006359 0.000000 0.000000 0.000000
# 2 0.000471 0.025705 -0.003199 0.000000 0.000000 0.000000
# 3 -0.006359 -0.003199 0.009791 0.000000 0.000000 0.000000
# 4 0.000000 0.000000 0.000000 0.032960 0.000000 0.000000
# 5 0.000000 0.000000 0.000000 0.000000 0.027463 0.000000
# 6 0.000000 0.000000 0.000000 0.000000 0.000000 0.027583
#
#
# Mechanical properties :
#
#
# Convention : Reuss Voigt Hill
#
# Bulk Modulus (GPa) = 35.33315 68.91556 52.12435
# Shear Modulus (GPa) = 30.84728 36.18599 33.51664
#
# Velocity S-wave (km/s) = 3.67220 3.97730 3.82779
# Velocity P-wave (km/s) = 5.78154 7.15673 6.50557
#
# Compressibility (1/GPa) = 0.02830204
#
# Stress axis : x y z
#
# Youngs Moduli (GPa) = 91.07827 38.90350 102.13214
#
# Poissons Ratio (x) = -0.01831 0.64945
# Poissons Ratio (y) = -0.04287 0.32667
# Poissons Ratio (z) = 0.57916 0.12443
#
# Static dielectric constant tensor:
#      x y z
#    x 1.809870 0.000000 0.000000 
#    y 0.000000 1.886450 0.000000 
#    z 0.000000 0.000000 1.839910 
# 
# From -- ./inp_files/10273.got.cif
#   From: 2010.05.17/outbox.cif.g08.bks.cpg/sg38_6_cif.got.tgz:10273.got - 2010.06.03 18:07:57.
