data_PCOD9357208
_publ_section_title
;
Structure prediction by ZEFSAII (Michael W. Deem and Ramdas Pophale) SiO2 
 PCOD9357208
Probable space group: A M M 2
;
_chemical_formula_sum "Si O2"
_cell_formula_units_Z 56
_cell_length_a 14.735201
_cell_length_b 7.913857
_cell_length_c 22.611096
_cell_angle_alpha 90.000000
_cell_angle_beta 90.000000
_cell_angle_gamma 90.000000
_cell_volume 2636.731313
_symmetry_space_group_name_H-M "A M M 2"
_symmetry_group_IT_number 38
_symmetry_cell_setting 'orthorhombic'
loop_
_space_group_symop_operation_xyz
x,y,z
-x,-y,z
-x,y,z
x,-y,z
x,1/2+y,1/2+z
-x,1/2-y,1/2+z
-x,1/2+y,1/2+z
x,1/2-y,1/2+z
loop_
_atom_site_type_symbol
_atom_site_label
_atom_site_fract_x
_atom_site_fract_y
_atom_site_fract_z
Si Si1 0.180644 0.803187 0.971620
Si Si2 0.401782 0.195347 0.885714
Si Si3 0.000000 0.793771 0.030638
Si Si4 0.368103 0.693523 0.015667
Si Si5 0.217551 0.190628 0.344417
Si Si6 0.203414 0.793075 0.210099
Si Si7 0.000000 0.205398 0.166342
Si Si8 0.397109 0.700633 0.650191
O O1 0.179595 0.788700 0.900857
O O2 0.194240 0.000000 0.987392
O O3 0.261278 0.703344 0.002463
O O4 0.088269 0.736271 0.997272
O O5 0.500000 0.238643 0.861729
O O6 0.324422 0.309261 0.858684
O O7 0.380661 0.000000 0.872612
O O8 0.403796 0.214513 0.956801
O O9 0.000000 0.745494 0.098129
O O10 0.000000 0.000000 0.028516
O O11 0.398017 0.500000 0.014894
O O12 0.390081 0.769932 0.079359
O O13 0.206177 0.258852 0.278847
O O14 0.181186 0.000000 0.345885
O O15 0.299583 0.737305 0.178569
O O16 0.101379 0.740889 0.188844
O O17 0.204990 0.000000 0.206310
O O18 0.000000 0.000000 0.172625
O O19 0.500000 0.765000 0.668093
O O20 0.398427 0.500000 0.661697
#
# Coordination Sequence:
#
# PCOD9357208 Si02
#       8
#     8   8   4   8   8   8   4   8
#     4  10  19  34  55  79 107 140 179 221 269 324
#     4  10  20  34  53  76 102 138 181 221 267 323
#     4   9  18  31  55  85 105 131 176 225 268 317
#     4  11  21  33  51  78 110 141 175 219 274 329
#     4  10  20  34  52  78 108 138 175 219 270 320
#     4   9  19  34  54  79 106 141 184 224 265 317
#     4   9  16  31  54  79 107 137 176 225 268 313
#     4  10  20  35  55  78 106 142 183 226 271 322
#
# _framework density 21.238419
#
# number of rings (size 3 to 8) (size 9 to 14) (size 15 to 20)
#    0.000    2.143    0.000    5.571    0.000    6.571 
#    0.000    5.000    0.000    0.000    0.000    2.000 
#    0.000    0.000    0.000    0.000    0.000    0.000 
#
# Total GULP energy -156010.930336 kJ/mol
# GULP energy per Si atom -5571.818941 kJ/mol
# Density = 2.119008 g / cm^3
# Si number density = 21.238419 Si / 1000 Ang^3
#
#
#
# Elastic Constant Matrix: (Units=GPa)
#
#
# Indices 1 2 3 4 5 6 
#
# 1 194.8942 10.2475 81.0607 0.0000 0.0000 0.0000
# 2 10.2475 29.1994 -4.2093 0.0000 0.0000 0.0000
# 3 81.0607 -4.2093 94.6599 0.0000 0.0000 0.0000
# 4 0.0000 0.0000 0.0000 16.3287 0.0000 0.0000
# 5 0.0000 0.0000 0.0000 0.0000 206.9649 0.0000
# 6 0.0000 0.0000 0.0000 0.0000 0.0000 9.4631
#
#
#
# Elastic Compliance Matrix: (Units=1/GPa)
#
#
# Indices 1 2 3 4 5 6 
#
# 1 0.008413 -0.004017 -0.007383 0.000000 0.000000 0.000000
# 2 -0.004017 0.036386 0.005058 0.000000 0.000000 0.000000
# 3 -0.007383 0.005058 0.017111 0.000000 0.000000 0.000000
# 4 0.000000 0.000000 0.000000 0.061242 0.000000 0.000000
# 5 0.000000 0.000000 0.000000 0.000000 0.004832 0.000000
# 6 0.000000 0.000000 0.000000 0.000000 0.000000 0.105673
#
#
# Mechanical properties :
#
#
# Convention : Reuss Voigt Hill
#
# Bulk Modulus (GPa) = 20.31430 54.77236 37.54333
# Shear Modulus (GPa) = 19.02949 61.99497 40.51223
#
# Velocity S-wave (km/s) = 2.99656 5.40864 4.37223
# Velocity P-wave (km/s) = 4.64308 8.05294 6.57297
#
# Compressibility (1/GPa) = 0.04922640
#
# Stress axis : x y z
#
# Youngs Moduli (GPa) = 118.86512 27.48303 58.44095
#
# Poissons Ratio (x) = 0.11039 0.43146
# Poissons Ratio (y) = 0.47746 -0.29558
# Poissons Ratio (z) = 0.87757 -0.13900
#
# Static dielectric constant tensor:
#      x y z
#    x 1.781930 0.000000 0.000000 
#    y 0.000000 1.750700 0.000000 
#    z 0.000000 0.000000 1.733120 
# 
# From -- ./inp_files/21154.got.cif
#   From: 2010.05.17/outbox.cif.g08.bks.cpg/sg38_11_cif.got.tgz:21154.got - 2010.06.03 18:07:57.
