data_PCOD9357671
_publ_section_title
;
Structure prediction by ZEFSAII (Michael W. Deem and Ramdas Pophale) SiO2 
 PCOD9357671
Probable space group: A M M 2
;
_chemical_formula_sum "Si O2"
_cell_formula_units_Z 64
_cell_length_a 7.774670
_cell_length_b 20.737051
_cell_length_c 20.716077
_cell_angle_alpha 90.000000
_cell_angle_beta 90.000000
_cell_angle_gamma 90.000000
_cell_volume 3339.923170
_symmetry_space_group_name_H-M "A M M 2"
_symmetry_group_IT_number 38
_symmetry_cell_setting 'orthorhombic'
loop_
_space_group_symop_operation_xyz
x,y,z
-x,-y,z
-x,y,z
x,-y,z
x,1/2+y,1/2+z
-x,1/2-y,1/2+z
-x,1/2+y,1/2+z
x,1/2-y,1/2+z
loop_
_atom_site_type_symbol
_atom_site_label
_atom_site_fract_x
_atom_site_fract_y
_atom_site_fract_z
Si Si1 0.792661 0.572888 0.542460
Si Si2 0.706687 0.824533 0.290067
Si Si3 0.296014 0.682548 0.644316
Si Si4 0.792282 0.321819 0.292095
Si Si5 0.789905 0.926385 0.895416
Si Si6 0.203754 0.173095 0.645851
Si Si7 0.792487 0.426431 0.039887
Si Si8 0.706987 0.926693 0.394001
O O1 0.733453 0.500000 0.558718
O O2 0.740631 0.626406 0.593739
O O3 0.735465 0.587758 0.469085
O O4 0.000000 0.571464 0.541309
O O5 0.500000 0.831180 0.288388
O O6 0.771508 0.832981 0.216528
O O7 0.747156 0.751397 0.310227
O O8 0.773631 0.877002 0.340630
O O9 0.500000 0.690020 0.649510
O O10 0.226302 0.752720 0.624925
O O11 0.729608 0.374304 0.343464
O O12 0.726716 0.333080 0.218922
O O13 0.000000 0.325990 0.290386
O O14 0.000000 0.925214 0.895048
O O15 0.739032 0.000000 0.879887
O O16 0.274308 0.122809 0.593795
O O17 0.000000 0.160789 0.650297
O O18 0.730211 0.500000 0.049331
O O19 0.000000 0.427769 0.043891
O O20 0.747865 0.406308 0.967071
O O21 0.500000 0.928849 0.388473
O O22 0.771907 0.000000 0.385135
#
# Coordination Sequence:
#
# PCOD9357671 Si02
#       8
#     8   8   8   8   8   8   8   8
#     4   9  18  33  51  71  98 129 157 190 236 285
#     4   9  19  34  49  67  94 125 155 193 239 280
#     4  10  20  33  50  71  95 125 161 199 235 276
#     4   9  17  30  50  73  94 121 158 194 227 271
#     4   8  15  29  49  72  96 122 154 191 230 274
#     4   9  18  32  49  70  98 128 156 192 237 281
#     4   9  18  32  49  71  98 125 155 194 238 280
#     4   9  18  33  51  69  91 122 158 193 232 281
#
# _framework density 19.162116999999999
#
# number of rings (size 3 to 8) (size 9 to 14) (size 15 to 20)
#    0.000    3.000    0.000    1.125    0.000    3.750 
#    0.000    8.125    0.000    2.625    0.000    3.500 
#    0.000    0.000    0.000    0.000    0.000    0.000 
#
# Total GULP energy -178416.680238 kJ/mol
# GULP energy per Si atom -5575.521257 kJ/mol
# Density = 1.911850 g / cm^3
# Si number density = 19.162117 Si / 1000 Ang^3
#
#
#
# Elastic Constant Matrix: (Units=GPa)
#
#
# Indices 1 2 3 4 5 6 
#
# 1 23.8481 -3.7853 0.7555 0.0000 0.0000 0.0000
# 2 -3.7853 137.0165 122.6196 0.0000 0.0000 0.0000
# 3 0.7555 122.6196 135.3241 0.0000 0.0000 0.0000
# 4 0.0000 0.0000 0.0000 46.0511 0.0000 0.0000
# 5 0.0000 0.0000 0.0000 0.0000 13.3460 0.0000
# 6 0.0000 0.0000 0.0000 0.0000 0.0000 1.3844
#
#
#
# Elastic Compliance Matrix: (Units=1/GPa)
#
#
# Indices 1 2 3 4 5 6 
#
# 1 0.043341 0.007477 -0.007017 0.000000 0.000000 0.000000
# 2 0.007477 0.039887 -0.036184 0.000000 0.000000 0.000000
# 3 -0.007017 -0.036184 0.040216 0.000000 0.000000 0.000000
# 4 0.000000 0.000000 0.000000 0.021715 0.000000 0.000000
# 5 0.000000 0.000000 0.000000 0.000000 0.074929 0.000000
# 6 0.000000 0.000000 0.000000 0.000000 0.000000 0.722343
#
#
# Mechanical properties :
#
#
# Convention : Reuss Voigt Hill
#
# Bulk Modulus (GPa) = 19.23225 59.48536 39.35881
# Shear Modulus (GPa) = 4.84866 23.92955 14.38911
#
# Velocity S-wave (km/s) = 1.59243 3.53766 2.74325
# Velocity P-wave (km/s) = 3.66599 6.91356 5.53339
#
# Compressibility (1/GPa) = 0.05199599
#
# Stress axis : x y z
#
# Youngs Moduli (GPa) = 23.07274 25.07070 24.86570
#
# Poissons Ratio (x) = -0.18746 0.17449
# Poissons Ratio (y) = -0.17252 0.89975
# Poissons Ratio (z) = 0.16191 0.90716
#
# Static dielectric constant tensor:
#      x y z
#    x 1.706840 0.000000 0.000000 
#    y 0.000000 1.645830 0.000000 
#    z 0.000000 0.000000 1.664660 
# 
# From -- ./inp_files/17166.got.cif
#   From: 2010.05.17/outbox.cif.g08.bks.cpg/sg38_9_cif.got.tgz:17166.got - 2010.06.03 18:07:57.
