data_PCOD9357423
_publ_section_title
;
Structure prediction by ZEFSAII (Michael W. Deem and Ramdas Pophale) SiO2 
 PCOD9357423
Probable space group: A M M 2
;
_chemical_formula_sum "Si O2"
_cell_formula_units_Z 48
_cell_length_a 7.718678
_cell_length_b 31.722148
_cell_length_c 9.337618
_cell_angle_alpha 90.000000
_cell_angle_beta 90.000000
_cell_angle_gamma 90.000000
_cell_volume 2286.344209
_symmetry_space_group_name_H-M "A M M 2"
_symmetry_group_IT_number 38
_symmetry_cell_setting 'orthorhombic'
loop_
_space_group_symop_operation_xyz
x,y,z
-x,-y,z
-x,y,z
x,-y,z
x,1/2+y,1/2+z
-x,1/2-y,1/2+z
-x,1/2+y,1/2+z
x,1/2-y,1/2+z
loop_
_atom_site_type_symbol
_atom_site_label
_atom_site_fract_x
_atom_site_fract_y
_atom_site_fract_z
Si Si1 0.790560 0.047624 0.496980
Si Si2 0.286895 0.706119 0.011373
Si Si3 0.701993 0.286676 0.334933
Si Si4 0.799512 0.370727 0.491893
Si Si5 0.211370 0.547293 0.328228
Si Si6 0.702145 0.871481 0.317623
O O1 0.739453 0.055103 0.662615
O O2 0.722190 0.083605 0.393915
O O3 0.000000 0.048900 0.492014
O O4 0.736731 0.000000 0.458251
O O5 0.500000 0.705316 0.014812
O O6 0.225182 0.707435 0.175388
O O7 0.226957 0.747571 0.925944
O O8 0.231328 0.664575 0.925240
O O9 0.500000 0.276283 0.314604
O O10 0.713856 0.329664 0.423774
O O11 0.728264 0.414517 0.427480
O O12 0.788098 0.370663 0.662699
O O13 0.000000 0.368235 0.448493
O O14 0.269303 0.500000 0.368644
O O15 0.000000 0.546449 0.333101
O O16 0.500000 0.862809 0.291867
#
# Coordination Sequence:
#
# PCOD9357423 Si02
#       6
#     8   8   8   8   8   8
#     4   9  18  35  58  81 106 139 178 222 275 329
#     4   9  19  35  58  82 105 139 180 221 268 325
#     4  10  19  36  59  80 104 137 177 218 268 328
#     4  11  22  35  53  80 110 141 180 224 269 317
#     4   8  16  33  56  78 102 137 179 219 264 322
#     4  11  22  36  54  79 111 146 184 224 266 315
#
# _framework density 20.994212000000001
#
# number of rings (size 3 to 8) (size 9 to 14) (size 15 to 20)
#    0.000    2.333    0.000    4.000    0.000    3.667 
#    0.000    7.500    0.000    3.500    0.000    0.000 
#    0.000    0.000    0.000    0.000    0.000    0.000 
#
# Total GULP energy -134044.497011 kJ/mol
# GULP energy per Si atom -5585.187375 kJ/mol
# Density = 2.094643 g / cm^3
# Si number density = 20.994212 Si / 1000 Ang^3
#
#
#
# Elastic Constant Matrix: (Units=GPa)
#
#
# Indices 1 2 3 4 5 6 
#
# 1 28.7323 -10.4998 -9.3289 0.0000 0.0000 0.0000
# 2 -10.4998 154.8606 97.7299 0.0000 0.0000 0.0000
# 3 -9.3289 97.7299 146.1723 0.0000 0.0000 0.0000
# 4 0.0000 0.0000 0.0000 41.4443 0.0000 0.0000
# 5 0.0000 0.0000 0.0000 0.0000 16.7215 0.0000
# 6 0.0000 0.0000 0.0000 0.0000 0.0000 26.6570
#
#
#
# Elastic Compliance Matrix: (Units=1/GPa)
#
#
# Indices 1 2 3 4 5 6 
#
# 1 0.035799 0.001705 0.001145 0.000000 0.000000 0.000000
# 2 0.001705 0.011252 -0.007414 0.000000 0.000000 0.000000
# 3 0.001145 -0.007414 0.011871 0.000000 0.000000 0.000000
# 4 0.000000 0.000000 0.000000 0.024129 0.000000 0.000000
# 5 0.000000 0.000000 0.000000 0.000000 0.059803 0.000000
# 6 0.000000 0.000000 0.000000 0.000000 0.000000 0.037514
#
#
# Mechanical properties :
#
#
# Convention : Reuss Voigt Hill
#
# Bulk Modulus (GPa) = 20.08315 53.95197 37.01756
# Shear Modulus (GPa) = 24.26072 33.75550 29.00811
#
# Velocity S-wave (km/s) = 3.40309 4.01415 3.72118
# Velocity P-wave (km/s) = 5.00281 6.87305 6.01111
#
# Compressibility (1/GPa) = 0.04979298
#
# Stress axis : x y z
#
# Youngs Moduli (GPa) = 27.93393 88.87314 84.23586
#
# Poissons Ratio (x) = -0.15149 -0.09645
# Poissons Ratio (y) = -0.04762 0.62454
# Poissons Ratio (z) = -0.03198 0.65893
#
# Static dielectric constant tensor:
#      x y z
#    x 1.800910 0.000000 0.000000 
#    y 0.000000 1.730000 0.000000 
#    z 0.000000 0.000000 1.710800 
# 
# From -- ./inp_files/3716.got.cif
#   From: 2010.05.17/outbox.cif.g08.bks.cpg/sg38_2_cif.got.tgz:3716.got - 2010.06.03 18:07:57.
