data_PCOD9357756
_publ_section_title
;
Structure prediction by ZEFSAII (Michael W. Deem and Ramdas Pophale) SiO2 
 PCOD9357756
Probable space group: A M M 2
;
_chemical_formula_sum "Si O2"
_cell_formula_units_Z 56
_cell_length_a 13.382585
_cell_length_b 13.336912
_cell_length_c 12.569857
_cell_angle_alpha 90.000000
_cell_angle_beta 90.000000
_cell_angle_gamma 90.000000
_cell_volume 2243.497723
_symmetry_space_group_name_H-M "A M M 2"
_symmetry_group_IT_number 38
_symmetry_cell_setting 'orthorhombic'
loop_
_space_group_symop_operation_xyz
x,y,z
-x,-y,z
-x,y,z
x,-y,z
x,1/2+y,1/2+z
-x,1/2-y,1/2+z
-x,1/2+y,1/2+z
x,1/2-y,1/2+z
loop_
_atom_site_type_symbol
_atom_site_label
_atom_site_fract_x
_atom_site_fract_y
_atom_site_fract_z
Si Si1 0.831667 0.329066 0.215900
Si Si2 0.395196 0.685056 0.416082
Si Si3 0.389912 0.614492 0.180609
Si Si4 0.386946 0.389561 0.788529
Si Si5 0.181919 0.332793 0.455839
Si Si6 0.169458 0.107989 0.182767
Si Si7 0.113372 0.608102 0.994332
O O1 0.716593 0.330660 0.169106
O O2 0.837064 0.370102 0.335894
O O3 0.867562 0.214496 0.225281
O O4 0.888102 0.385289 0.122907
O O5 0.500000 0.675448 0.472718
O O6 0.398601 0.620361 0.308382
O O7 0.380508 0.798584 0.372245
O O8 0.299128 0.653111 0.477567
O O9 0.500000 0.650052 0.140749
O O10 0.377679 0.500000 0.145137
O O11 0.500000 0.378265 0.740512
O O12 0.385916 0.500000 0.839487
O O13 0.289045 0.387725 0.713371
O O14 0.137268 0.384798 0.558794
O O15 0.161236 0.213275 0.459548
O O16 0.134550 0.000000 0.223939
O O17 0.160585 0.500000 0.965865
O O18 0.000000 0.608963 0.955043
#
# Coordination Sequence:
#
# PCOD9357756 Si02
#       7
#     8   8   8   8   8   8   8
#     4  10  20  38  60  83 112 154 190 228 284 347
#     4   9  17  31  49  77 113 152 190 226 272 332
#     4   9  16  27  48  78 111 148 189 230 271 323
#     4   9  16  28  48  72 104 149 193 226 262 318
#     4  10  21  35  58  87 114 146 188 236 286 333
#     4  10  20  33  51  80 113 143 182 229 279 332
#     4  10  23  42  62  85 113 145 189 244 297 351
#
# _framework density 24.961024999999999
#
# number of rings (size 3 to 8) (size 9 to 14) (size 15 to 20)
#    0.000    2.429    2.857    0.429    0.000    5.143 
#    0.000    2.143    0.000    9.429    0.000    0.000 
#    0.000    0.000    0.000    0.000    0.000    0.000 
#
# Total GULP energy -156001.271325 kJ/mol
# GULP energy per Si atom -5571.473976 kJ/mol
# Density = 2.490421 g / cm^3
# Si number density = 24.961025 Si / 1000 Ang^3
#
#
#
# Elastic Constant Matrix: (Units=GPa)
#
#
# Indices 1 2 3 4 5 6 
#
# 1 67.5199 -9.0833 -8.0565 0.0000 0.0000 0.0000
# 2 -9.0833 97.9949 -10.9957 0.0000 0.0000 0.0000
# 3 -8.0565 -10.9957 92.4105 0.0000 0.0000 0.0000
# 4 0.0000 0.0000 0.0000 -87.2825 0.0000 0.0000
# 5 0.0000 0.0000 0.0000 0.0000 9.1885 0.0000
# 6 0.0000 0.0000 0.0000 0.0000 0.0000 8.8267
#
#
#
# Elastic Compliance Matrix: (Units=1/GPa)
#
#
# Indices 1 2 3 4 5 6 
#
# 1 0.015203 0.001579 0.001513 0.000000 0.000000 0.000000
# 2 0.001579 0.010507 0.001388 0.000000 0.000000 0.000000
# 3 0.001513 0.001388 0.011118 0.000000 0.000000 0.000000
# 4 0.000000 0.000000 0.000000 -0.011457 0.000000 0.000000
# 5 0.000000 0.000000 0.000000 0.000000 0.108832 0.000000
# 6 0.000000 0.000000 0.000000 0.000000 0.000000 0.113293
#
#
# Mechanical properties :
#
#
# Convention : Reuss Voigt Hill
#
# Bulk Modulus (GPa) = 21.83936 22.40606 22.12271
# Shear Modulus (GPa) = 19.70064 5.21725 12.45894
#
# Velocity S-wave (km/s) = 2.81242 1.44731 2.23656
# Velocity P-wave (km/s) = 4.39484 3.43349 3.94357
#
# Compressibility (1/GPa) = 0.04578888
#
# Stress axis : x y z
#
# Youngs Moduli (GPa) = 65.77461 95.17740 89.94144
#
# Poissons Ratio (x) = -0.15029 -0.13611
# Poissons Ratio (y) = -0.10386 -0.12482
# Poissons Ratio (z) = -0.09954 -0.13209
#
# Static dielectric constant tensor:
#      x y z
#    x 2.062010 0.000000 0.000000 
#    y 0.000000 1.969150 0.000000 
#    z 0.000000 0.000000 1.937330 
# 
# From -- ./inp_files/14665.got.cif
#   From: 2010.05.17/outbox.cif.g08.bks.cpg/sg38_8_cif.got.tgz:14665.got - 2010.06.03 18:07:57.
