data_PCOD9357356
_publ_section_title
;
Structure prediction by ZEFSAII (Michael W. Deem and Ramdas Pophale) SiO2 
 PCOD9357356
Probable space group: A M M 2
;
_chemical_formula_sum "Si O2"
_cell_formula_units_Z 48
_cell_length_a 15.918813
_cell_length_b 7.539702
_cell_length_c 18.503360
_cell_angle_alpha 90.000000
_cell_angle_beta 90.000000
_cell_angle_gamma 90.000000
_cell_volume 2220.830743
_symmetry_space_group_name_H-M "A M M 2"
_symmetry_group_IT_number 38
_symmetry_cell_setting 'orthorhombic'
loop_
_space_group_symop_operation_xyz
x,y,z
-x,-y,z
-x,y,z
x,-y,z
x,1/2+y,1/2+z
-x,1/2-y,1/2+z
-x,1/2+y,1/2+z
x,1/2-y,1/2+z
loop_
_atom_site_type_symbol
_atom_site_label
_atom_site_fract_x
_atom_site_fract_y
_atom_site_fract_z
Si Si1 0.500000 0.212094 0.819790
Si Si2 0.165986 0.214021 0.146397
Si Si3 0.328455 0.709755 0.902275
Si Si4 0.338720 0.210766 0.564763
Si Si5 0.832051 0.217650 0.312696
Si Si6 0.000000 0.212142 0.393799
Si Si7 0.500000 0.717741 0.154094
Si Si8 0.000000 0.787125 0.063792
O O1 0.583669 0.268830 0.861496
O O2 0.500000 0.277098 0.737164
O O3 0.500000 0.000000 0.817932
O O4 0.251419 0.262405 0.105812
O O5 0.166843 0.275158 0.229387
O O6 0.084284 0.279277 0.102994
O O7 0.161770 0.000000 0.147933
O O8 0.311955 0.500000 0.909852
O O9 0.251184 0.779504 0.854614
O O10 0.333780 0.784199 0.983412
O O11 0.416983 0.278327 0.611640
O O12 0.353265 0.000000 0.558137
O O13 0.915462 0.276663 0.354878
O O14 0.831624 0.000000 0.312068
O O15 0.000000 0.248849 0.478860
O O16 0.000000 0.000000 0.385076
O O17 0.500000 0.500000 0.155521
O O18 0.000000 0.000000 0.071606
#
# Coordination Sequence:
#
# PCOD9357356 Si02
#       8
#     4   8   8   8   8   4   4   4
#     4  11  22  35  53  77 104 137 176 214 256 311
#     4  10  20  35  54  77 108 142 174 212 259 311
#     4  10  20  35  55  78 105 137 173 216 263 308
#     4  10  20  36  57  79 104 136 174 215 261 311
#     4   9  18  33  55  81 105 135 177 218 257 304
#     4  10  19  35  59  81 103 136 180 222 254 300
#     4   9  19  35  53  75 106 139 168 208 266 319
#     4  10  21  35  51  75 109 144 172 208 266 318
#
# _framework density 21.613534000000001
#
# number of rings (size 3 to 8) (size 9 to 14) (size 15 to 20)
#    0.000    2.167    0.000    3.250    0.000    6.000 
#    0.000    2.917    0.000    1.000    0.000    0.000 
#    0.000    0.000    0.000    0.000    0.000    0.000 
#
# Total GULP energy -134167.488648 kJ/mol
# GULP energy per Si atom -5590.312027 kJ/mol
# Density = 2.156434 g / cm^3
# Si number density = 21.613534 Si / 1000 Ang^3
#
#
#
# Elastic Constant Matrix: (Units=GPa)
#
#
# Indices 1 2 3 4 5 6 
#
# 1 226.1807 -18.3276 143.0059 0.0000 0.0000 0.0000
# 2 -18.3276 45.5194 -7.0060 0.0000 0.0000 0.0000
# 3 143.0059 -7.0060 257.3006 0.0000 0.0000 0.0000
# 4 0.0000 0.0000 0.0000 5.5064 0.0000 0.0000
# 5 0.0000 0.0000 0.0000 0.0000 46.1932 0.0000
# 6 0.0000 0.0000 0.0000 0.0000 0.0000 -4.4268
#
#
#
# Elastic Compliance Matrix: (Units=1/GPa)
#
#
# Indices 1 2 3 4 5 6 
#
# 1 0.007037 0.002241 -0.003850 0.000000 0.000000 0.000000
# 2 0.002241 0.022775 -0.000625 0.000000 0.000000 0.000000
# 3 -0.003850 -0.000625 0.006009 0.000000 0.000000 0.000000
# 4 0.000000 0.000000 0.000000 0.181608 0.000000 0.000000
# 5 0.000000 0.000000 0.000000 0.000000 0.021648 0.000000
# 6 0.000000 0.000000 0.000000 0.000000 0.000000 -0.225895
#
#
# Mechanical properties :
#
#
# Convention : Reuss Voigt Hill
#
# Bulk Modulus (GPa) = 31.89612 84.92728 58.41170
# Shear Modulus (GPa) = 177.91942 36.87644 107.39793
#
# Velocity S-wave (km/s) = 9.08280 4.13507 7.05677
# Velocity P-wave (km/s) = 11.17076 7.88525 9.66858
#
# Compressibility (1/GPa) = 0.03135177
#
# Stress axis : x y z
#
# Youngs Moduli (GPa) = 142.10299 43.90855 166.40635
#
# Poissons Ratio (x) = -0.09839 0.64070
# Poissons Ratio (y) = -0.31842 0.10405
# Poissons Ratio (z) = 0.54712 0.02746
#
# Static dielectric constant tensor:
#      x y z
#    x 1.738960 0.000000 0.000000 
#    y 0.000000 1.865100 0.000000 
#    z 0.000000 0.000000 1.747540 
# 
# From -- ./inp_files/18236.got.cif
#   From: 2010.05.17/outbox.cif.g08.bks.cpg/sg38_10_cif.got.tgz:18236.got - 2010.06.03 18:07:57.
