data_PCOD9357657
_publ_section_title
;
Structure prediction by ZEFSAII (Michael W. Deem and Ramdas Pophale) SiO2 
 PCOD9357657
Probable space group: A M M 2
;
_chemical_formula_sum "Si O2"
_cell_formula_units_Z 64
_cell_length_a 9.436868
_cell_length_b 18.529927
_cell_length_c 21.392450
_cell_angle_alpha 90.000000
_cell_angle_beta 90.000000
_cell_angle_gamma 90.000000
_cell_volume 3740.779541
_symmetry_space_group_name_H-M "A M M 2"
_symmetry_group_IT_number 38
_symmetry_cell_setting 'orthorhombic'
loop_
_space_group_symop_operation_xyz
x,y,z
-x,-y,z
-x,y,z
x,-y,z
x,1/2+y,1/2+z
-x,1/2-y,1/2+z
-x,1/2+y,1/2+z
x,1/2-y,1/2+z
loop_
_atom_site_type_symbol
_atom_site_label
_atom_site_fract_x
_atom_site_fract_y
_atom_site_fract_z
Si Si1 0.829518 0.166018 0.424340
Si Si2 0.336956 0.087899 0.676510
Si Si3 0.831704 0.913645 0.800291
Si Si4 0.830946 0.585806 0.551675
Si Si5 0.670137 0.414338 0.813584
Si Si6 0.167752 0.914027 0.553123
Si Si7 0.827989 0.334023 0.426585
Si Si8 0.663507 0.587824 0.673907
O O1 0.751414 0.127601 0.367282
O O2 0.793833 0.127556 0.489897
O O3 0.790472 0.250132 0.426555
O O4 0.000000 0.160308 0.416419
O O5 0.500000 0.111422 0.677228
O O6 0.253667 0.110005 0.738935
O O7 0.256664 0.110085 0.613332
O O8 0.335269 0.000000 0.676438
O O9 0.782646 0.873735 0.863113
O O10 0.000000 0.900520 0.791227
O O11 0.814209 0.000000 0.808255
O O12 0.805368 0.500000 0.544246
O O13 0.779428 0.626554 0.489713
O O14 0.756329 0.611250 0.615208
O O15 0.000000 0.595875 0.557478
O O16 0.500000 0.405329 0.818758
O O17 0.699279 0.500000 0.819213
O O18 0.711764 0.390049 0.743325
O O19 0.000000 0.903351 0.565135
O O20 0.189933 0.000000 0.543948
O O21 0.000000 0.338885 0.427134
O O22 0.500000 0.609559 0.665593
O O23 0.666042 0.500000 0.674731
#
# Coordination Sequence:
#
# PCOD9357657 Si02
#       8
#     8   8   8   8   8   8   8   8
#     4  10  20  33  49  70  97 127 159 197 236 276
#     4   9  17  29  47  72  97 118 148 195 241 277
#     4   9  16  29  51  73  93 123 160 194 232 282
#     4   9  16  28  49  74  96 121 157 198 235 275
#     4   9  18  33  52  72  96 127 159 192 234 283
#     4   9  17  30  48  69  92 120 154 189 229 280
#     4   9  18  32  48  69  98 128 158 194 237 281
#     4   8  15  29  48  70  95 121 151 190 236 282
#
# _framework density 17.108733000000001
#
# number of rings (size 3 to 8) (size 9 to 14) (size 15 to 20)
#    0.000    3.000    0.000    1.875    0.000    4.750 
#    0.000    5.625    0.000    9.000    0.000    0.000 
#    0.000    0.000    0.000    0.000    0.000    0.000 
#
# Total GULP energy -178323.347614 kJ/mol
# GULP energy per Si atom -5572.604613 kJ/mol
# Density = 1.706979 g / cm^3
# Si number density = 17.108733 Si / 1000 Ang^3
#
#
#
# Elastic Constant Matrix: (Units=GPa)
#
#
# Indices 1 2 3 4 5 6 
#
# 1 48.4425 40.7079 84.0239 0.0000 0.0000 0.0000
# 2 40.7079 47.7378 77.7169 0.0000 0.0000 0.0000
# 3 84.0239 77.7169 225.2850 0.0000 0.0000 0.0000
# 4 0.0000 0.0000 0.0000 -4.3972 0.0000 0.0000
# 5 0.0000 0.0000 0.0000 0.0000 -0.2352 0.0000
# 6 0.0000 0.0000 0.0000 0.0000 0.0000 12.0881
#
#
#
# Elastic Compliance Matrix: (Units=1/GPa)
#
#
# Indices 1 2 3 4 5 6 
#
# 1 0.094890 -0.053150 -0.017056 0.000000 0.000000 0.000000
# 2 -0.053150 0.077554 -0.006931 0.000000 0.000000 0.000000
# 3 -0.017056 -0.006931 0.013191 0.000000 0.000000 0.000000
# 4 0.000000 0.000000 0.000000 -0.227417 0.000000 0.000000
# 5 0.000000 0.000000 0.000000 0.000000 -4.252522 0.000000
# 6 0.000000 0.000000 0.000000 0.000000 0.000000 0.082726
#
#
# Mechanical properties :
#
#
# Convention : Reuss Voigt Hill
#
# Bulk Modulus (GPa) = 31.88543 80.70697 56.29620
# Shear Modulus (GPa) = -1.23553 9.42558 4.09503
#
# Velocity S-wave (km/s) = -0.85072 2.34972 1.54878
# Velocity P-wave (km/s) = 4.20861 7.39168 6.01454
#
# Compressibility (1/GPa) = 0.03136229
#
# Stress axis : x y z
#
# Youngs Moduli (GPa) = 10.53855 12.89428 75.80969
#
# Poissons Ratio (x) = 0.68533 1.29298
# Poissons Ratio (y) = 0.56012 0.52542
# Poissons Ratio (z) = 0.17974 0.08937
#
# Static dielectric constant tensor:
#      x y z
#    x 1.568650 0.000000 0.000000 
#    y 0.000000 1.560910 0.000000 
#    z 0.000000 0.000000 1.569090 
# 
# From -- ./inp_files/20093.got.cif
#   From: 2010.05.17/outbox.cif.g08.bks.cpg/sg38_11_cif.got.tgz:20093.got - 2010.06.03 18:07:57.
