data_PCOD9357627
_publ_section_title
;
Structure prediction by ZEFSAII (Michael W. Deem and Ramdas Pophale) SiO2 
 PCOD9357627
Probable space group: A M M 2
;
_chemical_formula_sum "Si O2"
_cell_formula_units_Z 48
_cell_length_a 10.512857
_cell_length_b 7.568579
_cell_length_c 27.820663
_cell_angle_alpha 90.000000
_cell_angle_beta 90.000000
_cell_angle_gamma 90.000000
_cell_volume 2213.617507
_symmetry_space_group_name_H-M "A M M 2"
_symmetry_group_IT_number 38
_symmetry_cell_setting 'orthorhombic'
loop_
_space_group_symop_operation_xyz
x,y,z
-x,-y,z
-x,y,z
x,-y,z
x,1/2+y,1/2+z
-x,1/2-y,1/2+z
-x,1/2+y,1/2+z
x,1/2-y,1/2+z
loop_
_atom_site_type_symbol
_atom_site_label
_atom_site_fract_x
_atom_site_fract_y
_atom_site_fract_z
Si Si1 0.000000 0.201888 0.584060
Si Si2 0.775475 0.788660 0.766013
Si Si3 0.643552 0.783920 0.445501
Si Si4 0.500000 0.283792 0.231940
Si Si5 0.727311 0.783620 0.552543
Si Si6 0.500000 0.284346 0.121208
Si Si7 0.000000 0.202568 0.192191
Si Si8 0.859238 0.209167 0.373642
O O1 0.868082 0.280672 0.565436
O O2 0.000000 0.196548 0.641894
O O3 0.000000 0.000000 0.565865
O O4 0.632049 0.724484 0.755905
O O5 0.875897 0.737450 0.724761
O O6 0.825394 0.729281 0.817744
O O7 0.771993 0.000000 0.766408
O O8 0.500000 0.725913 0.434665
O O9 0.682806 0.732399 0.499412
O O10 0.747225 0.719891 0.407256
O O11 0.642420 0.000000 0.444536
O O12 0.500000 0.500000 0.233136
O O13 0.500000 0.228633 0.176306
O O14 0.624587 0.727155 0.592096
O O15 0.727732 0.000000 0.553850
O O16 0.500000 0.500000 0.121380
O O17 0.000000 0.000000 0.177866
O O18 0.000000 0.283808 0.382806
O O19 0.865700 0.000000 0.383695
#
# Coordination Sequence:
#
# PCOD9357627 Si02
#       8
#     4   8   8   4   8   4   4   8
#     4  10  20  32  53  84 111 141 184 233 283 332
#     4  11  22  39  61  84 113 148 190 237 286 338
#     4   9  17  30  49  78 113 148 184 228 283 337
#     4   9  20  34  54  85 115 143 181 233 284 335
#     4   9  16  27  48  78 110 141 179 227 274 324
#     4   9  14  26  45  69 105 139 169 217 274 319
#     4  12  24  40  59  82 115 153 192 233 285 344
#     4  10  21  35  53  79 114 149 185 232 285 337
#
# _framework density 21.683962000000001
#
# number of rings (size 3 to 8) (size 9 to 14) (size 15 to 20)
#    0.000    2.167    1.667    2.250    2.333    2.667 
#    0.000    1.250    0.000    1.000    0.000    0.000 
#    0.000    0.000    0.000    0.000    0.000    0.000 
#
# Total GULP energy -134121.451766 kJ/mol
# GULP energy per Si atom -5588.393824 kJ/mol
# Density = 2.163461 g / cm^3
# Si number density = 21.683962 Si / 1000 Ang^3
#
#
#
# Elastic Constant Matrix: (Units=GPa)
#
#
# Indices 1 2 3 4 5 6 
#
# 1 234.6291 9.9349 72.2023 0.0000 0.0000 0.0000
# 2 9.9349 52.4554 -4.0004 0.0000 0.0000 0.0000
# 3 72.2023 -4.0004 84.7319 0.0000 0.0000 0.0000
# 4 0.0000 0.0000 0.0000 9.5167 0.0000 0.0000
# 5 0.0000 0.0000 0.0000 0.0000 48.4616 0.0000
# 6 0.0000 0.0000 0.0000 0.0000 0.0000 -11.8417
#
#
#
# Elastic Compliance Matrix: (Units=1/GPa)
#
#
# Indices 1 2 3 4 5 6 
#
# 1 0.005893 -0.001504 -0.005092 0.000000 0.000000 0.000000
# 2 -0.001504 0.019517 0.002203 0.000000 0.000000 0.000000
# 3 -0.005092 0.002203 0.016245 0.000000 0.000000 0.000000
# 4 0.000000 0.000000 0.000000 0.105079 0.000000 0.000000
# 5 0.000000 0.000000 0.000000 0.000000 0.020635 0.000000
# 6 0.000000 0.000000 0.000000 0.000000 0.000000 -0.084447
#
#
# Mechanical properties :
#
#
# Convention : Reuss Voigt Hill
#
# Bulk Modulus (GPa) = 30.42472 58.67668 44.55070
# Shear Modulus (GPa) = 48.70229 28.80595 38.75412
#
# Velocity S-wave (km/s) = 4.74434 3.64874 4.23214
# Velocity P-wave (km/s) = 6.63876 6.69849 6.66869
#
# Compressibility (1/GPa) = 0.03286801
#
# Stress axis : x y z
#
# Youngs Moduli (GPa) = 169.69680 51.23792 61.55584
#
# Poissons Ratio (x) = 0.07709 0.31347
# Poissons Ratio (y) = 0.25530 -0.13563
# Poissons Ratio (z) = 0.86418 -0.11290
#
# Static dielectric constant tensor:
#      x y z
#    x 1.789920 0.000000 0.000000 
#    y 0.000000 1.846250 0.000000 
#    z 0.000000 0.000000 1.775300 
# 
# From -- ./inp_files/24458.got.cif
#   From: 2010.05.17/outbox.cif.g08.bks.cpg/sg38_13_cif.got.tgz:24458.got - 2010.06.03 18:07:57.
