data_PCOD9357683
_publ_section_title
;
Structure prediction by ZEFSAII (Michael W. Deem and Ramdas Pophale) SiO2 
 PCOD9357683
Probable space group: A M M 2
;
_chemical_formula_sum "Si O2"
_cell_formula_units_Z 64
_cell_length_a 8.171655
_cell_length_b 31.193642
_cell_length_c 14.888992
_cell_angle_alpha 90.000000
_cell_angle_beta 90.000000
_cell_angle_gamma 90.000000
_cell_volume 3795.258861
_symmetry_space_group_name_H-M "A M M 2"
_symmetry_group_IT_number 38
_symmetry_cell_setting 'orthorhombic'
loop_
_space_group_symop_operation_xyz
x,y,z
-x,-y,z
-x,y,z
x,-y,z
x,1/2+y,1/2+z
-x,1/2-y,1/2+z
-x,1/2+y,1/2+z
x,1/2-y,1/2+z
loop_
_atom_site_type_symbol
_atom_site_label
_atom_site_fract_x
_atom_site_fract_y
_atom_site_fract_z
Si Si1 0.692422 0.288295 0.150130
Si Si2 0.696428 0.133793 0.166291
Si Si3 0.698574 0.705916 0.529608
Si Si4 0.189705 0.366256 0.035753
Si Si5 0.199825 0.048893 0.449033
Si Si6 0.689931 0.327879 0.855186
Si Si7 0.188359 0.265396 0.342874
Si Si8 0.197056 0.451469 0.742914
O O1 0.500000 0.281456 0.165369
O O2 0.747502 0.249172 0.084566
O O3 0.779309 0.286090 0.246176
O O4 0.720294 0.333698 0.101911
O O5 0.500000 0.136240 0.165670
O O6 0.753209 0.164275 0.085894
O O7 0.751979 0.154397 0.260489
O O8 0.745952 0.084410 0.173542
O O9 0.500000 0.706336 0.524495
O O10 0.769134 0.706525 0.429718
O O11 0.254569 0.414419 0.017995
O O12 0.205642 0.345061 0.937465
O O13 0.000000 0.368338 0.062848
O O14 0.252350 0.058387 0.345841
O O15 0.000000 0.050188 0.448649
O O16 0.248276 0.000000 0.469932
O O17 0.500000 0.340516 0.868787
O O18 0.701160 0.276850 0.850846
O O19 0.000000 0.251912 0.348218
O O20 0.250775 0.500000 0.722191
O O21 0.000000 0.451182 0.744728
#
# Coordination Sequence:
#
# PCOD9357683 Si02
#       8
#     8   8   8   8   8   8   8   8
#     4  11  22  37  54  71 102 141 170 204 254 309
#     4  10  20  33  50  72  99 135 177 209 244 298
#     4  10  21  37  53  71  99 137 173 206 252 307
#     4  11  20  31  50  77 102 133 178 217 247 293
#     4   8  15  28  46  70 102 136 166 203 253 300
#     4  11  20  32  48  70 104 141 172 205 254 303
#     4  12  24  36  52  75 101 130 174 222 252 290
#     4   9  17  30  48  72 103 136 167 203 252 302
#
# _framework density 16.863146
#
# number of rings (size 3 to 8) (size 9 to 14) (size 15 to 20)
#    0.000    1.750    3.750    3.000    0.000    1.750 
#    0.000    0.000    0.000    1.500    0.000    0.875 
#    0.000    5.000    0.000    0.000    0.000    0.000 
#
# Total GULP energy -178533.525884 kJ/mol
# GULP energy per Si atom -5579.172684 kJ/mol
# Density = 1.682476 g / cm^3
# Si number density = 16.863146 Si / 1000 Ang^3
#
#
#
# Elastic Constant Matrix: (Units=GPa)
#
#
# Indices 1 2 3 4 5 6 
#
# 1 22.5902 -2.9539 8.2492 0.0000 0.0000 0.0000
# 2 -2.9539 102.3708 32.8339 0.0000 0.0000 0.0000
# 3 8.2492 32.8339 79.2091 0.0000 0.0000 0.0000
# 4 0.0000 0.0000 0.0000 21.8536 0.0000 0.0000
# 5 0.0000 0.0000 0.0000 0.0000 13.4076 0.0000
# 6 0.0000 0.0000 0.0000 0.0000 0.0000 20.1054
#
#
#
# Elastic Compliance Matrix: (Units=1/GPa)
#
#
# Indices 1 2 3 4 5 6 
#
# 1 0.047007 0.003375 -0.006295 0.000000 0.000000 0.000000
# 2 0.003375 0.011509 -0.005122 0.000000 0.000000 0.000000
# 3 -0.006295 -0.005122 0.015404 0.000000 0.000000 0.000000
# 4 0.000000 0.000000 0.000000 0.045759 0.000000 0.000000
# 5 0.000000 0.000000 0.000000 0.000000 0.074585 0.000000
# 6 0.000000 0.000000 0.000000 0.000000 0.000000 0.049738
#
#
# Mechanical properties :
#
#
# Convention : Reuss Voigt Hill
#
# Bulk Modulus (GPa) = 17.29022 31.15872 24.22447
# Shear Modulus (GPa) = 17.89792 22.14272 20.02032
#
# Velocity S-wave (km/s) = 3.26139 3.62758 3.44935
# Velocity P-wave (km/s) = 4.94548 6.00527 5.50096
#
# Compressibility (1/GPa) = 0.05783617
#
# Stress axis : x y z
#
# Youngs Moduli (GPa) = 21.27350 86.89125 64.92002
#
# Poissons Ratio (x) = -0.29328 0.40865
# Poissons Ratio (y) = -0.07180 0.33253
# Poissons Ratio (z) = 0.13391 0.44506
#
# Static dielectric constant tensor:
#      x y z
#    x 1.584770 0.000000 0.000000 
#    y 0.000000 1.596930 0.000000 
#    z 0.000000 0.000000 1.553820 
# 
# From -- ./inp_files/13102.got.cif
#   From: 2010.05.17/outbox.cif.g08.bks.cpg/sg38_7_cif.got.tgz:13102.got - 2010.06.03 18:07:57.
