data_PCOD9357817
_publ_section_title
;
Structure prediction by ZEFSAII (Michael W. Deem and Ramdas Pophale) SiO2 
 PCOD9357817
Probable space group: A M M 2
;
_chemical_formula_sum "Si O2"
_cell_formula_units_Z 38
_cell_length_a 18.623179
_cell_length_b 15.284499
_cell_length_c 5.384473
_cell_angle_alpha 90.000000
_cell_angle_beta 90.000000
_cell_angle_gamma 90.000000
_cell_volume 1532.668490
_symmetry_space_group_name_H-M "A M M 2"
_symmetry_group_IT_number 38
_symmetry_cell_setting 'orthorhombic'
loop_
_space_group_symop_operation_xyz
x,y,z
-x,-y,z
-x,y,z
x,-y,z
x,1/2+y,1/2+z
-x,1/2-y,1/2+z
-x,1/2+y,1/2+z
x,1/2-y,1/2+z
loop_
_atom_site_type_symbol
_atom_site_label
_atom_site_fract_x
_atom_site_fract_y
_atom_site_fract_z
Si Si1 0.000000 0.000000 0.771811
Si Si2 0.853962 0.405882 0.393681
Si Si3 0.341844 0.855023 0.179645
Si Si4 0.716479 0.154440 0.678217
Si Si5 0.078930 0.692371 0.765853
Si Si6 0.500000 0.807559 0.267517
O O1 0.065490 0.924936 0.788118
O O2 0.817846 0.500000 0.373203
O O3 0.800061 0.341392 0.254106
O O4 0.864532 0.380275 0.682861
O O5 0.298151 0.889272 0.414915
O O6 0.316743 0.752385 0.156726
O O7 0.323094 0.890239 0.909712
O O8 0.425778 0.859017 0.238899
O O9 0.083106 0.747628 0.015951
O O10 0.000000 0.649326 0.770545
O O11 0.500000 0.739617 0.035422
#
# Coordination Sequence:
#
# PCOD9357817 Si02
#       6
#     2   8   8   8   8   4
#     4   8  20  44  64  86 120 168 234 250 324 386
#     4  10  21  40  64  84 124 167 212 267 313 382
#     4  10  20  34  55  93 123 156 201 242 308 368
#     4  10  20  33  54  84 122 156 195 256 299 356
#     4  10  21  37  58  85 110 144 195 253 312 363
#     4  12  16  32  56  90 134 166 186 250 302 376
#
# _framework density 24.793361000000001
#
# number of rings (size 3 to 8) (size 9 to 14) (size 15 to 20)
#    0.632    1.263    5.263    0.000    5.895    0.000 
#    0.000    4.211    0.000    8.842    0.000    8.105 
#    0.000    0.000    0.000    0.000    0.000    0.000 
#
# Total GULP energy -105792.709152 kJ/mol
# GULP energy per Si atom -5568.037324 kJ/mol
# Density = 2.473693 g / cm^3
# Si number density = 24.793361 Si / 1000 Ang^3
#
#
#
# Elastic Constant Matrix: (Units=GPa)
#
#
# Indices 1 2 3 4 5 6 
#
# 1 163.0513 14.3145 -2.8875 0.0000 0.0000 0.0000
# 2 14.3145 42.1541 1.9802 0.0000 0.0000 0.0000
# 3 -2.8875 1.9802 121.0701 0.0000 0.0000 0.0000
# 4 0.0000 0.0000 0.0000 -10.2336 0.0000 0.0000
# 5 0.0000 0.0000 0.0000 0.0000 39.4178 0.0000
# 6 0.0000 0.0000 0.0000 0.0000 0.0000 20.6451
#
#
#
# Elastic Compliance Matrix: (Units=1/GPa)
#
#
# Indices 1 2 3 4 5 6 
#
# 1 0.006326 -0.002157 0.000186 0.000000 0.000000 0.000000
# 2 -0.002157 0.024476 -0.000452 0.000000 0.000000 0.000000
# 3 0.000186 -0.000452 0.008272 0.000000 0.000000 0.000000
# 4 0.000000 0.000000 0.000000 -0.097717 0.000000 0.000000
# 5 0.000000 0.000000 0.000000 0.000000 0.025369 0.000000
# 6 0.000000 0.000000 0.000000 0.000000 0.000000 0.048438
#
#
# Mechanical properties :
#
#
# Convention : Reuss Voigt Hill
#
# Bulk Modulus (GPa) = 29.21547 39.23221 34.22384
# Shear Modulus (GPa) = 159.14942 30.82376 94.98659
#
# Velocity S-wave (km/s) = 8.02058 3.52977 6.19633
# Velocity P-wave (km/s) = 9.87836 5.69828 8.06388
#
# Compressibility (1/GPa) = 0.03422844
#
# Stress axis : x y z
#
# Youngs Moduli (GPa) = 158.08564 40.85622 120.89695
#
# Poissons Ratio (x) = 0.08812 -0.02250
# Poissons Ratio (y) = 0.34096 0.05462
# Poissons Ratio (z) = -0.02943 0.01846
#
# Static dielectric constant tensor:
#      x y z
#    x 1.969930 0.000000 0.000000 
#    y 0.000000 2.441720 0.000000 
#    z 0.000000 0.000000 2.047810 
# 
# From -- ./inp_files/1552.got.cif
#   From: 2010.05.17/outbox.cif.g08.bks.cpg/sg38_1_cif.got.tgz:1552.got - 2010.06.03 18:07:57.
