data_PCOD9357622
_publ_section_title
;
Structure prediction by ZEFSAII (Michael W. Deem and Ramdas Pophale) SiO2 
 PCOD9357622
Probable space group: A M M 2
;
_chemical_formula_sum "Si O2"
_cell_formula_units_Z 56
_cell_length_a 16.995624
_cell_length_b 9.042694
_cell_length_c 20.750889
_cell_angle_alpha 90.000000
_cell_angle_beta 90.000000
_cell_angle_gamma 90.000000
_cell_volume 3189.125841
_symmetry_space_group_name_H-M "A M M 2"
_symmetry_group_IT_number 38
_symmetry_cell_setting 'orthorhombic'
loop_
_space_group_symop_operation_xyz
x,y,z
-x,-y,z
-x,y,z
x,-y,z
x,1/2+y,1/2+z
-x,1/2-y,1/2+z
-x,1/2+y,1/2+z
x,1/2-y,1/2+z
loop_
_atom_site_type_symbol
_atom_site_label
_atom_site_fract_x
_atom_site_fract_y
_atom_site_fract_z
Si Si1 0.660838 0.676972 0.437200
Si Si2 0.253460 0.822496 0.557826
Si Si3 0.910578 0.178039 0.614865
Si Si4 0.341736 0.176445 0.692049
Si Si5 0.500000 0.323496 0.737674
Si Si6 0.500000 0.821872 0.390073
Si Si7 0.909638 0.325185 0.754514
Si Si8 0.232155 0.675864 0.313383
O O1 0.649679 0.500000 0.440893
O O2 0.703085 0.738546 0.500634
O O3 0.577788 0.755207 0.422951
O O4 0.718032 0.709297 0.376799
O O5 0.161866 0.779664 0.568751
O O6 0.298941 0.791962 0.624765
O O7 0.256517 0.000000 0.546661
O O8 0.896887 0.247362 0.685337
O O9 0.000000 0.217951 0.594373
O O10 0.907334 0.000000 0.621571
O O11 0.422985 0.259719 0.703342
O O12 0.284399 0.215446 0.751088
O O13 0.355936 0.000000 0.695178
O O14 0.500000 0.500000 0.734816
O O15 0.500000 0.280816 0.813764
O O16 0.500000 0.000000 0.394827
O O17 0.898603 0.500000 0.746742
O O18 0.849065 0.261238 0.805850
O O19 0.000000 0.297030 0.773049
O O20 0.217535 0.500000 0.311166
#
# Coordination Sequence:
#
# PCOD9357622 Si02
#       8
#     8   8   8   8   4   4   8   8
#     4  11  24  40  61  85 114 153 192 236 286 338
#     4  10  21  38  58  85 118 153 191 233 284 340
#     4   9  17  33  58  84 112 151 195 234 279 341
#     4  10  20  37  60  83 111 148 188 232 279 333
#     4  11  23  36  57  90 117 143 185 240 291 330
#     4  11  23  40  61  86 115 149 189 232 285 346
#     4  10  20  32  52  86 121 150 186 239 293 332
#     4  10  20  37  59  83 110 148 194 232 278 340
#
# _framework density 17.559670000000001
#
# number of rings (size 3 to 8) (size 9 to 14) (size 15 to 20)
#    0.000    1.857    2.857    1.286    0.000    4.857 
#    0.000    1.429    0.000    2.571    0.000    0.000 
#    0.000    0.000    0.000    0.000    0.000    0.000 
#
# Total GULP energy -156317.009506 kJ/mol
# GULP energy per Si atom -5582.750340 kJ/mol
# Density = 1.751970 g / cm^3
# Si number density = 17.559670 Si / 1000 Ang^3
#
#
#
# Elastic Constant Matrix: (Units=GPa)
#
#
# Indices 1 2 3 4 5 6 
#
# 1 155.6693 63.0068 67.2865 0.0000 0.0000 0.0000
# 2 63.0068 37.7466 48.7522 0.0000 0.0000 0.0000
# 3 67.2865 48.7522 107.4476 0.0000 0.0000 0.0000
# 4 0.0000 0.0000 0.0000 27.2863 0.0000 0.0000
# 5 0.0000 0.0000 0.0000 0.0000 19.5148 0.0000
# 6 0.0000 0.0000 0.0000 0.0000 0.0000 22.2210
#
#
#
# Elastic Compliance Matrix: (Units=1/GPa)
#
#
# Indices 1 2 3 4 5 6 
#
# 1 0.021723 -0.045148 0.006882 0.000000 0.000000 0.000000
# 2 -0.045148 0.157829 -0.043339 0.000000 0.000000 0.000000
# 3 0.006882 -0.043339 0.024661 0.000000 0.000000 0.000000
# 4 0.000000 0.000000 0.000000 0.036648 0.000000 0.000000
# 5 0.000000 0.000000 0.000000 0.000000 0.051243 0.000000
# 6 0.000000 0.000000 0.000000 0.000000 0.000000 0.045003
#
#
# Mechanical properties :
#
#
# Convention : Reuss Voigt Hill
#
# Bulk Modulus (GPa) = 24.38858 73.21716 48.80287
# Shear Modulus (GPa) = 9.72789 21.92561 15.82675
#
# Velocity S-wave (km/s) = 2.35625 3.53744 3.00544
# Velocity P-wave (km/s) = 4.61754 7.64665 6.31637
#
# Compressibility (1/GPa) = 0.04100279
#
# Stress axis : x y z
#
# Youngs Moduli (GPa) = 46.03407 6.33597 40.54906
#
# Poissons Ratio (x) = 0.28606 -0.27904
# Poissons Ratio (y) = 2.07836 1.75734
# Poissons Ratio (z) = -0.31679 0.27459
#
# Static dielectric constant tensor:
#      x y z
#    x 1.603090 0.000000 0.000000 
#    y 0.000000 1.583850 0.000000 
#    z 0.000000 0.000000 1.567250 
# 
# From -- ./inp_files/21112.got.cif
#   From: 2010.05.17/outbox.cif.g08.bks.cpg/sg38_11_cif.got.tgz:21112.got - 2010.06.03 18:07:57.
