data_PCOD9357197
_publ_section_title
;
Structure prediction by ZEFSAII (Michael W. Deem and Ramdas Pophale) SiO2 
 PCOD9357197
Probable space group: A M M 2
;
_chemical_formula_sum "Si O2"
_cell_formula_units_Z 48
_cell_length_a 7.531354
_cell_length_b 10.348104
_cell_length_c 28.985862
_cell_angle_alpha 90.000000
_cell_angle_beta 90.000000
_cell_angle_gamma 90.000000
_cell_volume 2259.019951
_symmetry_space_group_name_H-M "A M M 2"
_symmetry_group_IT_number 38
_symmetry_cell_setting 'orthorhombic'
loop_
_space_group_symop_operation_xyz
x,y,z
-x,-y,z
-x,y,z
x,-y,z
x,1/2+y,1/2+z
-x,1/2-y,1/2+z
-x,1/2+y,1/2+z
x,1/2-y,1/2+z
loop_
_atom_site_type_symbol
_atom_site_label
_atom_site_fract_x
_atom_site_fract_y
_atom_site_fract_z
Si Si1 0.210190 0.648988 0.630300
Si Si2 0.217304 0.000000 0.474685
Si Si3 0.708788 0.148774 0.710682
Si Si4 0.214020 0.244195 0.813379
Si Si5 0.782411 0.000000 0.366824
Si Si6 0.783039 0.749521 0.032517
Si Si7 0.216251 0.000000 0.976069
Si Si8 0.217434 0.500000 0.371620
O O1 0.278831 0.500000 0.636025
O O2 0.229524 0.746351 0.673131
O O3 0.279477 0.722188 0.584540
O O4 0.000000 0.634098 0.622893
O O5 0.273372 0.000000 0.420769
O O6 0.274728 0.876188 0.504413
O O7 0.000000 0.000000 0.473277
O O8 0.500000 0.136674 0.703586
O O9 0.738574 0.211028 0.760970
O O10 0.782519 0.000000 0.708286
O O11 0.275625 0.375403 0.837575
O O12 0.276196 0.125780 0.844532
O O13 0.000000 0.247790 0.814780
O O14 0.000000 0.000000 0.367876
O O15 0.000000 0.742624 0.033737
O O16 0.729488 0.873368 0.003075
O O17 0.277470 0.000000 0.923877
O O18 0.000000 0.000000 0.975468
O O19 0.000000 0.500000 0.371729
#
# Coordination Sequence:
#
# PCOD9357197 Si02
#       8
#     8   4   8   8   4   8   4   4
#     4  10  21  37  58  86 115 144 182 230 280 331
#     4   9  16  26  43  75 116 150 177 211 260 319
#     4  11  25  42  58  79 107 144 189 236 285 336
#     4  10  19  34  54  80 111 142 181 227 273 324
#     4   9  18  30  48  79 118 150 177 215 266 321
#     4   9  16  27  45  74 113 146 173 212 267 324
#     4   9  14  24  43  71 108 142 171 211 264 323
#     4   9  16  26  48  77 106 142 177 215 270 325
#
# _framework density 21.248152999999999
#
# number of rings (size 3 to 8) (size 9 to 14) (size 15 to 20)
#    0.000    2.333    1.667    1.500    2.333    5.333 
#    0.000    0.000    0.000    0.000    0.000    7.000 
#    0.000    0.000    0.000    0.000    0.000    0.000 
#
# Total GULP energy -133939.366244 kJ/mol
# GULP energy per Si atom -5580.806927 kJ/mol
# Density = 2.119979 g / cm^3
# Si number density = 21.248153 Si / 1000 Ang^3
#
#
#
# Elastic Constant Matrix: (Units=GPa)
#
#
# Indices 1 2 3 4 5 6 
#
# 1 50.8080 0.3595 -10.2977 0.0000 0.0000 0.0000
# 2 0.3595 224.3188 114.5611 0.0000 0.0000 0.0000
# 3 -10.2977 114.5611 207.5852 0.0000 0.0000 0.0000
# 4 0.0000 0.0000 0.0000 32.8761 0.0000 0.0000
# 5 0.0000 0.0000 0.0000 0.0000 -61.8220 0.0000
# 6 0.0000 0.0000 0.0000 0.0000 0.0000 1.3271
#
#
#
# Elastic Compliance Matrix: (Units=1/GPa)
#
#
# Indices 1 2 3 4 5 6 
#
# 1 0.019972 -0.000749 0.001404 0.000000 0.000000 0.000000
# 2 -0.000749 0.006236 -0.003478 0.000000 0.000000 0.000000
# 3 0.001404 -0.003478 0.006807 0.000000 0.000000 0.000000
# 4 0.000000 0.000000 0.000000 0.030417 0.000000 0.000000
# 5 0.000000 0.000000 0.000000 0.000000 -0.016175 0.000000
# 6 0.000000 0.000000 0.000000 0.000000 0.000000 0.753503
#
#
# Mechanical properties :
#
#
# Convention : Reuss Voigt Hill
#
# Bulk Modulus (GPa) = 36.53998 76.88419 56.71208
# Shear Modulus (GPa) = 6.13100 19.68218 12.90659
#
# Velocity S-wave (km/s) = 1.70050 3.04682 2.46727
# Velocity P-wave (km/s) = 4.59235 6.97424 5.90465
#
# Compressibility (1/GPa) = 0.02736729
#
# Stress axis : x y z
#
# Youngs Moduli (GPa) = 50.07047 160.36942 146.91579
#
# Poissons Ratio (x) = 0.12014 -0.20629
# Poissons Ratio (y) = 0.03751 0.51104
# Poissons Ratio (z) = -0.07031 0.55783
#
# Static dielectric constant tensor:
#      x y z
#    x 1.797480 0.000000 0.000000 
#    y 0.000000 2.094110 0.000000 
#    z 0.000000 0.000000 1.735880 
# 
# From -- ./inp_files/24498.got.cif
#   From: 2010.05.17/outbox.cif.g08.bks.cpg/sg38_13_cif.got.tgz:24498.got - 2010.06.03 18:07:57.
