data_PCOD9357747
_publ_section_title
;
Structure prediction by ZEFSAII (Michael W. Deem and Ramdas Pophale) SiO2 
 PCOD9357747
Probable space group: A M M 2
;
_chemical_formula_sum "Si O2"
_cell_formula_units_Z 56
_cell_length_a 14.175728
_cell_length_b 16.352574
_cell_length_c 10.654390
_cell_angle_alpha 90.000000
_cell_angle_beta 90.000000
_cell_angle_gamma 90.000000
_cell_volume 2469.790322
_symmetry_space_group_name_H-M "A M M 2"
_symmetry_group_IT_number 38
_symmetry_cell_setting 'orthorhombic'
loop_
_space_group_symop_operation_xyz
x,y,z
-x,-y,z
-x,y,z
x,-y,z
x,1/2+y,1/2+z
-x,1/2-y,1/2+z
-x,1/2+y,1/2+z
x,1/2-y,1/2+z
loop_
_atom_site_type_symbol
_atom_site_label
_atom_site_fract_x
_atom_site_fract_y
_atom_site_fract_z
Si Si1 0.295962 0.093899 0.889340
Si Si2 0.111883 0.243715 0.064857
Si Si3 0.609303 0.100030 0.139131
Si Si4 0.107887 0.906438 0.247066
Si Si5 0.886371 0.664756 0.312233
Si Si6 0.292997 0.097407 0.390914
Si Si7 0.609410 0.899751 0.639401
O O1 0.185550 0.095530 0.855856
O O2 0.351119 0.131557 0.771576
O O3 0.326877 0.000000 0.896729
O O4 0.328166 0.129863 0.022199
O O5 0.126097 0.156705 0.135455
O O6 0.141770 0.307942 0.171823
O O7 0.000000 0.257098 0.058581
O O8 0.138749 0.232567 0.919447
O O9 0.500000 0.121342 0.122284
O O10 0.650725 0.130656 0.270761
O O11 0.614830 0.000000 0.144961
O O12 0.183070 0.897011 0.357540
O O13 0.000000 0.893885 0.289652
O O14 0.117400 0.000000 0.200790
O O15 0.000000 0.649648 0.318023
O O16 0.329225 0.131073 0.522177
O O17 0.313364 0.000000 0.396049
O O18 0.500000 0.879376 0.621852
O O19 0.615859 0.000000 0.642539
#
# Coordination Sequence:
#
# PCOD9357747 Si02
#       7
#     8   8   8   8   8   8   8
#     4  10  20  33  51  78 109 139 171 210 265 322
#     4   9  19  35  54  75 102 140 180 213 251 303
#     4   9  16  27  45  71 102 134 173 221 263 302
#     4   9  17  30  50  79 112 139 167 212 265 312
#     4  10  21  37  55  76 104 139 179 218 254 304
#     4   9  16  26  44  73 105 137 173 209 251 306
#     4   9  17  30  47  70 103 138 171 211 260 313
#
# _framework density 22.673988999999999
#
# number of rings (size 3 to 8) (size 9 to 14) (size 15 to 20)
#    0.000    2.714    0.000    1.714    0.000    6.571 
#    0.000    3.571    0.000    2.571    0.000   18.000 
#    0.000    0.000    0.000    0.000    0.000    0.000 
#
# Total GULP energy -156150.219005 kJ/mol
# GULP energy per Si atom -5576.793536 kJ/mol
# Density = 2.262238 g / cm^3
# Si number density = 22.673989 Si / 1000 Ang^3
#
#
#
# Elastic Constant Matrix: (Units=GPa)
#
#
# Indices 1 2 3 4 5 6 
#
# 1 104.5507 -0.5276 46.5374 0.0000 0.0000 0.0000
# 2 -0.5276 17.5120 0.0332 0.0000 0.0000 0.0000
# 3 46.5374 0.0332 140.6176 0.0000 0.0000 0.0000
# 4 0.0000 0.0000 0.0000 12.9684 0.0000 0.0000
# 5 0.0000 0.0000 0.0000 0.0000 26.0064 0.0000
# 6 0.0000 0.0000 0.0000 0.0000 0.0000 1.5254
#
#
#
# Elastic Compliance Matrix: (Units=1/GPa)
#
#
# Indices 1 2 3 4 5 6 
#
# 1 0.011219 0.000345 -0.003713 0.000000 0.000000 0.000000
# 2 0.000345 0.057114 -0.000128 0.000000 0.000000 0.000000
# 3 -0.003713 -0.000128 0.008340 0.000000 0.000000 0.000000
# 4 0.000000 0.000000 0.000000 0.077111 0.000000 0.000000
# 5 0.000000 0.000000 0.000000 0.000000 0.038452 0.000000
# 6 0.000000 0.000000 0.000000 0.000000 0.000000 0.655577
#
#
# Mechanical properties :
#
#
# Convention : Reuss Voigt Hill
#
# Bulk Modulus (GPa) = 14.35079 39.41846 26.88462
# Shear Modulus (GPa) = 5.69455 22.54252 14.11853
#
# Velocity S-wave (km/s) = 1.58649 3.15652 2.49805
# Velocity P-wave (km/s) = 3.11430 5.54143 4.49479
#
# Compressibility (1/GPa) = 0.06968258
#
# Stress axis : x y z
#
# Youngs Moduli (GPa) = 89.13259 17.50873 119.89893
#
# Poissons Ratio (x) = -0.00604 0.44519
# Poissons Ratio (y) = -0.03076 0.01531
# Poissons Ratio (z) = 0.33096 0.00224
#
# Static dielectric constant tensor:
#      x y z
#    x 1.824290 0.000000 0.000000 
#    y 0.000000 1.888230 0.000000 
#    z 0.000000 0.000000 1.856050 
# 
# From -- ./inp_files/5689.got.cif
#   From: 2010.05.17/outbox.cif.g08.bks.cpg/sg38_3_cif.got.tgz:5689.got - 2010.06.03 18:07:57.
