data_PCOD9357153
_publ_section_title
;
Structure prediction by ZEFSAII (Michael W. Deem and Ramdas Pophale) SiO2 
 PCOD9357153
Probable space group: A M M 2
;
_chemical_formula_sum "Si O2"
_cell_formula_units_Z 64
_cell_length_a 8.804160
_cell_length_b 20.122567
_cell_length_c 21.149039
_cell_angle_alpha 90.000000
_cell_angle_beta 90.000000
_cell_angle_gamma 90.000000
_cell_volume 3746.812381
_symmetry_space_group_name_H-M "A M M 2"
_symmetry_group_IT_number 38
_symmetry_cell_setting 'orthorhombic'
loop_
_space_group_symop_operation_xyz
x,y,z
-x,-y,z
-x,y,z
x,-y,z
x,1/2+y,1/2+z
-x,1/2-y,1/2+z
-x,1/2+y,1/2+z
x,1/2-y,1/2+z
loop_
_atom_site_type_symbol
_atom_site_label
_atom_site_fract_x
_atom_site_fract_y
_atom_site_fract_z
Si Si1 0.817529 0.575270 0.065700
Si Si2 0.816441 0.286472 0.263329
Si Si3 0.815902 0.573023 0.215368
Si Si4 0.318925 0.710766 0.021929
Si Si5 0.681472 0.293066 0.880412
Si Si6 0.818201 0.705078 0.636023
Si Si7 0.318957 0.575897 0.688315
Si Si8 0.181756 0.075490 0.328709
O O1 0.778776 0.500000 0.045506
O O2 0.782448 0.580817 0.140738
O O3 0.733331 0.634644 0.031211
O O4 0.000000 0.583171 0.058787
O O5 0.763647 0.362362 0.253059
O O6 0.748382 0.251854 0.324657
O O7 0.776084 0.245564 0.199887
O O8 0.000000 0.285523 0.267939
O O9 0.761043 0.500000 0.235912
O O10 0.000000 0.572439 0.219405
O O11 0.500000 0.715207 0.029219
O O12 0.240370 0.754972 0.075506
O O13 0.277466 0.731349 0.950579
O O14 0.500000 0.294789 0.875254
O O15 0.745000 0.367279 0.870396
O O16 0.746566 0.632258 0.642959
O O17 0.000000 0.700746 0.634168
O O18 0.500000 0.583781 0.695182
O O19 0.288290 0.500000 0.667576
O O20 0.241996 0.584272 0.757101
O O21 0.000000 0.082617 0.328741
O O22 0.219529 0.000000 0.348546
#
# Coordination Sequence:
#
# PCOD9357153 Si02
#       8
#     8   8   8   8   8   8   8   8
#     4   9  17  32  54  78 107 143 180 219 267 322
#     4  10  19  33  56  83 106 135 178 225 272 320
#     4   8  14  28  52  80 107 132 164 210 263 317
#     4  11  24  38  52  75 110 149 187 227 274 327
#     4  11  24  38  52  74 108 150 187 223 272 325
#     4  11  21  35  58  85 109 139 183 231 274 319
#     4  10  20  34  55  83 113 144 177 218 273 330
#     4  10  20  34  53  78 108 143 184 227 269 318
#
# _framework density 17.081185000000001
#
# number of rings (size 3 to 8) (size 9 to 14) (size 15 to 20)
#    0.000    2.000    2.500    2.625    0.000    4.750 
#    0.000    2.500    0.000    1.125    0.000    3.500 
#    0.000    0.000    0.000    0.000    0.000    0.000 
#
# Total GULP energy -178602.908991 kJ/mol
# GULP energy per Si atom -5581.340906 kJ/mol
# Density = 1.704231 g / cm^3
# Si number density = 17.081185 Si / 1000 Ang^3
#
#
#
# Elastic Constant Matrix: (Units=GPa)
#
#
# Indices 1 2 3 4 5 6 
#
# 1 32.4036 35.1575 37.2847 0.0000 0.0000 0.0000
# 2 35.1575 113.6938 62.7063 0.0000 0.0000 0.0000
# 3 37.2847 62.7063 104.8814 0.0000 0.0000 0.0000
# 4 0.0000 0.0000 0.0000 18.7141 0.0000 0.0000
# 5 0.0000 0.0000 0.0000 0.0000 27.6395 0.0000
# 6 0.0000 0.0000 0.0000 0.0000 0.0000 21.9102
#
#
#
# Elastic Compliance Matrix: (Units=1/GPa)
#
#
# Indices 1 2 3 4 5 6 
#
# 1 0.058903 -0.009945 -0.014994 0.000000 0.000000 0.000000
# 2 -0.009945 0.014802 -0.005314 0.000000 0.000000 0.000000
# 3 -0.014994 -0.005314 0.018042 0.000000 0.000000 0.000000
# 4 0.000000 0.000000 0.000000 0.053436 0.000000 0.000000
# 5 0.000000 0.000000 0.000000 0.000000 0.036180 0.000000
# 6 0.000000 0.000000 0.000000 0.000000 0.000000 0.045641
#
#
# Mechanical properties :
#
#
# Convention : Reuss Voigt Hill
#
# Bulk Modulus (GPa) = 32.00921 57.91954 44.96437
# Shear Modulus (GPa) = 16.78279 21.37479 19.07879
#
# Velocity S-wave (km/s) = 3.13793 3.54130 3.34570
# Velocity P-wave (km/s) = 5.64880 7.12061 6.42698
#
# Compressibility (1/GPa) = 0.03124101
#
# Stress axis : x y z
#
# Youngs Moduli (GPa) = 16.97692 67.55894 55.42567
#
# Poissons Ratio (x) = 0.67187 0.83105
# Poissons Ratio (y) = 0.16883 0.29455
# Poissons Ratio (z) = 0.25455 0.35903
#
# Static dielectric constant tensor:
#      x y z
#    x 1.567940 0.000000 0.000000 
#    y 0.000000 1.593230 0.000000 
#    z 0.000000 0.000000 1.560300 
# 
# From -- ./inp_files/20199.got.cif
#   From: 2010.05.17/outbox.cif.g08.bks.cpg/sg38_11_cif.got.tgz:20199.got - 2010.06.03 18:07:57.
