data_PCOD9357259
_publ_section_title
;
Structure prediction by ZEFSAII (Michael W. Deem and Ramdas Pophale) SiO2 
 PCOD9357259
Probable space group: A M M 2
;
_chemical_formula_sum "Si O2"
_cell_formula_units_Z 48
_cell_length_a 14.469870
_cell_length_b 8.674211
_cell_length_c 21.197961
_cell_angle_alpha 90.000000
_cell_angle_beta 90.000000
_cell_angle_gamma 90.000000
_cell_volume 2660.655833
_symmetry_space_group_name_H-M "A M M 2"
_symmetry_group_IT_number 38
_symmetry_cell_setting 'orthorhombic'
loop_
_space_group_symop_operation_xyz
x,y,z
-x,-y,z
-x,y,z
x,-y,z
x,1/2+y,1/2+z
-x,1/2-y,1/2+z
-x,1/2+y,1/2+z
x,1/2-y,1/2+z
loop_
_atom_site_type_symbol
_atom_site_label
_atom_site_fract_x
_atom_site_fract_y
_atom_site_fract_z
Si Si1 0.605587 0.684361 0.408210
Si Si2 0.786282 0.815448 0.101777
Si Si3 0.892067 0.685868 0.980730
Si Si4 0.106733 0.188199 0.227672
Si Si5 0.605561 0.184448 0.548677
Si Si6 0.214654 0.313826 0.853202
O O1 0.500000 0.726253 0.391026
O O2 0.611859 0.500000 0.411913
O O3 0.623469 0.752757 0.478008
O O4 0.682796 0.748182 0.361396
O O5 0.839237 0.763112 0.164783
O O6 0.683007 0.750857 0.094591
O O7 0.782768 0.000000 0.102022
O O8 0.842276 0.759579 0.040554
O O9 0.884728 0.500000 0.985780
O O10 0.842592 0.731964 0.915653
O O11 0.000000 0.726642 0.979261
O O12 0.161179 0.236801 0.290438
O O13 0.000000 0.239234 0.227648
O O14 0.105286 0.000000 0.227896
O O15 0.500000 0.227292 0.565305
O O16 0.612437 0.000000 0.546876
O O17 0.219370 0.500000 0.852423
#
# Coordination Sequence:
#
# PCOD9357259 Si02
#       6
#     8   8   8   8   8   8
#     4  10  20  34  54  82 114 144 175 220 279 333
#     4  11  21  34  55  82 112 145 182 228 279 326
#     4  10  20  33  52  79 108 139 181 231 277 324
#     4   9  19  36  56  79 110 149 188 224 268 322
#     4  10  20  35  56  81 109 143 183 226 274 330
#     4  10  19  34  57  81 107 144 187 227 268 319
#
# _framework density 18.040664
#
# number of rings (size 3 to 8) (size 9 to 14) (size 15 to 20)
#    0.000    2.000    1.667    2.500    0.000    5.000 
#    0.000    2.500    0.000    8.500    0.000    0.000 
#    0.000    0.000    0.000    0.000    0.000    0.000 
#
# Total GULP energy -134003.815221 kJ/mol
# GULP energy per Si atom -5583.492301 kJ/mol
# Density = 1.799960 g / cm^3
# Si number density = 18.040664 Si / 1000 Ang^3
#
#
#
# Elastic Constant Matrix: (Units=GPa)
#
#
# Indices 1 2 3 4 5 6 
#
# 1 183.3638 38.0006 102.3880 0.0000 0.0000 0.0000
# 2 38.0006 20.3634 31.3931 0.0000 0.0000 0.0000
# 3 102.3880 31.3931 153.3280 0.0000 0.0000 0.0000
# 4 0.0000 0.0000 0.0000 22.0519 0.0000 0.0000
# 5 0.0000 0.0000 0.0000 0.0000 34.4697 0.0000
# 6 0.0000 0.0000 0.0000 0.0000 0.0000 28.8493
#
#
#
# Elastic Compliance Matrix: (Units=1/GPa)
#
#
# Indices 1 2 3 4 5 6 
#
# 1 0.010620 -0.012983 -0.004433 0.000000 0.000000 0.000000
# 2 -0.012983 0.087630 -0.009272 0.000000 0.000000 0.000000
# 3 -0.004433 -0.009272 0.011381 0.000000 0.000000 0.000000
# 4 0.000000 0.000000 0.000000 0.045347 0.000000 0.000000
# 5 0.000000 0.000000 0.000000 0.000000 0.029011 0.000000
# 6 0.000000 0.000000 0.000000 0.000000 0.000000 0.034663
#
#
# Mechanical properties :
#
#
# Convention : Reuss Voigt Hill
#
# Bulk Modulus (GPa) = 17.77668 77.84651 47.81159
# Shear Modulus (GPa) = 17.19512 29.42574 23.31043
#
# Velocity S-wave (km/s) = 3.09063 4.04304 3.59849
# Velocity P-wave (km/s) = 4.75511 8.06469 6.62005
#
# Compressibility (1/GPa) = 0.05625347
#
# Stress axis : x y z
#
# Youngs Moduli (GPa) = 94.16328 11.41164 87.86701
#
# Poissons Ratio (x) = 0.14816 0.38955
# Poissons Ratio (y) = 1.22254 0.81470
# Poissons Ratio (z) = 0.41746 0.10581
#
# Static dielectric constant tensor:
#      x y z
#    x 1.626050 0.000000 0.000000 
#    y 0.000000 1.616500 0.000000 
#    z 0.000000 0.000000 1.587990 
# 
# From -- ./inp_files/18158.got.cif
#   From: 2010.05.17/outbox.cif.g08.bks.cpg/sg38_10_cif.got.tgz:18158.got - 2010.06.03 18:07:57.
