data_PCOD9357781
_publ_section_title
;
Structure prediction by ZEFSAII (Michael W. Deem and Ramdas Pophale) SiO2 
 PCOD9357781
Probable space group: A M M 2
;
_chemical_formula_sum "Si O2"
_cell_formula_units_Z 64
_cell_length_a 13.562910
_cell_length_b 20.641563
_cell_length_c 13.650583
_cell_angle_alpha 90.000000
_cell_angle_beta 90.000000
_cell_angle_gamma 90.000000
_cell_volume 3821.612592
_symmetry_space_group_name_H-M "A M M 2"
_symmetry_group_IT_number 38
_symmetry_cell_setting 'orthorhombic'
loop_
_space_group_symop_operation_xyz
x,y,z
-x,-y,z
-x,y,z
x,-y,z
x,1/2+y,1/2+z
-x,1/2-y,1/2+z
-x,1/2+y,1/2+z
x,1/2-y,1/2+z
loop_
_atom_site_type_symbol
_atom_site_label
_atom_site_fract_x
_atom_site_fract_y
_atom_site_fract_z
Si Si1 0.114512 0.924191 0.534280
Si Si2 0.735432 0.762518 0.086477
Si Si3 0.726465 0.306704 0.367992
Si Si4 0.619151 0.186159 0.262266
Si Si5 0.115811 0.184930 0.698718
Si Si6 0.385882 0.870946 0.590832
Si Si7 0.297944 0.574912 0.901343
Si Si8 0.617956 0.072166 0.802884
O O1 0.130505 0.877454 0.627378
O O2 0.189688 0.908480 0.446038
O O3 0.000000 0.916848 0.505074
O O4 0.131372 0.000000 0.559597
O O5 0.668067 0.808066 0.154893
O O6 0.837649 0.745448 0.139964
O O7 0.676926 0.694229 0.082065
O O8 0.751958 0.786517 0.977376
O O9 0.658611 0.250581 0.318740
O O10 0.820030 0.317927 0.297393
O O11 0.665668 0.372925 0.368372
O O12 0.500000 0.185108 0.260209
O O13 0.663088 0.124707 0.320433
O O14 0.000000 0.191340 0.717227
O O15 0.500000 0.852400 0.596119
O O16 0.366337 0.915011 0.496867
O O17 0.360362 0.908278 0.690350
O O18 0.298848 0.500000 0.869860
O O19 0.500000 0.073182 0.813199
O O20 0.654090 0.000000 0.823092
#
# Coordination Sequence:
#
# PCOD9357781 Si02
#       8
#     8   8   8   8   8   8   8   8
#     4   9  17  32  56  85 116 146 176 219 280 343
#     4  11  22  37  54  78 109 144 186 227 268 324
#     4  11  21  36  56  79 109 147 184 227 270 330
#     4  11  22  36  54  77 108 148 189 225 269 326
#     4  10  20  35  55  82 111 140 177 228 285 332
#     4  11  19  31  53  81 109 140 175 226 283 331
#     4  11  21  34  53  82 115 146 183 230 278 327
#     4  10  20  33  52  81 114 146 181 225 276 325
#
# _framework density 16.746856999999999
#
# number of rings (size 3 to 8) (size 9 to 14) (size 15 to 20)
#    0.000    1.500    5.000    1.500    0.000    5.000 
#    0.000    4.375    0.000    0.000    0.000    0.000 
#    0.000    4.000    0.000    0.000    0.000    0.000 
#
# Total GULP energy -178557.861583 kJ/mol
# GULP energy per Si atom -5579.933174 kJ/mol
# Density = 1.670874 g / cm^3
# Si number density = 16.746857 Si / 1000 Ang^3
#
#
#
# Elastic Constant Matrix: (Units=GPa)
#
#
# Indices 1 2 3 4 5 6 
#
# 1 116.5590 47.0339 40.4163 0.0000 0.0000 0.0000
# 2 47.0339 91.9270 31.4904 0.0000 0.0000 0.0000
# 3 40.4163 31.4904 77.2492 0.0000 0.0000 0.0000
# 4 0.0000 0.0000 0.0000 20.8687 0.0000 0.0000
# 5 0.0000 0.0000 0.0000 0.0000 15.1234 0.0000
# 6 0.0000 0.0000 0.0000 0.0000 0.0000 21.8676
#
#
#
# Elastic Compliance Matrix: (Units=1/GPa)
#
#
# Indices 1 2 3 4 5 6 
#
# 1 0.011961 -0.004621 -0.004374 0.000000 0.000000 0.000000
# 2 -0.004621 0.014429 -0.003464 0.000000 0.000000 0.000000
# 3 -0.004374 -0.003464 0.016646 0.000000 0.000000 0.000000
# 4 0.000000 0.000000 0.000000 0.047919 0.000000 0.000000
# 5 0.000000 0.000000 0.000000 0.000000 0.066123 0.000000
# 6 0.000000 0.000000 0.000000 0.000000 0.000000 0.045730
#
#
# Mechanical properties :
#
#
# Convention : Reuss Voigt Hill
#
# Bulk Modulus (GPa) = 55.19717 58.17960 56.68838
# Shear Modulus (GPa) = 21.38899 22.69157 22.04028
#
# Velocity S-wave (km/s) = 3.57766 3.68499 3.63172
# Velocity P-wave (km/s) = 7.07796 7.27472 7.17701
#
# Compressibility (1/GPa) = 0.01811687
#
# Stress axis : x y z
#
# Youngs Moduli (GPa) = 83.60650 69.30304 60.07553
#
# Poissons Ratio (x) = 0.32027 0.26277
# Poissons Ratio (y) = 0.38637 0.20812
# Poissons Ratio (z) = 0.36569 0.24008
#
# Static dielectric constant tensor:
#      x y z
#    x 1.587250 0.000000 0.000000 
#    y 0.000000 1.568510 0.000000 
#    z 0.000000 0.000000 1.553160 
# 
# From -- ./inp_files/14775.got.cif
#   From: 2010.05.17/outbox.cif.g08.bks.cpg/sg38_8_cif.got.tgz:14775.got - 2010.06.03 18:07:57.
