data_PCOD9357157
_publ_section_title
;
Structure prediction by ZEFSAII (Michael W. Deem and Ramdas Pophale) SiO2 
 PCOD9357157
Probable space group: A M M 2
;
_chemical_formula_sum "Si O2"
_cell_formula_units_Z 64
_cell_length_a 15.033780
_cell_length_b 10.799797
_cell_length_c 19.741253
_cell_angle_alpha 90.000000
_cell_angle_beta 90.000000
_cell_angle_gamma 90.000000
_cell_volume 3205.224821
_symmetry_space_group_name_H-M "A M M 2"
_symmetry_group_IT_number 38
_symmetry_cell_setting 'orthorhombic'
loop_
_space_group_symop_operation_xyz
x,y,z
-x,-y,z
-x,y,z
x,-y,z
x,1/2+y,1/2+z
-x,1/2-y,1/2+z
-x,1/2+y,1/2+z
x,1/2-y,1/2+z
loop_
_atom_site_type_symbol
_atom_site_label
_atom_site_fract_x
_atom_site_fract_y
_atom_site_fract_z
Si Si1 0.600366 0.643457 0.173950
Si Si2 0.707620 0.858344 0.099832
Si Si3 0.895057 0.367363 0.996626
Si Si4 0.898530 0.633246 0.420922
Si Si5 0.662644 0.647167 0.319019
Si Si6 0.099567 0.774050 0.130447
Si Si7 0.600903 0.350584 0.464944
Si Si8 0.853029 0.145391 0.768448
O O1 0.500000 0.657156 0.147214
O O2 0.630140 0.500000 0.161346
O O3 0.664225 0.748884 0.144500
O O4 0.598166 0.659048 0.255284
O O5 0.814008 0.853731 0.110956
O O6 0.671000 0.827657 0.024711
O O7 0.677868 0.000000 0.115558
O O8 0.853790 0.500000 0.981549
O O9 0.893492 0.337570 0.076146
O O10 0.000000 0.373425 0.977621
O O11 0.856133 0.251173 0.956286
O O12 0.854030 0.500000 0.434894
O O13 0.902702 0.649098 0.340272
O O14 0.000000 0.625774 0.446485
O O15 0.677248 0.500000 0.329360
O O16 0.630788 0.697244 0.390995
O O17 0.756234 0.694367 0.290331
O O18 0.108924 0.722822 0.206448
O O19 0.000000 0.828707 0.121669
O O20 0.500000 0.307580 0.480943
O O21 0.595805 0.500000 0.459538
O O22 0.848455 0.000000 0.748074
#
# Coordination Sequence:
#
# PCOD9357157 Si02
#       8
#     8   8   8   8   8   8   8   8
#     4  10  20  37  64  96 128 160 198 248 304 364
#     4  11  24  40  61  89 124 164 208 255 308 372
#     4   9  19  35  55  79 108 147 192 239 300 369
#     4   9  18  32  53  81 109 141 189 250 307 356
#     4   9  17  31  56  89 121 152 194 245 296 355
#     4  11  23  38  57  82 117 161 213 268 315 360
#     4   9  18  34  58  89 122 155 195 245 301 364
#     4  10  19  33  56  84 115 153 201 254 306 361
#
# _framework density 19.967397999999999
#
# number of rings (size 3 to 8) (size 9 to 14) (size 15 to 20)
#    0.000    2.250    1.250    1.500    1.750    4.750 
#    0.000    1.875    0.000    2.250    0.000    0.000 
#    0.000    0.000    0.000    0.000    0.000    0.000 
#
# Total GULP energy -178273.445553 kJ/mol
# GULP energy per Si atom -5571.045174 kJ/mol
# Density = 1.992195 g / cm^3
# Si number density = 19.967398 Si / 1000 Ang^3
#
#
#
# Elastic Constant Matrix: (Units=GPa)
#
#
# Indices 1 2 3 4 5 6 
#
# 1 114.6858 32.0377 34.0613 0.0000 0.0000 0.0000
# 2 32.0377 109.1611 53.4873 0.0000 0.0000 0.0000
# 3 34.0613 53.4873 111.0784 0.0000 0.0000 0.0000
# 4 0.0000 0.0000 0.0000 20.7829 0.0000 0.0000
# 5 0.0000 0.0000 0.0000 0.0000 22.2921 0.0000
# 6 0.0000 0.0000 0.0000 0.0000 0.0000 12.2388
#
#
#
# Elastic Compliance Matrix: (Units=1/GPa)
#
#
# Indices 1 2 3 4 5 6 
#
# 1 0.009871 -0.001850 -0.002136 0.000000 0.000000 0.000000
# 2 -0.001850 0.012337 -0.005373 0.000000 0.000000 0.000000
# 3 -0.002136 -0.005373 0.012245 0.000000 0.000000 0.000000
# 4 0.000000 0.000000 0.000000 0.048116 0.000000 0.000000
# 5 0.000000 0.000000 0.000000 0.000000 0.044859 0.000000
# 6 0.000000 0.000000 0.000000 0.000000 0.000000 0.081708
#
#
# Mechanical properties :
#
#
# Convention : Reuss Voigt Hill
#
# Bulk Modulus (GPa) = 63.55773 63.78865 63.67319
# Shear Modulus (GPa) = 21.45021 25.41868 23.43445
#
# Velocity S-wave (km/s) = 3.28115 3.57180 3.42955
# Velocity P-wave (km/s) = 6.80106 7.00186 6.90219
#
# Compressibility (1/GPa) = 0.01573373
#
# Stress axis : x y z
#
# Youngs Moduli (GPa) = 101.30983 81.06002 81.66748
#
# Poissons Ratio (x) = 0.15000 0.17442
# Poissons Ratio (y) = 0.18747 0.43880
# Poissons Ratio (z) = 0.21637 0.43553
#
# Static dielectric constant tensor:
#      x y z
#    x 1.800500 0.000000 0.000000 
#    y 0.000000 1.713610 0.000000 
#    z 0.000000 0.000000 1.711680 
# 
# From -- ./inp_files/18467.got.cif
#   From: 2010.05.17/outbox.cif.g08.bks.cpg/sg38_10_cif.got.tgz:18467.got - 2010.06.03 18:07:57.
