data_PCOD9357944
_publ_section_title
;
Structure prediction by ZEFSAII (Michael W. Deem and Ramdas Pophale) SiO2 
 PCOD9357944
Probable space group: A M M 2
;
_chemical_formula_sum "Si O2"
_cell_formula_units_Z 64
_cell_length_a 19.588371
_cell_length_b 7.523154
_cell_length_c 20.486988
_cell_angle_alpha 90.000000
_cell_angle_beta 90.000000
_cell_angle_gamma 90.000000
_cell_volume 3019.092268
_symmetry_space_group_name_H-M "A M M 2"
_symmetry_group_IT_number 38
_symmetry_cell_setting 'orthorhombic'
loop_
_space_group_symop_operation_xyz
x,y,z
-x,-y,z
-x,y,z
x,-y,z
x,1/2+y,1/2+z
-x,1/2-y,1/2+z
-x,1/2+y,1/2+z
x,1/2-y,1/2+z
loop_
_atom_site_type_symbol
_atom_site_label
_atom_site_fract_x
_atom_site_fract_y
_atom_site_fract_z
Si Si1 0.578921 0.716721 0.864030
Si Si2 0.421401 0.282809 0.011812
Si Si3 0.846903 0.214819 0.561174
Si Si4 0.317088 0.794917 0.257127
Si Si5 0.076220 0.716745 0.188603
Si Si6 0.301525 0.290607 0.105264
Si Si7 0.829377 0.715817 0.307400
Si Si8 0.078154 0.789172 0.926363
O O1 0.500000 0.765810 0.855091
O O2 0.582681 0.500000 0.863685
O O3 0.625064 0.783710 0.804565
O O4 0.599190 0.770470 0.937845
O O5 0.500000 0.226457 0.023349
O O6 0.422564 0.500000 0.012759
O O7 0.367187 0.220291 0.065785
O O8 0.896996 0.275256 0.618681
O O9 0.770560 0.281057 0.577723
O O10 0.880802 0.264207 0.493125
O O11 0.844525 0.000000 0.563624
O O12 0.306923 0.723612 0.183754
O O13 0.247206 0.780870 0.297991
O O14 0.334492 0.000000 0.246668
O O15 0.075283 0.500000 0.188909
O O16 0.129176 0.770892 0.243386
O O17 0.000000 0.777421 0.202672
O O18 0.300010 0.500000 0.090849
O O19 0.826002 0.500000 0.309299
O O20 0.873324 0.780360 0.368745
O O21 0.000000 0.718844 0.928342
O O22 0.071889 0.000000 0.914567
#
# Coordination Sequence:
#
# PCOD9357944 Si02
#       8
#     8   8   8   8   8   8   8   8
#     4   8  16  32  53  78 107 140 179 219 262 314
#     4   8  15  30  54  81 106 137 181 225 259 303
#     4  10  20  34  54  79 107 140 179 222 262 310
#     4  11  22  34  54  82 111 141 176 222 270 315
#     4   9  16  30  54  76  94 130 182 219 247 298
#     4  10  20  35  55  79 109 143 181 220 263 317
#     4  10  20  37  56  76 105 141 178 218 262 317
#     4  10  22  38  56  80 109 140 174 219 275 326
#
# _framework density 21.198423999999999
#
# number of rings (size 3 to 8) (size 9 to 14) (size 15 to 20)
#    0.000    2.500    1.250    1.875    1.750    3.750 
#    0.000    0.000    0.000    2.250    0.000    3.500 
#    0.000    0.000    0.000    0.000    0.000    0.000 
#
# Total GULP energy -178591.703761 kJ/mol
# GULP energy per Si atom -5580.990743 kJ/mol
# Density = 2.115018 g / cm^3
# Si number density = 21.198424 Si / 1000 Ang^3
#
#
#
# Elastic Constant Matrix: (Units=GPa)
#
#
# Indices 1 2 3 4 5 6 
#
# 1 118.2904 -7.5278 56.3756 0.0000 0.0000 0.0000
# 2 -7.5278 47.5228 -13.8804 0.0000 0.0000 0.0000
# 3 56.3756 -13.8804 124.7541 0.0000 0.0000 0.0000
# 4 0.0000 0.0000 0.0000 -0.6820 0.0000 0.0000
# 5 0.0000 0.0000 0.0000 0.0000 45.2636 0.0000
# 6 0.0000 0.0000 0.0000 0.0000 0.0000 4.7213
#
#
#
# Elastic Compliance Matrix: (Units=1/GPa)
#
#
# Indices 1 2 3 4 5 6 
#
# 1 0.010778 0.000294 -0.004838 0.000000 0.000000 0.000000
# 2 0.000294 0.021757 0.002288 0.000000 0.000000 0.000000
# 3 -0.004838 0.002288 0.010456 0.000000 0.000000 0.000000
# 4 0.000000 0.000000 0.000000 -1.466376 0.000000 0.000000
# 5 0.000000 0.000000 0.000000 0.000000 0.022093 0.000000
# 6 0.000000 0.000000 0.000000 0.000000 0.000000 0.211804
#
#
# Mechanical properties :
#
#
# Convention : Reuss Voigt Hill
#
# Bulk Modulus (GPa) = 25.98721 40.05578 33.02149
# Shear Modulus (GPa) = -4.26567 26.90060 11.31746
#
# Velocity S-wave (km/s) = -1.42008 3.56615 2.31310
# Velocity P-wave (km/s) = 3.09787 5.99110 4.76918
#
# Compressibility (1/GPa) = 0.03848047
#
# Stress axis : x y z
#
# Youngs Moduli (GPa) = 92.78032 45.96147 95.63429
#
# Poissons Ratio (x) = -0.01353 0.46266
# Poissons Ratio (y) = -0.02730 -0.21879
# Poissons Ratio (z) = 0.44886 -0.10515
#
# Static dielectric constant tensor:
#      x y z
#    x 1.740540 0.000000 0.000000 
#    y 0.000000 1.839440 0.000000 
#    z 0.000000 0.000000 1.736970 
# 
# From -- ./inp_files/18958.got.cif
#   From: 2010.05.17/outbox.cif.g08.bks.cpg/sg38_10_cif.got.tgz:18958.got - 2010.06.03 18:07:57.
