data_PCOD9357575
_publ_section_title
;
Structure prediction by ZEFSAII (Michael W. Deem and Ramdas Pophale) SiO2 
 PCOD9357575
Probable space group: A M M 2
;
_chemical_formula_sum "Si O2"
_cell_formula_units_Z 64
_cell_length_a 9.100785
_cell_length_b 14.555213
_cell_length_c 28.942896
_cell_angle_alpha 90.000000
_cell_angle_beta 90.000000
_cell_angle_gamma 90.000000
_cell_volume 3833.887844
_symmetry_space_group_name_H-M "A M M 2"
_symmetry_group_IT_number 38
_symmetry_cell_setting 'orthorhombic'
loop_
_space_group_symop_operation_xyz
x,y,z
-x,-y,z
-x,y,z
x,-y,z
x,1/2+y,1/2+z
-x,1/2-y,1/2+z
-x,1/2+y,1/2+z
x,1/2-y,1/2+z
loop_
_atom_site_type_symbol
_atom_site_label
_atom_site_fract_x
_atom_site_fract_y
_atom_site_fract_z
Si Si1 0.175327 0.105647 0.709430
Si Si2 0.323771 0.893078 0.349712
Si Si3 0.175998 0.779199 0.888562
Si Si4 0.174550 0.786406 0.159916
Si Si5 0.175753 0.393133 0.479114
Si Si6 0.328546 0.610238 0.742704
Si Si7 0.324594 0.892596 0.076924
Si Si8 0.328788 0.889862 0.806512
O O1 0.209121 0.179682 0.670104
O O2 0.260615 0.130263 0.756350
O O3 0.000000 0.110946 0.718672
O O4 0.210404 0.000000 0.697432
O O5 0.500000 0.884488 0.354705
O O6 0.241150 0.822311 0.382377
O O7 0.289609 0.869553 0.296004
O O8 0.285644 0.000000 0.357195
O O9 0.217292 0.827724 0.936738
O O10 0.241992 0.838819 0.846711
O O11 0.000000 0.777871 0.885407
O O12 0.228078 0.840081 0.205598
O O13 0.255923 0.829106 0.116194
O O14 0.000000 0.796539 0.154236
O O15 0.207241 0.500000 0.467130
O O16 0.258197 0.371553 0.526637
O O17 0.000000 0.385770 0.486398
O O18 0.500000 0.635704 0.735425
O O19 0.318733 0.500000 0.737070
O O20 0.500000 0.883740 0.076295
O O21 0.289093 0.000000 0.087115
O O22 0.500000 0.863264 0.807703
O O23 0.318184 0.000000 0.813052
#
# Coordination Sequence:
#
# PCOD9357575 Si02
#       8
#     8   8   8   8   8   8   8   8
#     4   9  19  35  51  69  98 134 170 208 248 289
#     4   9  19  35  52  71 100 138 175 212 252 290
#     4  11  21  32  51  77 103 133 168 206 251 301
#     4  11  21  31  49  75  99 128 165 202 244 294
#     4   9  19  36  55  75 101 130 159 196 244 296
#     4   9  18  32  48  68  98 134 168 202 242 287
#     4  10  21  36  54  76 101 128 157 194 244 298
#     4  10  20  32  48  73 104 137 172 208 247 295
#
# _framework density 16.693237
#
# number of rings (size 3 to 8) (size 9 to 14) (size 15 to 20)
#    0.000    2.250    0.000    3.750    0.000    8.500 
#    0.000    2.500    0.000    0.750    0.000    1.750 
#    0.000    0.000    0.000    0.000    0.000    0.000 
#
# Total GULP energy -178651.596055 kJ/mol
# GULP energy per Si atom -5582.862377 kJ/mol
# Density = 1.665524 g / cm^3
# Si number density = 16.693237 Si / 1000 Ang^3
#
#
#
# Elastic Constant Matrix: (Units=GPa)
#
#
# Indices 1 2 3 4 5 6 
#
# 1 54.1964 56.4187 64.6343 0.0000 0.0000 0.0000
# 2 56.4187 98.2072 93.5037 0.0000 0.0000 0.0000
# 3 64.6343 93.5037 124.3875 0.0000 0.0000 0.0000
# 4 0.0000 0.0000 0.0000 32.0890 0.0000 0.0000
# 5 0.0000 0.0000 0.0000 0.0000 15.6250 0.0000
# 6 0.0000 0.0000 0.0000 0.0000 0.0000 26.7629
#
#
#
# Elastic Compliance Matrix: (Units=1/GPa)
#
#
# Indices 1 2 3 4 5 6 
#
# 1 0.054307 -0.015235 -0.016767 0.000000 0.000000 0.000000
# 2 -0.015235 0.040091 -0.022221 0.000000 0.000000 0.000000
# 3 -0.016767 -0.022221 0.033455 0.000000 0.000000 0.000000
# 4 0.000000 0.000000 0.000000 0.031163 0.000000 0.000000
# 5 0.000000 0.000000 0.000000 0.000000 0.064000 0.000000
# 6 0.000000 0.000000 0.000000 0.000000 0.000000 0.037365
#
#
# Mechanical properties :
#
#
# Convention : Reuss Voigt Hill
#
# Bulk Modulus (GPa) = 51.52306 78.43382 64.97844
# Shear Modulus (GPa) = 13.32280 19.04434 16.18357
#
# Velocity S-wave (km/s) = 2.82812 3.38130 3.11701
# Velocity P-wave (km/s) = 6.44950 7.89504 7.20859
#
# Compressibility (1/GPa) = 0.01940878
#
# Stress axis : x y z
#
# Youngs Moduli (GPa) = 18.41390 24.94302 29.89063
#
# Poissons Ratio (x) = 0.38001 0.50116
# Poissons Ratio (y) = 0.28053 0.66419
# Poissons Ratio (z) = 0.30874 0.55425
#
# Static dielectric constant tensor:
#      x y z
#    x 1.555780 0.000000 0.000000 
#    y 0.000000 1.580240 0.000000 
#    z 0.000000 0.000000 1.526420 
# 
# From -- ./inp_files/22150.got.cif
#   From: 2010.05.17/outbox.cif.g08.bks.cpg/sg38_12_cif.got.tgz:22150.got - 2010.06.03 18:07:57.
