data_PCOD9357637
_publ_section_title
;
Structure prediction by ZEFSAII (Michael W. Deem and Ramdas Pophale) SiO2 
 PCOD9357637
Probable space group: A M M 2
;
_chemical_formula_sum "Si O2"
_cell_formula_units_Z 58
_cell_length_a 7.642778
_cell_length_b 26.838450
_cell_length_c 13.142515
_cell_angle_alpha 90.000000
_cell_angle_beta 90.000000
_cell_angle_gamma 90.000000
_cell_volume 2695.796820
_symmetry_space_group_name_H-M "A M M 2"
_symmetry_group_IT_number 38
_symmetry_cell_setting 'orthorhombic'
loop_
_space_group_symop_operation_xyz
x,y,z
-x,-y,z
-x,y,z
x,-y,z
x,1/2+y,1/2+z
-x,1/2-y,1/2+z
-x,1/2+y,1/2+z
x,1/2-y,1/2+z
loop_
_atom_site_type_symbol
_atom_site_label
_atom_site_fract_x
_atom_site_fract_y
_atom_site_fract_z
Si Si1 0.289691 0.945341 0.032120
Si Si2 0.709699 0.658516 0.040824
Si Si3 0.204730 0.888881 0.835601
Si Si4 0.297838 0.571274 0.766534
Si Si5 0.000000 0.500000 0.845127
Si Si6 0.798691 0.819481 0.316029
Si Si7 0.704892 0.055474 0.635851
Si Si8 0.209907 0.786963 0.747252
O O1 0.500000 0.944436 0.029696
O O2 0.241128 0.939066 0.149774
O O3 0.228338 0.000000 0.998115
O O4 0.226797 0.905534 0.951033
O O5 0.500000 0.655409 0.028079
O O6 0.775354 0.603030 0.073026
O O7 0.750129 0.695520 0.133352
O O8 0.790807 0.678623 0.937861
O O9 0.284100 0.927662 0.754201
O O10 0.275901 0.833485 0.814762
O O11 0.000000 0.888410 0.810445
O O12 0.500000 0.555032 0.781242
O O13 0.293861 0.630323 0.781204
O O14 0.156577 0.543215 0.835908
O O15 0.722325 0.767449 0.275942
O O16 0.000000 0.823205 0.281604
O O17 0.500000 0.052355 0.609969
O O18 0.781720 0.000000 0.619830
O O19 0.000000 0.784333 0.761288
#
# Coordination Sequence:
#
# PCOD9357637 Si02
#       8
#     8   8   8   8   2   8   8   8
#     4  10  21  36  54  81 120 163 201 253 310 364
#     4  10  21  38  61  88 118 155 200 253 312 372
#     4  10  20  32  54  84 115 153 203 253 307 371
#     4  11  24  42  64  93 128 165 212 258 306 374
#     4  12  22  44  68  90 124 174 206 256 318 366
#     4  11  23  42  65  90 120 162 207 252 311 374
#     4   9  18  35  54  77 113 155 196 244 304 367
#     4   9  21  41  61  84 118 159 202 255 312 371
#
# _framework density 21.514975
#
# number of rings (size 3 to 8) (size 9 to 14) (size 15 to 20)
#    0.000    1.931    1.379    1.862    0.966    5.517 
#    1.241    4.138    0.000    0.000    0.000    0.000 
#    0.000    0.000    0.000    0.000    0.000    0.000 
#
# Total GULP energy -161711.242494 kJ/mol
# GULP energy per Si atom -5576.249741 kJ/mol
# Density = 2.146601 g / cm^3
# Si number density = 21.514975 Si / 1000 Ang^3
#
#
#
# Elastic Constant Matrix: (Units=GPa)
#
#
# Indices 1 2 3 4 5 6 
#
# 1 61.8890 23.0036 -3.8450 0.0000 0.0000 0.0000
# 2 23.0036 184.4741 41.1941 0.0000 0.0000 0.0000
# 3 -3.8450 41.1941 43.7458 0.0000 0.0000 0.0000
# 4 0.0000 0.0000 0.0000 10.5670 0.0000 0.0000
# 5 0.0000 0.0000 0.0000 0.0000 18.7205 0.0000
# 6 0.0000 0.0000 0.0000 0.0000 0.0000 20.7121
#
#
#
# Elastic Compliance Matrix: (Units=1/GPa)
#
#
# Indices 1 2 3 4 5 6 
#
# 1 0.017641 -0.003224 0.004587 0.000000 0.000000 0.000000
# 2 -0.003224 0.007453 -0.007302 0.000000 0.000000 0.000000
# 3 0.004587 -0.007302 0.030139 0.000000 0.000000 0.000000
# 4 0.000000 0.000000 0.000000 0.094634 0.000000 0.000000
# 5 0.000000 0.000000 0.000000 0.000000 0.053417 0.000000
# 6 0.000000 0.000000 0.000000 0.000000 0.000000 0.048281
#
#
# Mechanical properties :
#
#
# Convention : Reuss Voigt Hill
#
# Bulk Modulus (GPa) = 23.06583 45.64602 34.35593
# Shear Modulus (GPa) = 17.99235 25.31701 21.65468
#
# Velocity S-wave (km/s) = 2.89497 3.43405 3.17597
# Velocity P-wave (km/s) = 4.68173 6.08158 5.42698
#
# Compressibility (1/GPa) = 0.04335417
#
# Stress axis : x y z
#
# Youngs Moduli (GPa) = 56.68531 134.16649 33.18007
#
# Poissons Ratio (x) = 0.43256 -0.15218
# Poissons Ratio (y) = 0.18275 0.24228
# Poissons Ratio (z) = -0.25999 0.97969
#
# Static dielectric constant tensor:
#      x y z
#    x 1.800110 0.000000 0.000000 
#    y 0.000000 1.799280 0.000000 
#    z 0.000000 0.000000 1.761830 
# 
# From -- ./inp_files/12660.got.cif
#   From: 2010.05.17/outbox.cif.g08.bks.cpg/sg38_7_cif.got.tgz:12660.got - 2010.06.03 18:07:57.
