data_PCOD9357759
_publ_section_title
;
Structure prediction by ZEFSAII (Michael W. Deem and Ramdas Pophale) SiO2 
 PCOD9357759
Probable space group: A M M 2
;
_chemical_formula_sum "Si O2"
_cell_formula_units_Z 40
_cell_length_a 7.787876
_cell_length_b 29.639225
_cell_length_c 9.734327
_cell_angle_alpha 90.000000
_cell_angle_beta 90.000000
_cell_angle_gamma 90.000000
_cell_volume 2246.941693
_symmetry_space_group_name_H-M "A M M 2"
_symmetry_group_IT_number 38
_symmetry_cell_setting 'orthorhombic'
loop_
_space_group_symop_operation_xyz
x,y,z
-x,-y,z
-x,y,z
x,-y,z
x,1/2+y,1/2+z
-x,1/2-y,1/2+z
-x,1/2+y,1/2+z
x,1/2-y,1/2+z
loop_
_atom_site_type_symbol
_atom_site_label
_atom_site_fract_x
_atom_site_fract_y
_atom_site_fract_z
Si Si1 0.797752 0.865167 0.240070
Si Si2 0.191696 0.135847 0.915657
Si Si3 0.500000 0.294457 0.735028
Si Si4 0.702948 0.949195 0.743128
Si Si5 0.207406 0.449626 0.925625
Si Si6 0.500000 0.796948 0.906222
O O1 0.668908 0.824128 0.269526
O O2 0.742517 0.909194 0.325439
O O3 0.000000 0.855508 0.269555
O O4 0.784198 0.874536 0.077230
O O5 0.211310 0.090197 0.829602
O O6 0.334523 0.172141 0.875419
O O7 0.000000 0.154263 0.897002
O O8 0.500000 0.248216 0.818067
O O9 0.500000 0.286882 0.570016
O O10 0.500000 0.947887 0.771747
O O11 0.730542 0.941779 0.580794
O O12 0.766721 0.000000 0.774062
O O13 0.265470 0.500000 0.883291
O O14 0.000000 0.450111 0.928155
#
# Coordination Sequence:
#
# PCOD9357759 Si02
#       6
#     8   8   4   8   8   4
#     4   9  20  37  57  82 109 141 182 222 266 321
#     4  10  20  37  59  80 109 144 178 222 269 317
#     4  10  22  38  59  78 109 141 172 225 277 320
#     4  10  20  33  51  80 115 147 183 222 260 313
#     4   9  18  33  52  78 112 147 184 223 263 312
#     4  10  22  40  55  82 107 135 180 223 271 330
#
# _framework density 17.801974999999999
#
# number of rings (size 3 to 8) (size 9 to 14) (size 15 to 20)
#    0.000    2.400    1.000    0.600    1.400    4.400 
#    0.000    2.000    0.000    0.000    0.000    0.000 
#    0.000    0.000    0.000    0.000    0.000    0.000 
#
# Total GULP energy -111578.470784 kJ/mol
# GULP energy per Si atom -5578.923539 kJ/mol
# Density = 1.776146 g / cm^3
# Si number density = 17.801975 Si / 1000 Ang^3
#
#
#
# Elastic Constant Matrix: (Units=GPa)
#
#
# Indices 1 2 3 4 5 6 
#
# 1 94.2127 75.7608 45.6490 0.0000 0.0000 0.0000
# 2 75.7608 160.1006 80.7337 0.0000 0.0000 0.0000
# 3 45.6490 80.7337 50.1800 0.0000 0.0000 0.0000
# 4 0.0000 0.0000 0.0000 40.7732 0.0000 0.0000
# 5 0.0000 0.0000 0.0000 0.0000 22.4891 0.0000
# 6 0.0000 0.0000 0.0000 0.0000 0.0000 4647.0961
#
#
#
# Elastic Compliance Matrix: (Units=1/GPa)
#
#
# Indices 1 2 3 4 5 6 
#
# 1 0.019045 -0.001461 -0.014975 0.000000 0.000000 0.000000
# 2 -0.001461 0.033214 -0.052109 0.000000 0.000000 0.000000
# 3 -0.014975 -0.052109 0.117388 0.000000 0.000000 0.000000
# 4 0.000000 0.000000 0.000000 0.024526 0.000000 0.000000
# 5 0.000000 0.000000 0.000000 0.000000 0.044466 0.000000
# 6 0.000000 0.000000 0.000000 0.000000 0.000000 0.000215
#
#
# Mechanical properties :
#
#
# Convention : Reuss Voigt Hill
#
# Bulk Modulus (GPa) = 30.71455 78.75335 54.73395
# Shear Modulus (GPa) = 12.92673 948.89499 480.91086
#
# Velocity S-wave (km/s) = 2.69762 23.11244 16.45391
# Velocity P-wave (km/s) = 5.19556 27.50602 19.79362
#
# Compressibility (1/GPa) = 0.03255786
#
# Stress axis : x y z
#
# Youngs Moduli (GPa) = 52.50789 30.10772 8.51876
#
# Poissons Ratio (x) = 0.04398 0.12757
# Poissons Ratio (y) = 0.07670 0.44390
# Poissons Ratio (z) = 0.78631 1.56888
#
# Static dielectric constant tensor:
#      x y z
#    x 1.633950 0.000000 0.000000 
#    y 0.000000 1.576330 0.000000 
#    z 0.000000 0.000000 1.580190 
# 
# From -- ./inp_files/3517.got.cif
#   From: 2010.05.17/outbox.cif.g08.bks.cpg/sg38_2_cif.got.tgz:3517.got - 2010.06.03 18:07:57.
