data_PCOD9357382
_publ_section_title
;
Structure prediction by ZEFSAII (Michael W. Deem and Ramdas Pophale) SiO2 
 PCOD9357382
Probable space group: A M M 2
;
_chemical_formula_sum "Si O2"
_cell_formula_units_Z 64
_cell_length_a 18.459050
_cell_length_b 19.057172
_cell_length_c 9.520711
_cell_angle_alpha 90.000000
_cell_angle_beta 90.000000
_cell_angle_gamma 90.000000
_cell_volume 3349.169922
_symmetry_space_group_name_H-M "A M M 2"
_symmetry_group_IT_number 38
_symmetry_cell_setting 'orthorhombic'
loop_
_space_group_symop_operation_xyz
x,y,z
-x,-y,z
-x,y,z
x,-y,z
x,1/2+y,1/2+z
-x,1/2-y,1/2+z
-x,1/2+y,1/2+z
x,1/2-y,1/2+z
loop_
_atom_site_type_symbol
_atom_site_label
_atom_site_fract_x
_atom_site_fract_y
_atom_site_fract_z
Si Si1 0.083399 0.921033 0.446090
Si Si2 0.304456 0.419758 0.776343
Si Si3 0.584158 0.163450 0.652286
Si Si4 0.086789 0.698097 0.476218
Si Si5 0.276127 0.419473 0.109311
Si Si6 0.583972 0.300316 0.826567
Si Si7 0.142471 0.678423 0.164939
Si Si8 0.151510 0.583384 0.662294
O O1 0.092861 0.879103 0.587892
O O2 0.123528 0.888668 0.312909
O O3 0.000000 0.923755 0.406898
O O4 0.111344 0.000000 0.466146
O O5 0.330613 0.500000 0.757217
O O6 0.365197 0.360841 0.764607
O O7 0.237881 0.407097 0.670538
O O8 0.275815 0.416299 0.938349
O O9 0.500000 0.141599 0.670331
O O10 0.643117 0.101967 0.657079
O O11 0.601711 0.224408 0.763444
O O12 0.590624 0.196060 0.495284
O O13 0.112531 0.698392 0.316206
O O14 0.133192 0.754304 0.565072
O O15 0.108989 0.623557 0.542385
O O16 0.000000 0.711168 0.487973
O O17 0.259142 0.500000 0.150409
O O18 0.220251 0.360556 0.164791
O O19 0.500000 0.314205 0.791052
O O20 0.137043 0.500000 0.657357
#
# Coordination Sequence:
#
# PCOD9357382 Si02
#       8
#     8   8   8   8   8   8   8   8
#     4  10  19  35  61  85 111 150 190 231 288 353
#     4   9  18  35  59  86 119 155 196 244 288 344
#     4   9  19  35  59  88 123 162 199 242 288 343
#     4  12  27  43  61  85 116 152 195 251 305 365
#     4  10  21  38  62  91 121 155 201 247 294 352
#     4   9  18  33  56  86 119 156 198 239 287 344
#     4  12  25  41  61  85 117 153 193 248 301 356
#     4  10  21  39  61  86 116 153 195 240 294 353
#
# _framework density 19.109211999999999
#
# number of rings (size 3 to 8) (size 9 to 14) (size 15 to 20)
#    0.000    1.875    1.250    2.625    1.750    3.250 
#    0.000    2.500    0.000    0.000    0.000    3.500 
#    0.000    0.000    0.000    0.000    0.000    0.000 
#
# Total GULP energy -178541.249347 kJ/mol
# GULP energy per Si atom -5579.414042 kJ/mol
# Density = 1.906572 g / cm^3
# Si number density = 19.109212 Si / 1000 Ang^3
#
#
#
# Elastic Constant Matrix: (Units=GPa)
#
#
# Indices 1 2 3 4 5 6 
#
# 1 67.5358 34.9682 12.2594 0.0000 0.0000 0.0000
# 2 34.9682 72.0076 32.5573 0.0000 0.0000 0.0000
# 3 12.2594 32.5573 69.4421 0.0000 0.0000 0.0000
# 4 0.0000 0.0000 0.0000 26.9627 0.0000 0.0000
# 5 0.0000 0.0000 0.0000 0.0000 21.6029 0.0000
# 6 0.0000 0.0000 0.0000 0.0000 0.0000 30.5135
#
#
#
# Elastic Compliance Matrix: (Units=1/GPa)
#
#
# Indices 1 2 3 4 5 6 
#
# 1 0.019871 -0.010233 0.001290 0.000000 0.000000 0.000000
# 2 -0.010233 0.022893 -0.008927 0.000000 0.000000 0.000000
# 3 0.001290 -0.008927 0.018358 0.000000 0.000000 0.000000
# 4 0.000000 0.000000 0.000000 0.037088 0.000000 0.000000
# 5 0.000000 0.000000 0.000000 0.000000 0.046290 0.000000
# 6 0.000000 0.000000 0.000000 0.000000 0.000000 0.032772
#
#
# Mechanical properties :
#
#
# Convention : Reuss Voigt Hill
#
# Bulk Modulus (GPa) = 39.39784 40.95059 40.17421
# Shear Modulus (GPa) = 22.57610 24.42918 23.50264
#
# Velocity S-wave (km/s) = 3.44092 3.57935 3.51081
# Velocity P-wave (km/s) = 6.03726 6.20956 6.12401
#
# Compressibility (1/GPa) = 0.02538210
#
# Stress axis : x y z
#
# Youngs Moduli (GPa) = 50.32412 43.68201 54.47229
#
# Poissons Ratio (x) = 0.44699 -0.07024
# Poissons Ratio (y) = 0.51496 0.48625
# Poissons Ratio (z) = -0.06489 0.38993
#
# Static dielectric constant tensor:
#      x y z
#    x 1.685080 0.000000 0.000000 
#    y 0.000000 1.700780 0.000000 
#    z 0.000000 0.000000 1.654550 
# 
# From -- ./inp_files/6501.got.cif
#   From: 2010.05.17/outbox.cif.g08.bks.cpg/sg38_4_cif.got.tgz:6501.got - 2010.06.03 18:07:57.
