data_PCOD9357334
_publ_section_title
;
Structure prediction by ZEFSAII (Michael W. Deem and Ramdas Pophale) SiO2 
 PCOD9357334
Probable space group: A M M 2
;
_chemical_formula_sum "Si O2"
_cell_formula_units_Z 52
_cell_length_a 12.324054
_cell_length_b 27.419582
_cell_length_c 8.659749
_cell_angle_alpha 90.000000
_cell_angle_beta 90.000000
_cell_angle_gamma 90.000000
_cell_volume 2926.305926
_symmetry_space_group_name_H-M "A M M 2"
_symmetry_group_IT_number 38
_symmetry_cell_setting 'orthorhombic'
loop_
_space_group_symop_operation_xyz
x,y,z
-x,-y,z
-x,y,z
x,-y,z
x,1/2+y,1/2+z
-x,1/2-y,1/2+z
-x,1/2+y,1/2+z
x,1/2-y,1/2+z
loop_
_atom_site_type_symbol
_atom_site_label
_atom_site_fract_x
_atom_site_fract_y
_atom_site_fract_z
Si Si1 0.258315 0.417855 0.484330
Si Si2 0.871146 0.692958 0.011174
Si Si3 0.740152 0.251543 0.263024
Si Si4 0.625793 0.000000 0.789040
Si Si5 0.184716 0.000000 0.545942
Si Si6 0.371177 0.317166 0.520064
Si Si7 0.133419 0.000000 0.182718
Si Si8 0.877589 0.601141 0.184949
O O1 0.341713 0.453703 0.394986
O O2 0.316970 0.370105 0.552252
O O3 0.185656 0.452447 0.596380
O O4 0.184447 0.398040 0.345099
O O5 0.832908 0.723931 0.158732
O O6 0.837277 0.638178 0.054931
O O7 0.000000 0.696188 0.982951
O O8 0.801641 0.713801 0.872464
O O9 0.679694 0.292340 0.365881
O O10 0.658952 0.221233 0.154519
O O11 0.697655 0.000000 0.631915
O O12 0.500000 0.000000 0.752338
O O13 0.173045 0.000000 0.361127
O O14 0.128081 0.047573 0.614932
O O15 0.500000 0.322552 0.504384
O O16 0.000000 0.000000 0.174564
O O17 0.000000 0.616142 0.217415
#
# Coordination Sequence:
#
# PCOD9357334 Si02
#       8
#     8   8   8   4   4   8   4   8
#     4  10  21  37  60  87 117 148 195 236 282 350
#     4  10  20  36  58  85 117 149 183 231 290 347
#     4  10  22  38  58  84 118 149 198 238 285 350
#     4   9  19  39  62  82 112 153 193 237 284 334
#     4  10  22  36  58  84 118 148 190 234 280 346
#     4  11  22  40  61  84 115 156 199 247 293 332
#     4  11  23  39  60  92 124 151 183 235 298 356
#     4  10  19  35  57  83 113 152 186 223 281 347
#
# _framework density 17.769843000000002
#
# number of rings (size 3 to 8) (size 9 to 14) (size 15 to 20)
#    0.000    1.846    1.538    3.000    2.154    0.000 
#    0.000    3.846    0.000    0.000    0.000    0.000 
#    0.000    0.000    0.000    0.000    0.000    0.000 
#
# Total GULP energy -144938.084949 kJ/mol
# GULP energy per Si atom -5574.541729 kJ/mol
# Density = 1.772940 g / cm^3
# Si number density = 17.769843 Si / 1000 Ang^3
#
#
#
# Elastic Constant Matrix: (Units=GPa)
#
#
# Indices 1 2 3 4 5 6 
#
# 1 79.5017 12.9389 27.5175 0.0000 0.0000 0.0000
# 2 12.9389 87.6694 13.1244 0.0000 0.0000 0.0000
# 3 27.5175 13.1244 69.3836 0.0000 0.0000 0.0000
# 4 0.0000 0.0000 0.0000 23.4572 0.0000 0.0000
# 5 0.0000 0.0000 0.0000 0.0000 5.9709 0.0000
# 6 0.0000 0.0000 0.0000 0.0000 0.0000 11.4499
#
#
#
# Elastic Compliance Matrix: (Units=1/GPa)
#
#
# Indices 1 2 3 4 5 6 
#
# 1 0.014731 -0.001337 -0.005589 0.000000 0.000000 0.000000
# 2 -0.001337 0.011860 -0.001713 0.000000 0.000000 0.000000
# 3 -0.005589 -0.001713 0.016953 0.000000 0.000000 0.000000
# 4 0.000000 0.000000 0.000000 0.042631 0.000000 0.000000
# 5 0.000000 0.000000 0.000000 0.000000 0.167480 0.000000
# 6 0.000000 0.000000 0.000000 0.000000 0.000000 0.087337
#
#
# Mechanical properties :
#
#
# Convention : Reuss Voigt Hill
#
# Bulk Modulus (GPa) = 38.07342 38.19071 38.13207
# Shear Modulus (GPa) = 13.62301 20.37386 16.99843
#
# Velocity S-wave (km/s) = 2.77182 3.38974 3.09623
# Velocity P-wave (km/s) = 5.63173 6.07116 5.85557
#
# Compressibility (1/GPa) = 0.02626504
#
# Stress axis : x y z
#
# Youngs Moduli (GPa) = 67.88619 84.31479 58.98549
#
# Poissons Ratio (x) = 0.11276 0.32968
# Poissons Ratio (y) = 0.09079 0.10105
# Poissons Ratio (z) = 0.37943 0.14444
#
# Static dielectric constant tensor:
#      x y z
#    x 1.592840 0.000000 0.000000 
#    y 0.000000 1.631970 0.000000 
#    z 0.000000 0.000000 1.596550 
# 
# From -- ./inp_files/4802.got.cif
#   From: 2010.05.17/outbox.cif.g08.bks.cpg/sg38_3_cif.got.tgz:4802.got - 2010.06.03 18:07:57.
