data_PCOD9357125
_publ_section_title
;
Structure prediction by ZEFSAII (Michael W. Deem and Ramdas Pophale) SiO2 
 PCOD9357125
Probable space group: A M M 2
;
_chemical_formula_sum "Si O2"
_cell_formula_units_Z 52
_cell_length_a 17.622294
_cell_length_b 11.190518
_cell_length_c 13.686467
_cell_angle_alpha 90.000000
_cell_angle_beta 90.000000
_cell_angle_gamma 90.000000
_cell_volume 2699.006853
_symmetry_space_group_name_H-M "A M M 2"
_symmetry_group_IT_number 38
_symmetry_cell_setting 'orthorhombic'
loop_
_space_group_symop_operation_xyz
x,y,z
-x,-y,z
-x,y,z
x,-y,z
x,1/2+y,1/2+z
-x,1/2-y,1/2+z
-x,1/2+y,1/2+z
x,1/2-y,1/2+z
loop_
_atom_site_type_symbol
_atom_site_label
_atom_site_fract_x
_atom_site_fract_y
_atom_site_fract_z
Si Si1 0.720751 0.765246 0.724720
Si Si2 0.089353 0.239097 0.935845
Si Si3 0.308595 0.362003 0.435036
Si Si4 0.093049 0.000000 0.454765
Si Si5 0.091481 0.000000 0.823869
Si Si6 0.799030 0.000000 0.643443
Si Si7 0.411582 0.643477 0.605993
Si Si8 0.825419 0.635172 0.596567
O O1 0.710519 0.787901 0.839185
O O2 0.747121 0.884605 0.666681
O O3 0.643127 0.713416 0.679749
O O4 0.788519 0.674595 0.697528
O O5 0.000000 0.228751 0.929142
O O6 0.117566 0.120908 0.879381
O O7 0.107846 0.373103 0.902351
O O8 0.113408 0.222657 0.048990
O O9 0.314908 0.500000 0.403247
O O10 0.383583 0.327475 0.495758
O O11 0.243591 0.356685 0.518019
O O12 0.155270 0.000000 0.542015
O O13 0.000000 0.000000 0.480029
O O14 0.133600 0.000000 0.722252
O O15 0.000000 0.000000 0.815716
O O16 0.500000 0.668972 0.619896
O O17 0.399275 0.500000 0.617665
O O18 0.854085 0.500000 0.599475
#
# Coordination Sequence:
#
# PCOD9357125 Si02
#       8
#     8   8   8   4   4   4   8   8
#     4  11  20  32  57  89 114 142 189 239 287 345
#     4  10  19  33  55  81 108 149 200 247 292 345
#     4   9  18  33  56  84 108 142 188 233 279 342
#     4  10  21  36  54  80 117 157 196 241 303 354
#     4  10  21  36  60  84 109 154 212 252 288 348
#     4  12  21  34  55  84 118 151 186 241 300 346
#     4   9  20  40  63  83 111 149 188 233 290 356
#     4  10  19  34  56  79 114 151 195 243 286 344
#
# _framework density 19.266345999999999
#
# number of rings (size 3 to 8) (size 9 to 14) (size 15 to 20)
#    0.000    2.000    3.077    2.538    0.000    0.615 
#    0.000    0.385   27.077    0.000    0.000    5.385 
#    0.000    0.000    0.000    0.000    0.000    0.000 
#
# Total GULP energy -144942.736647 kJ/mol
# GULP energy per Si atom -5574.720640 kJ/mol
# Density = 1.922250 g / cm^3
# Si number density = 19.266346 Si / 1000 Ang^3
#
#
#
# Elastic Constant Matrix: (Units=GPa)
#
#
# Indices 1 2 3 4 5 6 
#
# 1 46.2581 31.7318 20.0689 0.0000 0.0000 0.0000
# 2 31.7318 106.3435 21.6013 0.0000 0.0000 0.0000
# 3 20.0689 21.6013 74.6365 0.0000 0.0000 0.0000
# 4 0.0000 0.0000 0.0000 26.6114 0.0000 0.0000
# 5 0.0000 0.0000 0.0000 0.0000 23.5211 0.0000
# 6 0.0000 0.0000 0.0000 0.0000 0.0000 25.2547
#
#
#
# Elastic Compliance Matrix: (Units=1/GPa)
#
#
# Indices 1 2 3 4 5 6 
#
# 1 0.029285 -0.007585 -0.005679 0.000000 0.000000 0.000000
# 2 -0.007585 0.011955 -0.001421 0.000000 0.000000 0.000000
# 3 -0.005679 -0.001421 0.015336 0.000000 0.000000 0.000000
# 4 0.000000 0.000000 0.000000 0.037578 0.000000 0.000000
# 5 0.000000 0.000000 0.000000 0.000000 0.042515 0.000000
# 6 0.000000 0.000000 0.000000 0.000000 0.000000 0.039597
#
#
# Mechanical properties :
#
#
# Convention : Reuss Voigt Hill
#
# Bulk Modulus (GPa) = 36.75464 41.56021 39.15742
# Shear Modulus (GPa) = 23.28791 25.33318 24.31054
#
# Velocity S-wave (km/s) = 3.48046 3.63008 3.55606
# Velocity P-wave (km/s) = 5.93885 6.26005 6.10156
#
# Compressibility (1/GPa) = 0.02720745
#
# Stress axis : x y z
#
# Youngs Moduli (GPa) = 34.14772 83.64536 65.20395
#
# Poissons Ratio (x) = 0.63442 0.37030
# Poissons Ratio (y) = 0.25900 0.09263
# Poissons Ratio (z) = 0.19393 0.11883
#
# Static dielectric constant tensor:
#      x y z
#    x 1.681780 0.000000 0.000000 
#    y 0.000000 1.734600 0.000000 
#    z 0.000000 0.000000 1.680250 
# 
# From -- ./inp_files/15203.got.cif
#   From: 2010.05.17/outbox.cif.g08.bks.cpg/sg38_8_cif.got.tgz:15203.got - 2010.06.03 18:07:57.
