data_PCOD9357038
_publ_section_title
;
Structure prediction by ZEFSAII (Michael W. Deem and Ramdas Pophale) SiO2 
 PCOD9357038
Probable space group: A M M 2
;
_chemical_formula_sum "Si O2"
_cell_formula_units_Z 40
_cell_length_a 17.495749
_cell_length_b 7.515289
_cell_length_c 14.920397
_cell_angle_alpha 90.000000
_cell_angle_beta 90.000000
_cell_angle_gamma 90.000000
_cell_volume 1961.817501
_symmetry_space_group_name_H-M "A M M 2"
_symmetry_group_IT_number 38
_symmetry_cell_setting 'orthorhombic'
loop_
_space_group_symop_operation_xyz
x,y,z
-x,-y,z
-x,y,z
x,-y,z
x,1/2+y,1/2+z
-x,1/2-y,1/2+z
-x,1/2+y,1/2+z
x,1/2-y,1/2+z
loop_
_atom_site_type_symbol
_atom_site_label
_atom_site_fract_x
_atom_site_fract_y
_atom_site_fract_z
Si Si1 0.000000 0.218560 0.815780
Si Si2 0.877264 0.288746 0.459755
Si Si3 0.584739 0.213000 0.824435
Si Si4 0.415180 0.712672 0.615407
Si Si5 0.000000 0.288290 0.110032
Si Si6 0.704441 0.718433 0.470361
O O1 0.073051 0.277441 0.875042
O O2 0.000000 0.278918 0.712521
O O3 0.000000 0.000000 0.815372
O O4 0.870989 0.500000 0.446223
O O5 0.791490 0.217903 0.467727
O O6 0.926805 0.263091 0.549885
O O7 0.500000 0.281084 0.850011
O O8 0.596281 0.251628 0.720076
O O9 0.654111 0.276214 0.885272
O O10 0.582201 0.000000 0.835625
O O11 0.500000 0.781620 0.590403
O O12 0.417996 0.500000 0.602662
O O13 0.345288 0.777856 0.555674
O O14 0.000000 0.500000 0.115820
O O15 0.706995 0.500000 0.471556
#
# Coordination Sequence:
#
# PCOD9357038 Si02
#       6
#     4   8   8   8   4   8
#     4   8  16  31  50  67  88 119 149 182 230 284
#     4   9  18  34  52  71  94 123 160 193 227 281
#     4   9  17  30  48  70  95 126 165 201 231 271
#     4   9  17  30  47  68  96 129 162 196 236 278
#     4  10  19  33  52  73  96 121 149 188 240 286
#     4   9  17  30  50  71  93 125 162 197 232 275
#
# _framework density 20.389256
#
# number of rings (size 3 to 8) (size 9 to 14) (size 15 to 20)
#    0.000    3.000    0.000    1.500    0.000    4.000 
#    0.000    9.000    0.000    4.800    0.000    0.000 
#    0.000    0.000    0.000    0.000    0.000    0.000 
#
# Total GULP energy -111548.758767 kJ/mol
# GULP energy per Si atom -5577.437938 kJ/mol
# Density = 2.034285 g / cm^3
# Si number density = 20.389256 Si / 1000 Ang^3
#
#
#
# Elastic Constant Matrix: (Units=GPa)
#
#
# Indices 1 2 3 4 5 6 
#
# 1 247.5138 6.9222 128.4535 0.0000 0.0000 0.0000
# 2 6.9222 49.5269 -6.7392 0.0000 0.0000 0.0000
# 3 128.4535 -6.7392 158.6314 0.0000 0.0000 0.0000
# 4 0.0000 0.0000 0.0000 20.4883 0.0000 0.0000
# 5 0.0000 0.0000 0.0000 0.0000 16.1888 0.0000
# 6 0.0000 0.0000 0.0000 0.0000 0.0000 4.6505
#
#
#
# Elastic Compliance Matrix: (Units=1/GPa)
#
#
# Indices 1 2 3 4 5 6 
#
# 1 0.007123 -0.001791 -0.005844 0.000000 0.000000 0.000000
# 2 -0.001791 0.020759 0.002332 0.000000 0.000000 0.000000
# 3 -0.005844 0.002332 0.011135 0.000000 0.000000 0.000000
# 4 0.000000 0.000000 0.000000 0.048808 0.000000 0.000000
# 5 0.000000 0.000000 0.000000 0.000000 0.061771 0.000000
# 6 0.000000 0.000000 0.000000 0.000000 0.000000 0.215031
#
#
# Mechanical properties :
#
#
# Convention : Reuss Voigt Hill
#
# Bulk Modulus (GPa) = 35.19722 79.21614 57.20668
# Shear Modulus (GPa) = 12.99698 30.06788 21.53243
#
# Velocity S-wave (km/s) = 2.52750 3.84434 3.25324
# Velocity P-wave (km/s) = 5.08112 7.65777 6.49843
#
# Compressibility (1/GPa) = 0.02841134
#
# Stress axis : x y z
#
# Youngs Moduli (GPa) = 140.38487 48.17265 89.80347
#
# Poissons Ratio (x) = 0.08627 0.52483
# Poissons Ratio (y) = 0.25141 -0.20943
# Poissons Ratio (z) = 0.82044 -0.11234
#
# Static dielectric constant tensor:
#      x y z
#    x 1.703300 0.000000 0.000000 
#    y 0.000000 1.764210 0.000000 
#    z 0.000000 0.000000 1.699970 
# 
# From -- ./inp_files/14301.got.cif
#   From: 2010.05.17/outbox.cif.g08.bks.cpg/sg38_8_cif.got.tgz:14301.got - 2010.06.03 18:07:57.
