data_PCOD9357603
_publ_section_title
;
Structure prediction by ZEFSAII (Michael W. Deem and Ramdas Pophale) SiO2 
 PCOD9357603
Probable space group: A M M 2
;
_chemical_formula_sum "Si O2"
_cell_formula_units_Z 56
_cell_length_a 9.250453
_cell_length_b 19.901447
_cell_length_c 15.426197
_cell_angle_alpha 90.000000
_cell_angle_beta 90.000000
_cell_angle_gamma 90.000000
_cell_volume 2839.922761
_symmetry_space_group_name_H-M "A M M 2"
_symmetry_group_IT_number 38
_symmetry_cell_setting 'orthorhombic'
loop_
_space_group_symop_operation_xyz
x,y,z
-x,-y,z
-x,y,z
x,-y,z
x,1/2+y,1/2+z
-x,1/2-y,1/2+z
-x,1/2+y,1/2+z
x,1/2-y,1/2+z
loop_
_atom_site_type_symbol
_atom_site_label
_atom_site_fract_x
_atom_site_fract_y
_atom_site_fract_z
Si Si1 0.173723 0.286961 0.559150
Si Si2 0.329908 0.422447 0.508911
Si Si3 0.337348 0.580659 0.991988
Si Si4 0.339893 0.603731 0.304369
Si Si5 0.843415 0.922741 0.649140
Si Si6 0.665740 0.755157 0.234995
Si Si7 0.171388 0.688710 0.896821
O O1 0.235521 0.362670 0.549214
O O2 0.247236 0.256162 0.645000
O O3 0.210184 0.243117 0.472653
O O4 0.000000 0.287382 0.567144
O O5 0.500000 0.413957 0.531964
O O6 0.288975 0.500000 0.529094
O O7 0.320612 0.411935 0.404926
O O8 0.500000 0.604975 0.975405
O O9 0.338067 0.500000 0.983585
O O10 0.285431 0.601885 0.088196
O O11 0.222577 0.616626 0.931223
O O12 0.500000 0.577755 0.278905
O O13 0.209647 0.576675 0.247014
O O14 0.338480 0.681996 0.279711
O O15 0.000000 0.888885 0.637298
O O16 0.859339 0.000000 0.622391
O O17 0.500000 0.776690 0.220165
O O18 0.747275 0.798545 0.307156
O O19 0.000000 0.692505 0.884813
#
# Coordination Sequence:
#
# PCOD9357603 Si02
#       7
#     8   8   8   8   8   8   8
#     4  11  24  41  62  91 128 167 208 258 314 376
#     4  10  21  39  63  90 123 164 212 264 316 375
#     4  10  21  37  58  84 116 156 200 247 301 363
#     4  10  20  35  57  86 117 154 198 250 309 369
#     4  10  20  32  49  78 116 155 193 236 291 355
#     4  11  23  39  63  90 119 158 206 257 307 368
#     4  11  23  40  63  91 123 159 199 252 311 369
#
# _framework density 19.718844000000001
#
# number of rings (size 3 to 8) (size 9 to 14) (size 15 to 20)
#    0.000    1.571    1.429    3.429    0.000    8.286 
#    0.000    0.714    0.000    4.286    0.000    0.000 
#    0.000    0.000    0.000    0.000    0.000    0.000 
#
# Total GULP energy -156247.677648 kJ/mol
# GULP energy per Si atom -5580.274202 kJ/mol
# Density = 1.967396 g / cm^3
# Si number density = 19.718844 Si / 1000 Ang^3
#
#
#
# Elastic Constant Matrix: (Units=GPa)
#
#
# Indices 1 2 3 4 5 6 
#
# 1 81.7640 23.1204 28.3137 0.0000 0.0000 0.0000
# 2 23.1204 77.4512 9.2575 0.0000 0.0000 0.0000
# 3 28.3137 9.2575 59.9694 0.0000 0.0000 0.0000
# 4 0.0000 0.0000 0.0000 26.7474 0.0000 0.0000
# 5 0.0000 0.0000 0.0000 0.0000 27.8907 0.0000
# 6 0.0000 0.0000 0.0000 0.0000 0.0000 26.9744
#
#
#
# Elastic Compliance Matrix: (Units=1/GPa)
#
#
# Indices 1 2 3 4 5 6 
#
# 1 0.015681 -0.003867 -0.006806 0.000000 0.000000 0.000000
# 2 -0.003867 0.014108 -0.000352 0.000000 0.000000 0.000000
# 3 -0.006806 -0.000352 0.019943 0.000000 0.000000 0.000000
# 4 0.000000 0.000000 0.000000 0.037387 0.000000 0.000000
# 5 0.000000 0.000000 0.000000 0.000000 0.035854 0.000000
# 6 0.000000 0.000000 0.000000 0.000000 0.000000 0.037072
#
#
# Mechanical properties :
#
#
# Convention : Reuss Voigt Hill
#
# Bulk Modulus (GPa) = 36.12685 37.84087 36.98386
# Shear Modulus (GPa) = 26.13375 26.88870 26.51122
#
# Velocity S-wave (km/s) = 3.64444 3.69671 3.67067
# Velocity P-wave (km/s) = 6.00583 6.11986 6.06312
#
# Compressibility (1/GPa) = 0.02768024
#
# Stress axis : x y z
#
# Youngs Moduli (GPa) = 63.77191 70.88230 50.14275
#
# Poissons Ratio (x) = 0.27413 0.34130
# Poissons Ratio (y) = 0.24663 0.01765
# Poissons Ratio (z) = 0.43406 0.02494
#
# Static dielectric constant tensor:
#      x y z
#    x 1.709210 0.000000 0.000000 
#    y 0.000000 1.773310 0.000000 
#    z 0.000000 0.000000 1.678840 
# 
# From -- ./inp_files/12368.got.cif
#   From: 2010.05.17/outbox.cif.g08.bks.cpg/sg38_7_cif.got.tgz:12368.got - 2010.06.03 18:07:57.
