data_PCOD9357116
_publ_section_title
;
Structure prediction by ZEFSAII (Michael W. Deem and Ramdas Pophale) SiO2 
 PCOD9357116
Probable space group: A M M 2
;
_chemical_formula_sum "Si O2"
_cell_formula_units_Z 64
_cell_length_a 8.261678
_cell_length_b 33.704507
_cell_length_c 12.060564
_cell_angle_alpha 90.000000
_cell_angle_beta 90.000000
_cell_angle_gamma 90.000000
_cell_volume 3358.333804
_symmetry_space_group_name_H-M "A M M 2"
_symmetry_group_IT_number 38
_symmetry_cell_setting 'orthorhombic'
loop_
_space_group_symop_operation_xyz
x,y,z
-x,-y,z
-x,y,z
x,-y,z
x,1/2+y,1/2+z
-x,1/2-y,1/2+z
-x,1/2+y,1/2+z
x,1/2-y,1/2+z
loop_
_atom_site_type_symbol
_atom_site_label
_atom_site_fract_x
_atom_site_fract_y
_atom_site_fract_z
Si Si1 0.305603 0.454419 0.889990
Si Si2 0.805234 0.953642 0.633591
Si Si3 0.185649 0.897180 0.820990
Si Si4 0.306986 0.150047 0.024336
Si Si5 0.811442 0.314619 0.950002
Si Si6 0.696397 0.876776 0.265783
Si Si7 0.313933 0.825606 0.692708
Si Si8 0.306996 0.771382 0.893604
O O1 0.500000 0.456268 0.882353
O O2 0.244150 0.500000 0.875293
O O3 0.248628 0.420785 0.804030
O O4 0.262159 0.440294 0.014615
O O5 0.743030 0.931318 0.742544
O O6 0.000000 0.948400 0.630260
O O7 0.768336 0.000000 0.642165
O O8 0.270483 0.883770 0.933652
O O9 0.197547 0.858927 0.741502
O O10 0.000000 0.906772 0.847145
O O11 0.500000 0.154151 0.032807
O O12 0.250095 0.192262 0.973038
O O13 0.244533 0.137489 0.144950
O O14 0.749878 0.345078 0.857497
O O15 0.783258 0.269466 0.912396
O O16 0.000000 0.321922 0.971090
O O17 0.715193 0.319842 0.064219
O O18 0.500000 0.877514 0.263127
O O19 0.500000 0.838180 0.714315
O O20 0.287847 0.786738 0.767632
O O21 0.500000 0.765271 0.912668
#
# Coordination Sequence:
#
# PCOD9357116 Si02
#       8
#     8   8   8   8   8   8   8   8
#     4   9  18  33  55  83 112 142 181 233 283 322
#     4   9  18  32  51  77 110 145 178 217 271 334
#     4  10  19  33  55  80 107 138 176 226 275 318
#     4   9  20  38  58  78 105 147 189 222 267 333
#     4  12  25  36  53  83 114 139 175 230 281 322
#     4  10  21  38  58  80 109 149 192 228 271 335
#     4  10  21  38  58  77 102 140 180 216 262 326
#     4   9  20  38  57  76 101 141 186 224 266 325
#
# _framework density 19.05707
#
# number of rings (size 3 to 8) (size 9 to 14) (size 15 to 20)
#    0.000    2.250    0.000    3.375    1.750    6.500 
#    0.000    0.625    0.000    0.750    0.000    0.000 
#    0.000    0.000    0.000    0.000    0.000    0.000 
#
# Total GULP energy -178507.907817 kJ/mol
# GULP energy per Si atom -5578.372119 kJ/mol
# Density = 1.901369 g / cm^3
# Si number density = 19.057070 Si / 1000 Ang^3
#
#
#
# Elastic Constant Matrix: (Units=GPa)
#
#
# Indices 1 2 3 4 5 6 
#
# 1 8.6358 5.1768 3.8458 0.0000 0.0000 0.0000
# 2 5.1768 80.3745 59.7490 0.0000 0.0000 0.0000
# 3 3.8458 59.7490 139.4283 0.0000 0.0000 0.0000
# 4 0.0000 0.0000 0.0000 14.0671 0.0000 0.0000
# 5 0.0000 0.0000 0.0000 0.0000 6.3252 0.0000
# 6 0.0000 0.0000 0.0000 0.0000 0.0000 17.8595
#
#
#
# Elastic Compliance Matrix: (Units=1/GPa)
#
#
# Indices 1 2 3 4 5 6 
#
# 1 0.120447 -0.007760 0.000003 0.000000 0.000000 0.000000
# 2 -0.007760 0.018758 -0.007824 0.000000 0.000000 0.000000
# 3 0.000003 -0.007824 0.010525 0.000000 0.000000 0.000000
# 4 0.000000 0.000000 0.000000 0.071088 0.000000 0.000000
# 5 0.000000 0.000000 0.000000 0.000000 0.158099 0.000000
# 6 0.000000 0.000000 0.000000 0.000000 0.000000 0.055993
#
#
# Mechanical properties :
#
#
# Convention : Reuss Voigt Hill
#
# Bulk Modulus (GPa) = 8.43402 40.66467 24.54934
# Shear Modulus (GPa) = 9.88935 18.29483 14.09209
#
# Velocity S-wave (km/s) = 2.28048 3.10175 2.72227
# Velocity P-wave (km/s) = 3.37186 5.84915 4.77399
#
# Compressibility (1/GPa) = 0.11856747
#
# Stress axis : x y z
#
# Youngs Moduli (GPa) = 8.30240 53.31053 95.01192
#
# Poissons Ratio (x) = 0.41370 -0.00030
# Poissons Ratio (y) = 0.06443 0.74340
# Poissons Ratio (z) = -0.00003 0.41712
#
# Static dielectric constant tensor:
#      x y z
#    x 1.660980 0.000000 0.000000 
#    y 0.000000 1.669440 0.000000 
#    z 0.000000 0.000000 1.659730 
# 
# From -- ./inp_files/8675.got.cif
#   From: 2010.05.17/outbox.cif.g08.bks.cpg/sg38_5_cif.got.tgz:8675.got - 2010.06.03 18:07:57.
