data_PCOD9357084
_publ_section_title
;
Structure prediction by ZEFSAII (Michael W. Deem and Ramdas Pophale) SiO2 
 PCOD9357084
Probable space group: A M M 2
;
_chemical_formula_sum "Si O2"
_cell_formula_units_Z 48
_cell_length_a 9.243532
_cell_length_b 7.949090
_cell_length_c 35.038920
_cell_angle_alpha 90.000000
_cell_angle_beta 90.000000
_cell_angle_gamma 90.000000
_cell_volume 2574.578123
_symmetry_space_group_name_H-M "A M M 2"
_symmetry_group_IT_number 38
_symmetry_cell_setting 'orthorhombic'
loop_
_space_group_symop_operation_xyz
x,y,z
-x,-y,z
-x,y,z
x,-y,z
x,1/2+y,1/2+z
-x,1/2-y,1/2+z
-x,1/2+y,1/2+z
x,1/2-y,1/2+z
loop_
_atom_site_type_symbol
_atom_site_label
_atom_site_fract_x
_atom_site_fract_y
_atom_site_fract_z
Si Si1 0.675961 0.685699 0.888080
Si Si2 0.668658 0.796042 0.153034
Si Si3 0.825879 0.000000 0.021524
Si Si4 0.827443 0.809782 0.576353
Si Si5 0.666615 0.199665 0.805398
Si Si6 0.324413 0.000000 0.939897
Si Si7 0.834180 0.796493 0.229410
O O1 0.500000 0.691275 0.887062
O O2 0.720573 0.500000 0.900938
O O3 0.721930 0.716219 0.844341
O O4 0.720943 0.835536 0.915834
O O5 0.500000 0.751240 0.153970
O O6 0.745703 0.722075 0.115932
O O7 0.746681 0.740948 0.191972
O O8 0.679596 0.000000 0.150766
O O9 0.787231 0.834532 0.046185
O O10 0.000000 0.000000 0.016083
O O11 0.745656 0.000000 0.981358
O O12 0.000000 0.793910 0.583157
O O13 0.798553 0.000000 0.562750
O O14 0.500000 0.254826 0.798754
O O15 0.759214 0.238348 0.768234
O O16 0.664784 0.000000 0.812354
O O17 0.500000 0.000000 0.942759
O O18 0.000000 0.739644 0.227410
O O19 0.832940 0.000000 0.229412
#
# Coordination Sequence:
#
# PCOD9357084 Si02
#       7
#     8   8   4   8   8   4   8
#     4   9  17  32  56  83 112 146 183 231 286 335
#     4  10  20  35  57  83 112 147 189 237 288 337
#     4  10  22  40  60  84 118 152 184 232 290 342
#     4  10  21  38  61  85 111 150 193 231 280 342
#     4  10  19  33  54  79 108 144 190 239 284 334
#     4  10  20  36  58  86 114 144 190 234 278 344
#     4  10  21  35  52  77 111 151 193 235 281 336
#
# _framework density 18.643830999999999
#
# number of rings (size 3 to 8) (size 9 to 14) (size 15 to 20)
#    0.000    2.167    1.667    1.500    0.000    5.000 
#    0.000    0.833    0.000    1.000    0.000    0.000 
#    0.000    0.000    0.000    0.000    0.000    0.000 
#
# Total GULP energy -134004.278252 kJ/mol
# GULP energy per Si atom -5583.511594 kJ/mol
# Density = 1.860140 g / cm^3
# Si number density = 18.643831 Si / 1000 Ang^3
#
#
#
# Elastic Constant Matrix: (Units=GPa)
#
#
# Indices 1 2 3 4 5 6 
#
# 1 53.6511 44.2412 56.5149 0.0000 0.0000 0.0000
# 2 44.2412 117.9216 82.6881 0.0000 0.0000 0.0000
# 3 56.5149 82.6881 164.1877 0.0000 0.0000 0.0000
# 4 0.0000 0.0000 0.0000 15.8308 0.0000 0.0000
# 5 0.0000 0.0000 0.0000 0.0000 102.2511 0.0000
# 6 0.0000 0.0000 0.0000 0.0000 0.0000 15.9062
#
#
#
# Elastic Compliance Matrix: (Units=1/GPa)
#
#
# Indices 1 2 3 4 5 6 
#
# 1 0.032327 -0.006687 -0.007759 0.000000 0.000000 0.000000
# 2 -0.006687 0.014493 -0.004997 0.000000 0.000000 0.000000
# 3 -0.007759 -0.004997 0.011278 0.000000 0.000000 0.000000
# 4 0.000000 0.000000 0.000000 0.063168 0.000000 0.000000
# 5 0.000000 0.000000 0.000000 0.000000 0.009780 0.000000
# 6 0.000000 0.000000 0.000000 0.000000 0.000000 0.062869
#
#
# Mechanical properties :
#
#
# Convention : Reuss Voigt Hill
#
# Bulk Modulus (GPa) = 52.05487 78.07210 65.06348
# Shear Modulus (GPa) = 20.90246 36.95201 28.92723
#
# Velocity S-wave (km/s) = 3.35198 4.45679 3.94327
# Velocity P-wave (km/s) = 6.55457 8.27348 7.46367
#
# Compressibility (1/GPa) = 0.01921050
#
# Stress axis : x y z
#
# Youngs Moduli (GPa) = 30.93399 68.99760 88.66690
#
# Poissons Ratio (x) = 0.46140 0.68800
# Poissons Ratio (y) = 0.20686 0.44309
# Poissons Ratio (z) = 0.24003 0.34480
#
# Static dielectric constant tensor:
#      x y z
#    x 1.624280 0.000000 0.000000 
#    y 0.000000 1.670890 0.000000 
#    z 0.000000 0.000000 1.595180 
# 
# From -- ./inp_files/24335.got.cif
#   From: 2010.05.17/outbox.cif.g08.bks.cpg/sg38_13_cif.got.tgz:24335.got - 2010.06.03 18:07:57.
