data_PCOD9357151
_publ_section_title
;
Structure prediction by ZEFSAII (Michael W. Deem and Ramdas Pophale) SiO2 
 PCOD9357151
Probable space group: A M M 2
;
_chemical_formula_sum "Si O2"
_cell_formula_units_Z 64
_cell_length_a 16.851229
_cell_length_b 9.266902
_cell_length_c 20.848864
_cell_angle_alpha 90.000000
_cell_angle_beta 90.000000
_cell_angle_gamma 90.000000
_cell_volume 3255.731243
_symmetry_space_group_name_H-M "A M M 2"
_symmetry_group_IT_number 38
_symmetry_cell_setting 'orthorhombic'
loop_
_space_group_symop_operation_xyz
x,y,z
-x,-y,z
-x,y,z
x,-y,z
x,1/2+y,1/2+z
-x,1/2-y,1/2+z
-x,1/2+y,1/2+z
x,1/2-y,1/2+z
loop_
_atom_site_type_symbol
_atom_site_label
_atom_site_fract_x
_atom_site_fract_y
_atom_site_fract_z
Si Si1 0.091924 0.165322 0.351470
Si Si2 0.676281 0.665982 0.459717
Si Si3 0.149897 0.664288 0.100207
Si Si4 0.349123 0.171295 0.212833
Si Si5 0.590089 0.169237 0.351662
Si Si6 0.816886 0.827613 0.740751
Si Si7 0.132880 0.165507 0.976706
Si Si8 0.656888 0.333734 0.086250
O O1 0.139906 0.264911 0.302506
O O2 0.098119 0.232080 0.422210
O O3 0.000000 0.164401 0.332230
O O4 0.121846 0.000000 0.350747
O O5 0.651206 0.500000 0.463414
O O6 0.649465 0.735587 0.393119
O O7 0.771617 0.669818 0.466577
O O8 0.640751 0.756103 0.519016
O O9 0.124976 0.500000 0.085956
O O10 0.134091 0.696929 0.174738
O O11 0.246518 0.667879 0.094176
O O12 0.116744 0.772863 0.047532
O O13 0.402470 0.193605 0.275576
O O14 0.265199 0.242818 0.231660
O O15 0.376168 0.248300 0.147538
O O16 0.340232 0.000000 0.201664
O O17 0.500000 0.198145 0.372294
O O18 0.607960 0.000000 0.362621
O O19 0.803088 0.000000 0.745676
O O20 0.106801 0.000000 0.969756
O O21 0.631740 0.500000 0.085948
#
# Coordination Sequence:
#
# PCOD9357151 Si02
#       8
#     8   8   8   8   8   8   8   8
#     4  11  24  39  54  75 106 143 181 220 262 311
#     4  10  20  34  55  83 109 136 175 220 266 316
#     4   8  16  31  52  79 108 136 168 210 260 310
#     4  10  19  33  56  82 108 139 176 221 268 315
#     4  10  22  38  53  73 105 144 182 219 263 315
#     4  10  20  35  57  83 109 138 174 217 265 319
#     4  10  20  34  56  83 108 136 173 217 262 313
#     4   9  17  31  53  80 109 139 173 216 264 315
#
# _framework density 19.657641999999999
#
# number of rings (size 3 to 8) (size 9 to 14) (size 15 to 20)
#    0.000    2.250    0.000    3.750    0.000    9.250 
#    0.000    1.250    0.000    3.000    0.000    0.000 
#    0.000    0.000    0.000    0.000    0.000    0.000 
#
# Total GULP energy -178656.164492 kJ/mol
# GULP energy per Si atom -5583.005140 kJ/mol
# Density = 1.961290 g / cm^3
# Si number density = 19.657642 Si / 1000 Ang^3
#
#
#
# Elastic Constant Matrix: (Units=GPa)
#
#
# Indices 1 2 3 4 5 6 
#
# 1 14.1431 19.2548 7.5743 0.0000 0.0000 0.0000
# 2 19.2548 104.3691 49.6638 0.0000 0.0000 0.0000
# 3 7.5743 49.6638 82.0187 0.0000 0.0000 0.0000
# 4 0.0000 0.0000 0.0000 42.3548 0.0000 0.0000
# 5 0.0000 0.0000 0.0000 0.0000 -4.4938 0.0000
# 6 0.0000 0.0000 0.0000 0.0000 0.0000 10.2474
#
#
#
# Elastic Compliance Matrix: (Units=1/GPa)
#
#
# Indices 1 2 3 4 5 6 
#
# 1 0.094808 -0.018718 0.002579 0.000000 0.000000 0.000000
# 2 -0.018718 0.017155 -0.008659 0.000000 0.000000 0.000000
# 3 0.002579 -0.008659 0.017197 0.000000 0.000000 0.000000
# 4 0.000000 0.000000 0.000000 0.023610 0.000000 0.000000
# 5 0.000000 0.000000 0.000000 0.000000 -0.222528 0.000000
# 6 0.000000 0.000000 0.000000 0.000000 0.000000 0.097586
#
#
# Mechanical properties :
#
#
# Convention : Reuss Voigt Hill
#
# Bulk Modulus (GPa) = 12.56853 39.27964 25.92408
# Shear Modulus (GPa) = 48.10146 17.89087 32.99617
#
# Velocity S-wave (km/s) = 4.95204 3.02010 4.10145
# Velocity P-wave (km/s) = 6.25336 5.67332 5.97039
#
# Compressibility (1/GPa) = 0.07956382
#
# Stress axis : x y z
#
# Youngs Moduli (GPa) = 10.54762 58.29179 58.14811
#
# Poissons Ratio (x) = 1.09111 -0.14995
# Poissons Ratio (y) = 0.19743 0.50351
# Poissons Ratio (z) = -0.02720 0.50476
#
# Static dielectric constant tensor:
#      x y z
#    x 1.698570 0.000000 0.000000 
#    y 0.000000 1.662250 0.000000 
#    z 0.000000 0.000000 1.681710 
# 
# From -- ./inp_files/21457.got.cif
#   From: 2010.05.17/outbox.cif.g08.bks.cpg/sg38_11_cif.got.tgz:21457.got - 2010.06.03 18:07:57.
