data_PCOD9357979
_publ_section_title
;
Structure prediction by ZEFSAII (Michael W. Deem and Ramdas Pophale) SiO2 
 PCOD9357979
Probable space group: A M M 2
;
_chemical_formula_sum "Si O2"
_cell_formula_units_Z 64
_cell_length_a 8.761720
_cell_length_b 19.826966
_cell_length_c 20.935933
_cell_angle_alpha 90.000000
_cell_angle_beta 90.000000
_cell_angle_gamma 90.000000
_cell_volume 3636.955203
_symmetry_space_group_name_H-M "A M M 2"
_symmetry_group_IT_number 38
_symmetry_cell_setting 'orthorhombic'
loop_
_space_group_symop_operation_xyz
x,y,z
-x,-y,z
-x,y,z
x,-y,z
x,1/2+y,1/2+z
-x,1/2-y,1/2+z
-x,1/2+y,1/2+z
x,1/2-y,1/2+z
loop_
_atom_site_type_symbol
_atom_site_label
_atom_site_fract_x
_atom_site_fract_y
_atom_site_fract_z
Si Si1 0.819900 0.787758 0.915330
Si Si2 0.319807 0.286847 0.281988
Si Si3 0.818851 0.076939 0.738226
Si Si4 0.318365 0.077180 0.118238
Si Si5 0.318434 0.785664 0.536910
Si Si6 0.319506 0.923940 0.598557
Si Si7 0.819453 0.212188 0.160463
Si Si8 0.317994 0.076907 0.965512
O O1 0.734646 0.764231 0.851583
O O2 0.772409 0.865022 0.929804
O O3 0.000000 0.783187 0.906366
O O4 0.766519 0.745151 0.976465
O O5 0.500000 0.280162 0.274561
O O6 0.271171 0.365059 0.274546
O O7 0.237411 0.246060 0.225605
O O8 0.776254 0.084639 0.663355
O O9 0.000000 0.085975 0.746832
O O10 0.778141 0.000000 0.756421
O O11 0.500000 0.086878 0.128305
O O12 0.225968 0.133813 0.155389
O O13 0.280186 0.000000 0.135264
O O14 0.292117 0.084505 0.041865
O O15 0.500000 0.775847 0.529077
O O16 0.286000 0.864564 0.549221
O O17 0.264815 0.747998 0.601093
O O18 0.500000 0.917780 0.615596
O O19 0.294242 0.000000 0.574511
O O20 0.000000 0.221159 0.153724
O O21 0.500000 0.085498 0.954893
O O22 0.277043 0.000000 0.947876
#
# Coordination Sequence:
#
# PCOD9357979 Si02
#       8
#     8   8   8   8   8   8   8   8
#     4  12  25  39  56  82 115 150 190 241 289 338
#     4  12  25  41  59  79 110 155 197 237 285 346
#     4  10  20  34  54  82 116 150 187 233 282 334
#     4   9  18  34  58  86 116 150 190 233 278 335
#     4  11  21  36  59  85 115 152 191 232 279 340
#     4   9  18  33  56  85 114 147 188 231 276 331
#     4  12  23  36  58  88 118 148 188 240 289 336
#     4   9  18  34  56  81 112 151 192 230 273 335
#
# _framework density 17.597135999999999
#
# number of rings (size 3 to 8) (size 9 to 14) (size 15 to 20)
#    0.000    1.500    2.500    4.875    0.000    2.250 
#    0.000    1.250    0.000    0.750    0.000    1.750 
#    0.000    0.000    0.000    0.000    0.000    0.000 
#
# Total GULP energy -178815.232669 kJ/mol
# GULP energy per Si atom -5587.976021 kJ/mol
# Density = 1.755708 g / cm^3
# Si number density = 17.597136 Si / 1000 Ang^3
#
#
#
# Elastic Constant Matrix: (Units=GPa)
#
#
# Indices 1 2 3 4 5 6 
#
# 1 42.5065 18.0537 -3.7097 0.0000 0.0000 0.0000
# 2 18.0537 71.1966 19.6868 0.0000 0.0000 0.0000
# 3 -3.7097 19.6868 53.6441 0.0000 0.0000 0.0000
# 4 0.0000 0.0000 0.0000 17.2142 0.0000 0.0000
# 5 0.0000 0.0000 0.0000 0.0000 -10.8004 0.0000
# 6 0.0000 0.0000 0.0000 0.0000 0.0000 14.3704
#
#
#
# Elastic Compliance Matrix: (Units=1/GPa)
#
#
# Indices 1 2 3 4 5 6 
#
# 1 0.027505 -0.008348 0.004966 0.000000 0.000000 0.000000
# 2 -0.008348 0.018165 -0.007244 0.000000 0.000000 0.000000
# 3 0.004966 -0.007244 0.021643 0.000000 0.000000 0.000000
# 4 0.000000 0.000000 0.000000 0.058092 0.000000 0.000000
# 5 0.000000 0.000000 0.000000 0.000000 -0.092589 0.000000
# 6 0.000000 0.000000 0.000000 0.000000 0.000000 0.069588
#
#
# Mechanical properties :
#
#
# Convention : Reuss Voigt Hill
#
# Bulk Modulus (GPa) = 21.71008 26.15653 23.93330
# Shear Modulus (GPa) = 35.96905 13.04460 24.50682
#
# Velocity S-wave (km/s) = 4.52600 2.72562 3.73588
# Velocity P-wave (km/s) = 6.29896 4.98013 5.67797
#
# Compressibility (1/GPa) = 0.04606156
#
# Stress axis : x y z
#
# Youngs Moduli (GPa) = 36.35754 55.04989 46.20404
#
# Poissons Ratio (x) = 0.45953 -0.22943
# Poissons Ratio (y) = 0.30350 0.33469
# Poissons Ratio (z) = -0.18053 0.39877
#
# Static dielectric constant tensor:
#      x y z
#    x 1.586210 0.000000 0.000000 
#    y 0.000000 1.617750 0.000000 
#    z 0.000000 0.000000 1.576210 
# 
# From -- ./inp_files/20253.got.cif
#   From: 2010.05.17/outbox.cif.g08.bks.cpg/sg38_11_cif.got.tgz:20253.got - 2010.06.03 18:07:57.
