data_PCOD9357616
_publ_section_title
;
Structure prediction by ZEFSAII (Michael W. Deem and Ramdas Pophale) SiO2 
 PCOD9357616
Probable space group: A M M 2
;
_chemical_formula_sum "Si O2"
_cell_formula_units_Z 64
_cell_length_a 16.723475
_cell_length_b 20.782561
_cell_length_c 9.381155
_cell_angle_alpha 90.000000
_cell_angle_beta 90.000000
_cell_angle_gamma 90.000000
_cell_volume 3260.482705
_symmetry_space_group_name_H-M "A M M 2"
_symmetry_group_IT_number 38
_symmetry_cell_setting 'orthorhombic'
loop_
_space_group_symop_operation_xyz
x,y,z
-x,-y,z
-x,y,z
x,-y,z
x,1/2+y,1/2+z
-x,1/2-y,1/2+z
-x,1/2+y,1/2+z
x,1/2-y,1/2+z
loop_
_atom_site_type_symbol
_atom_site_label
_atom_site_fract_x
_atom_site_fract_y
_atom_site_fract_z
Si Si1 0.909066 0.291855 0.163770
Si Si2 0.677092 0.205294 0.029667
Si Si3 0.303485 0.931907 0.913111
Si Si4 0.187975 0.293001 0.881763
Si Si5 0.586350 0.240717 0.764090
Si Si6 0.408050 0.598642 0.137275
Si Si7 0.259529 0.072956 0.439979
Si Si8 0.851552 0.429884 0.223260
O O1 0.848814 0.244133 0.246793
O O2 0.900673 0.364156 0.227251
O O3 0.000000 0.269383 0.176450
O O4 0.882433 0.298130 0.999611
O O5 0.687042 0.130176 0.007810
O O6 0.748029 0.247159 0.962427
O O7 0.602929 0.225104 0.927802
O O8 0.656848 0.220185 0.191428
O O9 0.364644 0.929143 0.778640
O O10 0.215146 0.928438 0.846283
O O11 0.314988 0.000000 0.987637
O O12 0.226031 0.364158 0.857665
O O13 0.500000 0.272008 0.748464
O O14 0.588830 0.174138 0.675992
O O15 0.500000 0.577154 0.117893
O O16 0.348379 0.585779 0.005357
O O17 0.201392 0.071748 0.578765
O O18 0.256922 0.000000 0.378041
O O19 0.892891 0.500000 0.228194
#
# Coordination Sequence:
#
# PCOD9357616 Si02
#       8
#     8   8   8   8   8   8   8   8
#     4  11  22  36  57  84 111 138 171 221 277 328
#     4  11  19  34  56  77 105 146 181 221 269 316
#     4   9  17  29  48  76 105 140 183 222 263 317
#     4  11  21  37  57  81 108 140 182 218 264 331
#     4  10  20  32  50  79 110 140 183 229 273 315
#     4   9  16  27  45  75 111 140 174 227 280 313
#     4   9  17  30  50  75 104 141 182 221 260 310
#     4   8  15  30  51  77 107 135 169 216 266 320
#
# _framework density 19.628996999999998
#
# number of rings (size 3 to 8) (size 9 to 14) (size 15 to 20)
#    0.000    2.250    2.500    2.625    0.000    1.750 
#    0.000    0.000    0.000    4.875    0.000    0.000 
#    0.000    0.000    0.000    0.000    0.000    0.000 
#
# Total GULP energy -178386.484143 kJ/mol
# GULP energy per Si atom -5574.577629 kJ/mol
# Density = 1.958432 g / cm^3
# Si number density = 19.628997 Si / 1000 Ang^3
#
#
#
# Elastic Constant Matrix: (Units=GPa)
#
#
# Indices 1 2 3 4 5 6 
#
# 1 83.3240 22.9201 5.4144 0.0000 0.0000 0.0000
# 2 22.9201 125.6853 25.3410 0.0000 0.0000 0.0000
# 3 5.4144 25.3410 43.4581 0.0000 0.0000 0.0000
# 4 0.0000 0.0000 0.0000 19.4295 0.0000 0.0000
# 5 0.0000 0.0000 0.0000 0.0000 17.5245 0.0000
# 6 0.0000 0.0000 0.0000 0.0000 0.0000 14.7777
#
#
#
# Elastic Compliance Matrix: (Units=1/GPa)
#
#
# Indices 1 2 3 4 5 6 
#
# 1 0.012638 -0.002252 -0.000261 0.000000 0.000000 0.000000
# 2 -0.002252 0.009418 -0.005211 0.000000 0.000000 0.000000
# 3 -0.000261 -0.005211 0.026082 0.000000 0.000000 0.000000
# 4 0.000000 0.000000 0.000000 0.051468 0.000000 0.000000
# 5 0.000000 0.000000 0.000000 0.000000 0.057063 0.000000
# 6 0.000000 0.000000 0.000000 0.000000 0.000000 0.067670
#
#
# Mechanical properties :
#
#
# Convention : Reuss Voigt Hill
#
# Bulk Modulus (GPa) = 30.59171 39.97984 35.28578
# Shear Modulus (GPa) = 19.94551 23.59913 21.77232
#
# Velocity S-wave (km/s) = 3.19113 3.47112 3.33407
# Velocity P-wave (km/s) = 5.40338 6.03961 5.73033
#
# Compressibility (1/GPa) = 0.03268859
#
# Stress axis : x y z
#
# Youngs Moduli (GPa) = 79.12790 106.18295 38.34086
#
# Poissons Ratio (x) = 0.23912 0.01002
# Poissons Ratio (y) = 0.17819 0.19980
# Poissons Ratio (z) = 0.02068 0.55332
#
# Static dielectric constant tensor:
#      x y z
#    x 1.709850 0.000000 0.000000 
#    y 0.000000 1.734420 0.000000 
#    z 0.000000 0.000000 1.672910 
# 
# From -- ./inp_files/6520.got.cif
#   From: 2010.05.17/outbox.cif.g08.bks.cpg/sg38_4_cif.got.tgz:6520.got - 2010.06.03 18:07:57.
