data_PCOD9357709
_publ_section_title
;
Structure prediction by ZEFSAII (Michael W. Deem and Ramdas Pophale) SiO2 
 PCOD9357709
Probable space group: A M M 2
;
_chemical_formula_sum "Si O2"
_cell_formula_units_Z 48
_cell_length_a 9.385532
_cell_length_b 8.385809
_cell_length_c 32.185872
_cell_angle_alpha 90.000000
_cell_angle_beta 90.000000
_cell_angle_gamma 90.000000
_cell_volume 2533.198026
_symmetry_space_group_name_H-M "A M M 2"
_symmetry_group_IT_number 38
_symmetry_cell_setting 'orthorhombic'
loop_
_space_group_symop_operation_xyz
x,y,z
-x,-y,z
-x,y,z
x,-y,z
x,1/2+y,1/2+z
-x,1/2-y,1/2+z
-x,1/2+y,1/2+z
x,1/2-y,1/2+z
loop_
_atom_site_type_symbol
_atom_site_label
_atom_site_fract_x
_atom_site_fract_y
_atom_site_fract_z
Si Si1 0.335955 0.311076 0.047230
Si Si2 0.664093 0.195019 0.206229
Si Si3 0.335090 0.693058 0.367451
Si Si4 0.836284 0.192758 0.287873
Si Si5 0.326938 0.815592 0.958492
Si Si6 0.837716 0.808066 0.125360
O O1 0.500000 0.251258 0.051107
O O2 0.337908 0.500000 0.052807
O O3 0.238751 0.236636 0.082625
O O4 0.285049 0.272943 0.000486
O O5 0.500000 0.246950 0.206486
O O6 0.747254 0.246341 0.247586
O O7 0.745995 0.248631 0.164823
O O8 0.664020 0.000000 0.206066
O O9 0.500000 0.744452 0.361420
O O10 0.335309 0.500000 0.368697
O O11 0.239289 0.750842 0.329809
O O12 0.282685 0.747547 0.413182
O O13 0.000000 0.246738 0.285605
O O14 0.836245 0.000000 0.287495
O O15 0.500000 0.812643 0.956863
O O16 0.282749 0.000000 0.962338
O O17 0.000000 0.748468 0.126961
O O18 0.842445 0.000000 0.128030
#
# Coordination Sequence:
#
# PCOD9357709 Si02
#       6
#     8   8   8   8   8   8
#     4  10  20  33  51  77 106 134 167 209 256 304
#     4   9  17  31  53  78 101 129 168 212 254 296
#     4   9  18  33  53  77 103 132 170 214 256 300
#     4  10  20  33  50  75 107 139 170 206 250 301
#     4   8  15  30  52  75  99 130 170 214 255 296
#     4  10  20  34  53  76 102 134 171 209 251 301
#
# _framework density 18.948378999999999
#
# number of rings (size 3 to 8) (size 9 to 14) (size 15 to 20)
#    0.000    2.667    0.000    3.000    0.000    6.000 
#    0.000    3.333    0.000    6.000    0.000    0.000 
#    0.000    0.000    0.000    0.000    0.000    0.000 
#
# Total GULP energy -133867.871745 kJ/mol
# GULP energy per Si atom -5577.827989 kJ/mol
# Density = 1.890525 g / cm^3
# Si number density = 18.948379 Si / 1000 Ang^3
#
#
#
# Elastic Constant Matrix: (Units=GPa)
#
#
# Indices 1 2 3 4 5 6 
#
# 1 140.2742 15.6050 106.3227 0.0000 0.0000 0.0000
# 2 15.6050 3.4059 13.1404 0.0000 0.0000 0.0000
# 3 106.3227 13.1404 197.0114 0.0000 0.0000 0.0000
# 4 0.0000 0.0000 0.0000 28.1318 0.0000 0.0000
# 5 0.0000 0.0000 0.0000 0.0000 -11.1674 0.0000
# 6 0.0000 0.0000 0.0000 0.0000 0.0000 16.6552
#
#
#
# Elastic Compliance Matrix: (Units=1/GPa)
#
#
# Indices 1 2 3 4 5 6 
#
# 1 0.018436 -0.062051 -0.005811 0.000000 0.000000 0.000000
# 2 -0.062051 0.604187 -0.006811 0.000000 0.000000 0.000000
# 3 -0.005811 -0.006811 0.008666 0.000000 0.000000 0.000000
# 4 0.000000 0.000000 0.000000 0.035547 0.000000 0.000000
# 5 0.000000 0.000000 0.000000 0.000000 -0.089547 0.000000
# 6 0.000000 0.000000 0.000000 0.000000 0.000000 0.060041
#
#
# Mechanical properties :
#
#
# Convention : Reuss Voigt Hill
#
# Bulk Modulus (GPa) = 2.07493 67.86975 34.97234
# Shear Modulus (GPa) = 5.27802 20.43216 12.85509
#
# Velocity S-wave (km/s) = 1.67078 3.28732 2.60749
# Velocity P-wave (km/s) = 2.19532 7.09258 5.24996
#
# Compressibility (1/GPa) = 0.48194373
#
# Stress axis : x y z
#
# Youngs Moduli (GPa) = 54.24077 1.65512 115.39115
#
# Poissons Ratio (x) = 0.10270 0.67053
# Poissons Ratio (y) = 3.36569 0.78592
# Poissons Ratio (z) = 0.31519 0.01127
#
# Static dielectric constant tensor:
#      x y z
#    x 1.643400 0.000000 0.000000 
#    y 0.000000 1.665620 0.000000 
#    z 0.000000 0.000000 1.646140 
# 
# From -- ./inp_files/24277.got.cif
#   From: 2010.05.17/outbox.cif.g08.bks.cpg/sg38_13_cif.got.tgz:24277.got - 2010.06.03 18:07:57.
