data_PCOD9357121
_publ_section_title
;
Structure prediction by ZEFSAII (Michael W. Deem and Ramdas Pophale) SiO2 
 PCOD9357121
Probable space group: A M M 2
;
_chemical_formula_sum "Si O2"
_cell_formula_units_Z 56
_cell_length_a 7.815234
_cell_length_b 17.301655
_cell_length_c 20.638061
_cell_angle_alpha 90.000000
_cell_angle_beta 90.000000
_cell_angle_gamma 90.000000
_cell_volume 2790.606012
_symmetry_space_group_name_H-M "A M M 2"
_symmetry_group_IT_number 38
_symmetry_cell_setting 'orthorhombic'
loop_
_space_group_symop_operation_xyz
x,y,z
-x,-y,z
-x,y,z
x,-y,z
x,1/2+y,1/2+z
-x,1/2-y,1/2+z
-x,1/2+y,1/2+z
x,1/2-y,1/2+z
loop_
_atom_site_type_symbol
_atom_site_label
_atom_site_fract_x
_atom_site_fract_y
_atom_site_fract_z
Si Si1 0.205675 0.668796 0.106500
Si Si2 0.296502 0.000000 0.420803
Si Si3 0.206644 0.915874 0.818843
Si Si4 0.794173 0.661638 0.853935
Si Si5 0.799020 0.752604 0.479385
Si Si6 0.209282 0.764300 0.739611
Si Si7 0.699778 0.083647 0.968788
Si Si8 0.295821 0.000000 0.571285
O O1 0.269497 0.720169 0.166562
O O2 0.239990 0.577566 0.108166
O O3 0.000000 0.677956 0.105763
O O4 0.277432 0.699034 0.038258
O O5 0.245817 0.923412 0.380813
O O6 0.229053 0.000000 0.495739
O O7 0.500000 0.000000 0.425982
O O8 0.259038 0.842268 0.777868
O O9 0.279924 0.913203 0.891049
O O10 0.000000 0.912259 0.825208
O O11 0.250858 0.000000 0.790212
O O12 0.729576 0.720834 0.909714
O O13 0.732455 0.691957 0.783711
O O14 0.000000 0.667229 0.850500
O O15 0.781926 0.662169 0.493228
O O16 0.000000 0.770933 0.476236
O O17 0.000000 0.761890 0.737434
O O18 0.500000 0.085597 0.984996
O O19 0.771263 0.000000 0.989690
O O20 0.500000 0.000000 0.567953
#
# Coordination Sequence:
#
# PCOD9357121 Si02
#       8
#     8   4   8   8   8   8   8   4
#     4  10  21  36  57  81 109 144 185 228 277 336
#     4  11  23  37  57  85 113 144 187 234 282 332
#     4   9  16  28  48  75 105 135 167 204 248 300
#     4  10  19  35  58  84 109 139 181 230 282 328
#     4  10  19  33  55  81 104 134 178 226 273 325
#     4   9  18  33  54  80 107 138 177 221 269 323
#     4  10  20  32  49  75 104 137 175 214 262 316
#     4  11  23  37  53  83 123 156 185 224 278 338
#
# _framework density 20.067326000000001
#
# number of rings (size 3 to 8) (size 9 to 14) (size 15 to 20)
#    0.000    2.143    2.857    0.857    1.000    2.571 
#    0.000    1.429    1.571    0.000    0.000    0.000 
#    0.000    0.000    0.000    0.000    0.000    0.000 
#
# Total GULP energy -156121.817651 kJ/mol
# GULP energy per Si atom -5575.779202 kJ/mol
# Density = 2.002165 g / cm^3
# Si number density = 20.067326 Si / 1000 Ang^3
#
#
#
# Elastic Constant Matrix: (Units=GPa)
#
#
# Indices 1 2 3 4 5 6 
#
# 1 20.6504 -7.1615 10.6037 0.0000 0.0000 0.0000
# 2 -7.1615 96.6461 33.8818 0.0000 0.0000 0.0000
# 3 10.6037 33.8818 89.2659 0.0000 0.0000 0.0000
# 4 0.0000 0.0000 0.0000 25.5723 0.0000 0.0000
# 5 0.0000 0.0000 0.0000 0.0000 -19.3755 0.0000
# 6 0.0000 0.0000 0.0000 0.0000 0.0000 208.5932
#
#
#
# Elastic Compliance Matrix: (Units=1/GPa)
#
#
# Indices 1 2 3 4 5 6 
#
# 1 0.055874 0.007460 -0.009469 0.000000 0.000000 0.000000
# 2 0.007460 0.012931 -0.005794 0.000000 0.000000 0.000000
# 3 -0.009469 -0.005794 0.014527 0.000000 0.000000 0.000000
# 4 0.000000 0.000000 0.000000 0.039105 0.000000 0.000000
# 5 0.000000 0.000000 0.000000 0.000000 -0.051612 0.000000
# 6 0.000000 0.000000 0.000000 0.000000 0.000000 0.004794
#
#
# Mechanical properties :
#
#
# Convention : Reuss Voigt Hill
#
# Bulk Modulus (GPa) = 14.76546 31.24561 23.00554
# Shear Modulus (GPa) = 43.93648 54.24055 49.08852
#
# Velocity S-wave (km/s) = 4.68424 5.20461 4.95126
# Velocity P-wave (km/s) = 6.05227 7.19176 6.64648
#
# Compressibility (1/GPa) = 0.06772562
#
# Stress axis : x y z
#
# Youngs Moduli (GPa) = 17.89734 77.33266 68.83955
#
# Poissons Ratio (x) = -0.57689 0.65182
# Poissons Ratio (y) = -0.13351 0.39888
# Poissons Ratio (z) = 0.16946 0.44809
#
# Static dielectric constant tensor:
#      x y z
#    x 1.723980 0.000000 0.000000 
#    y 0.000000 1.721820 0.000000 
#    z 0.000000 0.000000 1.731340 
# 
# From -- ./inp_files/19867.got.cif
#   From: 2010.05.17/outbox.cif.g08.bks.cpg/sg38_10_cif.got.tgz:19867.got - 2010.06.03 18:07:57.
