data_PCOD9357678
_publ_section_title
;
Structure prediction by ZEFSAII (Michael W. Deem and Ramdas Pophale) SiO2 
 PCOD9357678
Probable space group: A M M 2
;
_chemical_formula_sum "Si O2"
_cell_formula_units_Z 48
_cell_length_a 16.794081
_cell_length_b 9.159843
_cell_length_c 18.894286
_cell_angle_alpha 90.000000
_cell_angle_beta 90.000000
_cell_angle_gamma 90.000000
_cell_volume 2906.529655
_symmetry_space_group_name_H-M "A M M 2"
_symmetry_group_IT_number 38
_symmetry_cell_setting 'orthorhombic'
loop_
_space_group_symop_operation_xyz
x,y,z
-x,-y,z
-x,y,z
x,-y,z
x,1/2+y,1/2+z
-x,1/2-y,1/2+z
-x,1/2+y,1/2+z
x,1/2-y,1/2+z
loop_
_atom_site_type_symbol
_atom_site_label
_atom_site_fract_x
_atom_site_fract_y
_atom_site_fract_z
Si Si1 0.833159 0.833478 0.768260
Si Si2 0.334204 0.332544 0.181930
Si Si3 0.268540 0.676225 0.395818
Si Si4 0.911582 0.675300 0.643433
Si Si5 0.753060 0.675631 0.560182
Si Si6 0.408568 0.326624 0.809913
O O1 0.749296 0.834316 0.725486
O O2 0.806781 0.782655 0.846188
O O3 0.890928 0.736394 0.721120
O O4 0.862695 0.000000 0.771709
O O5 0.359611 0.500000 0.172237
O O6 0.312764 0.253982 0.108665
O O7 0.392812 0.243680 0.232819
O O8 0.277261 0.500000 0.388486
O O9 0.255625 0.711183 0.477734
O O10 0.346309 0.752726 0.363520
O O11 0.910735 0.500000 0.645933
O O12 0.839922 0.719281 0.590919
O O13 0.000000 0.723447 0.621550
O O14 0.745739 0.500000 0.568287
O O15 0.500000 0.301611 0.830938
O O16 0.393908 0.500000 0.806499
#
# Coordination Sequence:
#
# PCOD9357678 Si02
#       6
#     8   8   8   8   8   8
#     4   8  15  28  45  66  90 117 152 191 230 276
#     4   9  17  30  49  71  93 120 156 193 230 277
#     4   9  18  32  50  72  97 126 160 196 238 287
#     4   9  17  29  46  68  93 123 160 200 240 281
#     4   9  17  31  50  71  97 128 160 195 237 285
#     4  10  20  33  50  72  96 123 158 199 241 284
#
# _framework density 16.514541000000001
#
# number of rings (size 3 to 8) (size 9 to 14) (size 15 to 20)
#    0.000    3.000    0.000    2.000    0.000    6.333 
#    0.000    1.667    0.000    4.000    0.000    0.000 
#    0.000    0.000    0.000    0.000    0.000    0.000 
#
# Total GULP energy -133637.393086 kJ/mol
# GULP energy per Si atom -5568.224712 kJ/mol
# Density = 1.647695 g / cm^3
# Si number density = 16.514541 Si / 1000 Ang^3
#
#
#
# Elastic Constant Matrix: (Units=GPa)
#
#
# Indices 1 2 3 4 5 6 
#
# 1 73.8859 35.4430 43.8452 0.0000 0.0000 0.0000
# 2 35.4430 39.4919 43.1544 0.0000 0.0000 0.0000
# 3 43.8452 43.1544 142.2901 0.0000 0.0000 0.0000
# 4 0.0000 0.0000 0.0000 26.0957 0.0000 0.0000
# 5 0.0000 0.0000 0.0000 0.0000 15.1961 0.0000
# 6 0.0000 0.0000 0.0000 0.0000 0.0000 19.2730
#
#
#
# Elastic Compliance Matrix: (Units=1/GPa)
#
#
# Indices 1 2 3 4 5 6 
#
# 1 0.023922 -0.020064 -0.001286 0.000000 0.000000 0.000000
# 2 -0.020064 0.054702 -0.010408 0.000000 0.000000 0.000000
# 3 -0.001286 -0.010408 0.010581 0.000000 0.000000 0.000000
# 4 0.000000 0.000000 0.000000 0.038321 0.000000 0.000000
# 5 0.000000 0.000000 0.000000 0.000000 0.065807 0.000000
# 6 0.000000 0.000000 0.000000 0.000000 0.000000 0.051886
#
#
# Mechanical properties :
#
#
# Convention : Reuss Voigt Hill
#
# Bulk Modulus (GPa) = 38.92780 55.61700 47.27240
# Shear Modulus (GPa) = 15.75811 20.99463 18.37637
#
# Velocity S-wave (km/s) = 3.09236 3.56937 3.33939
# Velocity P-wave (km/s) = 6.03102 7.12306 6.59967
#
# Compressibility (1/GPa) = 0.02568858
#
# Stress axis : x y z
#
# Youngs Moduli (GPa) = 41.80171 18.28100 94.51168
#
# Poissons Ratio (x) = 0.36679 0.12157
# Poissons Ratio (y) = 0.83872 0.98364
# Poissons Ratio (z) = 0.05377 0.19026
#
# Static dielectric constant tensor:
#      x y z
#    x 1.558730 0.000000 0.000000 
#    y 0.000000 1.560150 0.000000 
#    z 0.000000 0.000000 1.553110 
# 
# From -- ./inp_files/18580.got.cif
#   From: 2010.05.17/outbox.cif.g08.bks.cpg/sg38_10_cif.got.tgz:18580.got - 2010.06.03 18:07:57.
