data_PCOD9357636
_publ_section_title
;
Structure prediction by ZEFSAII (Michael W. Deem and Ramdas Pophale) SiO2 
 PCOD9357636
Probable space group: A M M 2
;
_chemical_formula_sum "Si O2"
_cell_formula_units_Z 58
_cell_length_a 7.511213
_cell_length_b 27.269445
_cell_length_c 12.803548
_cell_angle_alpha 90.000000
_cell_angle_beta 90.000000
_cell_angle_gamma 90.000000
_cell_volume 2622.507330
_symmetry_space_group_name_H-M "A M M 2"
_symmetry_group_IT_number 38
_symmetry_cell_setting 'orthorhombic'
loop_
_space_group_symop_operation_xyz
x,y,z
-x,-y,z
-x,y,z
x,-y,z
x,1/2+y,1/2+z
-x,1/2-y,1/2+z
-x,1/2+y,1/2+z
x,1/2-y,1/2+z
loop_
_atom_site_type_symbol
_atom_site_label
_atom_site_fract_x
_atom_site_fract_y
_atom_site_fract_z
Si Si1 0.500000 0.500000 0.513110
Si Si2 0.711903 0.553695 0.822593
Si Si3 0.210424 0.890781 0.528651
Si Si4 0.206136 0.423921 0.588044
Si Si5 0.210115 0.789523 0.611921
Si Si6 0.285399 0.842025 0.825804
Si Si7 0.707408 0.555029 0.237889
Si Si8 0.795797 0.815775 0.056306
O O1 0.341990 0.457549 0.524122
O O2 0.500000 0.554739 0.806235
O O3 0.761858 0.500000 0.864618
O O4 0.759742 0.592060 0.911297
O O5 0.793828 0.559457 0.708669
O O6 0.282820 0.835968 0.547297
O O7 0.286181 0.927752 0.616451
O O8 0.000000 0.890040 0.549926
O O9 0.277651 0.368162 0.591109
O O10 0.000000 0.425321 0.549790
O O11 0.232632 0.807371 0.730087
O O12 0.286449 0.735682 0.591409
O O13 0.000000 0.786071 0.586073
O O14 0.500000 0.843637 0.831794
O O15 0.220332 0.897625 0.800393
O O16 0.210551 0.820158 0.931637
O O17 0.500000 0.551162 0.268799
O O18 0.783126 0.500000 0.251110
O O19 0.000000 0.816064 0.094658
#
# Coordination Sequence:
#
# PCOD9357636 Si02
#       8
#     2   8   8   8   8   8   8   8
#     4  12  22  44  64  90 124 166 198 260 306 358
#     4  11  21  36  55  82 120 164 203 253 309 362
#     4  10  20  32  54  84 114 153 201 251 306 364
#     4  11  23  41  64  90 123 164 208 249 303 368
#     4   9  20  41  62  82 116 158 200 249 304 362
#     4  10  21  37  60  88 118 151 194 248 305 361
#     4   9  18  35  53  77 112 154 194 239 296 361
#     4  10  23  42  64  88 115 157 202 244 297 363
#
# _framework density 22.116240999999999
#
# number of rings (size 3 to 8) (size 9 to 14) (size 15 to 20)
#    0.000    1.931    1.379    1.862    0.966    5.517 
#    1.241    5.517    0.000    0.000    0.000    0.000 
#    0.000    0.000    0.000    0.000    0.000    0.000 
#
# Total GULP energy -161693.050582 kJ/mol
# GULP energy per Si atom -5575.622434 kJ/mol
# Density = 2.206590 g / cm^3
# Si number density = 22.116241 Si / 1000 Ang^3
#
#
#
# Elastic Constant Matrix: (Units=GPa)
#
#
# Indices 1 2 3 4 5 6 
#
# 1 81.2673 22.7705 -10.1354 0.0000 0.0000 0.0000
# 2 22.7705 208.1476 31.4346 0.0000 0.0000 0.0000
# 3 -10.1354 31.4346 39.7409 0.0000 0.0000 0.0000
# 4 0.0000 0.0000 0.0000 -39.7215 0.0000 0.0000
# 5 0.0000 0.0000 0.0000 0.0000 20.4734 0.0000
# 6 0.0000 0.0000 0.0000 0.0000 0.0000 54.1391
#
#
#
# Elastic Compliance Matrix: (Units=1/GPa)
#
#
# Indices 1 2 3 4 5 6 
#
# 1 0.013603 -0.002285 0.005277 0.000000 0.000000 0.000000
# 2 -0.002285 0.005840 -0.005202 0.000000 0.000000 0.000000
# 3 0.005277 -0.005202 0.030624 0.000000 0.000000 0.000000
# 4 0.000000 0.000000 0.000000 -0.025175 0.000000 0.000000
# 5 0.000000 0.000000 0.000000 0.000000 0.048844 0.000000
# 6 0.000000 0.000000 0.000000 0.000000 0.000000 0.018471
#
#
# Mechanical properties :
#
#
# Convention : Reuss Voigt Hill
#
# Bulk Modulus (GPa) = 21.90759 46.36614 34.13686
# Shear Modulus (GPa) = 44.70583 25.98395 35.34489
#
# Velocity S-wave (km/s) = 4.50088 3.43137 4.00201
# Velocity P-wave (km/s) = 6.07764 6.05882 6.06824
#
# Compressibility (1/GPa) = 0.04564629
#
# Stress axis : x y z
#
# Youngs Moduli (GPa) = 73.51079 171.23637 32.65464
#
# Poissons Ratio (x) = 0.39129 -0.17231
# Poissons Ratio (y) = 0.16798 0.16987
# Poissons Ratio (z) = -0.38791 0.89078
#
# Static dielectric constant tensor:
#      x y z
#    x 1.841540 0.000000 0.000000 
#    y 0.000000 1.853250 0.000000 
#    z 0.000000 0.000000 1.792910 
# 
# From -- ./inp_files/8373.got.cif
#   From: 2010.05.17/outbox.cif.g08.bks.cpg/sg38_5_cif.got.tgz:8373.got - 2010.06.03 18:07:57.
