data_PCOD9357462
_publ_section_title
;
Structure prediction by ZEFSAII (Michael W. Deem and Ramdas Pophale) SiO2 
 PCOD9357462
Probable space group: A M M 2
;
_chemical_formula_sum "Si O2"
_cell_formula_units_Z 48
_cell_length_a 7.783484
_cell_length_b 19.713137
_cell_length_c 16.025323
_cell_angle_alpha 90.000000
_cell_angle_beta 90.000000
_cell_angle_gamma 90.000000
_cell_volume 2458.875665
_symmetry_space_group_name_H-M "A M M 2"
_symmetry_group_IT_number 38
_symmetry_cell_setting 'orthorhombic'
loop_
_space_group_symop_operation_xyz
x,y,z
-x,-y,z
-x,y,z
x,-y,z
x,1/2+y,1/2+z
-x,1/2-y,1/2+z
-x,1/2+y,1/2+z
x,1/2-y,1/2+z
loop_
_atom_site_type_symbol
_atom_site_label
_atom_site_fract_x
_atom_site_fract_y
_atom_site_fract_z
Si Si1 0.801329 0.328480 0.194510
Si Si2 0.295321 0.577717 0.529785
Si Si3 0.500000 0.574959 0.943168
Si Si4 0.797591 0.833411 0.374702
Si Si5 0.500000 0.925109 0.640801
Si Si6 0.794162 0.677016 0.679190
Si Si7 0.708226 0.318060 0.386817
O O1 0.669888 0.384959 0.166051
O O2 0.740766 0.254644 0.160674
O O3 0.788207 0.327133 0.295192
O O4 0.000000 0.339183 0.170436
O O5 0.500000 0.572654 0.518745
O O6 0.227497 0.500000 0.531878
O O7 0.266522 0.620198 0.614777
O O8 0.233309 0.625191 0.453164
O O9 0.500000 0.500000 0.905208
O O10 0.329336 0.614530 0.917386
O O11 0.500000 0.570054 0.042002
O O12 0.748917 0.834381 0.276115
O O13 0.761864 0.758281 0.410949
O O14 0.000000 0.848433 0.382377
O O15 0.500000 0.000000 0.679164
O O16 0.000000 0.677279 0.675701
O O17 0.500000 0.320434 0.379831
#
# Coordination Sequence:
#
# PCOD9357462 Si02
#       7
#     8   8   4   8   4   8   8
#     4  10  22  41  66  94 122 161 211 260 310 367
#     4  10  23  37  56  92 131 166 201 245 307 372
#     4  11  26  43  62  91 121 160 209 260 326 376
#     4  10  22  41  65  93 123 161 212 261 308 367
#     4  11  26  43  62  91 123 158 207 264 322 376
#     4   9  21  38  59  90 123 158 205 254 300 361
#     4  10  19  37  63  93 127 164 209 257 300 363
#
# _framework density 19.521115999999999
#
# number of rings (size 3 to 8) (size 9 to 14) (size 15 to 20)
#    0.000    2.000    1.667    1.500    4.667    4.333 
#    0.000    3.333    0.000    0.000    0.000    0.000 
#    0.000    0.000    0.000    0.000    0.000    0.000 
#
# Total GULP energy -133960.119773 kJ/mol
# GULP energy per Si atom -5581.671657 kJ/mol
# Density = 1.947668 g / cm^3
# Si number density = 19.521116 Si / 1000 Ang^3
#
#
#
# Elastic Constant Matrix: (Units=GPa)
#
#
# Indices 1 2 3 4 5 6 
#
# 1 83.3197 53.0618 11.1130 0.0000 0.0000 0.0000
# 2 53.0618 191.7216 66.0304 0.0000 0.0000 0.0000
# 3 11.1130 66.0304 56.6399 0.0000 0.0000 0.0000
# 4 0.0000 0.0000 0.0000 46.6605 0.0000 0.0000
# 5 0.0000 0.0000 0.0000 0.0000 -106.0604 0.0000
# 6 0.0000 0.0000 0.0000 0.0000 0.0000 -2.1653
#
#
#
# Elastic Compliance Matrix: (Units=1/GPa)
#
#
# Indices 1 2 3 4 5 6 
#
# 1 0.014898 -0.005207 0.003148 0.000000 0.000000 0.000000
# 2 -0.005207 0.010535 -0.011260 0.000000 0.000000 0.000000
# 3 0.003148 -0.011260 0.030165 0.000000 0.000000 0.000000
# 4 0.000000 0.000000 0.000000 0.021431 0.000000 0.000000
# 5 0.000000 0.000000 0.000000 0.000000 -0.009429 0.000000
# 6 0.000000 0.000000 0.000000 0.000000 0.000000 -0.461828
#
#
# Mechanical properties :
#
#
# Convention : Reuss Voigt Hill
#
# Bulk Modulus (GPa) = 34.53202 65.78795 50.15999
# Shear Modulus (GPa) = -13.96906 1.11868 -6.42519
#
# Velocity S-wave (km/s) = -2.67795 0.75783 -1.81619
# Velocity P-wave (km/s) = 2.85764 5.87706 4.62093
#
# Compressibility (1/GPa) = 0.02895863
#
# Stress axis : x y z
#
# Youngs Moduli (GPa) = 67.12093 94.91969 33.15119
#
# Poissons Ratio (x) = 0.49429 -0.10435
# Poissons Ratio (y) = 0.34953 0.37329
# Poissons Ratio (z) = -0.21127 1.06881
#
# Static dielectric constant tensor:
#      x y z
#    x 1.669260 0.000000 0.000000 
#    y 0.000000 1.706180 0.000000 
#    z 0.000000 0.000000 1.687060 
# 
# From -- ./inp_files/12070.got.cif
#   From: 2010.05.17/outbox.cif.g08.bks.cpg/sg38_7_cif.got.tgz:12070.got - 2010.06.03 18:07:57.
