data_PCOD9357866
_publ_section_title
;
Structure prediction by ZEFSAII (Michael W. Deem and Ramdas Pophale) SiO2 
 PCOD9357866
Probable space group: A M M 2
;
_chemical_formula_sum "Si O2"
_cell_formula_units_Z 58
_cell_length_a 27.833459
_cell_length_b 11.982457
_cell_length_c 8.021737
_cell_angle_alpha 90.000000
_cell_angle_beta 90.000000
_cell_angle_gamma 90.000000
_cell_volume 2675.355382
_symmetry_space_group_name_H-M "A M M 2"
_symmetry_group_IT_number 38
_symmetry_cell_setting 'orthorhombic'
loop_
_space_group_symop_operation_xyz
x,y,z
-x,-y,z
-x,y,z
x,-y,z
x,1/2+y,1/2+z
-x,1/2-y,1/2+z
-x,1/2+y,1/2+z
x,1/2-y,1/2+z
loop_
_atom_site_type_symbol
_atom_site_label
_atom_site_fract_x
_atom_site_fract_y
_atom_site_fract_z
Si Si1 0.828002 0.379286 0.448390
Si Si2 0.885162 0.697698 0.137567
Si Si3 0.311075 0.376309 0.068680
Si Si4 0.581321 0.349615 0.003895
Si Si5 0.556674 0.118365 0.889246
Si Si6 0.715335 0.873227 0.941956
Si Si7 0.944367 0.876591 0.330262
Si Si8 0.500000 0.500000 0.861325
O O1 0.835410 0.500000 0.531533
O O2 0.861769 0.370672 0.286800
O O3 0.843657 0.277487 0.564204
O O4 0.772261 0.372142 0.400961
O O5 0.925600 0.780840 0.209159
O O6 0.909970 0.629826 0.990637
O O7 0.286939 0.500000 0.029220
O O8 0.363873 0.384536 0.990219
O O9 0.313870 0.374075 0.269431
O O10 0.292740 0.250056 0.024190
O O11 0.562828 0.376051 0.190153
O O12 0.581725 0.218572 0.978070
O O13 0.542673 0.404092 0.880345
O O14 0.500000 0.123616 0.926686
O O15 0.575316 0.000000 0.949630
O O16 0.706970 0.000000 0.020629
O O17 0.000000 0.858727 0.376370
O O18 0.940754 0.000000 0.253835
#
# Coordination Sequence:
#
# PCOD9357866 Si02
#       8
#     8   8   8   8   8   8   8   2
#     4  10  20  37  59  83 111 146 189 245 295 349
#     4  10  20  34  56  84 112 149 198 242 290 340
#     4  11  23  40  61  87 115 152 189 233 287 354
#     4  12  22  40  63  82 117 151 184 230 280 331
#     4  11  21  39  58  84 112 145 183 226 270 322
#     4  10  23  42  63  87 119 152 192 241 302 357
#     4  10  20  34  52  79 118 159 197 239 286 339
#     4  12  20  40  62  86 112 156 184 228 280 332
#
# _framework density 21.679362000000001
#
# number of rings (size 3 to 8) (size 9 to 14) (size 15 to 20)
#    0.000    1.379    2.759    2.897    0.000    2.207 
#    1.241    3.448    0.000    6.621    0.000    0.000 
#    0.000    0.000    0.000    0.000    0.000    0.000 
#
# Total GULP energy -161486.231489 kJ/mol
# GULP energy per Si atom -5568.490741 kJ/mol
# Density = 2.163002 g / cm^3
# Si number density = 21.679362 Si / 1000 Ang^3
#
#
#
# Elastic Constant Matrix: (Units=GPa)
#
#
# Indices 1 2 3 4 5 6 
#
# 1 55.5147 15.6907 -14.4296 0.0000 0.0000 0.0000
# 2 15.6907 190.6008 19.9018 0.0000 0.0000 0.0000
# 3 -14.4296 19.9018 13.2064 0.0000 0.0000 0.0000
# 4 0.0000 0.0000 0.0000 32.0394 0.0000 0.0000
# 5 0.0000 0.0000 0.0000 0.0000 18.5918 0.0000
# 6 0.0000 0.0000 0.0000 0.0000 0.0000 182.8288
#
#
#
# Elastic Compliance Matrix: (Units=1/GPa)
#
#
# Indices 1 2 3 4 5 6 
#
# 1 0.032234 -0.007513 0.046543 0.000000 0.000000 0.000000
# 2 -0.007513 0.007978 -0.020231 0.000000 0.000000 0.000000
# 3 0.046543 -0.020231 0.157062 0.000000 0.000000 0.000000
# 4 0.000000 0.000000 0.000000 0.031212 0.000000 0.000000
# 5 0.000000 0.000000 0.000000 0.000000 0.053787 0.000000
# 6 0.000000 0.000000 0.000000 0.000000 0.000000 0.005470
#
#
# Mechanical properties :
#
#
# Convention : Reuss Voigt Hill
#
# Bulk Modulus (GPa) = 4.25768 33.51643 18.88705
# Shear Modulus (GPa) = 15.22361 62.56927 38.89644
#
# Velocity S-wave (km/s) = 2.65281 5.37809 4.24036
# Velocity P-wave (km/s) = 3.36919 7.35247 5.71884
#
# Compressibility (1/GPa) = 0.23486997
#
# Stress axis : x y z
#
# Youngs Moduli (GPa) = 31.02275 125.35134 6.36690
#
# Poissons Ratio (x) = 0.94182 -0.29633
# Poissons Ratio (y) = 0.23309 0.12881
# Poissons Ratio (z) = -1.44388 2.53603
#
# Static dielectric constant tensor:
#      x y z
#    x 1.803450 0.000000 0.000000 
#    y 0.000000 1.794320 0.000000 
#    z 0.000000 0.000000 1.781880 
# 
# From -- ./inp_files/7011.got.cif
#   From: 2010.05.17/outbox.cif.g08.bks.cpg/sg38_4_cif.got.tgz:7011.got - 2010.06.03 18:07:57.
