data_PCOD9357566
_publ_section_title
;
Structure prediction by ZEFSAII (Michael W. Deem and Ramdas Pophale) SiO2 
 PCOD9357566
Probable space group: A M M 2
;
_chemical_formula_sum "Si O2"
_cell_formula_units_Z 48
_cell_length_a 7.527352
_cell_length_b 9.399591
_cell_length_c 32.924428
_cell_angle_alpha 90.000000
_cell_angle_beta 90.000000
_cell_angle_gamma 90.000000
_cell_volume 2329.535970
_symmetry_space_group_name_H-M "A M M 2"
_symmetry_group_IT_number 38
_symmetry_cell_setting 'orthorhombic'
loop_
_space_group_symop_operation_xyz
x,y,z
-x,-y,z
-x,y,z
x,-y,z
x,1/2+y,1/2+z
-x,1/2-y,1/2+z
-x,1/2+y,1/2+z
x,1/2-y,1/2+z
loop_
_atom_site_type_symbol
_atom_site_label
_atom_site_fract_x
_atom_site_fract_y
_atom_site_fract_z
Si Si1 0.713050 0.160717 0.928400
Si Si2 0.782262 0.834712 0.769533
Si Si3 0.790777 0.826790 0.680769
Si Si4 0.213373 0.339020 0.847646
Si Si5 0.711935 0.337471 0.005063
Si Si6 0.213851 0.664052 0.093778
O O1 0.500000 0.151965 0.932718
O O2 0.747771 0.248741 0.887701
O O3 0.782208 0.000000 0.925388
O O4 0.782003 0.243897 0.967994
O O5 0.719310 0.784455 0.724895
O O6 0.721660 0.740155 0.807119
O O7 0.000000 0.832857 0.768740
O O8 0.731462 0.000000 0.775191
O O9 0.719730 0.775894 0.637019
O O10 0.000000 0.790397 0.681393
O O11 0.779421 0.000000 0.679915
O O12 0.281021 0.500000 0.851195
O O13 0.000000 0.345896 0.844084
O O14 0.500000 0.347529 0.000141
O O15 0.783147 0.500000 0.003797
O O16 0.742718 0.273002 0.049896
O O17 0.278343 0.500000 0.091602
O O18 0.000000 0.660172 0.096574
#
# Coordination Sequence:
#
# PCOD9357566 Si02
#       6
#     8   8   8   8   8   8
#     4  10  21  36  52  68  88 119 158 195 233 279
#     4   8  13  23  41  64  90 120 152 185 222 264
#     4   7  10  18  35  60  87 115 148 183 217 255
#     4  10  20  32  48  72  98 122 151 189 233 278
#     4   9  17  29  45  65  89 116 146 183 229 276
#     4   8  13  22  39  64  90 115 147 185 220 257
#
# _framework density 20.604960999999999
#
# number of rings (size 3 to 8) (size 9 to 14) (size 15 to 20)
#    0.000    3.333    0.000    3.000    0.000    2.667 
#    0.000    1.667    0.000    2.000    0.000    7.000 
#    0.000    0.000    0.000    0.000    0.000    0.000 
#
# Total GULP energy -133698.057941 kJ/mol
# GULP energy per Si atom -5570.752414 kJ/mol
# Density = 2.055806 g / cm^3
# Si number density = 20.604961 Si / 1000 Ang^3
#
#
#
# Elastic Constant Matrix: (Units=GPa)
#
#
# Indices 1 2 3 4 5 6 
#
# 1 51.8934 5.5216 3.1608 0.0000 0.0000 0.0000
# 2 5.5216 97.1847 101.3243 0.0000 0.0000 0.0000
# 3 3.1608 101.3243 266.4935 0.0000 0.0000 0.0000
# 4 0.0000 0.0000 0.0000 27.9805 0.0000 0.0000
# 5 0.0000 0.0000 0.0000 0.0000 36.7422 0.0000
# 6 0.0000 0.0000 0.0000 0.0000 0.0000 6.4002
#
#
#
# Elastic Compliance Matrix: (Units=1/GPa)
#
#
# Indices 1 2 3 4 5 6 
#
# 1 0.019403 -0.001429 0.000313 0.000000 0.000000 0.000000
# 2 -0.001429 0.017153 -0.006505 0.000000 0.000000 0.000000
# 3 0.000313 -0.006505 0.006222 0.000000 0.000000 0.000000
# 4 0.000000 0.000000 0.000000 0.035739 0.000000 0.000000
# 5 0.000000 0.000000 0.000000 0.000000 0.027217 0.000000
# 6 0.000000 0.000000 0.000000 0.000000 0.000000 0.156246
#
#
# Mechanical properties :
#
#
# Convention : Reuss Voigt Hill
#
# Bulk Modulus (GPa) = 36.31494 70.62057 53.46775
# Shear Modulus (GPa) = 17.45813 34.59558 26.02685
#
# Velocity S-wave (km/s) = 2.91396 4.10200 3.55792
# Velocity P-wave (km/s) = 5.38370 7.53546 6.54856
#
# Compressibility (1/GPa) = 0.02753688
#
# Stress axis : x y z
#
# Youngs Moduli (GPa) = 51.53777 58.30005 160.72265
#
# Poissons Ratio (x) = 0.08330 -0.05033
# Poissons Ratio (y) = 0.07364 1.04545
# Poissons Ratio (z) = -0.01614 0.37923
#
# Static dielectric constant tensor:
#      x y z
#    x 1.788770 0.000000 0.000000 
#    y 0.000000 1.719140 0.000000 
#    z 0.000000 0.000000 1.774220 
# 
# From -- ./inp_files/23675.got.cif
#   From: 2010.05.17/outbox.cif.g08.bks.cpg/sg38_12_cif.got.tgz:23675.got - 2010.06.03 18:07:57.
