data_PCOD9357929
_publ_section_title
;
Structure prediction by ZEFSAII (Michael W. Deem and Ramdas Pophale) SiO2 
 PCOD9357929
Probable space group: A M M 2
;
_chemical_formula_sum "Si O2"
_cell_formula_units_Z 64
_cell_length_a 20.806058
_cell_length_b 8.043723
_cell_length_c 19.277740
_cell_angle_alpha 90.000000
_cell_angle_beta 90.000000
_cell_angle_gamma 90.000000
_cell_volume 3226.287236
_symmetry_space_group_name_H-M "A M M 2"
_symmetry_group_IT_number 38
_symmetry_cell_setting 'orthorhombic'
loop_
_space_group_symop_operation_xyz
x,y,z
-x,-y,z
-x,y,z
x,-y,z
x,1/2+y,1/2+z
-x,1/2-y,1/2+z
-x,1/2+y,1/2+z
x,1/2-y,1/2+z
loop_
_atom_site_type_symbol
_atom_site_label
_atom_site_fract_x
_atom_site_fract_y
_atom_site_fract_z
Si Si1 0.426941 0.200954 0.202840
Si Si2 0.692309 0.796029 0.454788
Si Si3 0.926332 0.802663 0.294279
Si Si4 0.688714 0.302036 0.797376
Si Si5 0.926674 0.198738 0.949199
Si Si6 0.812690 0.200584 0.547392
Si Si7 0.427412 0.200451 0.545571
Si Si8 0.192332 0.804252 0.705065
O O1 0.500000 0.258707 0.217059
O O2 0.373536 0.264183 0.256312
O O3 0.410236 0.251077 0.124230
O O4 0.427413 0.000000 0.205613
O O5 0.696190 0.737294 0.375545
O O6 0.752798 0.741273 0.500819
O O7 0.626469 0.742412 0.491896
O O8 0.693287 0.000000 0.454691
O O9 0.906808 0.768803 0.374012
O O10 0.875905 0.723229 0.242064
O O11 0.000000 0.741808 0.286271
O O12 0.925849 0.000000 0.282997
O O13 0.679405 0.500000 0.803821
O O14 0.751973 0.273652 0.751869
O O15 0.000000 0.255374 0.962545
O O16 0.926791 0.000000 0.943815
O O17 0.877997 0.250735 0.008848
O O18 0.808488 0.262057 0.626409
O O19 0.810281 0.000000 0.549645
O O20 0.500000 0.261586 0.531575
O O21 0.428789 0.000000 0.542371
O O22 0.205813 0.000000 0.701965
#
# Coordination Sequence:
#
# PCOD9357929 Si02
#       8
#     8   8   8   8   8   8   8   8
#     4   9  18  32  50  75 107 139 172 215 267 321
#     4   9  18  33  52  75 102 132 172 219 262 309
#     4  10  21  38  60  83 109 143 180 218 265 324
#     4  10  20  34  54  77 103 140 182 224 273 328
#     4  10  21  37  58  84 112 140 174 219 266 315
#     4  10  21  36  54  76 106 144 180 219 268 319
#     4   9  17  31  53  77 101 134 174 214 259 315
#     4  11  23  37  55  80 110 143 182 230 276 319
#
# _framework density 19.837043000000001
#
# number of rings (size 3 to 8) (size 9 to 14) (size 15 to 20)
#    0.000    2.250    0.000    2.625    0.000    6.000 
#    0.000    6.250    0.000    0.000    0.000    3.500 
#    0.000    0.000    0.000    0.000    0.000    0.000 
#
# Total GULP energy -178696.114027 kJ/mol
# GULP energy per Si atom -5584.253563 kJ/mol
# Density = 1.979189 g / cm^3
# Si number density = 19.837043 Si / 1000 Ang^3
#
#
#
# Elastic Constant Matrix: (Units=GPa)
#
#
# Indices 1 2 3 4 5 6 
#
# 1 104.4324 -3.1154 99.6199 0.0000 0.0000 0.0000
# 2 -3.1154 10.8039 -0.4060 0.0000 0.0000 0.0000
# 3 99.6199 -0.4060 173.1842 0.0000 0.0000 0.0000
# 4 0.0000 0.0000 0.0000 20.8424 0.0000 0.0000
# 5 0.0000 0.0000 0.0000 0.0000 41.6911 0.0000
# 6 0.0000 0.0000 0.0000 0.0000 0.0000 13.2745
#
#
#
# Elastic Compliance Matrix: (Units=1/GPa)
#
#
# Indices 1 2 3 4 5 6 
#
# 1 0.021570 0.005754 -0.012394 0.000000 0.000000 0.000000
# 2 0.005754 0.094102 -0.003089 0.000000 0.000000 0.000000
# 3 -0.012394 -0.003089 0.012896 0.000000 0.000000 0.000000
# 4 0.000000 0.000000 0.000000 0.047979 0.000000 0.000000
# 5 0.000000 0.000000 0.000000 0.000000 0.023986 0.000000
# 6 0.000000 0.000000 0.000000 0.000000 0.000000 0.075333
#
#
# Mechanical properties :
#
#
# Convention : Reuss Voigt Hill
#
# Bulk Modulus (GPa) = 9.16505 53.40194 31.28350
# Shear Modulus (GPa) = 15.07405 27.98306 21.52856
#
# Velocity S-wave (km/s) = 2.75961 3.75993 3.29792
# Velocity P-wave (km/s) = 3.84501 6.76965 5.50510
#
# Compressibility (1/GPa) = 0.10911011
#
# Stress axis : x y z
#
# Youngs Moduli (GPa) = 46.35982 10.62674 77.54049
#
# Poissons Ratio (x) = -0.06115 0.96106
# Poissons Ratio (y) = -0.26676 0.23955
# Poissons Ratio (z) = 0.57460 0.03283
#
# Static dielectric constant tensor:
#      x y z
#    x 1.689700 0.000000 0.000000 
#    y 0.000000 1.714710 0.000000 
#    z 0.000000 0.000000 1.670550 
# 
# From -- ./inp_files/18911.got.cif
#   From: 2010.05.17/outbox.cif.g08.bks.cpg/sg38_10_cif.got.tgz:18911.got - 2010.06.03 18:07:57.
