data_PCOD9357764
_publ_section_title
;
Structure prediction by ZEFSAII (Michael W. Deem and Ramdas Pophale) SiO2 
 PCOD9357764
Probable space group: A M M 2
;
_chemical_formula_sum "Si O2"
_cell_formula_units_Z 64
_cell_length_a 25.672020
_cell_length_b 7.447770
_cell_length_c 14.815477
_cell_angle_alpha 90.000000
_cell_angle_beta 90.000000
_cell_angle_gamma 90.000000
_cell_volume 2832.708837
_symmetry_space_group_name_H-M "A M M 2"
_symmetry_group_IT_number 38
_symmetry_cell_setting 'orthorhombic'
loop_
_space_group_symop_operation_xyz
x,y,z
-x,-y,z
-x,y,z
x,-y,z
x,1/2+y,1/2+z
-x,1/2-y,1/2+z
-x,1/2+y,1/2+z
x,1/2-y,1/2+z
loop_
_atom_site_type_symbol
_atom_site_label
_atom_site_fract_x
_atom_site_fract_y
_atom_site_fract_z
Si Si1 0.250233 0.795613 0.962760
Si Si2 0.943518 0.293329 0.343046
Si Si3 0.640482 0.293997 0.523199
Si Si4 0.169616 0.209602 0.612436
Si Si5 0.558306 0.217029 0.373738
Si Si6 0.558105 0.780911 0.164436
Si Si7 0.944135 0.784993 0.131275
Si Si8 0.830880 0.778942 0.820634
O O1 0.217839 0.716384 0.879462
O O2 0.263172 0.000000 0.934908
O O3 0.304186 0.711349 0.996065
O O4 0.209397 0.799699 0.044739
O O5 0.943908 0.500000 0.375235
O O6 0.943104 0.292412 0.233026
O O7 0.886281 0.216939 0.362419
O O8 0.000000 0.213547 0.368506
O O9 0.651672 0.500000 0.551049
O O10 0.602806 0.292199 0.436976
O O11 0.604922 0.213691 0.602434
O O12 0.109210 0.230461 0.584385
O O13 0.173009 0.275441 0.716011
O O14 0.182581 0.000000 0.612750
O O15 0.500000 0.273045 0.402230
O O16 0.564917 0.267168 0.269067
O O17 0.560384 0.000000 0.378656
O O18 0.500000 0.722409 0.135304
O O19 0.557866 0.000000 0.159581
O O20 0.000000 0.732859 0.090182
O O21 0.943350 0.000000 0.139364
O O22 0.832614 0.000000 0.822365
#
# Coordination Sequence:
#
# PCOD9357764 Si02
#       8
#     8   8   8   8   8   8   8   8
#     4  10  21  36  51  72 103 136 175 217 253 295
#     4   8  13  24  45  70  93 123 164 203 244 303
#     4  10  20  33  52  76 102 136 174 213 253 294
#     4  10  20  35  54  73  97 134 174 210 253 304
#     4   9  18  33  53  76 102 131 162 201 251 305
#     4   8  15  30  51  74 102 135 167 200 248 309
#     4   9  16  27  47  75 102 127 158 202 258 312
#     4   8  16  32  51  69  96 132 164 204 260 311
#
# _framework density 22.593216000000002
#
# number of rings (size 3 to 8) (size 9 to 14) (size 15 to 20)
#    0.000    3.000    0.000    2.625    0.000    3.000 
#    0.000    4.375    0.000    3.000    0.000    0.000 
#    0.000    0.000    0.000    0.000    0.000    0.000 
#
# Total GULP energy -178553.730305 kJ/mol
# GULP energy per Si atom -5579.804072 kJ/mol
# Density = 2.254179 g / cm^3
# Si number density = 22.593216 Si / 1000 Ang^3
#
#
#
# Elastic Constant Matrix: (Units=GPa)
#
#
# Indices 1 2 3 4 5 6 
#
# 1 144.2652 -10.1978 37.3783 0.0000 0.0000 0.0000
# 2 -10.1978 72.4604 -8.2579 0.0000 0.0000 0.0000
# 3 37.3783 -8.2579 71.8308 0.0000 0.0000 0.0000
# 4 0.0000 0.0000 0.0000 4.8764 0.0000 0.0000
# 5 0.0000 0.0000 0.0000 0.0000 3657.0428 0.0000
# 6 0.0000 0.0000 0.0000 0.0000 0.0000 27.6305
#
#
#
# Elastic Compliance Matrix: (Units=1/GPa)
#
#
# Indices 1 2 3 4 5 6 
#
# 1 0.008043 0.000664 -0.004109 0.000000 0.000000 0.000000
# 2 0.000664 0.014039 0.001269 0.000000 0.000000 0.000000
# 3 -0.004109 0.001269 0.016206 0.000000 0.000000 0.000000
# 4 0.000000 0.000000 0.000000 0.205067 0.000000 0.000000
# 5 0.000000 0.000000 0.000000 0.000000 0.000273 0.000000
# 6 0.000000 0.000000 0.000000 0.000000 0.000000 0.036192
#
#
# Mechanical properties :
#
#
# Convention : Reuss Voigt Hill
#
# Bulk Modulus (GPa) = 29.46916 36.26687 32.86801
# Shear Modulus (GPa) = 16.92131 755.88553 386.40342
#
# Velocity S-wave (km/s) = 2.73967 18.31091 13.09189
# Velocity P-wave (km/s) = 4.80411 21.52067 15.59197
#
# Compressibility (1/GPa) = 0.03393378
#
# Stress axis : x y z
#
# Youngs Moduli (GPa) = 124.32791 71.23205 61.70666
#
# Poissons Ratio (x) = -0.04728 0.25356
# Poissons Ratio (y) = -0.08251 -0.07828
# Poissons Ratio (z) = 0.51088 -0.09036
#
# Static dielectric constant tensor:
#      x y z
#    x 1.785430 0.000000 0.000000 
#    y 0.000000 1.846180 0.000000 
#    z 0.000000 0.000000 1.819940 
# 
# From -- ./inp_files/15828.got.cif
#   From: 2010.05.17/outbox.cif.g08.bks.cpg/sg38_8_cif.got.tgz:15828.got - 2010.06.03 18:07:57.
