data_PCOD9357216
_publ_section_title
;
Structure prediction by ZEFSAII (Michael W. Deem and Ramdas Pophale) SiO2 
 PCOD9357216
Probable space group: A M M 2
;
_chemical_formula_sum "Si O2"
_cell_formula_units_Z 52
_cell_length_a 7.939850
_cell_length_b 20.612866
_cell_length_c 16.673091
_cell_angle_alpha 90.000000
_cell_angle_beta 90.000000
_cell_angle_gamma 90.000000
_cell_volume 2728.769161
_symmetry_space_group_name_H-M "A M M 2"
_symmetry_group_IT_number 38
_symmetry_cell_setting 'orthorhombic'
loop_
_space_group_symop_operation_xyz
x,y,z
-x,-y,z
-x,y,z
x,-y,z
x,1/2+y,1/2+z
-x,1/2-y,1/2+z
-x,1/2+y,1/2+z
x,1/2-y,1/2+z
loop_
_atom_site_type_symbol
_atom_site_label
_atom_site_fract_x
_atom_site_fract_y
_atom_site_fract_z
Si Si1 0.000000 0.354406 0.714041
Si Si2 0.689583 0.647546 0.935879
Si Si3 0.000000 0.920317 0.043095
Si Si4 0.000000 0.072018 0.363884
Si Si5 0.309472 0.923133 0.931367
Si Si6 0.299540 0.880121 0.755762
Si Si7 0.697060 0.729390 0.788438
Si Si8 0.802163 0.925726 0.582974
O O1 0.000000 0.379151 0.624147
O O2 0.834270 0.313805 0.741312
O O3 0.000000 0.418280 0.769235
O O4 0.500000 0.626403 0.917405
O O5 0.832667 0.604624 0.896289
O O6 0.711691 0.714594 0.885044
O O7 0.716495 0.631425 0.029906
O O8 0.833115 0.901483 0.992978
O O9 0.000000 0.000000 0.054266
O O10 0.000000 0.000000 0.391308
O O11 0.500000 0.895108 0.940786
O O12 0.250533 0.911311 0.840371
O O13 0.323434 0.000000 0.942606
O O14 0.500000 0.890191 0.747058
O O15 0.268405 0.803589 0.766182
O O16 0.218702 0.909991 0.676697
O O17 0.500000 0.715347 0.767926
O O18 0.000000 0.924379 0.563820
O O19 0.739821 0.000000 0.566826
#
# Coordination Sequence:
#
# PCOD9357216 Si02
#       8
#     4   8   4   4   8   8   8   8
#     4  10  21  37  58  81 110 154 187 232 288 330
#     4  10  20  37  58  81 115 154 189 232 286 339
#     4  10  21  37  57  85 114 144 187 235 284 335
#     4  10  19  34  55  82 111 144 192 239 280 337
#     4   9  19  36  58  84 113 144 182 231 284 338
#     4  10  21  39  59  82 113 152 193 234 283 341
#     4   9  21  40  59  82 114 150 194 237 277 336
#     4  11  23  36  55  89 125 152 189 241 289 341
#
# _framework density 19.05621
#
# number of rings (size 3 to 8) (size 9 to 14) (size 15 to 20)
#    0.000    2.154    0.769    1.615    2.154    3.385 
#    2.769    0.000    0.000    2.769    0.000    0.000 
#    0.000    0.000    0.000    0.000    0.000    0.000 
#
# Total GULP energy -144781.539234 kJ/mol
# GULP energy per Si atom -5568.520740 kJ/mol
# Density = 1.901284 g / cm^3
# Si number density = 19.056210 Si / 1000 Ang^3
#
#
#
# Elastic Constant Matrix: (Units=GPa)
#
#
# Indices 1 2 3 4 5 6 
#
# 1 87.6207 19.8872 45.2217 0.0000 0.0000 0.0000
# 2 19.8872 26.1425 13.7759 0.0000 0.0000 0.0000
# 3 45.2217 13.7759 133.3735 0.0000 0.0000 0.0000
# 4 0.0000 0.0000 0.0000 45.5693 0.0000 0.0000
# 5 0.0000 0.0000 0.0000 0.0000 24.9395 0.0000
# 6 0.0000 0.0000 0.0000 0.0000 0.0000 17.8214
#
#
#
# Elastic Compliance Matrix: (Units=1/GPa)
#
#
# Indices 1 2 3 4 5 6 
#
# 1 0.015893 -0.009783 -0.004378 0.000000 0.000000 0.000000
# 2 -0.009783 0.046476 -0.001483 0.000000 0.000000 0.000000
# 3 -0.004378 -0.001483 0.009135 0.000000 0.000000 0.000000
# 4 0.000000 0.000000 0.000000 0.021945 0.000000 0.000000
# 5 0.000000 0.000000 0.000000 0.000000 0.040097 0.000000
# 6 0.000000 0.000000 0.000000 0.000000 0.000000 0.056112
#
#
# Mechanical properties :
#
#
# Convention : Reuss Voigt Hill
#
# Bulk Modulus (GPa) = 24.86636 44.98958 34.92797
# Shear Modulus (GPa) = 21.33541 28.88283 25.10912
#
# Velocity S-wave (km/s) = 3.34968 3.89738 3.63386
# Velocity P-wave (km/s) = 5.29507 6.62668 5.99794
#
# Compressibility (1/GPa) = 0.04021497
#
# Stress axis : x y z
#
# Youngs Moduli (GPa) = 62.92124 21.51660 109.46398
#
# Poissons Ratio (x) = 0.21050 0.47925
# Poissons Ratio (y) = 0.61556 0.16237
# Poissons Ratio (z) = 0.27548 0.03192
#
# Static dielectric constant tensor:
#      x y z
#    x 1.671730 0.000000 0.000000 
#    y 0.000000 1.683530 0.000000 
#    z 0.000000 0.000000 1.687950 
# 
# From -- ./inp_files/12320.got.cif
#   From: 2010.05.17/outbox.cif.g08.bks.cpg/sg38_7_cif.got.tgz:12320.got - 2010.06.03 18:07:57.
