data_PCOD9357780
_publ_section_title
;
Structure prediction by ZEFSAII (Michael W. Deem and Ramdas Pophale) SiO2 
 PCOD9357780
Probable space group: A M M 2
;
_chemical_formula_sum "Si O2"
_cell_formula_units_Z 56
_cell_length_a 8.781912
_cell_length_b 14.616706
_cell_length_c 23.476086
_cell_angle_alpha 90.000000
_cell_angle_beta 90.000000
_cell_angle_gamma 90.000000
_cell_volume 3013.452043
_symmetry_space_group_name_H-M "A M M 2"
_symmetry_group_IT_number 38
_symmetry_cell_setting 'orthorhombic'
loop_
_space_group_symop_operation_xyz
x,y,z
-x,-y,z
-x,y,z
x,-y,z
x,1/2+y,1/2+z
-x,1/2-y,1/2+z
-x,1/2+y,1/2+z
x,1/2-y,1/2+z
loop_
_atom_site_type_symbol
_atom_site_label
_atom_site_fract_x
_atom_site_fract_y
_atom_site_fract_z
Si Si1 0.183235 0.602948 0.949480
Si Si2 0.676927 0.609193 0.383382
Si Si3 0.682535 0.781873 0.214163
Si Si4 0.318591 0.106963 0.326036
Si Si5 0.818053 0.605514 0.259935
Si Si6 0.815997 0.207602 0.992819
Si Si7 0.815800 0.106593 0.108654
O O1 0.239447 0.500000 0.962746
O O2 0.237340 0.626981 0.885640
O O3 0.230374 0.685622 0.990567
O O4 0.000000 0.600001 0.949654
O O5 0.500000 0.635307 0.377049
O O6 0.685431 0.500000 0.393259
O O7 0.761541 0.627429 0.323968
O O8 0.749855 0.659875 0.436741
O O9 0.500000 0.782314 0.212130
O O10 0.730828 0.832021 0.272927
O O11 0.744187 0.678933 0.218013
O O12 0.747939 0.838219 0.161437
O O13 0.500000 0.118886 0.333987
O O14 0.290850 0.000000 0.312601
O O15 0.773955 0.500000 0.248188
O O16 0.000000 0.612041 0.257660
O O17 0.000000 0.203231 0.989997
O O18 0.768007 0.154566 0.049596
O O19 0.000000 0.110052 0.111574
O O20 0.770158 0.000000 0.109748
#
# Coordination Sequence:
#
# PCOD9357780 Si02
#       7
#     8   8   8   8   8   8   8
#     4   9  18  32  51  77 106 135 170 214 263 313
#     4  10  20  33  52  81 114 144 176 220 275 330
#     4  11  22  36  56  80 108 142 180 225 276 328
#     4   9  18  32  50  75 107 140 172 209 259 319
#     4  10  21  37  57  81 110 144 181 221 268 326
#     4  10  20  35  55  77 105 144 187 229 271 317
#     4  10  22  39  57  78 106 141 183 229 274 326
#
# _framework density 18.583338999999999
#
# number of rings (size 3 to 8) (size 9 to 14) (size 15 to 20)
#    0.000    2.143    0.000    3.000    0.000    7.714 
#    0.000    2.143    0.000    2.571    0.000    0.000 
#    0.000    0.000    0.000    0.000    0.000    0.000 
#
# Total GULP energy -156351.268974 kJ/mol
# GULP energy per Si atom -5583.973892 kJ/mol
# Density = 1.854104 g / cm^3
# Si number density = 18.583339 Si / 1000 Ang^3
#
#
#
# Elastic Constant Matrix: (Units=GPa)
#
#
# Indices 1 2 3 4 5 6 
#
# 1 20.7728 40.5981 25.6212 0.0000 0.0000 0.0000
# 2 40.5981 154.2615 101.3483 0.0000 0.0000 0.0000
# 3 25.6212 101.3483 85.4664 0.0000 0.0000 0.0000
# 4 0.0000 0.0000 0.0000 34.6416 0.0000 0.0000
# 5 0.0000 0.0000 0.0000 0.0000 364.4644 0.0000
# 6 0.0000 0.0000 0.0000 0.0000 0.0000 23.4316
#
#
#
# Elastic Compliance Matrix: (Units=1/GPa)
#
#
# Indices 1 2 3 4 5 6 
#
# 1 0.099703 -0.029887 0.005552 0.000000 0.000000 0.000000
# 2 -0.029887 0.038302 -0.036460 0.000000 0.000000 0.000000
# 3 0.005552 -0.036460 0.053271 0.000000 0.000000 0.000000
# 4 0.000000 0.000000 0.000000 0.028867 0.000000 0.000000
# 5 0.000000 0.000000 0.000000 0.000000 0.002744 0.000000
# 6 0.000000 0.000000 0.000000 0.000000 0.000000 0.042677
#
#
# Mechanical properties :
#
#
# Convention : Reuss Voigt Hill
#
# Bulk Modulus (GPa) = 14.35011 66.18177 40.26594
# Shear Modulus (GPa) = 12.18376 90.70306 51.44341
#
# Velocity S-wave (km/s) = 2.56330 6.99391 5.26713
# Velocity P-wave (km/s) = 4.06196 10.04542 7.66192
#
# Compressibility (1/GPa) = 0.06968587
#
# Stress axis : x y z
#
# Youngs Moduli (GPa) = 10.02978 26.10856 18.77196
#
# Poissons Ratio (x) = 0.78030 -0.10421
# Poissons Ratio (y) = 0.29976 0.68442
# Poissons Ratio (z) = -0.05568 0.95191
#
# Static dielectric constant tensor:
#      x y z
#    x 1.619860 0.000000 0.000000 
#    y 0.000000 1.674470 0.000000 
#    z 0.000000 0.000000 1.597690 
# 
# From -- ./inp_files/19788.got.cif
#   From: 2010.05.17/outbox.cif.g08.bks.cpg/sg38_10_cif.got.tgz:19788.got - 2010.06.03 18:07:57.
