data_PCOD9357222
_publ_section_title
;
Structure prediction by ZEFSAII (Michael W. Deem and Ramdas Pophale) SiO2 
 PCOD9357222
Probable space group: A M M 2
;
_chemical_formula_sum "Si O2"
_cell_formula_units_Z 64
_cell_length_a 8.535440
_cell_length_b 25.785109
_cell_length_c 15.512626
_cell_angle_alpha 90.000000
_cell_angle_beta 90.000000
_cell_angle_gamma 90.000000
_cell_volume 3414.131208
_symmetry_space_group_name_H-M "A M M 2"
_symmetry_group_IT_number 38
_symmetry_cell_setting 'orthorhombic'
loop_
_space_group_symop_operation_xyz
x,y,z
-x,-y,z
-x,y,z
x,-y,z
x,1/2+y,1/2+z
-x,1/2-y,1/2+z
-x,1/2+y,1/2+z
x,1/2-y,1/2+z
loop_
_atom_site_type_symbol
_atom_site_label
_atom_site_fract_x
_atom_site_fract_y
_atom_site_fract_z
Si Si1 0.311294 0.862529 0.394390
Si Si2 0.812204 0.719825 0.601086
Si Si3 0.691413 0.440214 0.744584
Si Si4 0.188296 0.335359 0.070601
Si Si5 0.310661 0.558532 0.385961
Si Si6 0.310948 0.610441 0.563628
Si Si7 0.187525 0.350068 0.267486
Si Si8 0.312202 0.238132 0.292604
O O1 0.500000 0.862909 0.393716
O O2 0.257884 0.906118 0.326471
O O3 0.254327 0.868103 0.491795
O O4 0.258709 0.806384 0.358297
O O5 0.763985 0.774859 0.560256
O O6 0.751989 0.668645 0.554472
O O7 0.743488 0.720533 0.697740
O O8 0.000000 0.719034 0.606188
O O9 0.500000 0.439846 0.743932
O O10 0.741313 0.500000 0.749137
O O11 0.741650 0.413700 0.654835
O O12 0.239008 0.351295 0.166982
O O13 0.000000 0.337617 0.068337
O O14 0.500000 0.559246 0.383254
O O15 0.257757 0.500000 0.367430
O O16 0.263680 0.575647 0.482473
O O17 0.248288 0.600981 0.319811
O O18 0.500000 0.612554 0.565521
O O19 0.247223 0.295724 0.306899
O O20 0.000000 0.348927 0.268545
O O21 0.500000 0.240088 0.293747
#
# Coordination Sequence:
#
# PCOD9357222 Si02
#       8
#     8   8   8   8   8   8   8   8
#     4  10  20  33  54  85 112 143 187 231 279 331
#     4  10  20  34  52  80 114 151 188 225 276 338
#     4   9  17  33  56  81 112 147 183 224 272 331
#     4   9  21  38  54  76 110 150 188 228 280 338
#     4  10  22  39  60  87 114 146 194 245 291 338
#     4  10  19  34  56  83 114 150 186 227 279 338
#     4  10  22  40  59  81 111 151 193 234 291 349
#     4  10  19  34  55  83 114 145 185 233 282 337
#
# _framework density 18.745618
#
# number of rings (size 3 to 8) (size 9 to 14) (size 15 to 20)
#    0.000    2.250    1.250    2.250    1.750    6.250 
#    0.000    0.625    0.000    4.500    0.000    0.000 
#    0.000    0.000    0.000    0.000    0.000    0.000 
#
# Total GULP energy -178623.876190 kJ/mol
# GULP energy per Si atom -5581.996131 kJ/mol
# Density = 1.870295 g / cm^3
# Si number density = 18.745618 Si / 1000 Ang^3
#
#
#
# Elastic Constant Matrix: (Units=GPa)
#
#
# Indices 1 2 3 4 5 6 
#
# 1 11.3543 24.9672 18.6269 0.0000 0.0000 0.0000
# 2 24.9672 136.2688 68.0779 0.0000 0.0000 0.0000
# 3 18.6269 68.0779 100.4584 0.0000 0.0000 0.0000
# 4 0.0000 0.0000 0.0000 25.5767 0.0000 0.0000
# 5 0.0000 0.0000 0.0000 0.0000 -30.8340 0.0000
# 6 0.0000 0.0000 0.0000 0.0000 0.0000 -3.7149
#
#
#
# Elastic Compliance Matrix: (Units=1/GPa)
#
#
# Indices 1 2 3 4 5 6 
#
# 1 0.161032 -0.022054 -0.014913 0.000000 0.000000 0.000000
# 2 -0.022054 0.014115 -0.005476 0.000000 0.000000 0.000000
# 3 -0.014913 -0.005476 0.016431 0.000000 0.000000 0.000000
# 4 0.000000 0.000000 0.000000 0.039098 0.000000 0.000000
# 5 0.000000 0.000000 0.000000 0.000000 -0.032432 0.000000
# 6 0.000000 0.000000 0.000000 0.000000 0.000000 -0.269183
#
#
# Mechanical properties :
#
#
# Convention : Reuss Voigt Hill
#
# Bulk Modulus (GPa) = 9.37284 52.38062 30.87673
# Shear Modulus (GPa) = 100.98898 7.29953 54.14426
#
# Velocity S-wave (km/s) = 7.34781 1.97546 5.38019
# Velocity P-wave (km/s) = 8.77485 5.76253 7.42310
#
# Compressibility (1/GPa) = 0.10669125
#
# Stress axis : x y z
#
# Youngs Moduli (GPa) = 6.20995 70.84687 60.86236
#
# Poissons Ratio (x) = 1.56246 0.90764
# Poissons Ratio (y) = 0.13695 0.33329
# Poissons Ratio (z) = 0.09261 0.38796
#
# Static dielectric constant tensor:
#      x y z
#    x 1.639450 0.000000 0.000000 
#    y 0.000000 1.636350 0.000000 
#    z 0.000000 0.000000 1.652150 
# 
# From -- ./inp_files/12763.got.cif
#   From: 2010.05.17/outbox.cif.g08.bks.cpg/sg38_7_cif.got.tgz:12763.got - 2010.06.03 18:07:57.
