data_PCOD9357256
_publ_section_title
;
Structure prediction by ZEFSAII (Michael W. Deem and Ramdas Pophale) SiO2 
 PCOD9357256
Probable space group: A M M 2
;
_chemical_formula_sum "Si O2"
_cell_formula_units_Z 48
_cell_length_a 7.951461
_cell_length_b 19.668612
_cell_length_c 13.857327
_cell_angle_alpha 90.000000
_cell_angle_beta 90.000000
_cell_angle_gamma 90.000000
_cell_volume 2167.205588
_symmetry_space_group_name_H-M "A M M 2"
_symmetry_group_IT_number 38
_symmetry_cell_setting 'orthorhombic'
loop_
_space_group_symop_operation_xyz
x,y,z
-x,-y,z
-x,y,z
x,-y,z
x,1/2+y,1/2+z
-x,1/2-y,1/2+z
-x,1/2+y,1/2+z
x,1/2-y,1/2+z
loop_
_atom_site_type_symbol
_atom_site_label
_atom_site_fract_x
_atom_site_fract_y
_atom_site_fract_z
Si Si1 0.799989 0.220308 0.996600
Si Si2 0.797671 0.648958 0.090241
Si Si3 0.691037 0.880108 0.157620
Si Si4 0.796044 0.353709 0.300679
Si Si5 0.190411 0.500000 0.541159
Si Si6 0.309178 0.500000 0.341166
Si Si7 0.705990 0.500000 0.798271
Si Si8 0.299676 0.000000 0.519804
O O1 0.734884 0.181976 0.899937
O O2 0.000000 0.223345 0.981477
O O3 0.733077 0.296755 0.011511
O O4 0.775154 0.181778 0.099550
O O5 0.747251 0.676099 0.196646
O O6 0.000000 0.651488 0.087826
O O7 0.752040 0.570985 0.068854
O O8 0.500000 0.861545 0.181458
O O9 0.759469 0.929205 0.244439
O O10 0.704311 0.935804 0.073183
O O11 0.725453 0.429645 0.290130
O O12 0.000000 0.356537 0.305483
O O13 0.180073 0.500000 0.428315
O O14 0.000000 0.500000 0.581214
O O15 0.500000 0.500000 0.376301
O O16 0.500000 0.500000 0.791328
O O17 0.761211 0.500000 0.908545
O O18 0.500000 0.000000 0.517080
#
# Coordination Sequence:
#
# PCOD9357256 Si02
#       8
#     8   8   8   8   4   4   4   4
#     4  10  21  37  59  86 119 156 194 237 293 356
#     4  10  23  42  62  86 116 153 198 245 296 354
#     4  10  19  34  56  86 121 155 192 237 289 346
#     4  10  21  38  59  84 120 160 193 240 302 348
#     4  11  19  30  50  80 119 156 189 230 287 341
#     4  12  22  32  54  87 118 153 200 243 282 342
#     4   8  19  37  57  83 119 157 191 235 297 348
#     4  11  23  43  65  84 110 152 200 246 296 351
#
# _framework density 22.148337000000001
#
# number of rings (size 3 to 8) (size 9 to 14) (size 15 to 20)
#    0.000    1.833    1.667    3.250    0.000    4.667 
#    0.000    6.667    0.000    0.000    0.000    0.000 
#    0.000    0.000    0.000    0.000    0.000    0.000 
#
# Total GULP energy -133618.833099 kJ/mol
# GULP energy per Si atom -5567.451379 kJ/mol
# Density = 2.209793 g / cm^3
# Si number density = 22.148337 Si / 1000 Ang^3
#
#
#
# Elastic Constant Matrix: (Units=GPa)
#
#
# Indices 1 2 3 4 5 6 
#
# 1 32.3457 -2.4180 14.9652 0.0000 0.0000 0.0000
# 2 -2.4180 144.8479 65.9465 0.0000 0.0000 0.0000
# 3 14.9652 65.9465 147.2134 0.0000 0.0000 0.0000
# 4 0.0000 0.0000 0.0000 63.4902 0.0000 0.0000
# 5 0.0000 0.0000 0.0000 0.0000 16.7454 0.0000
# 6 0.0000 0.0000 0.0000 0.0000 0.0000 215.1806
#
#
#
# Elastic Compliance Matrix: (Units=1/GPa)
#
#
# Indices 1 2 3 4 5 6 
#
# 1 0.033220 0.002628 -0.004554 0.000000 0.000000 0.000000
# 2 0.002628 0.008880 -0.004245 0.000000 0.000000 0.000000
# 3 -0.004554 -0.004245 0.009158 0.000000 0.000000 0.000000
# 4 0.000000 0.000000 0.000000 0.015750 0.000000 0.000000
# 5 0.000000 0.000000 0.000000 0.000000 0.059718 0.000000
# 6 0.000000 0.000000 0.000000 0.000000 0.000000 0.004647
#
#
# Mechanical properties :
#
#
# Convention : Reuss Voigt Hill
#
# Bulk Modulus (GPa) = 25.69734 53.48827 39.59281
# Shear Modulus (GPa) = 31.91056 75.47745 53.69401
#
# Velocity S-wave (km/s) = 3.79986 5.84398 4.92905
# Velocity P-wave (km/s) = 5.55693 8.35097 7.09289
#
# Compressibility (1/GPa) = 0.03891454
#
# Stress axis : x y z
#
# Youngs Moduli (GPa) = 30.10275 112.60668 109.19924
#
# Poissons Ratio (x) = -0.29593 0.49732
# Poissons Ratio (y) = -0.07911 0.46358
# Poissons Ratio (z) = 0.13709 0.47805
#
# Static dielectric constant tensor:
#      x y z
#    x 1.792090 0.000000 0.000000 
#    y 0.000000 1.857430 0.000000 
#    z 0.000000 0.000000 1.836940 
# 
# From -- ./inp_files/12182.got.cif
#   From: 2010.05.17/outbox.cif.g08.bks.cpg/sg38_7_cif.got.tgz:12182.got - 2010.06.03 18:07:57.
