data_PCOD9357701
_publ_section_title
;
Structure prediction by ZEFSAII (Michael W. Deem and Ramdas Pophale) SiO2 
 PCOD9357701
Probable space group: A M M 2
;
_chemical_formula_sum "Si O2"
_cell_formula_units_Z 48
_cell_length_a 9.344803
_cell_length_b 8.592812
_cell_length_c 32.240267
_cell_angle_alpha 90.000000
_cell_angle_beta 90.000000
_cell_angle_gamma 90.000000
_cell_volume 2588.833323
_symmetry_space_group_name_H-M "A M M 2"
_symmetry_group_IT_number 38
_symmetry_cell_setting 'orthorhombic'
loop_
_space_group_symop_operation_xyz
x,y,z
-x,-y,z
-x,y,z
x,-y,z
x,1/2+y,1/2+z
-x,1/2-y,1/2+z
-x,1/2+y,1/2+z
x,1/2-y,1/2+z
loop_
_atom_site_type_symbol
_atom_site_label
_atom_site_fract_x
_atom_site_fract_y
_atom_site_fract_z
Si Si1 0.664786 0.809807 0.640310
Si Si2 0.826646 0.681090 0.809892
Si Si3 0.833732 0.314295 0.397718
Si Si4 0.164892 0.309876 0.058262
Si Si5 0.166445 0.187673 0.722066
Si Si6 0.664786 0.188090 0.476293
O O1 0.500000 0.760281 0.638330
O O2 0.752867 0.760059 0.599794
O O3 0.741577 0.759727 0.682718
O O4 0.665849 0.000000 0.640319
O O5 0.790559 0.500000 0.811759
O O6 0.779850 0.762853 0.852302
O O7 0.777666 0.752468 0.766320
O O8 0.000000 0.696834 0.809226
O O9 0.832123 0.500000 0.399930
O O10 0.740969 0.245222 0.434719
O O11 0.000000 0.261539 0.402012
O O12 0.164976 0.500000 0.058347
O O13 0.000000 0.259485 0.058101
O O14 0.247754 0.259623 0.016896
O O15 0.000000 0.236162 0.716966
O O16 0.168002 0.000000 0.723042
O O17 0.500000 0.239502 0.478344
O O18 0.665893 0.000000 0.476331
#
# Coordination Sequence:
#
# PCOD9357701 Si02
#       6
#     8   8   8   8   8   8
#     4   9  16  26  42  67  99 131 162 199 244 292
#     4   9  17  30  50  74  98 126 163 207 251 294
#     4  10  20  34  53  76 101 131 169 211 254 302
#     4   9  16  27  46  72 100 130 165 205 247 291
#     4   9  16  27  45  69  96 126 162 203 245 290
#     4  10  20  33  50  74 104 136 169 207 253 303
#
# _framework density 18.541169
#
# number of rings (size 3 to 8) (size 9 to 14) (size 15 to 20)
#    0.000    2.667    0.000    2.500    0.000    8.000 
#    0.000    0.833    0.000    4.500    0.000    2.333 
#    0.000    0.000    0.000    0.000    0.000    0.000 
#
# Total GULP energy -133869.475722 kJ/mol
# GULP energy per Si atom -5577.894822 kJ/mol
# Density = 1.849897 g / cm^3
# Si number density = 18.541169 Si / 1000 Ang^3
#
#
#
# Elastic Constant Matrix: (Units=GPa)
#
#
# Indices 1 2 3 4 5 6 
#
# 1 130.6602 17.2458 113.0615 0.0000 0.0000 0.0000
# 2 17.2458 3.1712 28.3893 0.0000 0.0000 0.0000
# 3 113.0615 28.3893 215.3361 0.0000 0.0000 0.0000
# 4 0.0000 0.0000 0.0000 23.6870 0.0000 0.0000
# 5 0.0000 0.0000 0.0000 0.0000 -6.8635 0.0000
# 6 0.0000 0.0000 0.0000 0.0000 0.0000 11.3107
#
#
#
# Elastic Compliance Matrix: (Units=1/GPa)
#
#
# Indices 1 2 3 4 5 6 
#
# 1 0.012364 0.050617 -0.013165 0.000000 0.000000 0.000000
# 2 0.050617 -1.542242 0.176748 0.000000 0.000000 0.000000
# 3 -0.013165 0.176748 -0.011746 0.000000 0.000000 0.000000
# 4 0.000000 0.000000 0.000000 0.042217 0.000000 0.000000
# 5 0.000000 0.000000 0.000000 0.000000 -0.145699 0.000000
# 6 0.000000 0.000000 0.000000 0.000000 0.000000 0.088411
#
#
# Mechanical properties :
#
#
# Convention : Reuss Voigt Hill
#
# Bulk Modulus (GPa) = -0.89829 74.06230 36.58200
# Shear Modulus (GPa) = -2.12209 18.32492 8.10142
#
# Velocity S-wave (km/s) = -1.07099 3.14719 2.09258
# Velocity P-wave (km/s) = 1.41947 7.29643 5.06078
#
# Compressibility (1/GPa) = -1.11322159
#
# Stress axis : x y z
#
# Youngs Moduli (GPa) = 80.87726 -0.64841 -85.13683
#
# Poissons Ratio (x) = 0.03282 -1.12084
# Poissons Ratio (y) = -4.09380 15.04780
# Poissons Ratio (z) = 1.06476 0.11460
#
# Static dielectric constant tensor:
#      x y z
#    x 1.628090 0.000000 0.000000 
#    y 0.000000 1.636580 0.000000 
#    z 0.000000 0.000000 1.621430 
# 
# From -- ./inp_files/24272.got.cif
#   From: 2010.05.17/outbox.cif.g08.bks.cpg/sg38_13_cif.got.tgz:24272.got - 2010.06.03 18:07:57.
