data_PCOD9357473
_publ_section_title
;
Structure prediction by ZEFSAII (Michael W. Deem and Ramdas Pophale) SiO2 
 PCOD9357473
Probable space group: A M M 2
;
_chemical_formula_sum "Si O2"
_cell_formula_units_Z 44
_cell_length_a 12.785994
_cell_length_b 8.713762
_cell_length_c 13.184182
_cell_angle_alpha 90.000000
_cell_angle_beta 90.000000
_cell_angle_gamma 90.000000
_cell_volume 1468.903886
_symmetry_space_group_name_H-M "A M M 2"
_symmetry_group_IT_number 38
_symmetry_cell_setting 'orthorhombic'
loop_
_space_group_symop_operation_xyz
x,y,z
-x,-y,z
-x,y,z
x,-y,z
x,1/2+y,1/2+z
-x,1/2-y,1/2+z
-x,1/2+y,1/2+z
x,1/2-y,1/2+z
loop_
_atom_site_type_symbol
_atom_site_label
_atom_site_fract_x
_atom_site_fract_y
_atom_site_fract_z
Si Si1 0.668562 0.000000 0.651430
Si Si2 0.875185 0.500000 0.034130
Si Si3 0.339479 0.832662 0.145819
Si Si4 0.124363 0.673572 0.427189
Si Si5 0.116644 0.326556 0.718544
Si Si6 0.623461 0.334569 0.889702
Si Si7 0.373289 0.000000 0.893453
O O1 0.792114 0.000000 0.626190
O O2 0.623574 0.163754 0.612138
O O3 0.647621 0.000000 0.771865
O O4 0.000000 0.500000 0.059031
O O5 0.853021 0.658970 0.975148
O O6 0.213264 0.830477 0.142434
O O7 0.362574 0.835304 0.267162
O O8 0.377515 0.000000 0.107152
O O9 0.162609 0.500000 0.449950
O O10 0.138385 0.707361 0.307095
O O11 0.000000 0.662211 0.443094
O O12 0.114758 0.500000 0.762510
O O13 0.000000 0.301270 0.676532
O O14 0.500000 0.333609 0.906768
O O15 0.664584 0.500000 0.924885
O O16 0.664675 0.170052 0.928425
O O17 0.500000 0.000000 0.903988
#
# Coordination Sequence:
#
# PCOD9357473 Si02
#       7
#     4   4   8   8   8   8   4
#     4  10  20  30  44  66  92 122 145 167 217 274
#     4  10  20  34  46  62  90 116 147 186 215 252
#     4   9  18  29  41  64  94 118 141 172 212 264
#     4   9  17  30  48  65  79 107 152 193 220 242
#     4   9  16  28  45  64  89 115 143 183 219 248
#     4   8  13  23  39  57  81 113 142 170 205 246
#     4   8  14  26  42  60  82 108 144 181 206 240
#
# _framework density 29.954308999999999
#
# number of rings (size 3 to 8) (size 9 to 14) (size 15 to 20)
#    0.000    3.091    0.909    0.000    1.273    1.455 
#    0.000    0.000    0.000    0.000    0.000    1.273 
#    0.000    1.455    0.000    0.000    0.000    0.000 
#
# Total GULP energy -123235.811755 kJ/mol
# GULP energy per Si atom -5601.627807 kJ/mol
# Density = 2.988613 g / cm^3
# Si number density = 29.954309 Si / 1000 Ang^3
#
#
#
# Elastic Constant Matrix: (Units=GPa)
#
#
# Indices 1 2 3 4 5 6 
#
# 1 174.5844 71.9449 26.0363 0.0000 0.0000 0.0000
# 2 71.9449 424.9050 95.2712 0.0000 0.0000 0.0000
# 3 26.0363 95.2712 99.1513 0.0000 0.0000 0.0000
# 4 0.0000 0.0000 0.0000 69.2902 0.0000 0.0000
# 5 0.0000 0.0000 0.0000 0.0000 25.7720 0.0000
# 6 0.0000 0.0000 0.0000 0.0000 0.0000 46.3185
#
#
#
# Elastic Compliance Matrix: (Units=1/GPa)
#
#
# Indices 1 2 3 4 5 6 
#
# 1 0.006206 -0.000874 -0.000790 0.000000 0.000000 0.000000
# 2 -0.000874 0.003123 -0.002771 0.000000 0.000000 0.000000
# 3 -0.000790 -0.002771 0.012956 0.000000 0.000000 0.000000
# 4 0.000000 0.000000 0.000000 0.014432 0.000000 0.000000
# 5 0.000000 0.000000 0.000000 0.000000 0.038802 0.000000
# 6 0.000000 0.000000 0.000000 0.000000 0.000000 0.021590
#
#
# Mechanical properties :
#
#
# Convention : Reuss Voigt Hill
#
# Bulk Modulus (GPa) = 74.54644 120.57173 97.55909
# Shear Modulus (GPa) = 45.26977 61.96868 53.61922
#
# Velocity S-wave (km/s) = 3.89175 4.55331 4.23547
# Velocity P-wave (km/s) = 6.71826 8.24517 7.52057
#
# Compressibility (1/GPa) = 0.01341446
#
# Stress axis : x y z
#
# Youngs Moduli (GPa) = 161.14148 320.23395 77.18566
#
# Poissons Ratio (x) = 0.27975 0.06099
# Poissons Ratio (y) = 0.14077 0.21389
# Poissons Ratio (z) = 0.12733 0.88741
#
# Static dielectric constant tensor:
#      x y z
#    x 2.274490 0.000000 0.000000 
#    y 0.000000 2.274250 0.000000 
#    z 0.000000 0.000000 2.330270 
# 
# From -- ./inp_files/14918.got.cif
#   From: 2010.05.17/outbox.cif.g08.bks.cpg/sg38_8_cif.got.tgz:14918.got - 2010.06.03 18:07:57.
