data_PCOD9357303
_publ_section_title
;
Structure prediction by ZEFSAII (Michael W. Deem and Ramdas Pophale) SiO2 
 PCOD9357303
Probable space group: A M M 2
;
_chemical_formula_sum "Si O2"
_cell_formula_units_Z 48
_cell_length_a 14.159821
_cell_length_b 27.615834
_cell_length_c 5.697881
_cell_angle_alpha 90.000000
_cell_angle_beta 90.000000
_cell_angle_gamma 90.000000
_cell_volume 2228.072414
_symmetry_space_group_name_H-M "A M M 2"
_symmetry_group_IT_number 38
_symmetry_cell_setting 'orthorhombic'
loop_
_space_group_symop_operation_xyz
x,y,z
-x,-y,z
-x,y,z
x,-y,z
x,1/2+y,1/2+z
-x,1/2-y,1/2+z
-x,1/2+y,1/2+z
x,1/2-y,1/2+z
loop_
_atom_site_type_symbol
_atom_site_label
_atom_site_fract_x
_atom_site_fract_y
_atom_site_fract_z
Si Si1 0.284898 0.054314 0.406490
Si Si2 0.364139 0.772682 0.317631
Si Si3 0.605362 0.372009 0.628881
Si Si4 0.892199 0.446595 0.564428
Si Si5 0.778595 0.130274 0.786935
Si Si6 0.848189 0.736896 0.254073
O O1 0.364653 0.076429 0.236503
O O2 0.185692 0.052605 0.267583
O O3 0.268064 0.094522 0.600737
O O4 0.306967 0.000000 0.489011
O O5 0.396368 0.748837 0.563704
O O6 0.391378 0.828883 0.319043
O O7 0.251328 0.764910 0.296071
O O8 0.500000 0.373464 0.526610
O O9 0.691355 0.357814 0.458578
O O10 0.885592 0.500000 0.445219
O O11 0.859762 0.402296 0.405219
O O12 0.000000 0.441089 0.645606
O O13 0.823733 0.180629 0.710448
O O14 0.893176 0.742528 0.514311
#
# Coordination Sequence:
#
# PCOD9357303 Si02
#       6
#     8   8   8   8   8   8
#     4  10  22  40  61  87 120 163 208 263 324 387
#     4  10  19  36  56  86 121 161 206 266 320 372
#     4  11  24  38  56  84 122 166 215 264 313 376
#     4   9  20  39  64  96 126 152 197 264 330 390
#     4  11  21  37  64  89 124 164 212 257 322 387
#     4  10  19  34  59  89 124 168 209 259 315 375
#
# _framework density 21.543285999999998
#
# number of rings (size 3 to 8) (size 9 to 14) (size 15 to 20)
#    0.000    1.833    3.333    2.500    2.333    3.000 
#    0.000    1.667    0.000    1.000    0.000    0.000 
#    0.000    0.000    0.000    0.000    0.000    0.000 
#
# Total GULP energy -133823.356632 kJ/mol
# GULP energy per Si atom -5575.973193 kJ/mol
# Density = 2.149425 g / cm^3
# Si number density = 21.543286 Si / 1000 Ang^3
#
#
#
# Elastic Constant Matrix: (Units=GPa)
#
#
# Indices 1 2 3 4 5 6 
#
# 1 99.6850 22.1628 -2.3838 0.0000 0.0000 0.0000
# 2 22.1628 140.7176 37.6649 0.0000 0.0000 0.0000
# 3 -2.3838 37.6649 100.2787 0.0000 0.0000 0.0000
# 4 0.0000 0.0000 0.0000 35.1670 0.0000 0.0000
# 5 0.0000 0.0000 0.0000 0.0000 -9.1890 0.0000
# 6 0.0000 0.0000 0.0000 0.0000 0.0000 11.4898
#
#
#
# Elastic Compliance Matrix: (Units=1/GPa)
#
#
# Indices 1 2 3 4 5 6 
#
# 1 0.010479 -0.001909 0.000966 0.000000 0.000000 0.000000
# 2 -0.001909 0.008249 -0.003144 0.000000 0.000000 0.000000
# 3 0.000966 -0.003144 0.011176 0.000000 0.000000 0.000000
# 4 0.000000 0.000000 0.000000 0.028436 0.000000 0.000000
# 5 0.000000 0.000000 0.000000 0.000000 -0.108826 0.000000
# 6 0.000000 0.000000 0.000000 0.000000 0.000000 0.087034
#
#
# Mechanical properties :
#
#
# Convention : Reuss Voigt Hill
#
# Bulk Modulus (GPa) = 46.01793 50.61880 48.31836
# Shear Modulus (GPa) = 96.22233 26.37606 61.29919
#
# Velocity S-wave (km/s) = 6.69041 3.50284 5.34001
# Velocity P-wave (km/s) = 9.00495 6.31721 7.77806
#
# Compressibility (1/GPa) = 0.02173066
#
# Stress axis : x y z
#
# Youngs Moduli (GPa) = 95.42769 121.23394 89.47826
#
# Poissons Ratio (x) = 0.23144 -0.08645
# Poissons Ratio (y) = 0.18218 0.28128
# Poissons Ratio (z) = -0.09220 0.38110
#
# Static dielectric constant tensor:
#      x y z
#    x 1.753610 0.000000 0.000000 
#    y 0.000000 1.840780 0.000000 
#    z 0.000000 0.000000 1.900960 
# 
# From -- ./inp_files/1315.got.cif
#   From: 2010.05.17/outbox.cif.g08.bks.cpg/sg38_1_cif.got.tgz:1315.got - 2010.06.03 18:07:57.
