data_PCOD9357017
_publ_section_title
;
Structure prediction by ZEFSAII (Michael W. Deem and Ramdas Pophale) SiO2 
 PCOD9357017
Probable space group: A M M 2
;
_chemical_formula_sum "Si O2"
_cell_formula_units_Z 64
_cell_length_a 9.643728
_cell_length_b 27.387192
_cell_length_c 12.774532
_cell_angle_alpha 90.000000
_cell_angle_beta 90.000000
_cell_angle_gamma 90.000000
_cell_volume 3373.940797
_symmetry_space_group_name_H-M "A M M 2"
_symmetry_group_IT_number 38
_symmetry_cell_setting 'orthorhombic'
loop_
_space_group_symop_operation_xyz
x,y,z
-x,-y,z
-x,y,z
x,-y,z
x,1/2+y,1/2+z
-x,1/2-y,1/2+z
-x,1/2+y,1/2+z
x,1/2-y,1/2+z
loop_
_atom_site_type_symbol
_atom_site_label
_atom_site_fract_x
_atom_site_fract_y
_atom_site_fract_z
Si Si1 0.157398 0.337208 0.339540
Si Si2 0.336660 0.444595 0.846283
Si Si3 0.831462 0.204968 0.055568
Si Si4 0.831341 0.187033 0.613490
Si Si5 0.348994 0.443399 0.525613
Si Si6 0.833699 0.114912 0.182015
Si Si7 0.338778 0.907703 0.576058
Si Si8 0.238222 0.945107 0.798175
O O1 0.221751 0.320492 0.448969
O O2 0.217752 0.313935 0.234678
O O3 0.153552 0.395450 0.320213
O O4 0.000000 0.319339 0.343770
O O5 0.500000 0.436763 0.823368
O O6 0.300859 0.500000 0.815738
O O7 0.242963 0.407009 0.782284
O O8 0.319403 0.438811 0.970958
O O9 0.791583 0.261283 0.064105
O O10 0.794825 0.170704 0.153826
O O11 0.000000 0.203884 0.054635
O O12 0.759030 0.139585 0.565931
O O13 0.000000 0.181998 0.610011
O O14 0.500000 0.423302 0.556551
O O15 0.342820 0.500000 0.557732
O O16 0.225038 0.415701 0.582963
O O17 0.337594 0.443412 0.399685
O O18 0.000000 0.110486 0.190039
O O19 0.500000 0.893033 0.581634
O O20 0.303316 0.936122 0.683664
O O21 0.175302 0.000000 0.799583
#
# Coordination Sequence:
#
# PCOD9357017 Si02
#       8
#     8   8   8   8   8   8   8   8
#     4   9  17  32  52  79 114 146 181 228 281 333
#     4  10  22  40  59  79 111 155 192 227 280 340
#     4   9  18  34  55  80 110 147 187 228 280 338
#     4   9  19  35  58  82 107 145 188 231 282 335
#     4  10  20  33  51  78 112 147 180 218 272 335
#     4  11  22  36  56  82 110 144 191 236 274 324
#     4  10  21  38  59  83 112 145 188 238 283 332
#     4  10  19  32  55  84 112 147 188 226 271 335
#
# _framework density 18.968917999999999
#
# number of rings (size 3 to 8) (size 9 to 14) (size 15 to 20)
#    0.000    2.250    1.250    1.500    0.000    5.000 
#    0.000    5.000    0.000    3.750    0.000    0.000 
#    0.000    0.000    0.000    0.000    0.000    0.000 
#
# Total GULP energy -178200.220357 kJ/mol
# GULP energy per Si atom -5568.756886 kJ/mol
# Density = 1.892574 g / cm^3
# Si number density = 18.968918 Si / 1000 Ang^3
#
#
#
# Elastic Constant Matrix: (Units=GPa)
#
#
# Indices 1 2 3 4 5 6 
#
# 1 43.2455 18.3794 18.4613 0.0000 0.0000 0.0000
# 2 18.3794 97.6167 29.5244 0.0000 0.0000 0.0000
# 3 18.4613 29.5244 96.1194 0.0000 0.0000 0.0000
# 4 0.0000 0.0000 0.0000 22.7706 0.0000 0.0000
# 5 0.0000 0.0000 0.0000 0.0000 11.2679 0.0000
# 6 0.0000 0.0000 0.0000 0.0000 0.0000 31.4135
#
#
#
# Elastic Compliance Matrix: (Units=1/GPa)
#
#
# Indices 1 2 3 4 5 6 
#
# 1 0.026402 -0.003789 -0.003907 0.000000 0.000000 0.000000
# 2 -0.003789 0.011837 -0.002908 0.000000 0.000000 0.000000
# 3 -0.003907 -0.002908 0.012047 0.000000 0.000000 0.000000
# 4 0.000000 0.000000 0.000000 0.043916 0.000000 0.000000
# 5 0.000000 0.000000 0.000000 0.000000 0.088748 0.000000
# 6 0.000000 0.000000 0.000000 0.000000 0.000000 0.031833
#
#
# Mechanical properties :
#
#
# Convention : Reuss Voigt Hill
#
# Bulk Modulus (GPa) = 34.39059 41.07909 37.73484
# Shear Modulus (GPa) = 20.35121 24.46483 22.40802
#
# Velocity S-wave (km/s) = 3.27902 3.59518 3.44074
# Velocity P-wave (km/s) = 5.70135 6.23993 5.97671
#
# Compressibility (1/GPa) = 0.02907772
#
# Stress axis : x y z
#
# Youngs Moduli (GPa) = 37.87574 84.47950 83.00539
#
# Poissons Ratio (x) = 0.32012 0.32430
# Poissons Ratio (y) = 0.14352 0.24139
# Poissons Ratio (z) = 0.14798 0.24568
#
# Static dielectric constant tensor:
#      x y z
#    x 1.651860 0.000000 0.000000 
#    y 0.000000 1.662130 0.000000 
#    z 0.000000 0.000000 1.697690 
# 
# From -- ./inp_files/9635.got.cif
#   From: 2010.05.17/outbox.cif.g08.bks.cpg/sg38_5_cif.got.tgz:9635.got - 2010.06.03 18:07:57.
