data_PCOD9357803
_publ_section_title
;
Structure prediction by ZEFSAII (Michael W. Deem and Ramdas Pophale) SiO2 
 PCOD9357803
Probable space group: A M M 2
;
_chemical_formula_sum "Si O2"
_cell_formula_units_Z 64
_cell_length_a 9.874552
_cell_length_b 28.266746
_cell_length_c 12.221152
_cell_angle_alpha 90.000000
_cell_angle_beta 90.000000
_cell_angle_gamma 90.000000
_cell_volume 3411.185707
_symmetry_space_group_name_H-M "A M M 2"
_symmetry_group_IT_number 38
_symmetry_cell_setting 'orthorhombic'
loop_
_space_group_symop_operation_xyz
x,y,z
-x,-y,z
-x,y,z
x,-y,z
x,1/2+y,1/2+z
-x,1/2-y,1/2+z
-x,1/2+y,1/2+z
x,1/2-y,1/2+z
loop_
_atom_site_type_symbol
_atom_site_label
_atom_site_fract_x
_atom_site_fract_y
_atom_site_fract_z
Si Si1 0.342944 0.715259 0.233130
Si Si2 0.345519 0.177604 0.285203
Si Si3 0.840879 0.554655 0.060592
Si Si4 0.852196 0.676428 0.403103
Si Si5 0.149864 0.930258 0.819399
Si Si6 0.339307 0.352019 0.030215
Si Si7 0.157744 0.625992 0.628620
Si Si8 0.346988 0.946716 0.009615
O O1 0.500000 0.703546 0.248413
O O2 0.333241 0.771850 0.224730
O O3 0.263393 0.704603 0.343881
O O4 0.296239 0.682595 0.130963
O O5 0.500000 0.160363 0.263736
O O6 0.329114 0.176913 0.416408
O O7 0.229678 0.145099 0.235526
O O8 0.803507 0.500000 0.028685
O O9 0.835664 0.557155 0.193119
O O10 0.747183 0.599100 0.024221
O O11 0.000000 0.561837 0.030015
O O12 0.852327 0.625867 0.341024
O O13 0.833338 0.664434 0.530147
O O14 0.000000 0.698782 0.387721
O O15 0.000000 0.946882 0.857315
O O16 0.274584 0.947530 0.891514
O O17 0.500000 0.363376 0.045192
O O18 0.247197 0.583112 0.584386
O O19 0.000000 0.614290 0.641901
O O20 0.500000 0.927204 0.003208
O O21 0.354385 0.000000 0.050550
#
# Coordination Sequence:
#
# PCOD9357803 Si02
#       8
#     8   8   8   8   8   8   8   8
#     4  10  21  36  60  88 115 150 190 234 289 351
#     4  10  23  41  61  84 115 154 197 244 294 353
#     4  10  20  35  57  84 116 158 203 245 295 353
#     4   9  18  33  54  82 115 147 183 228 279 337
#     4   9  17  31  51  78 116 155 189 234 289 345
#     4  10  22  40  59  87 122 153 196 249 297 352
#     4  10  22  39  58  83 115 150 193 240 288 343
#     4  10  20  33  53  83 116 152 194 239 292 350
#
# _framework density 18.761806
#
# number of rings (size 3 to 8) (size 9 to 14) (size 15 to 20)
#    0.000    2.250    1.250    1.875    1.750    5.750 
#    0.000    0.625    0.000    0.750    0.000    0.000 
#    0.000    0.000    0.000    0.000    0.000    0.000 
#
# Total GULP energy -178226.235295 kJ/mol
# GULP energy per Si atom -5569.569853 kJ/mol
# Density = 1.871910 g / cm^3
# Si number density = 18.761806 Si / 1000 Ang^3
#
#
#
# Elastic Constant Matrix: (Units=GPa)
#
#
# Indices 1 2 3 4 5 6 
#
# 1 113.9265 50.9095 35.7782 0.0000 0.0000 0.0000
# 2 50.9095 54.3525 18.9039 0.0000 0.0000 0.0000
# 3 35.7782 18.9039 47.5158 0.0000 0.0000 0.0000
# 4 0.0000 0.0000 0.0000 -10.9578 0.0000 0.0000
# 5 0.0000 0.0000 0.0000 0.0000 27.3948 0.0000
# 6 0.0000 0.0000 0.0000 0.0000 0.0000 50.5379
#
#
#
# Elastic Compliance Matrix: (Units=1/GPa)
#
#
# Indices 1 2 3 4 5 6 
#
# 1 0.017163 -0.013441 -0.007576 0.000000 0.000000 0.000000
# 2 -0.013441 0.031879 -0.002562 0.000000 0.000000 0.000000
# 3 -0.007576 -0.002562 0.027769 0.000000 0.000000 0.000000
# 4 0.000000 0.000000 0.000000 -0.091260 0.000000 0.000000
# 5 0.000000 0.000000 0.000000 0.000000 0.036503 0.000000
# 6 0.000000 0.000000 0.000000 0.000000 0.000000 0.019787
#
#
# Mechanical properties :
#
#
# Convention : Reuss Voigt Hill
#
# Bulk Modulus (GPa) = 33.72298 47.44203 40.58250
# Shear Modulus (GPa) = 50.56374 20.74186 35.65280
#
# Velocity S-wave (km/s) = 5.19701 3.32857 4.36396
# Velocity P-wave (km/s) = 7.35018 6.33355 6.86072
#
# Compressibility (1/GPa) = 0.02965337
#
# Stress axis : x y z
#
# Youngs Moduli (GPa) = 58.26477 31.36855 36.01076
#
# Poissons Ratio (x) = 0.42162 0.27282
# Poissons Ratio (y) = 0.78313 0.09227
# Poissons Ratio (z) = 0.44141 0.08037
#
# Static dielectric constant tensor:
#      x y z
#    x 1.664480 0.000000 0.000000 
#    y 0.000000 1.682960 0.000000 
#    z 0.000000 0.000000 1.635510 
# 
# From -- ./inp_files/8679.got.cif
#   From: 2010.05.17/outbox.cif.g08.bks.cpg/sg38_5_cif.got.tgz:8679.got - 2010.06.03 18:07:57.
