data_PCOD9357633
_publ_section_title
;
Structure prediction by ZEFSAII (Michael W. Deem and Ramdas Pophale) SiO2 
 PCOD9357633
Probable space group: A M M 2
;
_chemical_formula_sum "Si O2"
_cell_formula_units_Z 48
_cell_length_a 7.831405
_cell_length_b 8.997570
_cell_length_c 36.106226
_cell_angle_alpha 90.000000
_cell_angle_beta 90.000000
_cell_angle_gamma 90.000000
_cell_volume 2544.175197
_symmetry_space_group_name_H-M "A M M 2"
_symmetry_group_IT_number 38
_symmetry_cell_setting 'orthorhombic'
loop_
_space_group_symop_operation_xyz
x,y,z
-x,-y,z
-x,y,z
x,-y,z
x,1/2+y,1/2+z
-x,1/2-y,1/2+z
-x,1/2+y,1/2+z
x,1/2-y,1/2+z
loop_
_atom_site_type_symbol
_atom_site_label
_atom_site_fract_x
_atom_site_fract_y
_atom_site_fract_z
Si Si1 0.705018 0.830136 0.925290
Si Si2 0.000000 0.820098 0.641679
Si Si3 0.792790 0.328212 0.770951
Si Si4 0.697119 0.681559 0.506218
Si Si5 0.000000 0.320203 0.560868
Si Si6 0.309443 0.678591 0.194513
Si Si7 0.205038 0.670106 0.345743
O O1 0.500000 0.837821 0.926857
O O2 0.752217 0.761147 0.885841
O O3 0.773808 0.000000 0.923786
O O4 0.755414 0.765807 0.965185
O O5 0.834665 0.773696 0.665514
O O6 0.000000 0.750134 0.601263
O O7 0.000000 0.000000 0.638793
O O8 0.743776 0.500000 0.769394
O O9 0.725185 0.244382 0.734973
O O10 0.733707 0.256645 0.809604
O O11 0.000000 0.319100 0.769987
O O12 0.500000 0.726843 0.513068
O O13 0.696468 0.500000 0.504310
O O14 0.831923 0.724287 0.537458
O O15 0.000000 0.500000 0.563634
O O16 0.500000 0.719539 0.182224
O O17 0.299191 0.500000 0.197378
O O18 0.271056 0.500000 0.344744
O O19 0.000000 0.664208 0.343511
#
# Coordination Sequence:
#
# PCOD9357633 Si02
#       7
#     8   4   8   8   4   8   8
#     4   8  14  25  42  66  97 131 168 214 260 296
#     4  10  22  40  58  79 110 135 161 210 263 314
#     4  10  20  34  52  75 108 145 177 215 264 313
#     4   8  15  28  46  73 107 135 166 214 261 299
#     4  10  20  32  54  81 102 133 171 204 253 316
#     4  10  21  38  61  83 102 134 177 217 261 312
#     4   9  17  27  44  71 100 133 176 221 259 299
#
# _framework density 18.866627000000001
#
# number of rings (size 3 to 8) (size 9 to 14) (size 15 to 20)
#    0.000    2.833    0.833    1.500    1.167    3.000 
#    0.000    1.667    0.000    1.000    0.000    2.333 
#    0.000    0.000    0.000    0.000    0.000    0.000 
#
# Total GULP energy -133774.967466 kJ/mol
# GULP energy per Si atom -5573.956978 kJ/mol
# Density = 1.882369 g / cm^3
# Si number density = 18.866627 Si / 1000 Ang^3
#
#
#
# Elastic Constant Matrix: (Units=GPa)
#
#
# Indices 1 2 3 4 5 6 
#
# 1 93.0139 26.0299 84.9705 0.0000 0.0000 0.0000
# 2 26.0299 8.2312 32.3626 0.0000 0.0000 0.0000
# 3 84.9705 32.3626 206.9893 0.0000 0.0000 0.0000
# 4 0.0000 0.0000 0.0000 24.5332 0.0000 0.0000
# 5 0.0000 0.0000 0.0000 0.0000 -34.4922 0.0000
# 6 0.0000 0.0000 0.0000 0.0000 0.0000 6.7233
#
#
#
# Elastic Compliance Matrix: (Units=1/GPa)
#
#
# Indices 1 2 3 4 5 6 
#
# 1 0.144616 -0.581170 0.031500 0.000000 0.000000 0.000000
# 2 -0.581170 2.650879 -0.175888 0.000000 0.000000 0.000000
# 3 0.031500 -0.175888 0.019400 0.000000 0.000000 0.000000
# 4 0.000000 0.000000 0.000000 0.040761 0.000000 0.000000
# 5 0.000000 0.000000 0.000000 0.000000 -0.028992 0.000000
# 6 0.000000 0.000000 0.000000 0.000000 0.000000 0.148737
#
#
# Mechanical properties :
#
#
# Convention : Reuss Voigt Hill
#
# Bulk Modulus (GPa) = 0.73326 66.10672 33.41999
# Shear Modulus (GPa) = 1.02436 10.34429 5.68432
#
# Velocity S-wave (km/s) = 0.73765 2.34409 1.73765
# Velocity P-wave (km/s) = 1.05593 6.51470 4.66671
#
# Compressibility (1/GPa) = 1.36377787
#
# Stress axis : x y z
#
# Youngs Moduli (GPa) = 6.91487 0.37723 51.54569
#
# Poissons Ratio (x) = 0.21924 -1.62367
# Poissons Ratio (y) = 4.01872 9.06626
# Poissons Ratio (z) = -0.21782 0.06635
#
# Static dielectric constant tensor:
#      x y z
#    x 1.679510 0.000000 0.000000 
#    y 0.000000 1.645380 0.000000 
#    z 0.000000 0.000000 1.648600 
# 
# From -- ./inp_files/24418.got.cif
#   From: 2010.05.17/outbox.cif.g08.bks.cpg/sg38_13_cif.got.tgz:24418.got - 2010.06.03 18:07:57.
