data_PCOD9357847
_publ_section_title
;
Structure prediction by ZEFSAII (Michael W. Deem and Ramdas Pophale) SiO2 
 PCOD9357847
Probable space group: A M M 2
;
_chemical_formula_sum "Si O2"
_cell_formula_units_Z 64
_cell_length_a 21.258284
_cell_length_b 7.646566
_cell_length_c 18.971586
_cell_angle_alpha 90.000000
_cell_angle_beta 90.000000
_cell_angle_gamma 90.000000
_cell_volume 3083.885784
_symmetry_space_group_name_H-M "A M M 2"
_symmetry_group_IT_number 38
_symmetry_cell_setting 'orthorhombic'
loop_
_space_group_symop_operation_xyz
x,y,z
-x,-y,z
-x,y,z
x,-y,z
x,1/2+y,1/2+z
-x,1/2-y,1/2+z
-x,1/2+y,1/2+z
x,1/2-y,1/2+z
loop_
_atom_site_type_symbol
_atom_site_label
_atom_site_fract_x
_atom_site_fract_y
_atom_site_fract_z
Si Si1 0.429490 0.210513 0.205830
Si Si2 0.691830 0.785620 0.456738
Si Si3 0.929737 0.790674 0.296409
Si Si4 0.689061 0.285384 0.794450
Si Si5 0.928726 0.209239 0.959154
Si Si6 0.808599 0.204398 0.550789
Si Si7 0.429247 0.209571 0.542712
Si Si8 0.188596 0.705014 0.712455
O O1 0.500000 0.276604 0.220990
O O2 0.375411 0.274195 0.257857
O O3 0.414670 0.253261 0.124545
O O4 0.431204 0.000000 0.211365
O O5 0.695143 0.731489 0.375503
O O6 0.752047 0.726029 0.501897
O O7 0.627114 0.726595 0.493501
O O8 0.692353 0.000000 0.457066
O O9 0.914040 0.759418 0.378413
O O10 0.875070 0.719619 0.246337
O O11 0.000000 0.719255 0.283540
O O12 0.933364 0.000000 0.286187
O O13 0.688004 0.500000 0.793418
O O14 0.748468 0.223779 0.748653
O O15 0.874735 0.274431 0.010901
O O16 0.000000 0.272737 0.974671
O O17 0.929438 0.000000 0.963729
O O18 0.810088 0.282430 0.628591
O O19 0.796277 0.000000 0.560906
O O20 0.500000 0.277422 0.528017
O O21 0.431543 0.000000 0.534279
O O22 0.188182 0.500000 0.731210
#
# Coordination Sequence:
#
# PCOD9357847 Si02
#       8
#     8   8   8   8   8   8   8   8
#     4   9  17  29  47  71  97 126 162 205 251 299
#     4   9  18  32  50  74 102 131 168 213 256 299
#     4   9  18  34  56  79 103 133 167 203 249 305
#     4   9  17  30  49  71  96 128 166 209 255 301
#     4  10  21  37  57  80 106 135 168 209 255 304
#     4  11  22  35  53  76 104 138 174 214 258 304
#     4   9  17  30  50  74 100 132 167 204 248 298
#     4  10  20  34  52  74 102 136 172 210 254 304
#
# _framework density 20.753039000000001
#
# number of rings (size 3 to 8) (size 9 to 14) (size 15 to 20)
#    0.000    2.500    0.000    2.250    0.000    4.250 
#    0.000    4.375    0.000    3.000    0.000    3.500 
#    0.000    0.000    0.000    0.000    0.000    0.000 
#
# Total GULP energy -178665.997123 kJ/mol
# GULP energy per Si atom -5583.312410 kJ/mol
# Density = 2.070580 g / cm^3
# Si number density = 20.753039 Si / 1000 Ang^3
#
#
#
# Elastic Constant Matrix: (Units=GPa)
#
#
# Indices 1 2 3 4 5 6 
#
# 1 168.4001 -2.0722 129.9480 0.0000 0.0000 0.0000
# 2 -2.0722 36.3392 -14.7144 0.0000 0.0000 0.0000
# 3 129.9480 -14.7144 151.2236 0.0000 0.0000 0.0000
# 4 0.0000 0.0000 0.0000 23.5500 0.0000 0.0000
# 5 0.0000 0.0000 0.0000 0.0000 45.8612 0.0000
# 6 0.0000 0.0000 0.0000 0.0000 0.0000 1.9160
#
#
#
# Elastic Compliance Matrix: (Units=1/GPa)
#
#
# Indices 1 2 3 4 5 6 
#
# 1 0.018680 -0.005657 -0.016603 0.000000 0.000000 0.000000
# 2 -0.005657 0.030361 0.007816 0.000000 0.000000 0.000000
# 3 -0.016603 0.007816 0.021640 0.000000 0.000000 0.000000
# 4 0.000000 0.000000 0.000000 0.042463 0.000000 0.000000
# 5 0.000000 0.000000 0.000000 0.000000 0.021805 0.000000
# 6 0.000000 0.000000 0.000000 0.000000 0.000000 0.521928
#
#
# Mechanical properties :
#
#
# Convention : Reuss Voigt Hill
#
# Bulk Modulus (GPa) = 23.92801 64.69840 44.31320
# Shear Modulus (GPa) = 7.14597 30.45221 18.79909
#
# Velocity S-wave (km/s) = 1.85764 3.83477 3.01300
# Velocity P-wave (km/s) = 4.01945 7.13094 5.78819
#
# Compressibility (1/GPa) = 0.04179203
#
# Stress axis : x y z
#
# Youngs Moduli (GPa) = 53.53272 32.93742 46.21089
#
# Poissons Ratio (x) = 0.18634 0.76722
# Poissons Ratio (y) = 0.30286 -0.36117
# Poissons Ratio (z) = 0.88878 -0.25743
#
# Static dielectric constant tensor:
#      x y z
#    x 1.737490 0.000000 0.000000 
#    y 0.000000 1.780950 0.000000 
#    z 0.000000 0.000000 1.678950 
# 
# From -- ./inp_files/18875.got.cif
#   From: 2010.05.17/outbox.cif.g08.bks.cpg/sg38_10_cif.got.tgz:18875.got - 2010.06.03 18:07:57.
