data_PCOD9357813
_publ_section_title
;
Structure prediction by ZEFSAII (Michael W. Deem and Ramdas Pophale) SiO2 
 PCOD9357813
Probable space group: A M M 2
;
_chemical_formula_sum "Si O2"
_cell_formula_units_Z 64
_cell_length_a 14.318887
_cell_length_b 7.834018
_cell_length_c 27.201430
_cell_angle_alpha 90.000000
_cell_angle_beta 90.000000
_cell_angle_gamma 90.000000
_cell_volume 3051.304593
_symmetry_space_group_name_H-M "A M M 2"
_symmetry_group_IT_number 38
_symmetry_cell_setting 'orthorhombic'
loop_
_space_group_symop_operation_xyz
x,y,z
-x,-y,z
-x,y,z
x,-y,z
x,1/2+y,1/2+z
-x,1/2-y,1/2+z
-x,1/2+y,1/2+z
x,1/2-y,1/2+z
loop_
_atom_site_type_symbol
_atom_site_label
_atom_site_fract_x
_atom_site_fract_y
_atom_site_fract_z
Si Si1 0.608538 0.290572 0.600680
Si Si2 0.894661 0.800862 0.739207
Si Si3 0.893928 0.294096 0.955112
Si Si4 0.295072 0.200962 0.200045
Si Si5 0.607634 0.294430 0.798313
Si Si6 0.392500 0.294911 0.405012
Si Si7 0.288965 0.204864 0.002226
Si Si8 0.886411 0.695168 0.848244
O O1 0.500000 0.240705 0.600343
O O2 0.610500 0.500000 0.600385
O O3 0.660156 0.230025 0.650122
O O4 0.661890 0.232130 0.551654
O O5 0.815745 0.720023 0.705406
O O6 0.865466 0.781731 0.796515
O O7 0.000000 0.729145 0.734488
O O8 0.898164 0.000000 0.727792
O O9 0.896293 0.500000 0.950795
O O10 0.859921 0.228864 0.901254
O O11 0.000000 0.235653 0.964186
O O12 0.819878 0.245604 0.996182
O O13 0.339941 0.272746 0.250218
O O14 0.317168 0.000000 0.199958
O O15 0.500000 0.234209 0.797197
O O16 0.606990 0.500000 0.796198
O O17 0.648591 0.248564 0.851566
O O18 0.500000 0.232392 0.405933
O O19 0.394919 0.500000 0.408221
O O20 0.338764 0.228201 0.452686
O O21 0.299040 0.000000 0.002170
O O22 0.852284 0.500000 0.844391
O O23 0.000000 0.690566 0.851178
#
# Coordination Sequence:
#
# PCOD9357813 Si02
#       8
#     8   8   8   8   8   8   8   8
#     4   9  18  36  61  84 106 136 179 229 273 317
#     4  10  21  35  51  75 109 145 179 218 267 320
#     4   9  19  35  53  75 107 146 183 219 265 319
#     4  10  20  34  56  81 103 136 182 225 268 315
#     4   9  18  32  50  75 105 134 168 212 262 317
#     4   9  18  32  49  73 107 141 169 203 258 325
#     4  10  20  33  54  82 107 137 180 224 268 316
#     4   8  15  30  51  73 100 138 181 220 258 306
#
# _framework density 20.974634999999999
#
# number of rings (size 3 to 8) (size 9 to 14) (size 15 to 20)
#    0.000    2.750    0.000    1.875    1.750    5.500 
#    0.000    2.500    0.000    6.750    0.000    0.000 
#    0.000    0.000    0.000    0.000    0.000    0.000 
#
# Total GULP energy -178587.185142 kJ/mol
# GULP energy per Si atom -5580.849536 kJ/mol
# Density = 2.092690 g / cm^3
# Si number density = 20.974635 Si / 1000 Ang^3
#
#
#
# Elastic Constant Matrix: (Units=GPa)
#
#
# Indices 1 2 3 4 5 6 
#
# 1 127.9666 -3.5231 104.6107 0.0000 0.0000 0.0000
# 2 -3.5231 21.0863 9.3446 0.0000 0.0000 0.0000
# 3 104.6107 9.3446 180.5500 0.0000 0.0000 0.0000
# 4 0.0000 0.0000 0.0000 17.3234 0.0000 0.0000
# 5 0.0000 0.0000 0.0000 0.0000 39.1747 0.0000
# 6 0.0000 0.0000 0.0000 0.0000 0.0000 14.0264
#
#
#
# Elastic Compliance Matrix: (Units=1/GPa)
#
#
# Indices 1 2 3 4 5 6 
#
# 1 0.015753 0.006834 -0.009481 0.000000 0.000000 0.000000
# 2 0.006834 0.051502 -0.006625 0.000000 0.000000 0.000000
# 3 -0.009481 -0.006625 0.011375 0.000000 0.000000 0.000000
# 4 0.000000 0.000000 0.000000 0.057726 0.000000 0.000000
# 5 0.000000 0.000000 0.000000 0.000000 0.025527 0.000000
# 6 0.000000 0.000000 0.000000 0.000000 0.000000 0.071294
#
#
# Mechanical properties :
#
#
# Convention : Reuss Voigt Hill
#
# Bulk Modulus (GPa) = 16.64298 61.16302 38.90300
# Shear Modulus (GPa) = 18.39926 28.71628 23.55777
#
# Velocity S-wave (km/s) = 2.96499 3.70414 3.35499
# Velocity P-wave (km/s) = 4.43550 6.89333 5.79619
#
# Compressibility (1/GPa) = 0.06008540
#
# Stress axis : x y z
#
# Youngs Moduli (GPa) = 63.47806 19.41673 87.91230
#
# Poissons Ratio (x) = -0.13269 0.83352
# Poissons Ratio (y) = -0.43380 0.58243
# Poissons Ratio (z) = 0.60185 0.12864
#
# Static dielectric constant tensor:
#      x y z
#    x 1.786270 0.000000 0.000000 
#    y 0.000000 1.770070 0.000000 
#    z 0.000000 0.000000 1.748410 
# 
# From -- ./inp_files/22913.got.cif
#   From: 2010.05.17/outbox.cif.g08.bks.cpg/sg38_12_cif.got.tgz:22913.got - 2010.06.03 18:07:57.
