data_PCOD9357788
_publ_section_title
;
Structure prediction by ZEFSAII (Michael W. Deem and Ramdas Pophale) SiO2 
 PCOD9357788
Probable space group: A M M 2
;
_chemical_formula_sum "Si O2"
_cell_formula_units_Z 64
_cell_length_a 24.994357
_cell_length_b 7.380285
_cell_length_c 15.694566
_cell_angle_alpha 90.000000
_cell_angle_beta 90.000000
_cell_angle_gamma 90.000000
_cell_volume 2895.105620
_symmetry_space_group_name_H-M "A M M 2"
_symmetry_group_IT_number 38
_symmetry_cell_setting 'orthorhombic'
loop_
_space_group_symop_operation_xyz
x,y,z
-x,-y,z
-x,y,z
x,-y,z
x,1/2+y,1/2+z
-x,1/2-y,1/2+z
-x,1/2+y,1/2+z
x,1/2-y,1/2+z
loop_
_atom_site_type_symbol
_atom_site_label
_atom_site_fract_x
_atom_site_fract_y
_atom_site_fract_z
Si Si1 0.247573 0.790380 0.951070
Si Si2 0.941875 0.218343 0.350739
Si Si3 0.637196 0.290169 0.406085
Si Si4 0.174977 0.278070 0.604395
Si Si5 0.438716 0.278866 0.256815
Si Si6 0.561210 0.718815 0.062817
Si Si7 0.941640 0.786590 0.052971
Si Si8 0.826917 0.719166 0.792238
O O1 0.304929 0.708671 0.927178
O O2 0.209462 0.784708 0.869107
O O3 0.257900 0.000000 0.974417
O O4 0.214260 0.712856 0.030280
O O5 0.938014 0.267590 0.450550
O O6 0.888219 0.281010 0.304982
O O7 0.000000 0.282230 0.319005
O O8 0.942175 0.000000 0.345109
O O9 0.646924 0.500000 0.382510
O O10 0.602759 0.213213 0.327730
O O11 0.601086 0.284208 0.490559
O O12 0.173230 0.500000 0.599719
O O13 0.113909 0.214883 0.589697
O O14 0.192806 0.227410 0.698939
O O15 0.500000 0.222892 0.275381
O O16 0.439070 0.500000 0.258611
O O17 0.425428 0.225404 0.159719
O O18 0.500000 0.775673 0.045044
O O19 0.562196 0.500000 0.061135
O O20 0.000000 0.711481 0.078546
O O21 0.942868 0.000000 0.074252
O O22 0.826905 0.500000 0.796260
#
# Coordination Sequence:
#
# PCOD9357788 Si02
#       8
#     8   8   8   8   8   8   8   8
#     4  10  21  37  52  71 103 136 170 215 256 290
#     4   9  17  29  47  72  99 122 152 204 259 301
#     4  10  20  33  53  77 101 136 176 210 248 294
#     4   9  18  33  51  71  99 131 164 209 259 302
#     4   8  15  30  51  74 102 134 165 199 244 299
#     4   9  18  33  53  77 105 134 163 202 251 297
#     4   9  16  28  50  74  95 127 166 199 244 311
#     4  10  20  34  53  73  95 131 172 207 253 308
#
# _framework density 22.106275
#
# number of rings (size 3 to 8) (size 9 to 14) (size 15 to 20)
#    0.000    2.750    1.250    1.125    0.000    2.750 
#    0.000    4.375    0.000    0.750    0.000    3.500 
#    0.000    0.000    0.000    0.000    0.000    0.000 
#
# Total GULP energy -178660.859529 kJ/mol
# GULP energy per Si atom -5583.151860 kJ/mol
# Density = 2.205596 g / cm^3
# Si number density = 22.106275 Si / 1000 Ang^3
#
#
#
# Elastic Constant Matrix: (Units=GPa)
#
#
# Indices 1 2 3 4 5 6 
#
# 1 119.8013 -7.4822 56.3646 0.0000 0.0000 0.0000
# 2 -7.4822 75.6998 -17.4619 0.0000 0.0000 0.0000
# 3 56.3646 -17.4619 100.7836 0.0000 0.0000 0.0000
# 4 0.0000 0.0000 0.0000 12.9802 0.0000 0.0000
# 5 0.0000 0.0000 0.0000 0.0000 -9.8701 0.0000
# 6 0.0000 0.0000 0.0000 0.0000 0.0000 59.1795
#
#
#
# Elastic Compliance Matrix: (Units=1/GPa)
#
#
# Indices 1 2 3 4 5 6 
#
# 1 0.011337 -0.000356 -0.006402 0.000000 0.000000 0.000000
# 2 -0.000356 0.013771 0.002585 0.000000 0.000000 0.000000
# 3 -0.006402 0.002585 0.013951 0.000000 0.000000 0.000000
# 4 0.000000 0.000000 0.000000 0.077040 0.000000 0.000000
# 5 0.000000 0.000000 0.000000 0.000000 -0.101317 0.000000
# 6 0.000000 0.000000 0.000000 0.000000 0.000000 0.016898
#
#
# Mechanical properties :
#
#
# Convention : Reuss Voigt Hill
#
# Bulk Modulus (GPa) = 32.55983 39.90284 36.23133
# Shear Modulus (GPa) = 99.47437 30.11554 64.79495
#
# Velocity S-wave (km/s) = 6.71535 3.69495 5.41981
# Velocity P-wave (km/s) = 8.65382 6.02438 7.45593
#
# Compressibility (1/GPa) = 0.03071270
#
# Stress axis : x y z
#
# Youngs Moduli (GPa) = 88.20692 72.61521 71.68139
#
# Poissons Ratio (x) = 0.02587 0.45891
# Poissons Ratio (y) = 0.03142 -0.18531
# Poissons Ratio (z) = 0.56471 -0.18773
#
# Static dielectric constant tensor:
#      x y z
#    x 1.797630 0.000000 0.000000 
#    y 0.000000 1.742550 0.000000 
#    z 0.000000 0.000000 1.769280 
# 
# From -- ./inp_files/15774.got.cif
#   From: 2010.05.17/outbox.cif.g08.bks.cpg/sg38_8_cif.got.tgz:15774.got - 2010.06.03 18:07:57.
