data_PCOD9357939
_publ_section_title
;
Structure prediction by ZEFSAII (Michael W. Deem and Ramdas Pophale) SiO2 
 PCOD9357939
Probable space group: A M M 2
;
_chemical_formula_sum "Si O2"
_cell_formula_units_Z 56
_cell_length_a 21.180334
_cell_length_b 7.351157
_cell_length_c 15.560682
_cell_angle_alpha 90.000000
_cell_angle_beta 90.000000
_cell_angle_gamma 90.000000
_cell_volume 2422.797573
_symmetry_space_group_name_H-M "A M M 2"
_symmetry_group_IT_number 38
_symmetry_cell_setting 'orthorhombic'
loop_
_space_group_symop_operation_xyz
x,y,z
-x,-y,z
-x,y,z
x,-y,z
x,1/2+y,1/2+z
-x,1/2-y,1/2+z
-x,1/2+y,1/2+z
x,1/2-y,1/2+z
loop_
_atom_site_type_symbol
_atom_site_label
_atom_site_fract_x
_atom_site_fract_y
_atom_site_fract_z
Si Si1 0.431455 0.710741 0.086400
Si Si2 0.158978 0.718264 0.124382
Si Si3 0.701406 0.290912 0.358317
Si Si4 0.432250 0.278990 0.381798
Si Si5 0.929061 0.714304 0.463747
Si Si6 0.295821 0.721636 0.061357
Si Si7 0.838970 0.276885 0.313286
O O1 0.500000 0.789127 0.112854
O O2 0.431934 0.500000 0.114209
O O3 0.361277 0.783606 0.106019
O O4 0.431769 0.718014 0.981587
O O5 0.162492 0.500000 0.124877
O O6 0.230227 0.781003 0.103470
O O7 0.138878 0.776424 0.218982
O O8 0.109547 0.768360 0.051572
O O9 0.700339 0.500000 0.327987
O O10 0.632162 0.213439 0.338175
O O11 0.705228 0.285324 0.462318
O O12 0.766957 0.212345 0.325633
O O13 0.500000 0.225010 0.344196
O O14 0.429985 0.500000 0.383281
O O15 0.934847 0.500000 0.446327
O O16 0.884862 0.788805 0.388049
O O17 0.000000 0.789114 0.468040
O O18 0.297532 0.500000 0.060024
O O19 0.836914 0.500000 0.318304
#
# Coordination Sequence:
#
# PCOD9357939 Si02
#       7
#     8   8   8   8   8   8   8
#     4   8  13  21  34  55  86 123 159 195 239 288
#     4  10  20  34  54  79 105 133 166 205 246 292
#     4   9  15  26  46  66  90 128 167 200 240 292
#     4   8  13  20  33  58  88 116 153 201 244 280
#     4  10  21  38  58  78 101 129 163 202 243 295
#     4   9  16  26  43  68  96 125 162 207 247 283
#     4   9  18  33  53  76 101 133 168 198 238 295
#
# _framework density 23.113776999999999
#
# number of rings (size 3 to 8) (size 9 to 14) (size 15 to 20)
#    0.000    3.000    1.429    0.000    0.000    0.857 
#    0.000    2.857    0.000    0.857    0.000    6.000 
#    0.000    0.000    0.000   46.286    0.000   21.714 
#
# Total GULP energy -156195.409716 kJ/mol
# GULP energy per Si atom -5578.407490 kJ/mol
# Density = 2.306117 g / cm^3
# Si number density = 23.113777 Si / 1000 Ang^3
#
#
#
# Elastic Constant Matrix: (Units=GPa)
#
#
# Indices 1 2 3 4 5 6 
#
# 1 241.2785 7.6439 75.6975 0.0000 0.0000 0.0000
# 2 7.6439 91.0731 -8.5757 0.0000 0.0000 0.0000
# 3 75.6975 -8.5757 87.2244 0.0000 0.0000 0.0000
# 4 0.0000 0.0000 0.0000 7.8999 0.0000 0.0000
# 5 0.0000 0.0000 0.0000 0.0000 -16.4896 0.0000
# 6 0.0000 0.0000 0.0000 0.0000 0.0000 -1.5058
#
#
#
# Elastic Compliance Matrix: (Units=1/GPa)
#
#
# Indices 1 2 3 4 5 6 
#
# 1 0.005778 -0.000966 -0.005110 0.000000 0.000000 0.000000
# 2 -0.000966 0.011244 0.001944 0.000000 0.000000 0.000000
# 3 -0.005110 0.001944 0.016090 0.000000 0.000000 0.000000
# 4 0.000000 0.000000 0.000000 0.126583 0.000000 0.000000
# 5 0.000000 0.000000 0.000000 0.000000 -0.060644 0.000000
# 6 0.000000 0.000000 0.000000 0.000000 0.000000 -0.664097
#
#
# Mechanical properties :
#
#
# Convention : Reuss Voigt Hill
#
# Bulk Modulus (GPa) = 40.24276 63.23415 51.73846
# Shear Modulus (GPa) = -9.11579 20.96825 5.92623
#
# Velocity S-wave (km/s) = -1.98807 3.01520 1.60297
# Velocity P-wave (km/s) = 3.48979 6.28801 5.08516
#
# Compressibility (1/GPa) = 0.02484919
#
# Stress axis : x y z
#
# Youngs Moduli (GPa) = 173.06221 88.93374 62.14961
#
# Poissons Ratio (x) = 0.08592 0.31756
# Poissons Ratio (y) = 0.16720 -0.12082
# Poissons Ratio (z) = 0.88429 -0.17288
#
# Static dielectric constant tensor:
#      x y z
#    x 1.894810 0.000000 0.000000 
#    y 0.000000 1.818470 0.000000 
#    z 0.000000 0.000000 1.824540 
# 
# From -- ./inp_files/18804.got.cif
#   From: 2010.05.17/outbox.cif.g08.bks.cpg/sg38_10_cif.got.tgz:18804.got - 2010.06.03 18:07:57.
