data_PCOD9357984
_publ_section_title
;
Structure prediction by ZEFSAII (Michael W. Deem and Ramdas Pophale) SiO2 
 PCOD9357984
Probable space group: A M M 2
;
_chemical_formula_sum "Si O2"
_cell_formula_units_Z 58
_cell_length_a 15.334654
_cell_length_b 7.601308
_cell_length_c 25.537170
_cell_angle_alpha 90.000000
_cell_angle_beta 90.000000
_cell_angle_gamma 90.000000
_cell_volume 2976.700080
_symmetry_space_group_name_H-M "A M M 2"
_symmetry_group_IT_number 38
_symmetry_cell_setting 'orthorhombic'
loop_
_space_group_symop_operation_xyz
x,y,z
-x,-y,z
-x,y,z
x,-y,z
x,1/2+y,1/2+z
-x,1/2-y,1/2+z
-x,1/2+y,1/2+z
x,1/2-y,1/2+z
loop_
_atom_site_type_symbol
_atom_site_label
_atom_site_fract_x
_atom_site_fract_y
_atom_site_fract_z
Si Si1 0.096065 0.296296 0.392460
Si Si2 0.264689 0.213802 0.209703
Si Si3 0.637095 0.297444 0.116131
Si Si4 0.400790 0.707489 0.795886
Si Si5 0.095008 0.712536 0.771124
Si Si6 0.288061 0.704166 0.397630
Si Si7 0.600645 0.711233 0.998470
Si Si8 0.500000 0.000000 0.145685
O O1 0.094776 0.500000 0.409976
O O2 0.099454 0.288672 0.329388
O O3 0.190932 0.218471 0.407362
O O4 0.000000 0.220160 0.407182
O O5 0.277223 0.283284 0.151312
O O6 0.343679 0.277389 0.247520
O O7 0.175361 0.271432 0.236537
O O8 0.264463 0.000000 0.209327
O O9 0.605489 0.500000 0.117643
O O10 0.574282 0.155180 0.142410
O O11 0.641644 0.247464 0.054972
O O12 0.500000 0.778429 0.800938
O O13 0.410084 0.500000 0.785352
O O14 0.343773 0.722628 0.848841
O O15 0.100500 0.500000 0.776975
O O16 0.000000 0.755288 0.748758
O O17 0.274812 0.500000 0.384438
O O18 0.345478 0.718769 0.449720
O O19 0.500000 0.773770 0.998811
O O20 0.598809 0.500000 0.993095
#
# Coordination Sequence:
#
# PCOD9357984 Si02
#       8
#     8   8   8   8   8   8   8   2
#     4   9  18  33  51  75 108 142 180 229 283 339
#     4  10  20  34  55  80 114 153 188 236 291 344
#     4  11  24  39  60  87 113 151 197 244 288 336
#     4  10  21  34  49  72 110 151 180 215 277 339
#     4   9  17  31  54  82 109 142 187 234 285 344
#     4  11  22  33  52  79 106 142 186 229 278 335
#     4  10  22  39  57  78 107 142 187 233 277 328
#     4  12  22  40  64  82 118 148 198 248 288 328
#
# _framework density 19.484663999999999
#
# number of rings (size 3 to 8) (size 9 to 14) (size 15 to 20)
#    0.000    1.931    2.759    1.034    1.931    3.862 
#    0.000    0.000    0.000    0.828    0.000    5.793 
#    0.000    0.000    0.000    0.000    0.000    0.000 
#
# Total GULP energy -161468.874261 kJ/mol
# GULP energy per Si atom -5567.892216 kJ/mol
# Density = 1.944032 g / cm^3
# Si number density = 19.484664 Si / 1000 Ang^3
#
#
#
# Elastic Constant Matrix: (Units=GPa)
#
#
# Indices 1 2 3 4 5 6 
#
# 1 121.7365 9.4078 59.5511 0.0000 0.0000 0.0000
# 2 9.4078 57.0268 -5.0242 0.0000 0.0000 0.0000
# 3 59.5511 -5.0242 90.5012 0.0000 0.0000 0.0000
# 4 0.0000 0.0000 0.0000 14.9651 0.0000 0.0000
# 5 0.0000 0.0000 0.0000 0.0000 38.7863 0.0000
# 6 0.0000 0.0000 0.0000 0.0000 0.0000 11.8399
#
#
#
# Elastic Compliance Matrix: (Units=1/GPa)
#
#
# Indices 1 2 3 4 5 6 
#
# 1 0.012547 -0.002811 -0.008412 0.000000 0.000000 0.000000
# 2 -0.002811 0.018252 0.002863 0.000000 0.000000 0.000000
# 3 -0.008412 0.002863 0.016744 0.000000 0.000000 0.000000
# 4 0.000000 0.000000 0.000000 0.066822 0.000000 0.000000
# 5 0.000000 0.000000 0.000000 0.000000 0.025782 0.000000
# 6 0.000000 0.000000 0.000000 0.000000 0.000000 0.084460
#
#
# Mechanical properties :
#
#
# Convention : Reuss Voigt Hill
#
# Bulk Modulus (GPa) = 32.44445 44.12600 38.28522
# Shear Modulus (GPa) = 19.87277 26.80691 23.33984
#
# Velocity S-wave (km/s) = 3.19708 3.71320 3.46476
# Velocity P-wave (km/s) = 5.50598 6.40933 5.97475
#
# Compressibility (1/GPa) = 0.03082191
#
# Stress axis : x y z
#
# Youngs Moduli (GPa) = 79.70254 54.78984 59.72397
#
# Poissons Ratio (x) = 0.15401 0.50239
# Poissons Ratio (y) = 0.22404 -0.17098
# Poissons Ratio (z) = 0.67045 -0.15686
#
# Static dielectric constant tensor:
#      x y z
#    x 1.720800 0.000000 0.000000 
#    y 0.000000 1.731950 0.000000 
#    z 0.000000 0.000000 1.654570 
# 
# From -- ./inp_files/22841.got.cif
#   From: 2010.05.17/outbox.cif.g08.bks.cpg/sg38_12_cif.got.tgz:22841.got - 2010.06.03 18:07:57.
