data_PCOD9357597
_publ_section_title
;
Structure prediction by ZEFSAII (Michael W. Deem and Ramdas Pophale) SiO2 
 PCOD9357597
Probable space group: A M M 2
;
_chemical_formula_sum "Si O2"
_cell_formula_units_Z 64
_cell_length_a 9.222220
_cell_length_b 13.426945
_cell_length_c 29.253558
_cell_angle_alpha 90.000000
_cell_angle_beta 90.000000
_cell_angle_gamma 90.000000
_cell_volume 3622.358115
_symmetry_space_group_name_H-M "A M M 2"
_symmetry_group_IT_number 38
_symmetry_cell_setting 'orthorhombic'
loop_
_space_group_symop_operation_xyz
x,y,z
-x,-y,z
-x,y,z
x,-y,z
x,1/2+y,1/2+z
-x,1/2-y,1/2+z
-x,1/2+y,1/2+z
x,1/2-y,1/2+z
loop_
_atom_site_type_symbol
_atom_site_label
_atom_site_fract_x
_atom_site_fract_y
_atom_site_fract_z
Si Si1 0.172071 0.112470 0.681400
Si Si2 0.168262 0.293730 0.902375
Si Si3 0.672129 0.700365 0.812755
Si Si4 0.172868 0.889851 0.124008
Si Si5 0.673306 0.810473 0.211829
Si Si6 0.168644 0.615656 0.341975
Si Si7 0.171375 0.684139 0.079043
Si Si8 0.670672 0.382671 0.988054
O O1 0.263759 0.199391 0.704454
O O2 0.192859 0.125206 0.626637
O O3 0.000000 0.128480 0.690026
O O4 0.209039 0.000000 0.695439
O O5 0.243935 0.340641 0.857123
O O6 0.176079 0.175428 0.890167
O O7 0.000000 0.321760 0.904893
O O8 0.250095 0.322807 0.947956
O O9 0.500000 0.695685 0.819981
O O10 0.707625 0.655191 0.763424
O O11 0.726739 0.815785 0.811584
O O12 0.254190 0.874299 0.171857
O O13 0.211358 0.798429 0.090998
O O14 0.000000 0.880666 0.132410
O O15 0.202420 0.000000 0.105576
O O16 0.500000 0.809879 0.206862
O O17 0.205863 0.500000 0.344168
O O18 0.000000 0.624398 0.326545
O O19 0.261973 0.643261 0.037101
O O20 0.000000 0.679333 0.068056
O O21 0.500000 0.361179 0.987811
O O22 0.691352 0.500000 0.979361
#
# Coordination Sequence:
#
# PCOD9357597 Si02
#       8
#     8   8   8   8   8   8   8   8
#     4   9  18  32  50  74 105 142 182 221 260 306
#     4   9  19  35  55  76 101 136 178 222 264 310
#     4   9  18  32  49  72 106 142 176 215 261 308
#     4   9  19  37  59  80 104 138 180 222 263 310
#     4  10  20  32  49  76 110 144 177 218 265 315
#     4   8  16  31  51  75 101 133 174 216 259 306
#     4   9  18  34  56  79 104 134 171 215 262 311
#     4  11  23  37  55  80 108 138 171 211 263 319
#
# _framework density 17.668047999999999
#
# number of rings (size 3 to 8) (size 9 to 14) (size 15 to 20)
#    0.750    2.000    0.000    2.250    0.000    6.750 
#    0.000    3.750    0.000    4.500    0.000    0.000 
#    0.000    0.000    0.000    0.000    0.000    0.000 
#
# Total GULP energy -178191.102715 kJ/mol
# GULP energy per Si atom -5568.471960 kJ/mol
# Density = 1.762784 g / cm^3
# Si number density = 17.668048 Si / 1000 Ang^3
#
#
#
# Elastic Constant Matrix: (Units=GPa)
#
#
# Indices 1 2 3 4 5 6 
#
# 1 39.8646 4.4459 23.4168 0.0000 0.0000 0.0000
# 2 4.4459 26.6680 -13.2136 0.0000 0.0000 0.0000
# 3 23.4168 -13.2136 54.5062 0.0000 0.0000 0.0000
# 4 0.0000 0.0000 0.0000 7.0728 0.0000 0.0000
# 5 0.0000 0.0000 0.0000 0.0000 31.3214 0.0000
# 6 0.0000 0.0000 0.0000 0.0000 0.0000 18.3491
#
#
#
# Elastic Compliance Matrix: (Units=1/GPa)
#
#
# Indices 1 2 3 4 5 6 
#
# 1 0.039312 -0.016959 -0.021001 0.000000 0.000000 0.000000
# 2 -0.016959 0.049934 0.019391 0.000000 0.000000 0.000000
# 3 -0.021001 0.019391 0.032070 0.000000 0.000000 0.000000
# 4 0.000000 0.000000 0.000000 0.141386 0.000000 0.000000
# 5 0.000000 0.000000 0.000000 0.000000 0.031927 0.000000
# 6 0.000000 0.000000 0.000000 0.000000 0.000000 0.054499
#
#
# Mechanical properties :
#
#
# Convention : Reuss Voigt Hill
#
# Bulk Modulus (GPa) = 11.87960 16.70410 14.29185
# Shear Modulus (GPa) = 12.06785 18.44131 15.25458
#
# Velocity S-wave (km/s) = 2.61632 3.23424 2.94155
# Velocity P-wave (km/s) = 3.98312 4.83963 4.43211
#
# Compressibility (1/GPa) = 0.08417789
#
# Stress axis : x y z
#
# Youngs Moduli (GPa) = 25.43742 20.02662 31.18216
#
# Poissons Ratio (x) = 0.33964 0.65484
# Poissons Ratio (y) = 0.43140 -0.60466
# Poissons Ratio (z) = 0.53420 -0.38834
#
# Static dielectric constant tensor:
#      x y z
#    x 1.586760 0.000000 0.000000 
#    y 0.000000 1.608530 0.000000 
#    z 0.000000 0.000000 1.593180 
# 
# From -- ./inp_files/24811.got.cif
#   From: 2010.05.17/outbox.cif.g08.bks.cpg/sg38_13_cif.got.tgz:24811.got - 2010.06.03 18:07:57.
