data_PCOD9357140
_publ_section_title
;
Structure prediction by ZEFSAII (Michael W. Deem and Ramdas Pophale) SiO2 
 PCOD9357140
Probable space group: A M M 2
;
_chemical_formula_sum "Si O2"
_cell_formula_units_Z 64
_cell_length_a 8.853650
_cell_length_b 25.507206
_cell_length_c 15.386059
_cell_angle_alpha 90.000000
_cell_angle_beta 90.000000
_cell_angle_gamma 90.000000
_cell_volume 3474.662544
_symmetry_space_group_name_H-M "A M M 2"
_symmetry_group_IT_number 38
_symmetry_cell_setting 'orthorhombic'
loop_
_space_group_symop_operation_xyz
x,y,z
-x,-y,z
-x,y,z
x,-y,z
x,1/2+y,1/2+z
-x,1/2-y,1/2+z
-x,1/2+y,1/2+z
x,1/2-y,1/2+z
loop_
_atom_site_type_symbol
_atom_site_label
_atom_site_fract_x
_atom_site_fract_y
_atom_site_fract_z
Si Si1 0.181028 0.650331 0.370350
Si Si2 0.319439 0.559882 0.253418
Si Si3 0.818748 0.719764 0.035419
Si Si4 0.318699 0.863978 0.244033
Si Si5 0.319169 0.261549 0.847973
Si Si6 0.819929 0.895860 0.580384
Si Si7 0.819454 0.336342 0.571032
Si Si8 0.681050 0.561940 0.902235
O O1 0.245227 0.601456 0.318145
O O2 0.244814 0.705054 0.333246
O O3 0.224204 0.648468 0.472609
O O4 0.000000 0.651544 0.364966
O O5 0.500000 0.564710 0.256678
O O6 0.277994 0.500000 0.274851
O O7 0.262688 0.573397 0.156770
O O8 0.734716 0.719637 0.943158
O O9 0.000000 0.721122 0.019023
O O10 0.785287 0.666379 0.085948
O O11 0.777865 0.774641 0.080468
O O12 0.500000 0.865299 0.239392
O O13 0.272922 0.807050 0.281538
O O14 0.253356 0.869284 0.147964
O O15 0.271934 0.906948 0.315426
O O16 0.500000 0.256647 0.846712
O O17 0.764608 0.915688 0.486660
O O18 0.000000 0.902567 0.588196
O O19 0.000000 0.340333 0.577141
O O20 0.500000 0.570006 0.913588
O O21 0.708295 0.500000 0.894167
#
# Coordination Sequence:
#
# PCOD9357140 Si02
#       8
#     8   8   8   8   8   8   8   8
#     4  10  22  41  62  85 115 152 195 243 297 352
#     4  11  25  43  62  86 116 152 197 246 296 351
#     4   9  19  35  53  81 116 153 191 230 284 345
#     4  10  21  35  54  85 117 151 195 240 289 342
#     4  10  19  33  55  85 117 151 191 237 287 343
#     4  11  22  36  58  88 120 155 194 239 291 350
#     4   9  20  37  57  82 115 152 190 236 290 346
#     4  10  21  39  59  80 115 159 199 242 290 343
#
# _framework density 18.419055
#
# number of rings (size 3 to 8) (size 9 to 14) (size 15 to 20)
#    0.000    2.000    1.250    2.625    1.750    7.250 
#    0.000    0.625    0.000    2.250    0.000    0.000 
#    0.000    0.000    0.000    0.000    0.000    0.000 
#
# Total GULP energy -178701.407170 kJ/mol
# GULP energy per Si atom -5584.418974 kJ/mol
# Density = 1.837713 g / cm^3
# Si number density = 18.419055 Si / 1000 Ang^3
#
#
#
# Elastic Constant Matrix: (Units=GPa)
#
#
# Indices 1 2 3 4 5 6 
#
# 1 26.1567 34.5707 18.8775 0.0000 0.0000 0.0000
# 2 34.5707 100.3873 40.3325 0.0000 0.0000 0.0000
# 3 18.8775 40.3325 73.9494 0.0000 0.0000 0.0000
# 4 0.0000 0.0000 0.0000 26.1372 0.0000 0.0000
# 5 0.0000 0.0000 0.0000 0.0000 36.2828 0.0000
# 6 0.0000 0.0000 0.0000 0.0000 0.0000 20.6859
#
#
#
# Elastic Compliance Matrix: (Units=1/GPa)
#
#
# Indices 1 2 3 4 5 6 
#
# 1 0.072356 -0.022406 -0.006250 0.000000 0.000000 0.000000
# 2 -0.022406 0.019695 -0.005022 0.000000 0.000000 0.000000
# 3 -0.006250 -0.005022 0.017857 0.000000 0.000000 0.000000
# 4 0.000000 0.000000 0.000000 0.038260 0.000000 0.000000
# 5 0.000000 0.000000 0.000000 0.000000 0.027561 0.000000
# 6 0.000000 0.000000 0.000000 0.000000 0.000000 0.048342
#
#
# Mechanical properties :
#
#
# Convention : Reuss Voigt Hill
#
# Bulk Modulus (GPa) = 23.50108 43.11718 33.30913
# Shear Modulus (GPa) = 16.36061 23.73537 20.04799
#
# Velocity S-wave (km/s) = 2.98358 3.59365 3.30273
# Velocity P-wave (km/s) = 4.96546 6.37800 5.71553
#
# Compressibility (1/GPa) = 0.04255123
#
# Stress axis : x y z
#
# Youngs Moduli (GPa) = 13.82063 50.77366 55.99922
#
# Poissons Ratio (x) = 1.13764 0.35001
# Poissons Ratio (y) = 0.30967 0.28124
# Poissons Ratio (z) = 0.08638 0.25499
#
# Static dielectric constant tensor:
#      x y z
#    x 1.615840 0.000000 0.000000 
#    y 0.000000 1.631720 0.000000 
#    z 0.000000 0.000000 1.622130 
# 
# From -- ./inp_files/12759.got.cif
#   From: 2010.05.17/outbox.cif.g08.bks.cpg/sg38_7_cif.got.tgz:12759.got - 2010.06.03 18:07:57.
