data_PCOD9357850
_publ_section_title
;
Structure prediction by ZEFSAII (Michael W. Deem and Ramdas Pophale) SiO2 
 PCOD9357850
Probable space group: A M M 2
;
_chemical_formula_sum "Si O2"
_cell_formula_units_Z 40
_cell_length_a 7.475088
_cell_length_b 7.984458
_cell_length_c 30.405356
_cell_angle_alpha 90.000000
_cell_angle_beta 90.000000
_cell_angle_gamma 90.000000
_cell_volume 1814.729266
_symmetry_space_group_name_H-M "A M M 2"
_symmetry_group_IT_number 38
_symmetry_cell_setting 'orthorhombic'
loop_
_space_group_symop_operation_xyz
x,y,z
-x,-y,z
-x,y,z
x,-y,z
x,1/2+y,1/2+z
-x,1/2-y,1/2+z
-x,1/2+y,1/2+z
x,1/2-y,1/2+z
loop_
_atom_site_type_symbol
_atom_site_label
_atom_site_fract_x
_atom_site_fract_y
_atom_site_fract_z
Si Si1 0.207577 0.311050 0.699200
Si Si2 0.213103 0.000000 0.645626
Si Si3 0.291735 0.296734 0.796977
Si Si4 0.284291 0.500000 0.042625
Si Si5 0.718434 0.195899 0.391876
Si Si6 0.281483 0.816751 0.986581
O O1 0.286067 0.500000 0.696998
O O2 0.212287 0.251105 0.750003
O O3 0.000000 0.327881 0.686977
O O4 0.287397 0.168468 0.668175
O O5 0.237635 0.000000 0.593621
O O6 0.000000 0.000000 0.654803
O O7 0.500000 0.250453 0.794663
O O8 0.279673 0.500000 0.799451
O O9 0.219608 0.238009 0.844256
O O10 0.500000 0.500000 0.039475
O O11 0.220345 0.665235 0.017135
O O12 0.500000 0.200648 0.390334
O O13 0.774511 0.288340 0.436031
O O14 0.767735 0.000000 0.396383
O O15 0.500000 0.812719 0.986382
O O16 0.225814 0.000000 0.002082
#
# Coordination Sequence:
#
# PCOD9357850 Si02
#       6
#     8   4   8   4   8   8
#     4   9  18  34  53  70  93 127 164 198 237 290
#     4  10  22  38  54  72  94 126 166 204 247 296
#     4   8  14  25  45  73 102 130 159 195 238 277
#     4  10  20  34  52  74  98 124 160 208 249 282
#     4   8  12  22  41  65  97 133 161 189 229 280
#     4   9  16  27  45  70 100 130 159 193 238 290
#
# _framework density 22.041855000000002
#
# number of rings (size 3 to 8) (size 9 to 14) (size 15 to 20)
#    0.000    3.200    1.000    1.200    0.000    1.600 
#    1.800    0.000    0.000    1.200    0.000    0.000 
#    0.000    0.000    0.000    0.000    0.000    0.000 
#
# Total GULP energy -111541.991456 kJ/mol
# GULP energy per Si atom -5577.099573 kJ/mol
# Density = 2.199169 g / cm^3
# Si number density = 22.041855 Si / 1000 Ang^3
#
#
#
# Elastic Constant Matrix: (Units=GPa)
#
#
# Indices 1 2 3 4 5 6 
#
# 1 56.5088 5.9529 -0.0580 0.0000 0.0000 0.0000
# 2 5.9529 147.2087 108.2875 0.0000 0.0000 0.0000
# 3 -0.0580 108.2875 171.8888 0.0000 0.0000 0.0000
# 4 0.0000 0.0000 0.0000 -9.3747 0.0000 0.0000
# 5 0.0000 0.0000 0.0000 0.0000 32.7287 0.0000
# 6 0.0000 0.0000 0.0000 0.0000 0.0000 -13.2793
#
#
#
# Elastic Compliance Matrix: (Units=1/GPa)
#
#
# Indices 1 2 3 4 5 6 
#
# 1 0.017840 -0.001353 0.000858 0.000000 0.000000 0.000000
# 2 -0.001353 0.012763 -0.008041 0.000000 0.000000 0.000000
# 3 0.000858 -0.008041 0.010884 0.000000 0.000000 0.000000
# 4 0.000000 0.000000 0.000000 -0.106670 0.000000 0.000000
# 5 0.000000 0.000000 0.000000 0.000000 0.030554 0.000000
# 6 0.000000 0.000000 0.000000 0.000000 0.000000 -0.075305
#
#
# Mechanical properties :
#
#
# Convention : Reuss Voigt Hill
#
# Bulk Modulus (GPa) = 40.95768 67.10789 54.03279
# Shear Modulus (GPa) = -59.01321 19.44322 -19.78500
#
# Velocity S-wave (km/s) = -5.17990 2.97325 -2.99926
# Velocity P-wave (km/s) = 4.14162 6.50374 3.54582
#
# Compressibility (1/GPa) = 0.02441545
#
# Stress axis : x y z
#
# Youngs Moduli (GPa) = 56.05460 78.35432 91.88210
#
# Poissons Ratio (x) = 0.10599 -0.07885
# Poissons Ratio (y) = 0.07583 0.73879
# Poissons Ratio (z) = -0.04811 0.63002
#
# Static dielectric constant tensor:
#      x y z
#    x 1.832660 0.000000 0.000000 
#    y 0.000000 1.832100 0.000000 
#    z 0.000000 0.000000 1.775180 
# 
# From -- ./inp_files/23198.got.cif
#   From: 2010.05.17/outbox.cif.g08.bks.cpg/sg38_12_cif.got.tgz:23198.got - 2010.06.03 18:07:57.
