data_PCOD9357886
_publ_section_title
;
Structure prediction by ZEFSAII (Michael W. Deem and Ramdas Pophale) SiO2 
 PCOD9357886
Probable space group: A M M 2
;
_chemical_formula_sum "Si O2"
_cell_formula_units_Z 56
_cell_length_a 21.895799
_cell_length_b 7.559658
_cell_length_c 16.007225
_cell_angle_alpha 90.000000
_cell_angle_beta 90.000000
_cell_angle_gamma 90.000000
_cell_volume 2649.591950
_symmetry_space_group_name_H-M "A M M 2"
_symmetry_group_IT_number 38
_symmetry_cell_setting 'orthorhombic'
loop_
_space_group_symop_operation_xyz
x,y,z
-x,-y,z
-x,y,z
x,-y,z
x,1/2+y,1/2+z
-x,1/2-y,1/2+z
-x,1/2+y,1/2+z
x,1/2-y,1/2+z
loop_
_atom_site_type_symbol
_atom_site_label
_atom_site_fract_x
_atom_site_fract_y
_atom_site_fract_z
Si Si1 0.790537 0.286049 0.681650
Si Si2 0.000000 0.216291 0.771639
Si Si3 0.865282 0.792896 0.022898
Si Si4 0.430203 0.213326 0.825104
Si Si5 0.347389 0.209503 0.166430
Si Si6 0.128989 0.711125 0.341948
Si Si7 0.000000 0.712389 0.077714
Si Si8 0.570416 0.783912 0.013849
O O1 0.789788 0.500000 0.678987
O O2 0.830515 0.218114 0.603382
O O3 0.721162 0.220039 0.675741
O O4 0.823722 0.239891 0.767709
O O5 0.937862 0.278684 0.815027
O O6 0.000000 0.269213 0.674618
O O7 0.000000 0.000000 0.772693
O O8 0.937900 0.777270 0.035798
O O9 0.848809 0.000000 0.021569
O O10 0.850559 0.716993 0.931793
O O11 0.500000 0.273261 0.809018
O O12 0.385519 0.268048 0.751342
O O13 0.431050 0.000000 0.826060
O O14 0.412772 0.270698 0.919248
O O15 0.385350 0.280357 0.087150
O O16 0.341336 0.000000 0.151554
O O17 0.121888 0.500000 0.351825
O O18 0.000000 0.500000 0.075173
O O19 0.500000 0.731173 0.029269
O O20 0.570988 0.000000 0.014788
#
# Coordination Sequence:
#
# PCOD9357886 Si02
#       8
#     8   4   8   8   8   8   4   8
#     4  10  22  37  51  76 110 140 175 221 261 302
#     4   9  17  31  53  80 105 127 162 212 259 308
#     4  10  21  37  57  79 105 139 179 220 263 311
#     4   9  18  33  54  81 108 133 171 222 265 306
#     4  10  20  34  53  76 106 142 178 213 257 313
#     4  10  20  37  59  79 102 136 176 217 262 316
#     4  11  20  33  57  84 109 135 168 216 271 320
#     4   8  15  30  53  78 103 134 171 210 255 308
#
# _framework density 21.13533
#
# number of rings (size 3 to 8) (size 9 to 14) (size 15 to 20)
#    0.000    2.429    1.429    1.929    0.000    4.286 
#    0.000    3.929    0.000    0.857    0.000    0.000 
#    0.000    0.000    0.000    0.000    0.000    0.000 
#
# Total GULP energy -156357.526244 kJ/mol
# GULP energy per Si atom -5584.197366 kJ/mol
# Density = 2.108722 g / cm^3
# Si number density = 21.135330 Si / 1000 Ang^3
#
#
#
# Elastic Constant Matrix: (Units=GPa)
#
#
# Indices 1 2 3 4 5 6 
#
# 1 132.3395 -15.7904 96.1554 0.0000 0.0000 0.0000
# 2 -15.7904 44.1127 -8.4608 0.0000 0.0000 0.0000
# 3 96.1554 -8.4608 194.9003 0.0000 0.0000 0.0000
# 4 0.0000 0.0000 0.0000 16.5270 0.0000 0.0000
# 5 0.0000 0.0000 0.0000 0.0000-7134.3051 0.0000
# 6 0.0000 0.0000 0.0000 0.0000 0.0000 11.5780
#
#
#
# Elastic Compliance Matrix: (Units=1/GPa)
#
#
# Indices 1 2 3 4 5 6 
#
# 1 0.012223 0.003246 -0.005889 0.000000 0.000000 0.000000
# 2 0.003246 0.023721 -0.000571 0.000000 0.000000 0.000000
# 3 -0.005889 -0.000571 0.008011 0.000000 0.000000 0.000000
# 4 0.000000 0.000000 0.000000 0.060507 0.000000 0.000000
# 5 0.000000 0.000000 0.000000 0.000000 -0.000140 0.000000
# 6 0.000000 0.000000 0.000000 0.000000 0.000000 0.086371
#
#
# Mechanical properties :
#
#
# Convention : Reuss Voigt Hill
#
# Bulk Modulus (GPa) = 26.64866 57.24007 41.94437
# Shear Modulus (GPa) = 23.85138 -1401.27681 -688.71271
#
# Velocity S-wave (km/s) = 3.36297 -25.77676 -18.07114
# Velocity P-wave (km/s) = 5.26454 29.30496 20.38462
#
# Compressibility (1/GPa) = 0.03752534
#
# Stress axis : x y z
#
# Youngs Moduli (GPa) = 81.81597 42.15603 124.82070
#
# Poissons Ratio (x) = -0.13682 0.73509
# Poissons Ratio (y) = -0.26554 0.07133
# Poissons Ratio (z) = 0.48183 0.02409
#
# Static dielectric constant tensor:
#      x y z
#    x 1.747590 0.000000 0.000000 
#    y 0.000000 1.802990 0.000000 
#    z 0.000000 0.000000 1.756840 
# 
# From -- ./inp_files/15538.got.cif
#   From: 2010.05.17/outbox.cif.g08.bks.cpg/sg38_8_cif.got.tgz:15538.got - 2010.06.03 18:07:57.
