data_PCOD9357289
_publ_section_title
;
Structure prediction by ZEFSAII (Michael W. Deem and Ramdas Pophale) SiO2 
 PCOD9357289
Probable space group: A M M 2
;
_chemical_formula_sum "Si O2"
_cell_formula_units_Z 64
_cell_length_a 7.843575
_cell_length_b 16.136337
_cell_length_c 24.199365
_cell_angle_alpha 90.000000
_cell_angle_beta 90.000000
_cell_angle_gamma 90.000000
_cell_volume 3062.830612
_symmetry_space_group_name_H-M "A M M 2"
_symmetry_group_IT_number 38
_symmetry_cell_setting 'orthorhombic'
loop_
_space_group_symop_operation_xyz
x,y,z
-x,-y,z
-x,y,z
x,-y,z
x,1/2+y,1/2+z
-x,1/2-y,1/2+z
-x,1/2+y,1/2+z
x,1/2-y,1/2+z
loop_
_atom_site_type_symbol
_atom_site_label
_atom_site_fract_x
_atom_site_fract_y
_atom_site_fract_z
Si Si1 0.202667 0.909469 0.480180
Si Si2 0.204528 0.091015 0.980566
Si Si3 0.799077 0.092251 0.221455
Si Si4 0.700372 0.747862 0.291166
Si Si5 0.201247 0.249294 0.416837
Si Si6 0.291591 0.592361 0.219265
Si Si7 0.295316 0.346887 0.601405
Si Si8 0.706356 0.345887 0.099363
O O1 0.275687 0.832686 0.445598
O O2 0.227185 0.889733 0.544658
O O3 0.000000 0.912922 0.469136
O O4 0.275213 0.000000 0.466968
O O5 0.273307 0.166608 0.943678
O O6 0.000000 0.088220 0.973300
O O7 0.273097 0.000000 0.966289
O O8 0.239573 0.110596 0.044687
O O9 0.722850 0.168645 0.255601
O O10 0.773040 0.110015 0.156497
O O11 0.000000 0.092245 0.233256
O O12 0.731046 0.000000 0.234572
O O13 0.500000 0.734763 0.299453
O O14 0.780372 0.754326 0.351403
O O15 0.767619 0.668158 0.257422
O O16 0.000000 0.249857 0.430378
O O17 0.500000 0.593935 0.219731
O O18 0.237830 0.500000 0.236283
O O19 0.239691 0.610972 0.156220
O O20 0.500000 0.348561 0.604590
O O21 0.240422 0.250512 0.600135
O O22 0.500000 0.347832 0.097356
#
# Coordination Sequence:
#
# PCOD9357289 Si02
#       8
#     8   8   8   8   8   8   8   8
#     4  10  21  37  58  84 113 147 189 235 284 339
#     4  10  21  38  60  85 116 157 199 236 284 347
#     4  11  24  41  62  87 117 156 196 235 290 357
#     4  11  23  40  61  87 116 150 196 248 293 340
#     4  10  22  40  58  80 113 155 197 242 289 338
#     4   9  18  35  58  84 116 152 185 224 283 348
#     4  11  21  35  59  91 122 151 189 240 293 345
#     4  10  19  34  58  86 117 151 185 226 282 346
#
# _framework density 20.895703000000001
#
# number of rings (size 3 to 8) (size 9 to 14) (size 15 to 20)
#    0.000    1.750    2.500    1.875    0.000    6.000 
#    0.000    1.250    0.000    1.875    0.000    0.000 
#    0.000    0.000    0.000    0.000    0.000    0.000 
#
# Total GULP energy -178805.413078 kJ/mol
# GULP energy per Si atom -5587.669159 kJ/mol
# Density = 2.084814 g / cm^3
# Si number density = 20.895703 Si / 1000 Ang^3
#
#
#
# Elastic Constant Matrix: (Units=GPa)
#
#
# Indices 1 2 3 4 5 6 
#
# 1 21.4729 6.2286 -18.1273 0.0000 0.0000 0.0000
# 2 6.2286 212.1975 74.5741 0.0000 0.0000 0.0000
# 3 -18.1273 74.5741 111.6666 0.0000 0.0000 0.0000
# 4 0.0000 0.0000 0.0000 8.8645 0.0000 0.0000
# 5 0.0000 0.0000 0.0000 0.0000 4.4430 0.0000
# 6 0.0000 0.0000 0.0000 0.0000 0.0000 12.0988
#
#
#
# Elastic Compliance Matrix: (Units=1/GPa)
#
#
# Indices 1 2 3 4 5 6 
#
# 1 0.060753 -0.006859 0.014443 0.000000 0.000000 0.000000
# 2 -0.006859 0.006932 -0.005743 0.000000 0.000000 0.000000
# 3 0.014443 -0.005743 0.015135 0.000000 0.000000 0.000000
# 4 0.000000 0.000000 0.000000 0.112809 0.000000 0.000000
# 5 0.000000 0.000000 0.000000 0.000000 0.225073 0.000000
# 6 0.000000 0.000000 0.000000 0.000000 0.000000 0.082653
#
#
# Mechanical properties :
#
#
# Convention : Reuss Voigt Hill
#
# Bulk Modulus (GPa) = 11.56046 52.29864 31.92955
# Shear Modulus (GPa) = 9.46060 23.92537 16.69299
#
# Velocity S-wave (km/s) = 2.13011 3.38744 2.82950
# Velocity P-wave (km/s) = 3.40504 6.35472 5.09788
#
# Compressibility (1/GPa) = 0.08650172
#
# Stress axis : x y z
#
# Youngs Moduli (GPa) = 16.46019 144.25392 66.07143
#
# Poissons Ratio (x) = 0.98944 -0.95426
# Poissons Ratio (y) = 0.11290 0.37945
# Poissons Ratio (z) = -0.23773 0.82845
#
# Static dielectric constant tensor:
#      x y z
#    x 1.755610 0.000000 0.000000 
#    y 0.000000 1.780960 0.000000 
#    z 0.000000 0.000000 1.686600 
# 
# From -- ./inp_files/22182.got.cif
#   From: 2010.05.17/outbox.cif.g08.bks.cpg/sg38_12_cif.got.tgz:22182.got - 2010.06.03 18:07:57.
