data_PCOD9357593
_publ_section_title
;
Structure prediction by ZEFSAII (Michael W. Deem and Ramdas Pophale) SiO2 
 PCOD9357593
Probable space group: A M M 2
;
_chemical_formula_sum "Si O2"
_cell_formula_units_Z 64
_cell_length_a 9.169171
_cell_length_b 15.309811
_cell_length_c 23.621578
_cell_angle_alpha 90.000000
_cell_angle_beta 90.000000
_cell_angle_gamma 90.000000
_cell_volume 3315.956373
_symmetry_space_group_name_H-M "A M M 2"
_symmetry_group_IT_number 38
_symmetry_cell_setting 'orthorhombic'
loop_
_space_group_symop_operation_xyz
x,y,z
-x,-y,z
-x,y,z
x,-y,z
x,1/2+y,1/2+z
-x,1/2-y,1/2+z
-x,1/2+y,1/2+z
x,1/2-y,1/2+z
loop_
_atom_site_type_symbol
_atom_site_label
_atom_site_fract_x
_atom_site_fract_y
_atom_site_fract_z
Si Si1 0.174531 0.715447 0.244590
Si Si2 0.174550 0.906980 0.203802
Si Si3 0.839218 0.602222 0.029330
Si Si4 0.333123 0.640794 0.590595
Si Si5 0.825124 0.101889 0.972754
Si Si6 0.825128 0.767765 0.870999
Si Si7 0.333842 0.159843 0.634678
Si Si8 0.673975 0.897237 0.416973
O O1 0.213247 0.818237 0.236173
O O2 0.206763 0.692187 0.309311
O O3 0.263500 0.664584 0.196715
O O4 0.000000 0.705947 0.234680
O O5 0.246778 0.903248 0.142070
O O6 0.000000 0.905146 0.197284
O O7 0.215072 0.000000 0.231321
O O8 0.856157 0.500000 0.018739
O O9 0.768620 0.611091 0.090526
O O10 0.000000 0.644676 0.026063
O O11 0.732372 0.631070 0.979251
O O12 0.500000 0.610055 0.587514
O O13 0.254216 0.626991 0.531014
O O14 0.335510 0.742246 0.608804
O O15 0.783067 0.166793 0.921676
O O16 0.000000 0.109606 0.980616
O O17 0.793778 0.000000 0.959634
O O18 0.748599 0.673804 0.876817
O O19 0.000000 0.754077 0.873892
O O20 0.500000 0.127226 0.635726
O O21 0.500000 0.890628 0.415087
O O22 0.711629 0.000000 0.406494
#
# Coordination Sequence:
#
# PCOD9357593 Si02
#       8
#     8   8   8   8   8   8   8   8
#     4   9  19  35  53  74 101 135 178 222 260 306
#     4   9  17  30  49  73 101 132 163 200 251 307
#     4  10  20  34  54  80 107 135 171 216 264 318
#     4  10  20  32  49  76 105 132 165 206 254 310
#     4  10  21  36  53  75 104 138 176 219 268 316
#     4  10  21  37  57  78 103 142 188 230 270 314
#     4  10  20  34  53  77 106 139 171 210 265 322
#     4  10  21  36  55  82 115 146 175 215 272 334
#
# _framework density 19.300616999999999
#
# number of rings (size 3 to 8) (size 9 to 14) (size 15 to 20)
#    0.000    2.250    0.000    2.625    0.000    8.500 
#    0.000    1.875    0.000    2.250    0.000    0.000 
#    0.000    0.000    0.000    0.000    0.000    0.000 
#
# Total GULP energy -178493.842876 kJ/mol
# GULP energy per Si atom -5577.932590 kJ/mol
# Density = 1.925669 g / cm^3
# Si number density = 19.300617 Si / 1000 Ang^3
#
#
#
# Elastic Constant Matrix: (Units=GPa)
#
#
# Indices 1 2 3 4 5 6 
#
# 1 34.7809 14.1183 21.8075 0.0000 0.0000 0.0000
# 2 14.1183 29.2471 14.6716 0.0000 0.0000 0.0000
# 3 21.8075 14.6716 92.4217 0.0000 0.0000 0.0000
# 4 0.0000 0.0000 0.0000 15.3782 0.0000 0.0000
# 5 0.0000 0.0000 0.0000 0.0000 3.3742 0.0000
# 6 0.0000 0.0000 0.0000 0.0000 0.0000 17.9045
#
#
#
# Elastic Compliance Matrix: (Units=1/GPa)
#
#
# Indices 1 2 3 4 5 6 
#
# 1 0.039344 -0.015576 -0.006811 0.000000 0.000000 0.000000
# 2 -0.015576 0.043316 -0.003201 0.000000 0.000000 0.000000
# 3 -0.006811 -0.003201 0.012935 0.000000 0.000000 0.000000
# 4 0.000000 0.000000 0.000000 0.065027 0.000000 0.000000
# 5 0.000000 0.000000 0.000000 0.000000 0.296365 0.000000
# 6 0.000000 0.000000 0.000000 0.000000 0.000000 0.055852
#
#
# Mechanical properties :
#
#
# Convention : Reuss Voigt Hill
#
# Bulk Modulus (GPa) = 22.51238 28.62714 25.56976
# Shear Modulus (GPa) = 8.63824 14.38822 11.51323
#
# Velocity S-wave (km/s) = 2.11786 2.73331 2.44503
# Velocity P-wave (km/s) = 4.20355 4.98254 4.60953
#
# Compressibility (1/GPa) = 0.04442001
#
# Stress axis : x y z
#
# Youngs Moduli (GPa) = 25.41652 23.08611 77.30837
#
# Poissons Ratio (x) = 0.35959 0.52654
# Poissons Ratio (y) = 0.39589 0.24747
# Poissons Ratio (z) = 0.17311 0.07390
#
# Static dielectric constant tensor:
#      x y z
#    x 1.664300 0.000000 0.000000 
#    y 0.000000 1.727300 0.000000 
#    z 0.000000 0.000000 1.648400 
# 
# From -- ./inp_files/20025.got.cif
#   From: 2010.05.17/outbox.cif.g08.bks.cpg/sg38_11_cif.got.tgz:20025.got - 2010.06.03 18:07:57.
