data_PCOD9357122
_publ_section_title
;
Structure prediction by ZEFSAII (Michael W. Deem and Ramdas Pophale) SiO2 
 PCOD9357122
Probable space group: A M M 2
;
_chemical_formula_sum "Si O2"
_cell_formula_units_Z 64
_cell_length_a 13.522325
_cell_length_b 26.058949
_cell_length_c 9.735956
_cell_angle_alpha 90.000000
_cell_angle_beta 90.000000
_cell_angle_gamma 90.000000
_cell_volume 3430.732590
_symmetry_space_group_name_H-M "A M M 2"
_symmetry_group_IT_number 38
_symmetry_cell_setting 'orthorhombic'
loop_
_space_group_symop_operation_xyz
x,y,z
-x,-y,z
-x,y,z
x,-y,z
x,1/2+y,1/2+z
-x,1/2-y,1/2+z
-x,1/2+y,1/2+z
x,1/2-y,1/2+z
loop_
_atom_site_type_symbol
_atom_site_label
_atom_site_fract_x
_atom_site_fract_y
_atom_site_fract_z
Si Si1 0.691289 0.697204 0.741300
Si Si2 0.617215 0.379731 0.092473
Si Si3 0.386088 0.914631 0.294078
Si Si4 0.743935 0.059623 0.796790
Si Si5 0.618021 0.263793 0.009677
Si Si6 0.882075 0.943087 0.539824
Si Si7 0.796600 0.442261 0.608927
Si Si8 0.114282 0.362016 0.803792
O O1 0.626529 0.645434 0.754763
O O2 0.677509 0.721605 0.593420
O O3 0.802964 0.681322 0.780581
O O4 0.646058 0.736756 0.850278
O O5 0.500000 0.378644 0.105187
O O6 0.664494 0.403439 0.227323
O O7 0.647712 0.321204 0.060318
O O8 0.637839 0.414965 0.957310
O O9 0.500000 0.930865 0.273874
O O10 0.303967 0.941225 0.200259
O O11 0.834485 0.063107 0.689250
O O12 0.710329 0.000000 0.796573
O O13 0.771509 0.072420 0.952567
O O14 0.500000 0.257499 0.028023
O O15 0.859045 0.896221 0.437913
O O16 0.000000 0.943782 0.550620
O O17 0.851034 0.000000 0.486138
O O18 0.837004 0.500000 0.609172
O O19 0.869619 0.401948 0.679066
O O20 0.000000 0.345439 0.812360
#
# Coordination Sequence:
#
# PCOD9357122 Si02
#       8
#     8   8   8   8   8   8   8   8
#     4  10  20  35  55  80 106 134 172 218 266 316
#     4   9  19  34  52  74 101 139 181 215 251 303
#     4   9  18  34  53  74 105 142 181 223 265 315
#     4  10  20  33  49  75 111 141 169 212 264 312
#     4  10  19  33  55  81 107 135 172 216 262 313
#     4   9  17  31  54  79 100 132 179 223 260 303
#     4  10  21  33  49  77 109 141 175 217 270 322
#     4  10  21  38  58  77 102 138 180 222 264 314
#
# _framework density 18.654907999999999
#
# number of rings (size 3 to 8) (size 9 to 14) (size 15 to 20)
#    0.000    2.375    0.000    4.500    0.000    5.750 
#    0.000    5.625    0.000    0.750    0.000    0.000 
#    0.000    0.000    0.000    0.000    0.000    0.000 
#
# Total GULP energy -178480.131406 kJ/mol
# GULP energy per Si atom -5577.504106 kJ/mol
# Density = 1.861245 g / cm^3
# Si number density = 18.654908 Si / 1000 Ang^3
#
#
#
# Elastic Constant Matrix: (Units=GPa)
#
#
# Indices 1 2 3 4 5 6 
#
# 1 81.7206 8.1544 -2.6752 0.0000 0.0000 0.0000
# 2 8.1544 25.3807 15.5229 0.0000 0.0000 0.0000
# 3 -2.6752 15.5229 65.3500 0.0000 0.0000 0.0000
# 4 0.0000 0.0000 0.0000 25.1950 0.0000 0.0000
# 5 0.0000 0.0000 0.0000 0.0000 13.2314 0.0000
# 6 0.0000 0.0000 0.0000 0.0000 0.0000 22.3048
#
#
#
# Elastic Compliance Matrix: (Units=1/GPa)
#
#
# Indices 1 2 3 4 5 6 
#
# 1 0.012812 -0.005191 0.001758 0.000000 0.000000 0.000000
# 2 -0.005191 0.048200 -0.011662 0.000000 0.000000 0.000000
# 3 0.001758 -0.011662 0.018144 0.000000 0.000000 0.000000
# 4 0.000000 0.000000 0.000000 0.039690 0.000000 0.000000
# 5 0.000000 0.000000 0.000000 0.000000 0.075578 0.000000
# 6 0.000000 0.000000 0.000000 0.000000 0.000000 0.044833
#
#
# Mechanical properties :
#
#
# Convention : Reuss Voigt Hill
#
# Bulk Modulus (GPa) = 20.42237 23.82838 22.12538
# Shear Modulus (GPa) = 17.49650 22.24286 19.86968
#
# Velocity S-wave (km/s) = 3.06584 3.45676 3.26716
# Velocity P-wave (km/s) = 4.84807 5.36034 5.11063
#
# Compressibility (1/GPa) = 0.04896590
#
# Stress axis : x y z
#
# Youngs Moduli (GPa) = 78.04960 20.74677 55.11392
#
# Poissons Ratio (x) = 0.10770 -0.09687
# Poissons Ratio (y) = 0.40518 0.64273
# Poissons Ratio (z) = -0.13718 0.24194
#
# Static dielectric constant tensor:
#      x y z
#    x 1.648110 0.000000 0.000000 
#    y 0.000000 1.663480 0.000000 
#    z 0.000000 0.000000 1.638580 
# 
# From -- ./inp_files/5878.got.cif
#   From: 2010.05.17/outbox.cif.g08.bks.cpg/sg38_3_cif.got.tgz:5878.got - 2010.06.03 18:07:57.
