data_PCOD9357094
_publ_section_title
;
Structure prediction by ZEFSAII (Michael W. Deem and Ramdas Pophale) SiO2 
 PCOD9357094
Probable space group: A M M 2
;
_chemical_formula_sum "Si O2"
_cell_formula_units_Z 52
_cell_length_a 12.327577
_cell_length_b 7.817574
_cell_length_c 25.694087
_cell_angle_alpha 90.000000
_cell_angle_beta 90.000000
_cell_angle_gamma 90.000000
_cell_volume 2476.184012
_symmetry_space_group_name_H-M "A M M 2"
_symmetry_group_IT_number 38
_symmetry_cell_setting 'orthorhombic'
loop_
_space_group_symop_operation_xyz
x,y,z
-x,-y,z
-x,y,z
x,-y,z
x,1/2+y,1/2+z
-x,1/2-y,1/2+z
-x,1/2+y,1/2+z
x,1/2-y,1/2+z
loop_
_atom_site_type_symbol
_atom_site_label
_atom_site_fract_x
_atom_site_fract_y
_atom_site_fract_z
Si Si1 0.877683 0.292870 0.333230
Si Si2 0.500000 0.803233 0.274244
Si Si3 0.500000 0.301737 0.517452
Si Si4 0.500000 0.744209 0.399769
Si Si5 0.735553 0.796795 0.738230
Si Si6 0.125762 0.209874 0.639474
Si Si7 0.730974 0.797414 0.424491
Si Si8 0.267431 0.705652 0.043032
O O1 0.874991 0.500000 0.333461
O O2 0.798936 0.226939 0.288236
O O3 0.832351 0.230565 0.387815
O O4 0.000000 0.238649 0.323320
O O5 0.500000 0.793940 0.337831
O O6 0.391143 0.728818 0.248889
O O7 0.500000 0.000000 0.260737
O O8 0.500000 0.500000 0.500554
O O9 0.500000 0.196249 0.462618
O O10 0.391610 0.265257 0.549637
O O11 0.627168 0.692595 0.403064
O O12 0.794708 0.732545 0.686108
O O13 0.753479 0.000000 0.737095
O O14 0.181975 0.266697 0.585618
O O15 0.000000 0.263419 0.645285
O O16 0.124232 0.000000 0.639260
O O17 0.757548 0.747295 0.483396
O O18 0.699876 0.000000 0.422042
O O19 0.268091 0.500000 0.045592
#
# Coordination Sequence:
#
# PCOD9357094 Si02
#       8
#     8   4   4   4   8   8   8   8
#     4  10  21  35  51  75 109 145 180 224 277 330
#     4  12  23  37  58  84 117 150 181 228 287 342
#     4  10  21  35  56  84 117 152 185 226 281 342
#     4  10  20  34  54  78 110 148 184 220 270 334
#     4  10  21  37  58  84 111 144 190 236 278 329
#     4   9  18  36  62  85 108 147 197 242 279 324
#     4  10  19  33  54  81 110 141 180 226 277 333
#     4   9  19  35  57  84 112 145 188 235 281 330
#
# _framework density 21.000055
#
# number of rings (size 3 to 8) (size 9 to 14) (size 15 to 20)
#    0.000    2.154    1.538    1.615    0.000    8.923 
#    0.000    5.385    0.000    2.769    0.000    0.000 
#    0.000    0.000    0.000    0.000    0.000    0.000 
#
# Total GULP energy -144773.197252 kJ/mol
# GULP energy per Si atom -5568.199894 kJ/mol
# Density = 2.095226 g / cm^3
# Si number density = 21.000055 Si / 1000 Ang^3
#
#
#
# Elastic Constant Matrix: (Units=GPa)
#
#
# Indices 1 2 3 4 5 6 
#
# 1 175.0306 2.8719 91.3790 0.0000 0.0000 0.0000
# 2 2.8719 33.5108 13.0216 0.0000 0.0000 0.0000
# 3 91.3790 13.0216 137.4690 0.0000 0.0000 0.0000
# 4 0.0000 0.0000 0.0000 1.0138 0.0000 0.0000
# 5 0.0000 0.0000 0.0000 0.0000 25.5901 0.0000
# 6 0.0000 0.0000 0.0000 0.0000 0.0000 5.0060
#
#
#
# Elastic Compliance Matrix: (Units=1/GPa)
#
#
# Indices 1 2 3 4 5 6 
#
# 1 0.008830 0.001582 -0.006019 0.000000 0.000000 0.000000
# 2 0.001582 0.031265 -0.004013 0.000000 0.000000 0.000000
# 3 -0.006019 -0.004013 0.011656 0.000000 0.000000 0.000000
# 4 0.000000 0.000000 0.000000 0.986394 0.000000 0.000000
# 5 0.000000 0.000000 0.000000 0.000000 0.039078 0.000000
# 6 0.000000 0.000000 0.000000 0.000000 0.000000 0.199760
#
#
# Mechanical properties :
#
#
# Convention : Reuss Voigt Hill
#
# Bulk Modulus (GPa) = 28.69452 62.28393 45.48922
# Shear Modulus (GPa) = 3.82995 22.23785 13.03390
#
# Velocity S-wave (km/s) = 1.35194 3.25767 2.49401
# Velocity P-wave (km/s) = 4.01630 6.62369 5.47740
#
# Compressibility (1/GPa) = 0.03484986
#
# Stress axis : x y z
#
# Youngs Moduli (GPa) = 113.25225 31.98465 85.79501
#
# Poissons Ratio (x) = -0.05061 0.51643
# Poissons Ratio (y) = -0.17919 0.34432
# Poissons Ratio (z) = 0.68170 0.12836
#
# Static dielectric constant tensor:
#      x y z
#    x 1.695050 0.000000 0.000000 
#    y 0.000000 1.905980 0.000000 
#    z 0.000000 0.000000 1.747480 
# 
# From -- ./inp_files/23776.got.cif
#   From: 2010.05.17/outbox.cif.g08.bks.cpg/sg38_12_cif.got.tgz:23776.got - 2010.06.03 18:07:57.
