data_PCOD9357693
_publ_section_title
;
Structure prediction by ZEFSAII (Michael W. Deem and Ramdas Pophale) SiO2 
 PCOD9357693
Probable space group: A M M 2
;
_chemical_formula_sum "Si O2"
_cell_formula_units_Z 40
_cell_length_a 7.666974
_cell_length_b 9.440236
_cell_length_c 27.127710
_cell_angle_alpha 90.000000
_cell_angle_beta 90.000000
_cell_angle_gamma 90.000000
_cell_volume 1963.450587
_symmetry_space_group_name_H-M "A M M 2"
_symmetry_group_IT_number 38
_symmetry_cell_setting 'orthorhombic'
loop_
_space_group_symop_operation_xyz
x,y,z
-x,-y,z
-x,y,z
x,-y,z
x,1/2+y,1/2+z
-x,1/2-y,1/2+z
-x,1/2+y,1/2+z
x,1/2-y,1/2+z
loop_
_atom_site_type_symbol
_atom_site_label
_atom_site_fract_x
_atom_site_fract_y
_atom_site_fract_z
Si Si1 0.208076 0.159911 0.025880
Si Si2 0.710467 0.836263 0.429077
Si Si3 0.792612 0.161688 0.214266
Si Si4 0.785896 0.337166 0.120160
Si Si5 0.709517 0.334858 0.821539
O O1 0.273839 0.251960 0.071892
O O2 0.000000 0.150076 0.032647
O O3 0.278614 0.000000 0.025336
O O4 0.237722 0.240066 0.974636
O O5 0.500000 0.840376 0.427947
O O6 0.769398 0.780863 0.375061
O O7 0.769845 0.000000 0.435334
O O8 0.726587 0.257204 0.169615
O O9 0.764987 0.225132 0.268872
O O10 0.000000 0.150538 0.207455
O O11 0.721268 0.000000 0.212724
O O12 0.730074 0.500000 0.118770
O O13 0.000000 0.337699 0.120129
O O14 0.500000 0.331589 0.821721
O O15 0.765465 0.500000 0.820669
#
# Coordination Sequence:
#
# PCOD9357693 Si02
#       5
#     8   8   8   8   8
#     4  10  20  33  50  73  99 127 162 203 244 288
#     4   9  18  33  52  73  98 129 164 201 241 286
#     4   9  16  27  46  71  95 120 154 194 232 275
#     4   9  17  30  48  69  94 125 158 194 240 288
#     4   8  15  29  48  69  94 124 156 190 231 280
#
# _framework density 20.372298000000001
#
# number of rings (size 3 to 8) (size 9 to 14) (size 15 to 20)
#    0.000    3.000    0.000    2.400    0.000    4.800 
#    0.000    4.000    0.000    7.800    0.000    0.000 
#    0.000    0.000    0.000    0.000    0.000    0.000 
#
# Total GULP energy -111491.688795 kJ/mol
# GULP energy per Si atom -5574.584440 kJ/mol
# Density = 2.032593 g / cm^3
# Si number density = 20.372298 Si / 1000 Ang^3
#
#
#
# Elastic Constant Matrix: (Units=GPa)
#
#
# Indices 1 2 3 4 5 6 
#
# 1 31.5379 6.7706 2.2086 0.0000 0.0000 0.0000
# 2 6.7706 128.0512 115.5478 0.0000 0.0000 0.0000
# 3 2.2086 115.5478 246.4984 0.0000 0.0000 0.0000
# 4 0.0000 0.0000 0.0000 32.4486 0.0000 0.0000
# 5 0.0000 0.0000 0.0000 0.0000 34.8285 0.0000
# 6 0.0000 0.0000 0.0000 0.0000 0.0000 8.1492
#
#
#
# Elastic Compliance Matrix: (Units=1/GPa)
#
#
# Indices 1 2 3 4 5 6 
#
# 1 0.032182 -0.002498 0.000883 0.000000 0.000000 0.000000
# 2 -0.002498 0.013728 -0.006413 0.000000 0.000000 0.000000
# 3 0.000883 -0.006413 0.007055 0.000000 0.000000 0.000000
# 4 0.000000 0.000000 0.000000 0.030818 0.000000 0.000000
# 5 0.000000 0.000000 0.000000 0.000000 0.028712 0.000000
# 6 0.000000 0.000000 0.000000 0.000000 0.000000 0.122712
#
#
# Mechanical properties :
#
#
# Convention : Reuss Voigt Hill
#
# Bulk Modulus (GPa) = 27.09366 72.79352 49.94359
# Shear Modulus (GPa) = 18.97055 33.85596 26.41325
#
# Velocity S-wave (km/s) = 3.05486 4.08102 3.60464
# Velocity P-wave (km/s) = 5.07652 7.61679 6.47250
#
# Compressibility (1/GPa) = 0.03690900
#
# Stress axis : x y z
#
# Youngs Moduli (GPa) = 31.07292 72.84371 141.74504
#
# Poissons Ratio (x) = 0.18197 -0.12511
# Poissons Ratio (y) = 0.07762 0.90897
# Poissons Ratio (z) = -0.02743 0.46713
#
# Static dielectric constant tensor:
#      x y z
#    x 1.761070 0.000000 0.000000 
#    y 0.000000 1.702380 0.000000 
#    z 0.000000 0.000000 1.738480 
# 
# From -- ./inp_files/17460.got.cif
#   From: 2010.05.17/outbox.cif.g08.bks.cpg/sg38_9_cif.got.tgz:17460.got - 2010.06.03 18:07:57.
