data_PCOD9357612
_publ_section_title
;
Structure prediction by ZEFSAII (Michael W. Deem and Ramdas Pophale) SiO2 
 PCOD9357612
Probable space group: A M M 2
;
_chemical_formula_sum "Si O2"
_cell_formula_units_Z 56
_cell_length_a 8.856219
_cell_length_b 22.819017
_cell_length_c 14.895809
_cell_angle_alpha 90.000000
_cell_angle_beta 90.000000
_cell_angle_gamma 90.000000
_cell_volume 3010.297197
_symmetry_space_group_name_H-M "A M M 2"
_symmetry_group_IT_number 38
_symmetry_cell_setting 'orthorhombic'
loop_
_space_group_symop_operation_xyz
x,y,z
-x,-y,z
-x,y,z
x,-y,z
x,1/2+y,1/2+z
-x,1/2-y,1/2+z
-x,1/2+y,1/2+z
x,1/2-y,1/2+z
loop_
_atom_site_type_symbol
_atom_site_label
_atom_site_fract_x
_atom_site_fract_y
_atom_site_fract_z
Si Si1 0.317671 0.108692 0.078790
Si Si2 0.181801 0.612796 0.005070
Si Si3 0.184435 0.000000 0.393211
Si Si4 0.321343 0.217718 0.396644
Si Si5 0.180304 0.148871 0.696385
Si Si6 0.318146 0.353383 0.386613
Si Si7 0.320781 0.276625 0.689096
Si Si8 0.818779 0.500000 0.685353
O O1 0.500000 0.103504 0.084792
O O2 0.277385 0.171672 0.121872
O O3 0.242700 0.057042 0.134513
O O4 0.275435 0.109256 0.973745
O O5 0.229159 0.612056 0.109207
O O6 0.000000 0.612208 0.003889
O O7 0.235370 0.557826 0.946364
O O8 0.236799 0.672663 0.959730
O O9 0.231721 0.000000 0.289454
O O10 0.000000 0.000000 0.393678
O O11 0.500000 0.214848 0.416215
O O12 0.273972 0.285538 0.405414
O O13 0.298489 0.202282 0.291742
O O14 0.249581 0.129422 0.791165
O O15 0.233572 0.215771 0.678947
O O16 0.000000 0.147500 0.703084
O O17 0.500000 0.353664 0.378641
O O18 0.500000 0.264522 0.678060
O O19 0.000000 0.500000 0.683886
#
# Coordination Sequence:
#
# PCOD9357612 Si02
#       8
#     8   8   4   8   8   8   8   4
#     4  10  20  36  57  77 102 140 180 216 257 309
#     4  10  20  34  52  73 100 138 176 209 252 302
#     4   9  20  39  56  71 100 138 171 205 250 307
#     4   9  17  30  51  79 106 132 165 207 255 304
#     4  10  20  32  50  78 107 135 171 216 262 307
#     4   9  19  35  54  76 104 139 173 208 257 311
#     4   9  18  33  53  77 106 139 172 209 259 315
#     4  11  23  37  56  81 106 134 169 213 264 313
#
# _framework density 18.602813999999999
#
# number of rings (size 3 to 8) (size 9 to 14) (size 15 to 20)
#    0.000    2.429    0.000    3.214    0.000    5.714 
#    0.000    1.786    0.000    0.857    0.000    0.000 
#    0.000    0.000    0.000    0.000    0.000    0.000 
#
# Total GULP energy -156260.687266 kJ/mol
# GULP energy per Si atom -5580.738831 kJ/mol
# Density = 1.856047 g / cm^3
# Si number density = 18.602814 Si / 1000 Ang^3
#
#
#
# Elastic Constant Matrix: (Units=GPa)
#
#
# Indices 1 2 3 4 5 6 
#
# 1 16.6025 19.3523 43.5501 0.0000 0.0000 0.0000
# 2 19.3523 47.3097 78.1218 0.0000 0.0000 0.0000
# 3 43.5501 78.1218 182.9165 0.0000 0.0000 0.0000
# 4 0.0000 0.0000 0.0000 31.7923 0.0000 0.0000
# 5 0.0000 0.0000 0.0000 0.0000 26.5942 0.0000
# 6 0.0000 0.0000 0.0000 0.0000 0.0000 23.1490
#
#
#
# Elastic Compliance Matrix: (Units=1/GPa)
#
#
# Indices 1 2 3 4 5 6 
#
# 1 0.161467 -0.008713 -0.034722 0.000000 0.000000 0.000000
# 2 -0.008713 0.072182 -0.028754 0.000000 0.000000 0.000000
# 3 -0.034722 -0.028754 0.026014 0.000000 0.000000 0.000000
# 4 0.000000 0.000000 0.000000 0.031454 0.000000 0.000000
# 5 0.000000 0.000000 0.000000 0.000000 0.037602 0.000000
# 6 0.000000 0.000000 0.000000 0.000000 0.000000 0.043198
#
#
# Mechanical properties :
#
#
# Convention : Reuss Voigt Hill
#
# Bulk Modulus (GPa) = 8.67410 58.76413 33.71912
# Shear Modulus (GPa) = 9.01346 23.36073 16.18710
#
# Velocity S-wave (km/s) = 2.20357 3.54752 2.95302
# Velocity P-wave (km/s) = 3.33875 6.95969 5.45823
#
# Compressibility (1/GPa) = 0.11528571
#
# Stress axis : x y z
#
# Youngs Moduli (GPa) = 6.19320 13.85380 38.44039
#
# Poissons Ratio (x) = 0.12071 1.33473
# Poissons Ratio (y) = 0.05396 1.10531
# Poissons Ratio (z) = 0.21504 0.39835
#
# Static dielectric constant tensor:
#      x y z
#    x 1.629330 0.000000 0.000000 
#    y 0.000000 1.615890 0.000000 
#    z 0.000000 0.000000 1.663430 
# 
# From -- ./inp_files/12459.got.cif
#   From: 2010.05.17/outbox.cif.g08.bks.cpg/sg38_7_cif.got.tgz:12459.got - 2010.06.03 18:07:57.
