data_PCOD9357458
_publ_section_title
;
Structure prediction by ZEFSAII (Michael W. Deem and Ramdas Pophale) SiO2 
 PCOD9357458
Probable space group: A M M 2
;
_chemical_formula_sum "Si O2"
_cell_formula_units_Z 40
_cell_length_a 17.226527
_cell_length_b 8.416144
_cell_length_c 14.950833
_cell_angle_alpha 90.000000
_cell_angle_beta 90.000000
_cell_angle_gamma 90.000000
_cell_volume 2167.585700
_symmetry_space_group_name_H-M "A M M 2"
_symmetry_group_IT_number 38
_symmetry_cell_setting 'orthorhombic'
loop_
_space_group_symop_operation_xyz
x,y,z
-x,-y,z
-x,y,z
x,-y,z
x,1/2+y,1/2+z
-x,1/2-y,1/2+z
-x,1/2+y,1/2+z
x,1/2-y,1/2+z
loop_
_atom_site_type_symbol
_atom_site_label
_atom_site_fract_x
_atom_site_fract_y
_atom_site_fract_z
Si Si1 0.000000 0.689905 0.370510
Si Si2 0.880274 0.810566 0.514779
Si Si3 0.000000 0.693580 0.165112
Si Si4 0.412139 0.808209 0.377457
Si Si5 0.706046 0.310889 0.522451
Si Si6 0.586340 0.193316 0.169525
O O1 0.925879 0.744299 0.428621
O O2 0.000000 0.500000 0.367368
O O3 0.000000 0.749826 0.267774
O O4 0.926044 0.757123 0.604709
O O5 0.791032 0.762254 0.516875
O O6 0.886947 0.000000 0.511143
O O7 0.000000 0.500000 0.168447
O O8 0.500000 0.761903 0.404885
O O9 0.346615 0.730106 0.437197
O O10 0.402965 0.765185 0.273214
O O11 0.406874 0.000000 0.384312
O O12 0.714570 0.500000 0.530181
O O13 0.655250 0.249939 0.606465
O O14 0.500000 0.247340 0.140945
O O15 0.585683 0.000000 0.165016
#
# Coordination Sequence:
#
# PCOD9357458 Si02
#       6
#     4   8   4   8   8   8
#     4  10  19  37  62  85 106 131 167 212 260 306
#     4  10  21  38  55  78 110 141 172 206 253 314
#     4   8  18  37  60  79 102 135 167 208 260 308
#     4   9  18  34  54  75 102 139 179 217 262 316
#     4  11  21  33  52  79 108 138 174 219 263 300
#     4   8  16  32  52  73 101 138 178 218 262 312
#
# _framework density 18.453710999999998
#
# number of rings (size 3 to 8) (size 9 to 14) (size 15 to 20)
#    0.000    2.600    0.000    3.900    0.000    2.800 
#    0.000   12.000    0.000    2.400    0.000    0.000 
#    0.000    0.000    0.000    0.000    0.000    0.000 
#
# Total GULP energy -111565.215835 kJ/mol
# GULP energy per Si atom -5578.260792 kJ/mol
# Density = 1.841171 g / cm^3
# Si number density = 18.453711 Si / 1000 Ang^3
#
#
#
# Elastic Constant Matrix: (Units=GPa)
#
#
# Indices 1 2 3 4 5 6 
#
# 1 170.3899 23.9745 89.7527 0.0000 0.0000 0.0000
# 2 23.9745 29.0848 21.0379 0.0000 0.0000 0.0000
# 3 89.7527 21.0379 140.1210 0.0000 0.0000 0.0000
# 4 0.0000 0.0000 0.0000 22.8036 0.0000 0.0000
# 5 0.0000 0.0000 0.0000 0.0000 39.5622 0.0000
# 6 0.0000 0.0000 0.0000 0.0000 0.0000 6.9441
#
#
#
# Elastic Compliance Matrix: (Units=1/GPa)
#
#
# Indices 1 2 3 4 5 6 
#
# 1 0.009204 -0.003727 -0.005336 0.000000 0.000000 0.000000
# 2 -0.003727 0.040080 -0.003630 0.000000 0.000000 0.000000
# 3 -0.005336 -0.003630 0.011100 0.000000 0.000000 0.000000
# 4 0.000000 0.000000 0.000000 0.043853 0.000000 0.000000
# 5 0.000000 0.000000 0.000000 0.000000 0.025277 0.000000
# 6 0.000000 0.000000 0.000000 0.000000 0.000000 0.144008
#
#
# Mechanical properties :
#
#
# Convention : Reuss Voigt Hill
#
# Bulk Modulus (GPa) = 28.57375 67.68067 48.12721
# Shear Modulus (GPa) = 16.09925 27.51735 21.80830
#
# Velocity S-wave (km/s) = 2.95687 3.86574 3.44144
# Velocity P-wave (km/s) = 5.21297 7.52866 6.47518
#
# Compressibility (1/GPa) = 0.03499716
#
# Stress axis : x y z
#
# Youngs Moduli (GPa) = 108.64838 24.94986 90.09349
#
# Poissons Ratio (x) = 0.09299 0.48073
# Poissons Ratio (y) = 0.40495 0.32707
# Poissons Ratio (z) = 0.57974 0.09058
#
# Static dielectric constant tensor:
#      x y z
#    x 1.613180 0.000000 0.000000 
#    y 0.000000 1.631520 0.000000 
#    z 0.000000 0.000000 1.638140 
# 
# From -- ./inp_files/14281.got.cif
#   From: 2010.05.17/outbox.cif.g08.bks.cpg/sg38_8_cif.got.tgz:14281.got - 2010.06.03 18:07:57.
