data_PCOD9357887
_publ_section_title
;
Structure prediction by ZEFSAII (Michael W. Deem and Ramdas Pophale) SiO2 
 PCOD9357887
Probable space group: A M M 2
;
_chemical_formula_sum "Si O2"
_cell_formula_units_Z 40
_cell_length_a 7.445375
_cell_length_b 8.728068
_cell_length_c 31.346665
_cell_angle_alpha 90.000000
_cell_angle_beta 90.000000
_cell_angle_gamma 90.000000
_cell_volume 2037.023506
_symmetry_space_group_name_H-M "A M M 2"
_symmetry_group_IT_number 38
_symmetry_cell_setting 'orthorhombic'
loop_
_space_group_symop_operation_xyz
x,y,z
-x,-y,z
-x,y,z
x,-y,z
x,1/2+y,1/2+z
-x,1/2-y,1/2+z
-x,1/2+y,1/2+z
x,1/2-y,1/2+z
loop_
_atom_site_type_symbol
_atom_site_label
_atom_site_fract_x
_atom_site_fract_y
_atom_site_fract_z
Si Si1 0.000000 0.318563 0.659781
Si Si2 0.718016 0.180693 0.915009
Si Si3 0.292936 0.187236 0.822257
Si Si4 0.711274 0.682026 0.096974
Si Si5 0.000000 0.314677 0.254278
Si Si6 0.281484 0.821134 0.007376
O O1 0.828374 0.261072 0.633123
O O2 0.000000 0.251473 0.707220
O O3 0.000000 0.500000 0.661598
O O4 0.500000 0.189001 0.913725
O O5 0.776245 0.241387 0.868851
O O6 0.764330 0.000000 0.916324
O O7 0.777387 0.242603 0.961085
O O8 0.500000 0.233148 0.816882
O O9 0.170903 0.232988 0.782758
O O10 0.289442 0.000000 0.824157
O O11 0.500000 0.721532 0.100920
O O12 0.729649 0.500000 0.100678
O O13 0.773885 0.733944 0.049879
O O14 0.000000 0.500000 0.251421
O O15 0.500000 0.817445 0.006532
O O16 0.229410 0.000000 0.010829
#
# Coordination Sequence:
#
# PCOD9357887 Si02
#       6
#     4   8   8   8   4   8
#     4  12  26  42  59  78 105 141 182 231 281 332
#     4   7  10  19  39  69 104 139 172 207 248 297
#     4   8  14  26  46  73 104 136 170 211 258 306
#     4  10  21  38  60  84 111 143 180 224 273 326
#     4  10  20  34  53  76  99 127 172 227 275 318
#     4   8  13  24  46  76 109 143 177 213 255 306
#
# _framework density 19.636493000000002
#
# number of rings (size 3 to 8) (size 9 to 14) (size 15 to 20)
#    0.000    3.200    0.000    3.900    0.000    2.000 
#    0.000    3.000    0.000    4.800    0.000    2.800 
#    0.000    0.000    0.000    0.000    0.000    0.000 
#
# Total GULP energy -111478.155125 kJ/mol
# GULP energy per Si atom -5573.907756 kJ/mol
# Density = 1.959180 g / cm^3
# Si number density = 19.636493 Si / 1000 Ang^3
#
#
#
# Elastic Constant Matrix: (Units=GPa)
#
#
# Indices 1 2 3 4 5 6 
#
# 1 89.2988 31.2380 79.0418 0.0000 0.0000 0.0000
# 2 31.2380 30.8914 54.2826 0.0000 0.0000 0.0000
# 3 79.0418 54.2826 247.0134 0.0000 0.0000 0.0000
# 4 0.0000 0.0000 0.0000 27.2769 0.0000 0.0000
# 5 0.0000 0.0000 0.0000 0.0000 35.1272 0.0000
# 6 0.0000 0.0000 0.0000 0.0000 0.0000 10.1973
#
#
#
# Elastic Compliance Matrix: (Units=1/GPa)
#
#
# Indices 1 2 3 4 5 6 
#
# 1 0.018565 -0.013578 -0.002957 0.000000 0.000000 0.000000
# 2 -0.013578 0.062665 -0.009426 0.000000 0.000000 0.000000
# 3 -0.002957 -0.009426 0.007066 0.000000 0.000000 0.000000
# 4 0.000000 0.000000 0.000000 0.036661 0.000000 0.000000
# 5 0.000000 0.000000 0.000000 0.000000 0.028468 0.000000
# 6 0.000000 0.000000 0.000000 0.000000 0.000000 0.098065
#
#
# Mechanical properties :
#
#
# Convention : Reuss Voigt Hill
#
# Bulk Modulus (GPa) = 27.49147 77.36982 52.43065
# Shear Modulus (GPa) = 15.84597 28.02970 21.93783
#
# Velocity S-wave (km/s) = 2.84380 3.78223 3.34608
# Velocity P-wave (km/s) = 4.98131 7.65247 6.45654
#
# Compressibility (1/GPa) = 0.03637492
#
# Stress axis : x y z
#
# Youngs Moduli (GPa) = 53.86387 15.95775 141.52154
#
# Poissons Ratio (x) = 0.21667 0.41847
# Poissons Ratio (y) = 0.73134 1.33404
# Poissons Ratio (z) = 0.15927 0.15042
#
# Static dielectric constant tensor:
#      x y z
#    x 1.734230 0.000000 0.000000 
#    y 0.000000 1.664060 0.000000 
#    z 0.000000 0.000000 1.700050 
# 
# From -- ./inp_files/23275.got.cif
#   From: 2010.05.17/outbox.cif.g08.bks.cpg/sg38_12_cif.got.tgz:23275.got - 2010.06.03 18:07:57.
