data_PCOD9357124
_publ_section_title
;
Structure prediction by ZEFSAII (Michael W. Deem and Ramdas Pophale) SiO2 
 PCOD9357124
Probable space group: A M M 2
;
_chemical_formula_sum "Si O2"
_cell_formula_units_Z 48
_cell_length_a 8.597017
_cell_length_b 17.022015
_cell_length_c 18.881330
_cell_angle_alpha 90.000000
_cell_angle_beta 90.000000
_cell_angle_gamma 90.000000
_cell_volume 2763.066498
_symmetry_space_group_name_H-M "A M M 2"
_symmetry_group_IT_number 38
_symmetry_cell_setting 'orthorhombic'
loop_
_space_group_symop_operation_xyz
x,y,z
-x,-y,z
-x,y,z
x,-y,z
x,1/2+y,1/2+z
-x,1/2-y,1/2+z
-x,1/2+y,1/2+z
x,1/2-y,1/2+z
loop_
_atom_site_type_symbol
_atom_site_label
_atom_site_fract_x
_atom_site_fract_y
_atom_site_fract_z
Si Si1 0.813804 0.172593 0.360420
Si Si2 0.687115 0.258118 0.222644
Si Si3 0.685970 0.183413 0.944007
Si Si4 0.685272 0.000000 0.169747
Si Si5 0.187225 0.000000 0.328637
Si Si6 0.815153 0.841590 0.099646
Si Si7 0.689050 0.088672 0.804392
O O1 0.758860 0.201469 0.282835
O O2 0.733287 0.230671 0.415781
O O3 0.000000 0.181086 0.365445
O O4 0.772231 0.081047 0.367539
O O5 0.500000 0.252331 0.226301
O O6 0.745084 0.228676 0.147082
O O7 0.733827 0.346306 0.246025
O O8 0.500000 0.178373 0.951131
O O9 0.734821 0.123608 0.881085
O O10 0.763888 0.165255 0.018477
O O11 0.735615 0.000000 0.251550
O O12 0.751308 0.922450 0.132393
O O13 0.500000 0.000000 0.164568
O O14 0.000000 0.000000 0.318153
O O15 0.000000 0.840339 0.105624
O O16 0.500000 0.086696 0.804252
O O17 0.745481 0.000000 0.793338
#
# Coordination Sequence:
#
# PCOD9357124 Si02
#       7
#     8   8   8   4   4   8   8
#     4  10  19  34  55  80 112 147 183 225 278 328
#     4  10  19  33  55  81 108 143 188 229 271 328
#     4  10  21  36  56  81 111 145 186 225 275 336
#     4  12  24  36  56  84 114 145 182 225 276 332
#     4  10  20  34  56  84 114 145 180 225 274 330
#     4  12  24  38  55  79 115 149 183 225 281 336
#     4   8  16  32  55  82 108 136 175 227 274 317
#
# _framework density 17.372002999999999
#
# number of rings (size 3 to 8) (size 9 to 14) (size 15 to 20)
#    0.000    1.833    1.667    4.750    1.167    0.667 
#    0.000    0.000    1.833   10.000    0.000    0.000 
#    0.000    0.000    0.000    0.000    0.000    0.000 
#
# Total GULP energy -133978.671100 kJ/mol
# GULP energy per Si atom -5582.444629 kJ/mol
# Density = 1.733246 g / cm^3
# Si number density = 17.372003 Si / 1000 Ang^3
#
#
#
# Elastic Constant Matrix: (Units=GPa)
#
#
# Indices 1 2 3 4 5 6 
#
# 1 45.3232 23.2590 11.1410 0.0000 0.0000 0.0000
# 2 23.2590 145.4036 40.2880 0.0000 0.0000 0.0000
# 3 11.1410 40.2880 70.1677 0.0000 0.0000 0.0000
# 4 0.0000 0.0000 0.0000 41.7535 0.0000 0.0000
# 5 0.0000 0.0000 0.0000 0.0000 52.3167 0.0000
# 6 0.0000 0.0000 0.0000 0.0000 0.0000 21.3102
#
#
#
# Elastic Compliance Matrix: (Units=1/GPa)
#
#
# Indices 1 2 3 4 5 6 
#
# 1 0.024255 -0.003345 -0.001931 0.000000 0.000000 0.000000
# 2 -0.003345 0.008640 -0.004430 0.000000 0.000000 0.000000
# 3 -0.001931 -0.004430 0.017101 0.000000 0.000000 0.000000
# 4 0.000000 0.000000 0.000000 0.023950 0.000000 0.000000
# 5 0.000000 0.000000 0.000000 0.000000 0.019114 0.000000
# 6 0.000000 0.000000 0.000000 0.000000 0.000000 0.046926
#
#
# Mechanical properties :
#
#
# Convention : Reuss Voigt Hill
#
# Bulk Modulus (GPa) = 32.69478 45.58560 39.14019
# Shear Modulus (GPa) = 29.48253 35.48984 32.48619
#
# Velocity S-wave (km/s) = 4.12409 4.52479 4.32908
# Velocity P-wave (km/s) = 6.44506 7.32093 6.89691
#
# Compressibility (1/GPa) = 0.03058592
#
# Stress axis : x y z
#
# Youngs Moduli (GPa) = 41.22889 115.74334 58.47460
#
# Poissons Ratio (x) = 0.38715 0.11289
# Poissons Ratio (y) = 0.13791 0.25902
# Poissons Ratio (z) = 0.07959 0.51270
#
# Static dielectric constant tensor:
#      x y z
#    x 1.582530 0.000000 0.000000 
#    y 0.000000 1.596880 0.000000 
#    z 0.000000 0.000000 1.558050 
# 
# From -- ./inp_files/16686.got.cif
#   From: 2010.05.17/outbox.cif.g08.bks.cpg/sg38_9_cif.got.tgz:16686.got - 2010.06.03 18:07:57.
