data_PCOD9357105
_publ_section_title
;
Structure prediction by ZEFSAII (Michael W. Deem and Ramdas Pophale) SiO2 
 PCOD9357105
Probable space group: A M M 2
;
_chemical_formula_sum "Si O2"
_cell_formula_units_Z 64
_cell_length_a 8.750738
_cell_length_b 20.580432
_cell_length_c 20.580082
_cell_angle_alpha 90.000000
_cell_angle_beta 90.000000
_cell_angle_gamma 90.000000
_cell_volume 3706.348637
_symmetry_space_group_name_H-M "A M M 2"
_symmetry_group_IT_number 38
_symmetry_cell_setting 'orthorhombic'
loop_
_space_group_symop_operation_xyz
x,y,z
-x,-y,z
-x,y,z
x,-y,z
x,1/2+y,1/2+z
-x,1/2-y,1/2+z
-x,1/2+y,1/2+z
x,1/2-y,1/2+z
loop_
_atom_site_type_symbol
_atom_site_label
_atom_site_fract_x
_atom_site_fract_y
_atom_site_fract_z
Si Si1 0.816805 0.824790 0.295900
Si Si2 0.684163 0.075248 0.399212
Si Si3 0.183210 0.321505 0.149581
Si Si4 0.315821 0.574336 0.400280
Si Si5 0.686069 0.073862 0.048422
Si Si6 0.316099 0.820635 0.153752
Si Si7 0.684198 0.075162 0.549630
Si Si8 0.183299 0.675499 0.298896
O O1 0.759214 0.875227 0.349317
O O2 0.745669 0.838140 0.225167
O O3 0.772578 0.750335 0.313000
O O4 0.000000 0.826977 0.290761
O O5 0.500000 0.080031 0.394411
O O6 0.725744 0.088958 0.474409
O O7 0.725434 0.000000 0.385460
O O8 0.254160 0.250746 0.136248
O O9 0.241000 0.374902 0.099173
O O10 0.227321 0.338577 0.224043
O O11 0.000000 0.316462 0.147301
O O12 0.500000 0.575925 0.399145
O O13 0.268593 0.500000 0.385573
O O14 0.266905 0.589181 0.474441
O O15 0.253760 0.625297 0.348998
O O16 0.500000 0.073875 0.048770
O O17 0.735812 0.126497 0.100868
O O18 0.734431 0.000000 0.063769
O O19 0.500000 0.819171 0.155193
O O20 0.500000 0.079820 0.554272
O O21 0.726068 0.000000 0.563408
O O22 0.000000 0.671515 0.302856
#
# Coordination Sequence:
#
# PCOD9357105 Si02
#       8
#     8   8   8   8   8   8   8   8
#     4  10  21  36  52  75 107 138 170 211 259 310
#     4   9  19  36  56  78 104 135 173 215 258 308
#     4  10  21  36  52  73 105 140 172 211 259 312
#     4   9  18  33  53  76 100 127 163 207 251 296
#     4   8  16  32  52  75 102 129 161 204 252 300
#     4  10  19  33  55  78 101 135 175 214 256 303
#     4   9  19  36  56  78 104 133 171 219 262 306
#     4   9  20  36  50  69 101 137 169 203 247 301
#
# _framework density 17.267668
#
# number of rings (size 3 to 8) (size 9 to 14) (size 15 to 20)
#    0.000    2.750    0.000    3.375    0.000    6.250 
#    0.000   10.000    0.000    2.625    0.000    0.000 
#    0.000    0.000    0.000    0.000    0.000    0.000 
#
# Total GULP energy -178458.084483 kJ/mol
# GULP energy per Si atom -5576.815140 kJ/mol
# Density = 1.722837 g / cm^3
# Si number density = 17.267668 Si / 1000 Ang^3
#
#
#
# Elastic Constant Matrix: (Units=GPa)
#
#
# Indices 1 2 3 4 5 6 
#
# 1 33.2285 49.2786 49.0066 0.0000 0.0000 0.0000
# 2 49.2786 156.4055 144.5719 0.0000 0.0000 0.0000
# 3 49.0066 144.5719 156.0586 0.0000 0.0000 0.0000
# 4 0.0000 0.0000 0.0000 44.2193 0.0000 0.0000
# 5 0.0000 0.0000 0.0000 0.0000 -22.2426 0.0000
# 6 0.0000 0.0000 0.0000 0.0000 0.0000 3.3262
#
#
#
# Elastic Compliance Matrix: (Units=1/GPa)
#
#
# Indices 1 2 3 4 5 6 
#
# 1 0.058242 -0.010053 -0.008977 0.000000 0.000000 0.000000
# 2 -0.010053 0.046229 -0.039670 0.000000 0.000000 0.000000
# 3 -0.008977 -0.039670 0.045977 0.000000 0.000000 0.000000
# 4 0.000000 0.000000 0.000000 0.022615 0.000000 0.000000
# 5 0.000000 0.000000 0.000000 0.000000 -0.044959 0.000000
# 6 0.000000 0.000000 0.000000 0.000000 0.000000 0.300641
#
#
# Mechanical properties :
#
#
# Convention : Reuss Voigt Hill
#
# Bulk Modulus (GPa) = 30.25750 92.37852 61.31801
# Shear Modulus (GPa) = 8.97407 11.91629 10.44518
#
# Velocity S-wave (km/s) = 2.28217 2.62981 2.46214
# Velocity P-wave (km/s) = 4.95026 7.92687 6.60834
#
# Compressibility (1/GPa) = 0.03304965
#
# Stress axis : x y z
#
# Youngs Moduli (GPa) = 17.16965 21.63127 21.75010
#
# Poissons Ratio (x) = 0.21745 0.19525
# Poissons Ratio (y) = 0.17260 0.86282
# Poissons Ratio (z) = 0.15413 0.85811
#
# Static dielectric constant tensor:
#      x y z
#    x 1.582220 0.000000 0.000000 
#    y 0.000000 1.567560 0.000000 
#    z 0.000000 0.000000 1.567450 
# 
# From -- ./inp_files/17213.got.cif
#   From: 2010.05.17/outbox.cif.g08.bks.cpg/sg38_9_cif.got.tgz:17213.got - 2010.06.03 18:07:57.
