data_PCOD9357052
_publ_section_title
;
Structure prediction by ZEFSAII (Michael W. Deem and Ramdas Pophale) SiO2 
 PCOD9357052
Probable space group: A M M 2
;
_chemical_formula_sum "Si O2"
_cell_formula_units_Z 48
_cell_length_a 17.261475
_cell_length_b 7.436940
_cell_length_c 16.535632
_cell_angle_alpha 90.000000
_cell_angle_beta 90.000000
_cell_angle_gamma 90.000000
_cell_volume 2122.721310
_symmetry_space_group_name_H-M "A M M 2"
_symmetry_group_IT_number 38
_symmetry_cell_setting 'orthorhombic'
loop_
_space_group_symop_operation_xyz
x,y,z
-x,-y,z
-x,y,z
x,-y,z
x,1/2+y,1/2+z
-x,1/2-y,1/2+z
-x,1/2+y,1/2+z
x,1/2-y,1/2+z
loop_
_atom_site_type_symbol
_atom_site_label
_atom_site_fract_x
_atom_site_fract_y
_atom_site_fract_z
Si Si1 0.663537 0.719162 0.105750
Si Si2 0.500000 0.707738 0.864489
Si Si3 0.182530 0.713235 0.186061
Si Si4 0.332789 0.781888 0.420797
Si Si5 0.167966 0.207048 0.859281
Si Si6 0.500000 0.281837 0.176337
Si Si7 0.911069 0.216969 0.022826
O O1 0.663628 0.500000 0.107187
O O2 0.732147 0.784080 0.163514
O O3 0.578475 0.777470 0.132662
O O4 0.680523 0.771268 0.013728
O O5 0.500000 0.500000 0.892603
O O6 0.582000 0.782994 0.894707
O O7 0.500000 0.717784 0.768145
O O8 0.191589 0.500000 0.199383
O O9 0.150058 0.786652 0.270885
O O10 0.130681 0.733946 0.106427
O O11 0.261007 0.713348 0.368738
O O12 0.331639 0.000000 0.415243
O O13 0.141163 0.000000 0.858524
O O14 0.132214 0.285467 0.941848
O O15 0.500000 0.500000 0.176923
O O16 0.000000 0.276540 0.022622
O O17 0.909679 0.000000 0.020635
#
# Coordination Sequence:
#
# PCOD9357052 Si02
#       7
#     8   4   8   8   8   4   8
#     4   9  17  31  53  79 105 140 188 231 267 316
#     4  10  21  33  47  75 111 146 186 232 278 324
#     4  10  20  36  59  86 113 145 190 232 270 329
#     4  10  19  34  55  78 110 150 190 230 275 328
#     4  10  21  37  59  87 115 145 184 232 283 331
#     4  10  19  33  53  75 105 146 190 234 274 320
#     4  10  22  40  59  82 115 148 178 223 286 345
#
# _framework density 22.612482
#
# number of rings (size 3 to 8) (size 9 to 14) (size 15 to 20)
#    0.000    2.167    1.667    1.500    0.000    5.667 
#    0.000    3.333    0.000    1.000    0.000    0.000 
#    0.000    0.000    0.000    0.000    0.000    0.000 
#
# Total GULP energy -134088.953571 kJ/mol
# GULP energy per Si atom -5587.039732 kJ/mol
# Density = 2.256101 g / cm^3
# Si number density = 22.612482 Si / 1000 Ang^3
#
#
#
# Elastic Constant Matrix: (Units=GPa)
#
#
# Indices 1 2 3 4 5 6 
#
# 1 116.4891 -8.5564 62.5765 0.0000 0.0000 0.0000
# 2 -8.5564 70.9617 -2.5270 0.0000 0.0000 0.0000
# 3 62.5765 -2.5270 193.1723 0.0000 0.0000 0.0000
# 4 0.0000 0.0000 0.0000 -2.0028 0.0000 0.0000
# 5 0.0000 0.0000 0.0000 0.0000 5.9783 0.0000
# 6 0.0000 0.0000 0.0000 0.0000 0.0000 17.5051
#
#
#
# Elastic Compliance Matrix: (Units=1/GPa)
#
#
# Indices 1 2 3 4 5 6 
#
# 1 0.010485 0.001144 -0.003382 0.000000 0.000000 0.000000
# 2 0.001144 0.014223 -0.000184 0.000000 0.000000 0.000000
# 3 -0.003382 -0.000184 0.006270 0.000000 0.000000 0.000000
# 4 0.000000 0.000000 0.000000 -0.499312 0.000000 0.000000
# 5 0.000000 0.000000 0.000000 0.000000 0.167272 0.000000
# 6 0.000000 0.000000 0.000000 0.000000 0.000000 0.057126
#
#
# Mechanical properties :
#
#
# Convention : Reuss Voigt Hill
#
# Bulk Modulus (GPa) = 38.26454 53.73436 45.99945
# Shear Modulus (GPa) = -21.70335 26.23813 2.26739
#
# Velocity S-wave (km/s) = -3.10142 3.41007 1.00244
# Velocity P-wave (km/s) = 2.03311 6.27053 4.66117
#
# Compressibility (1/GPa) = 0.02613385
#
# Stress axis : x y z
#
# Youngs Moduli (GPa) = 95.37382 70.30636 159.49601
#
# Poissons Ratio (x) = -0.08042 0.53935
# Poissons Ratio (y) = -0.10909 0.02942
# Poissons Ratio (z) = 0.32251 0.01297
#
# Static dielectric constant tensor:
#      x y z
#    x 1.806540 0.000000 0.000000 
#    y 0.000000 1.874060 0.000000 
#    z 0.000000 0.000000 1.830500 
# 
# From -- ./inp_files/14988.got.cif
#   From: 2010.05.17/outbox.cif.g08.bks.cpg/sg38_8_cif.got.tgz:14988.got - 2010.06.03 18:07:57.
