data_PCOD9357899
_publ_section_title
;
Structure prediction by ZEFSAII (Michael W. Deem and Ramdas Pophale) SiO2 
 PCOD9357899
Probable space group: A M M 2
;
_chemical_formula_sum "Si O2"
_cell_formula_units_Z 64
_cell_length_a 8.896772
_cell_length_b 21.052485
_cell_length_c 20.001057
_cell_angle_alpha 90.000000
_cell_angle_beta 90.000000
_cell_angle_gamma 90.000000
_cell_volume 3746.181157
_symmetry_space_group_name_H-M "A M M 2"
_symmetry_group_IT_number 38
_symmetry_cell_setting 'orthorhombic'
loop_
_space_group_symop_operation_xyz
x,y,z
-x,-y,z
-x,y,z
x,-y,z
x,1/2+y,1/2+z
-x,1/2-y,1/2+z
-x,1/2+y,1/2+z
x,1/2-y,1/2+z
loop_
_atom_site_type_symbol
_atom_site_label
_atom_site_fract_x
_atom_site_fract_y
_atom_site_fract_z
Si Si1 0.179447 0.379258 0.639750
Si Si2 0.678783 0.571871 0.505482
Si Si3 0.819111 0.811377 0.508431
Si Si4 0.322169 0.267029 0.289551
Si Si5 0.821099 0.314699 0.422561
Si Si6 0.320255 0.261214 0.138805
Si Si7 0.321740 0.384407 0.780145
Si Si8 0.179812 0.929050 0.415814
O O1 0.244932 0.417708 0.577496
O O2 0.239899 0.307074 0.631684
O O3 0.240393 0.402661 0.711293
O O4 0.000000 0.379624 0.638619
O O5 0.500000 0.580228 0.512703
O O6 0.708395 0.500000 0.482171
O O7 0.742402 0.624903 0.455742
O O8 0.781759 0.748492 0.465281
O O9 0.738154 0.804947 0.579299
O O10 0.774230 0.873477 0.466542
O O11 0.000000 0.812402 0.517704
O O12 0.500000 0.276598 0.301115
O O13 0.230767 0.301776 0.347052
O O14 0.286416 0.286352 0.213356
O O15 0.293748 0.191047 0.291867
O O16 0.000000 0.322582 0.426077
O O17 0.500000 0.251436 0.134845
O O18 0.500000 0.393320 0.772640
O O19 0.259393 0.419625 0.844795
O O20 0.000000 0.922572 0.405587
O O21 0.209898 0.000000 0.441495
#
# Coordination Sequence:
#
# PCOD9357899 Si02
#       8
#     8   8   8   8   8   8   8   8
#     4  11  21  34  54  79 110 146 183 224 268 321
#     4  11  24  40  57  78 108 146 184 224 271 325
#     4  10  20  34  54  83 111 142 184 227 276 322
#     4   9  19  34  53  80 110 141 179 223 271 322
#     4  11  21  34  57  85 110 141 180 227 274 322
#     4  10  20  34  55  83 112 143 181 225 274 323
#     4  10  20  34  53  78 110 147 186 226 267 320
#     4  10  21  37  55  77 110 149 187 227 270 321
#
# _framework density 17.084064999999999
#
# number of rings (size 3 to 8) (size 9 to 14) (size 15 to 20)
#    0.000    1.750    2.500    3.375    0.000    5.250 
#    0.000    0.000    0.000    0.750    0.000    3.500 
#    0.000    0.000    0.000    0.000    0.000    0.000 
#
# Total GULP energy -178719.668113 kJ/mol
# GULP energy per Si atom -5584.989629 kJ/mol
# Density = 1.704518 g / cm^3
# Si number density = 17.084065 Si / 1000 Ang^3
#
#
#
# Elastic Constant Matrix: (Units=GPa)
#
#
# Indices 1 2 3 4 5 6 
#
# 1 68.7830 57.4129 54.8881 0.0000 0.0000 0.0000
# 2 57.4129 99.2212 62.6830 0.0000 0.0000 0.0000
# 3 54.8881 62.6830 115.7324 0.0000 0.0000 0.0000
# 4 0.0000 0.0000 0.0000 21.2615 0.0000 0.0000
# 5 0.0000 0.0000 0.0000 0.0000 30.8305 0.0000
# 6 0.0000 0.0000 0.0000 0.0000 0.0000 19.4740
#
#
#
# Elastic Compliance Matrix: (Units=1/GPa)
#
#
# Indices 1 2 3 4 5 6 
#
# 1 0.032249 -0.013678 -0.007886 0.000000 0.000000 0.000000
# 2 -0.013678 0.021122 -0.004953 0.000000 0.000000 0.000000
# 3 -0.007886 -0.004953 0.015063 0.000000 0.000000 0.000000
# 4 0.000000 0.000000 0.000000 0.047033 0.000000 0.000000
# 5 0.000000 0.000000 0.000000 0.000000 0.032435 0.000000
# 6 0.000000 0.000000 0.000000 0.000000 0.000000 0.051351
#
#
# Mechanical properties :
#
#
# Convention : Reuss Voigt Hill
#
# Bulk Modulus (GPa) = 64.93694 70.41163 67.67428
# Shear Modulus (GPa) = 19.42340 21.56338 20.49339
#
# Velocity S-wave (km/s) = 3.37550 3.55659 3.46723
# Velocity P-wave (km/s) = 7.29964 7.62693 7.46508
#
# Compressibility (1/GPa) = 0.01539956
#
# Stress axis : x y z
#
# Youngs Moduli (GPa) = 31.00917 47.34339 66.38566
#
# Poissons Ratio (x) = 0.64757 0.52352
# Poissons Ratio (y) = 0.42415 0.32882
# Poissons Ratio (z) = 0.24454 0.23450
#
# Static dielectric constant tensor:
#      x y z
#    x 1.572620 0.000000 0.000000 
#    y 0.000000 1.575220 0.000000 
#    z 0.000000 0.000000 1.566170 
# 
# From -- ./inp_files/17155.got.cif
#   From: 2010.05.17/outbox.cif.g08.bks.cpg/sg38_9_cif.got.tgz:17155.got - 2010.06.03 18:07:57.
