data_PCOD9357392
_publ_section_title
;
Structure prediction by ZEFSAII (Michael W. Deem and Ramdas Pophale) SiO2 
 PCOD9357392
Probable space group: A M M 2
;
_chemical_formula_sum "Si O2"
_cell_formula_units_Z 44
_cell_length_a 11.810433
_cell_length_b 13.152448
_cell_length_c 12.983567
_cell_angle_alpha 90.000000
_cell_angle_beta 90.000000
_cell_angle_gamma 90.000000
_cell_volume 2016.816738
_symmetry_space_group_name_H-M "A M M 2"
_symmetry_group_IT_number 38
_symmetry_cell_setting 'orthorhombic'
loop_
_space_group_symop_operation_xyz
x,y,z
-x,-y,z
-x,y,z
x,-y,z
x,1/2+y,1/2+z
-x,1/2-y,1/2+z
-x,1/2+y,1/2+z
x,1/2-y,1/2+z
loop_
_atom_site_type_symbol
_atom_site_label
_atom_site_fract_x
_atom_site_fract_y
_atom_site_fract_z
Si Si1 0.738543 0.383828 0.751830
Si Si2 0.134328 0.178499 0.049690
Si Si3 0.500000 0.884543 0.523788
Si Si4 0.252548 0.671372 0.343142
Si Si5 0.500000 0.120791 0.151993
Si Si6 0.249979 0.114069 0.611256
Si Si7 0.500000 0.309882 0.415982
O O1 0.736518 0.500000 0.791365
O O2 0.817568 0.377761 0.650700
O O3 0.770484 0.292822 0.828409
O O4 0.614613 0.351981 0.710104
O O5 0.181525 0.293787 0.060991
O O6 0.000000 0.176388 0.048610
O O7 0.184726 0.135821 0.943194
O O8 0.615908 0.869083 0.587751
O O9 0.500000 0.811929 0.425634
O O10 0.500000 0.000000 0.487782
O O11 0.226687 0.622240 0.233298
O O12 0.385122 0.653719 0.365202
O O13 0.500000 0.161619 0.036499
O O14 0.500000 0.000000 0.143726
O O15 0.222062 0.000000 0.575204
#
# Coordination Sequence:
#
# PCOD9357392 Si02
#       7
#     8   8   4   8   4   8   4
#     4  10  22  41  62  89 122 156 193 242 298 356
#     4  11  24  42  61  84 116 159 207 249 289 343
#     4  10  19  35  61  90 122 156 191 231 295 366
#     4  11  22  35  62  92 120 153 196 243 296 356
#     4  10  19  35  61  90 122 156 191 231 295 366
#     4  10  22  41  62  89 122 156 193 242 298 356
#     4  12  18  34  60  92 122 160 184 236 300 354
#
# _framework density 21.816558000000001
#
# number of rings (size 3 to 8) (size 9 to 14) (size 15 to 20)
#    0.000    1.455    3.636    2.182    0.000    6.545 
#    0.000    0.000    0.000    0.000    0.000    0.000 
#    0.000    0.000    0.000    0.000    0.000    0.000 
#
# Total GULP energy -123044.314646 kJ/mol
# GULP energy per Si atom -5592.923393 kJ/mol
# Density = 2.176690 g / cm^3
# Si number density = 21.816558 Si / 1000 Ang^3
#
#
#
# Elastic Constant Matrix: (Units=GPa)
#
#
# Indices 1 2 3 4 5 6 
#
# 1 127.3104 -1.1885 26.9616 0.0000 0.0000 0.0000
# 2 -1.1885 56.0302 -13.8045 0.0000 0.0000 0.0000
# 3 26.9616 -13.8045 92.7615 0.0000 0.0000 0.0000
# 4 0.0000 0.0000 0.0000 -1.3290 0.0000 0.0000
# 5 0.0000 0.0000 0.0000 0.0000 -0.2744 0.0000
# 6 0.0000 0.0000 0.0000 0.0000 0.0000 6.3866
#
#
#
# Elastic Compliance Matrix: (Units=1/GPa)
#
#
# Indices 1 2 3 4 5 6 
#
# 1 0.008380 -0.000438 -0.002501 0.000000 0.000000 0.000000
# 2 -0.000438 0.018550 0.002888 0.000000 0.000000 0.000000
# 3 -0.002501 0.002888 0.011937 0.000000 0.000000 0.000000
# 4 0.000000 0.000000 0.000000 -0.752426 0.000000 0.000000
# 5 0.000000 0.000000 0.000000 0.000000 -3.644647 0.000000
# 6 0.000000 0.000000 0.000000 0.000000 0.000000 0.156578
#
#
# Mechanical properties :
#
#
# Convention : Reuss Voigt Hill
#
# Bulk Modulus (GPa) = 25.79704 33.33769 29.56736
# Shear Modulus (GPa) = -1.19372 18.56554 8.68591
#
# Velocity S-wave (km/s) = -0.74051 2.92033 1.99749
# Velocity P-wave (km/s) = 3.33453 5.16577 4.34766
#
# Compressibility (1/GPa) = 0.03876414
#
# Stress axis : x y z
#
# Youngs Moduli (GPa) = 119.32620 53.90908 83.77279
#
# Poissons Ratio (x) = 0.02364 0.20952
# Poissons Ratio (y) = 0.05232 -0.24193
# Poissons Ratio (z) = 0.29844 -0.15569
#
# Static dielectric constant tensor:
#      x y z
#    x 1.781300 0.000000 0.000000 
#    y 0.000000 1.844230 0.000000 
#    z 0.000000 0.000000 1.779270 
# 
# From -- ./inp_files/13666.got.cif
#   From: 2010.05.17/outbox.cif.g08.bks.cpg/sg38_7_cif.got.tgz:13666.got - 2010.06.03 18:07:57.
