data_PCOD9357954
_publ_section_title
;
Structure prediction by ZEFSAII (Michael W. Deem and Ramdas Pophale) SiO2 
 PCOD9357954
Probable space group: A M M 2
;
_chemical_formula_sum "Si O2"
_cell_formula_units_Z 48
_cell_length_a 7.729439
_cell_length_b 9.324456
_cell_length_c 35.136155
_cell_angle_alpha 90.000000
_cell_angle_beta 90.000000
_cell_angle_gamma 90.000000
_cell_volume 2532.361559
_symmetry_space_group_name_H-M "A M M 2"
_symmetry_group_IT_number 38
_symmetry_cell_setting 'orthorhombic'
loop_
_space_group_symop_operation_xyz
x,y,z
-x,-y,z
-x,y,z
x,-y,z
x,1/2+y,1/2+z
-x,1/2-y,1/2+z
-x,1/2+y,1/2+z
x,1/2-y,1/2+z
loop_
_atom_site_type_symbol
_atom_site_label
_atom_site_fract_x
_atom_site_fract_y
_atom_site_fract_z
Si Si1 0.500000 0.672352 0.237651
Si Si2 0.195194 0.831714 0.680520
Si Si3 0.790983 0.663916 0.029183
Si Si4 0.203139 0.171070 0.377788
Si Si5 0.789027 0.335356 0.454787
Si Si6 0.294008 0.835968 0.105506
Si Si7 0.500000 0.671594 0.818013
O O1 0.500000 0.500000 0.242735
O O2 0.666412 0.711593 0.212187
O O3 0.500000 0.748296 0.278095
O O4 0.214928 0.741376 0.642146
O O5 0.000000 0.818100 0.695058
O O6 0.226636 0.000000 0.671278
O O7 0.728311 0.500000 0.030076
O O8 0.743800 0.748330 0.067296
O O9 0.000000 0.659450 0.027251
O O10 0.729035 0.748063 0.991755
O O11 0.256823 0.256100 0.415670
O O12 0.330676 0.207051 0.343229
O O13 0.000000 0.201507 0.369780
O O14 0.217588 0.000000 0.385034
O O15 0.730701 0.500000 0.455624
O O16 0.000000 0.336270 0.455951
O O17 0.500000 0.837673 0.111221
O O18 0.232685 0.000000 0.101780
O O19 0.500000 0.500000 0.811846
#
# Coordination Sequence:
#
# PCOD9357954 Si02
#       7
#     4   8   8   8   8   8   4
#     4  10  22  40  60  85 118 147 178 230 283 334
#     4  10  21  39  63  87 112 149 192 230 279 342
#     4  10  20  34  54  80 110 149 195 237 281 336
#     4   9  18  35  57  80 110 148 188 230 278 334
#     4   9  17  31  53  80 110 145 187 236 283 328
#     4  11  23  37  54  80 115 151 190 238 287 334
#     4  10  22  38  58  85 114 145 184 228 277 338
#
# _framework density 18.954640000000001
#
# number of rings (size 3 to 8) (size 9 to 14) (size 15 to 20)
#    0.000    2.167    0.833    2.000    0.000    8.333 
#    1.500    0.000    0.000    0.000    0.000    0.000 
#    0.000    0.000    0.000    0.000    0.000    0.000 
#
# Total GULP energy -134057.925719 kJ/mol
# GULP energy per Si atom -5585.746905 kJ/mol
# Density = 1.891150 g / cm^3
# Si number density = 18.954640 Si / 1000 Ang^3
#
#
#
# Elastic Constant Matrix: (Units=GPa)
#
#
# Indices 1 2 3 4 5 6 
#
# 1 80.3501 48.2580 63.9565 0.0000 0.0000 0.0000
# 2 48.2580 112.8082 96.7451 0.0000 0.0000 0.0000
# 3 63.9565 96.7451 189.4289 0.0000 0.0000 0.0000
# 4 0.0000 0.0000 0.0000 43.4279 0.0000 0.0000
# 5 0.0000 0.0000 0.0000 0.0000 29.4817 0.0000
# 6 0.0000 0.0000 0.0000 0.0000 0.0000 9.8110
#
#
#
# Elastic Compliance Matrix: (Units=1/GPa)
#
#
# Indices 1 2 3 4 5 6 
#
# 1 0.018208 -0.004479 -0.003860 0.000000 0.000000 0.000000
# 2 -0.004479 0.016875 -0.007106 0.000000 0.000000 0.000000
# 3 -0.003860 -0.007106 0.010212 0.000000 0.000000 0.000000
# 4 0.000000 0.000000 0.000000 0.023027 0.000000 0.000000
# 5 0.000000 0.000000 0.000000 0.000000 0.033919 0.000000
# 6 0.000000 0.000000 0.000000 0.000000 0.000000 0.101927
#
#
# Mechanical properties :
#
#
# Convention : Reuss Voigt Hill
#
# Bulk Modulus (GPa) = 69.42331 88.94515 79.18423
# Shear Modulus (GPa) = 20.84559 28.11928 24.48244
#
# Velocity S-wave (km/s) = 3.31986 3.85581 3.59783
# Velocity P-wave (km/s) = 7.16944 8.17619 7.68931
#
# Compressibility (1/GPa) = 0.01440438
#
# Stress axis : x y z
#
# Youngs Moduli (GPa) = 54.92086 59.25977 97.92766
#
# Poissons Ratio (x) = 0.26540 0.37802
# Poissons Ratio (y) = 0.24597 0.69589
# Poissons Ratio (z) = 0.21201 0.42111
#
# Static dielectric constant tensor:
#      x y z
#    x 1.685820 0.000000 0.000000 
#    y 0.000000 1.647160 0.000000 
#    z 0.000000 0.000000 1.596880 
# 
# From -- ./inp_files/24341.got.cif
#   From: 2010.05.17/outbox.cif.g08.bks.cpg/sg38_13_cif.got.tgz:24341.got - 2010.06.03 18:07:57.
