data_PCOD9357544
_publ_section_title
;
Structure prediction by ZEFSAII (Michael W. Deem and Ramdas Pophale) SiO2 
 PCOD9357544
Probable space group: A M M 2
;
_chemical_formula_sum "Si O2"
_cell_formula_units_Z 64
_cell_length_a 8.870078
_cell_length_b 14.827633
_cell_length_c 28.978321
_cell_angle_alpha 90.000000
_cell_angle_beta 90.000000
_cell_angle_gamma 90.000000
_cell_volume 3811.294306
_symmetry_space_group_name_H-M "A M M 2"
_symmetry_group_IT_number 38
_symmetry_cell_setting 'orthorhombic'
loop_
_space_group_symop_operation_xyz
x,y,z
-x,-y,z
-x,y,z
x,-y,z
x,1/2+y,1/2+z
-x,1/2-y,1/2+z
-x,1/2+y,1/2+z
x,1/2-y,1/2+z
loop_
_atom_site_type_symbol
_atom_site_label
_atom_site_fract_x
_atom_site_fract_y
_atom_site_fract_z
Si Si1 0.828824 0.855101 0.345450
Si Si2 0.680590 0.096798 0.784325
Si Si3 0.681319 0.395003 0.660959
Si Si4 0.817250 0.785052 0.973059
Si Si5 0.818299 0.604621 0.562841
Si Si6 0.682595 0.294435 0.753758
Si Si7 0.170883 0.853866 0.876898
Si Si8 0.320033 0.900980 0.439833
O O1 0.750210 0.852840 0.295756
O O2 0.836455 0.750505 0.361147
O O3 0.735597 0.899164 0.386741
O O4 0.000000 0.889390 0.343169
O O5 0.500000 0.097769 0.781365
O O6 0.732752 0.190097 0.760743
O O7 0.728478 0.101224 0.837911
O O8 0.735032 0.000000 0.765317
O O9 0.500000 0.390245 0.657281
O O10 0.722096 0.500000 0.669215
O O11 0.752406 0.367521 0.612239
O O12 0.727732 0.334920 0.704547
O O13 0.772229 0.847853 0.929347
O O14 0.753184 0.684954 0.965024
O O15 0.000000 0.779851 0.971150
O O16 0.771001 0.831466 0.020737
O O17 0.773567 0.500000 0.554532
O O18 0.000000 0.606879 0.564967
O O19 0.500000 0.297271 0.757150
O O20 0.000000 0.890141 0.876089
O O21 0.500000 0.891242 0.440837
O O22 0.279569 0.000000 0.459203
#
# Coordination Sequence:
#
# PCOD9357544 Si02
#       8
#     8   8   8   8   8   8   8   8
#     4   9  17  29  45  66  92 122 157 194 229 268
#     4   9  17  28  42  62  89 121 155 186 219 266
#     4   9  18  32  49  69  91 116 150 192 239 288
#     4   9  18  32  50  71  94 123 158 194 233 279
#     4   9  18  33  52  73  96 121 151 191 241 292
#     4   9  17  30  47  66  92 124 155 192 237 281
#     4   8  15  27  42  62  88 117 149 183 220 262
#     4  10  20  32  47  69  98 131 163 194 230 274
#
# _framework density 16.792196000000001
#
# number of rings (size 3 to 8) (size 9 to 14) (size 15 to 20)
#    0.000    3.000    0.000    1.500    0.000    6.250 
#    0.000    2.500    0.000    2.250    0.000    1.750 
#    0.000    0.000    0.000    0.000    0.000    0.000 
#
# Total GULP energy -178195.728088 kJ/mol
# GULP energy per Si atom -5568.616503 kJ/mol
# Density = 1.675398 g / cm^3
# Si number density = 16.792196 Si / 1000 Ang^3
#
#
#
# Elastic Constant Matrix: (Units=GPa)
#
#
# Indices 1 2 3 4 5 6 
#
# 1 14.3785 18.5436 24.0614 0.0000 0.0000 0.0000
# 2 18.5436 90.1814 65.5778 0.0000 0.0000 0.0000
# 3 24.0614 65.5778 146.1299 0.0000 0.0000 0.0000
# 4 0.0000 0.0000 0.0000 20.7398 0.0000 0.0000
# 5 0.0000 0.0000 0.0000 0.0000 26.8910 0.0000
# 6 0.0000 0.0000 0.0000 0.0000 0.0000 9.1151
#
#
#
# Elastic Compliance Matrix: (Units=1/GPa)
#
#
# Indices 1 2 3 4 5 6 
#
# 1 0.106055 -0.013522 -0.011395 0.000000 0.000000 0.000000
# 2 -0.013522 0.018184 -0.005934 0.000000 0.000000 0.000000
# 3 -0.011395 -0.005934 0.011382 0.000000 0.000000 0.000000
# 4 0.000000 0.000000 0.000000 0.048216 0.000000 0.000000
# 5 0.000000 0.000000 0.000000 0.000000 0.037187 0.000000
# 6 0.000000 0.000000 0.000000 0.000000 0.000000 0.109709
#
#
# Mechanical properties :
#
#
# Convention : Reuss Voigt Hill
#
# Bulk Modulus (GPa) = 13.52800 51.89505 32.71152
# Shear Modulus (GPa) = 11.98827 20.84965 16.41896
#
# Velocity S-wave (km/s) = 2.67483 3.52750 3.13033
# Velocity P-wave (km/s) = 4.19681 6.89654 5.70857
#
# Compressibility (1/GPa) = 0.07392076
#
# Stress axis : x y z
#
# Youngs Moduli (GPa) = 9.42909 54.99274 87.85495
#
# Poissons Ratio (x) = 0.74359 1.00108
# Poissons Ratio (y) = 0.12750 0.52133
# Poissons Ratio (z) = 0.10744 0.32633
#
# Static dielectric constant tensor:
#      x y z
#    x 1.572190 0.000000 0.000000 
#    y 0.000000 1.603250 0.000000 
#    z 0.000000 0.000000 1.547630 
# 
# From -- ./inp_files/24711.got.cif
#   From: 2010.05.17/outbox.cif.g08.bks.cpg/sg38_13_cif.got.tgz:24711.got - 2010.06.03 18:07:57.
