data_PCOD9357943
_publ_section_title
;
Structure prediction by ZEFSAII (Michael W. Deem and Ramdas Pophale) SiO2 
 PCOD9357943
Probable space group: A M M 2
;
_chemical_formula_sum "Si O2"
_cell_formula_units_Z 64
_cell_length_a 8.803259
_cell_length_b 20.656363
_cell_length_c 20.301711
_cell_angle_alpha 90.000000
_cell_angle_beta 90.000000
_cell_angle_gamma 90.000000
_cell_volume 3691.730398
_symmetry_space_group_name_H-M "A M M 2"
_symmetry_group_IT_number 38
_symmetry_cell_setting 'orthorhombic'
loop_
_space_group_symop_operation_xyz
x,y,z
-x,-y,z
-x,y,z
x,-y,z
x,1/2+y,1/2+z
-x,1/2-y,1/2+z
-x,1/2+y,1/2+z
x,1/2-y,1/2+z
loop_
_atom_site_type_symbol
_atom_site_label
_atom_site_fract_x
_atom_site_fract_y
_atom_site_fract_z
Si Si1 0.315138 0.427004 0.869280
Si Si2 0.181431 0.681393 0.621668
Si Si3 0.681682 0.924700 0.865975
Si Si4 0.818384 0.676014 0.468453
Si Si5 0.818059 0.575165 0.222414
Si Si6 0.317115 0.074998 0.217507
Si Si7 0.683343 0.815931 0.469009
Si Si8 0.318319 0.821464 0.622331
O O1 0.500000 0.427679 0.870800
O O2 0.264628 0.500000 0.885964
O O3 0.272705 0.412897 0.793674
O O4 0.264932 0.372703 0.920355
O O5 0.221926 0.666051 0.545519
O O6 0.239264 0.625034 0.668931
O O7 0.256416 0.750143 0.639613
O O8 0.000000 0.687756 0.625520
O O9 0.500000 0.918765 0.862601
O O10 0.746226 0.877554 0.921464
O O11 0.751585 0.909065 0.794516
O O12 0.719409 0.000000 0.880306
O O13 0.756946 0.747349 0.451202
O O14 0.000000 0.674365 0.462434
O O15 0.777158 0.500000 0.208074
O O16 0.752725 0.623871 0.168413
O O17 0.000000 0.579895 0.224386
O O18 0.500000 0.081616 0.213048
O O19 0.279992 0.000000 0.202373
O O20 0.500000 0.809852 0.464628
O O21 0.720488 0.831610 0.545114
O O22 0.500000 0.822395 0.628832
#
# Coordination Sequence:
#
# PCOD9357943 Si02
#       8
#     8   8   8   8   8   8   8   8
#     4   8  15  30  52  77 103 131 165 206 253 302
#     4  10  21  36  53  74 104 141 178 217 262 314
#     4  10  21  37  57  80 105 134 172 218 263 311
#     4  10  21  36  53  74 104 140 174 212 261 315
#     4  10  21  37  56  78 107 141 174 212 261 317
#     4   9  18  33  53  76 103 135 171 214 263 313
#     4   9  18  33  54  78 104 136 175 218 258 302
#     4  10  20  34  54  79 106 137 175 219 263 308
#
# _framework density 17.336044000000001
#
# number of rings (size 3 to 8) (size 9 to 14) (size 15 to 20)
#    0.000    2.500    0.000    2.625    0.000    5.750 
#    0.000    8.125    0.000    1.125    0.000    0.000 
#    0.000    0.000    0.000    0.000    0.000    0.000 
#
# Total GULP energy -178555.356727 kJ/mol
# GULP energy per Si atom -5579.854898 kJ/mol
# Density = 1.729659 g / cm^3
# Si number density = 17.336044 Si / 1000 Ang^3
#
#
#
# Elastic Constant Matrix: (Units=GPa)
#
#
# Indices 1 2 3 4 5 6 
#
# 1 42.4177 53.8150 47.0074 0.0000 0.0000 0.0000
# 2 53.8150 150.5439 118.7521 0.0000 0.0000 0.0000
# 3 47.0074 118.7521 113.8632 0.0000 0.0000 0.0000
# 4 0.0000 0.0000 0.0000 44.2504 0.0000 0.0000
# 5 0.0000 0.0000 0.0000 0.0000 25.4450 0.0000
# 6 0.0000 0.0000 0.0000 0.0000 0.0000 18.2535
#
#
#
# Elastic Compliance Matrix: (Units=1/GPa)
#
#
# Indices 1 2 3 4 5 6 
#
# 1 0.045143 -0.008100 -0.010190 0.000000 0.000000 0.000000
# 2 -0.008100 0.038916 -0.037243 0.000000 0.000000 0.000000
# 3 -0.010190 -0.037243 0.051832 0.000000 0.000000 0.000000
# 4 0.000000 0.000000 0.000000 0.022599 0.000000 0.000000
# 5 0.000000 0.000000 0.000000 0.000000 0.039300 0.000000
# 6 0.000000 0.000000 0.000000 0.000000 0.000000 0.054784
#
#
# Mechanical properties :
#
#
# Convention : Reuss Voigt Hill
#
# Bulk Modulus (GPa) = 40.28054 82.88597 61.58325
# Shear Modulus (GPa) = 13.44397 23.40648 18.42522
#
# Velocity S-wave (km/s) = 2.78779 3.67844 3.26364
# Velocity P-wave (km/s) = 5.80068 8.12135 7.05706
#
# Compressibility (1/GPa) = 0.02482589
#
# Stress axis : x y z
#
# Youngs Moduli (GPa) = 22.15188 25.69622 19.29327
#
# Poissons Ratio (x) = 0.20813 0.19659
# Poissons Ratio (y) = 0.17942 0.71855
# Poissons Ratio (z) = 0.22572 0.95701
#
# Static dielectric constant tensor:
#      x y z
#    x 1.578300 0.000000 0.000000 
#    y 0.000000 1.563270 0.000000 
#    z 0.000000 0.000000 1.569930 
# 
# From -- ./inp_files/17159.got.cif
#   From: 2010.05.17/outbox.cif.g08.bks.cpg/sg38_9_cif.got.tgz:17159.got - 2010.06.03 18:07:57.
