data_PCOD9357276
_publ_section_title
;
Structure prediction by ZEFSAII (Michael W. Deem and Ramdas Pophale) SiO2 
 PCOD9357276
Probable space group: A M M 2
;
_chemical_formula_sum "Si O2"
_cell_formula_units_Z 64
_cell_length_a 12.577387
_cell_length_b 13.659267
_cell_length_c 19.858632
_cell_angle_alpha 90.000000
_cell_angle_beta 90.000000
_cell_angle_gamma 90.000000
_cell_volume 3411.671020
_symmetry_space_group_name_H-M "A M M 2"
_symmetry_group_IT_number 38
_symmetry_cell_setting 'orthorhombic'
loop_
_space_group_symop_operation_xyz
x,y,z
-x,-y,z
-x,y,z
x,-y,z
x,1/2+y,1/2+z
-x,1/2-y,1/2+z
-x,1/2+y,1/2+z
x,1/2-y,1/2+z
loop_
_atom_site_type_symbol
_atom_site_label
_atom_site_fract_x
_atom_site_fract_y
_atom_site_fract_z
Si Si1 0.232743 0.611546 0.670230
Si Si2 0.882460 0.303804 0.137279
Si Si3 0.620649 0.701050 0.781290
Si Si4 0.716380 0.608301 0.230353
Si Si5 0.276360 0.742976 0.925194
Si Si6 0.625777 0.612902 0.535469
Si Si7 0.117236 0.113545 0.492333
Si Si8 0.122670 0.888583 0.856094
O O1 0.194188 0.500000 0.670490
O O2 0.143082 0.694083 0.661433
O O3 0.299102 0.634094 0.738152
O O4 0.310028 0.624443 0.605280
O O5 0.785891 0.368514 0.164963
O O6 0.000000 0.335235 0.161073
O O7 0.882123 0.316662 0.057373
O O8 0.500000 0.665606 0.777835
O O9 0.632958 0.806928 0.745251
O O10 0.656402 0.719101 0.858289
O O11 0.670420 0.500000 0.229643
O O12 0.805056 0.614486 0.289404
O O13 0.219289 0.644849 0.950290
O O14 0.177749 0.813258 0.905744
O O15 0.340038 0.805107 0.981241
O O16 0.500000 0.621222 0.548259
O O17 0.645604 0.500000 0.511141
O O18 0.000000 0.125264 0.459072
O O19 0.123728 0.000000 0.513400
O O20 0.000000 0.865212 0.842316
O O21 0.127608 0.000000 0.882258
#
# Coordination Sequence:
#
# PCOD9357276 Si02
#       8
#     8   8   8   8   8   8   8   8
#     4  10  21  39  60  84 113 146 187 233 283 342
#     4  10  19  34  57  85 114 145 179 225 278 335
#     4  10  22  37  56  82 112 150 192 238 287 336
#     4   9  18  32  53  80 111 145 183 225 271 329
#     4  11  20  35  54  80 113 147 190 237 282 336
#     4  10  20  35  58  84 110 144 187 239 293 340
#     4  10  21  36  55  80 111 149 190 229 276 336
#     4   9  17  29  47  74 108 143 178 220 274 335
#
# _framework density 18.759135000000001
#
# number of rings (size 3 to 8) (size 9 to 14) (size 15 to 20)
#    0.000    2.125    1.250    2.250    0.000    3.500 
#    0.000    0.625    0.000    1.125    0.000    0.000 
#    0.000    0.000    0.000    0.000    0.000    0.000 
#
# Total GULP energy -178389.140502 kJ/mol
# GULP energy per Si atom -5574.660641 kJ/mol
# Density = 1.871644 g / cm^3
# Si number density = 18.759135 Si / 1000 Ang^3
#
#
#
# Elastic Constant Matrix: (Units=GPa)
#
#
# Indices 1 2 3 4 5 6 
#
# 1 43.4742 -9.7278 -0.0735 0.0000 0.0000 0.0000
# 2 -9.7278 40.2172 -7.0468 0.0000 0.0000 0.0000
# 3 -0.0735 -7.0468 46.1369 0.0000 0.0000 0.0000
# 4 0.0000 0.0000 0.0000 22.3759 0.0000 0.0000
# 5 0.0000 0.0000 0.0000 0.0000 14.9613 0.0000
# 6 0.0000 0.0000 0.0000 0.0000 0.0000 19.6367
#
#
#
# Elastic Compliance Matrix: (Units=1/GPa)
#
#
# Indices 1 2 3 4 5 6 
#
# 1 0.024360 0.006061 0.000965 0.000000 0.000000 0.000000
# 2 0.006061 0.027057 0.004142 0.000000 0.000000 0.000000
# 3 0.000965 0.004142 0.022309 0.000000 0.000000 0.000000
# 4 0.000000 0.000000 0.000000 0.044691 0.000000 0.000000
# 5 0.000000 0.000000 0.000000 0.000000 0.066839 0.000000
# 6 0.000000 0.000000 0.000000 0.000000 0.000000 0.050925
#
#
# Mechanical properties :
#
#
# Convention : Reuss Voigt Hill
#
# Bulk Modulus (GPa) = 10.40995 10.68135 10.54565
# Shear Modulus (GPa) = 20.33635 21.17322 20.75479
#
# Velocity S-wave (km/s) = 3.29610 3.36324 3.32984
# Velocity P-wave (km/s) = 4.47739 4.55940 4.51858
#
# Compressibility (1/GPa) = 0.09606192
#
# Stress axis : x y z
#
# Youngs Moduli (GPa) = 41.05081 36.95912 44.82535
#
# Poissons Ratio (x) = -0.22402 -0.04324
# Poissons Ratio (y) = -0.24882 -0.18568
# Poissons Ratio (z) = -0.03960 -0.15309
#
# Static dielectric constant tensor:
#      x y z
#    x 1.629260 0.000000 0.000000 
#    y 0.000000 1.657780 0.000000 
#    z 0.000000 0.000000 1.661930 
# 
# From -- ./inp_files/17835.got.cif
#   From: 2010.05.17/outbox.cif.g08.bks.cpg/sg38_9_cif.got.tgz:17835.got - 2010.06.03 18:07:57.
