data_PCOD9357840
_publ_section_title
;
Structure prediction by ZEFSAII (Michael W. Deem and Ramdas Pophale) SiO2 
 PCOD9357840
Probable space group: A M M 2
;
_chemical_formula_sum "Si O2"
_cell_formula_units_Z 56
_cell_length_a 24.483300
_cell_length_b 7.696533
_cell_length_c 14.936567
_cell_angle_alpha 90.000000
_cell_angle_beta 90.000000
_cell_angle_gamma 90.000000
_cell_volume 2814.594802
_symmetry_space_group_name_H-M "A M M 2"
_symmetry_group_IT_number 38
_symmetry_cell_setting 'orthorhombic'
loop_
_space_group_symop_operation_xyz
x,y,z
-x,-y,z
-x,y,z
x,-y,z
x,1/2+y,1/2+z
-x,1/2-y,1/2+z
-x,1/2+y,1/2+z
x,1/2-y,1/2+z
loop_
_atom_site_type_symbol
_atom_site_label
_atom_site_fract_x
_atom_site_fract_y
_atom_site_fract_z
Si Si1 0.439317 0.791473 0.154070
Si Si2 0.354481 0.710775 0.800169
Si Si3 0.772097 0.704704 0.303145
Si Si4 0.062702 0.789026 0.291093
Si Si5 0.150941 0.705914 0.146686
Si Si6 0.439327 0.708615 0.946430
Si Si7 0.142523 0.796801 0.446183
O O1 0.500000 0.726156 0.180074
O O2 0.389865 0.728570 0.215033
O O3 0.440889 0.000000 0.164271
O O4 0.431117 0.750352 0.050215
O O5 0.353183 0.500000 0.800218
O O6 0.292345 0.769578 0.800637
O O7 0.389988 0.771266 0.885210
O O8 0.783965 0.500000 0.307702
O O9 0.801890 0.775524 0.213446
O O10 0.801358 0.783890 0.390190
O O11 0.095458 0.731389 0.202861
O O12 0.096502 0.725271 0.378170
O O13 0.000000 0.732677 0.291925
O O14 0.063879 0.000000 0.291824
O O15 0.161671 0.500000 0.137179
O O16 0.147396 0.778822 0.046044
O O17 0.500000 0.773677 0.920301
O O18 0.440848 0.500000 0.936629
O O19 0.128761 0.000000 0.457457
#
# Coordination Sequence:
#
# PCOD9357840 Si02
#       7
#     8   8   8   8   8   8   8
#     4   9  18  33  52  74 100 129 162 201 246 298
#     4  10  20  34  52  72  97 132 168 200 244 301
#     4  10  21  35  50  73 102 128 164 213 255 290
#     4   9  18  32  51  78 108 133 162 202 243 287
#     4   9  19  35  54  74  98 133 171 206 246 291
#     4   9  18  33  52  73  97 126 161 201 245 296
#     4   9  18  35  56  74  98 135 172 202 241 294
#
# _framework density 19.896291999999999
#
# number of rings (size 3 to 8) (size 9 to 14) (size 15 to 20)
#    0.000    2.714    0.000    0.857    0.000    6.000 
#    0.000    5.714    0.000    4.286    0.000    0.000 
#    0.000    0.000    0.000    0.000    0.000    0.000 
#
# Total GULP energy -156166.159775 kJ/mol
# GULP energy per Si atom -5577.362849 kJ/mol
# Density = 1.985101 g / cm^3
# Si number density = 19.896292 Si / 1000 Ang^3
#
#
#
# Elastic Constant Matrix: (Units=GPa)
#
#
# Indices 1 2 3 4 5 6 
#
# 1 163.4068 -17.5372 88.8709 0.0000 0.0000 0.0000
# 2 -17.5372 26.2866 -6.0056 0.0000 0.0000 0.0000
# 3 88.8709 -6.0056 167.3508 0.0000 0.0000 0.0000
# 4 0.0000 0.0000 0.0000 11.2225 0.0000 0.0000
# 5 0.0000 0.0000 0.0000 0.0000 10.5585 0.0000
# 6 0.0000 0.0000 0.0000 0.0000 0.0000 20.3415
#
#
#
# Elastic Compliance Matrix: (Units=1/GPa)
#
#
# Indices 1 2 3 4 5 6 
#
# 1 0.009232 0.005081 -0.004720 0.000000 0.000000 0.000000
# 2 0.005081 0.041153 -0.001221 0.000000 0.000000 0.000000
# 3 -0.004720 -0.001221 0.008438 0.000000 0.000000 0.000000
# 4 0.000000 0.000000 0.000000 0.089107 0.000000 0.000000
# 5 0.000000 0.000000 0.000000 0.000000 0.094710 0.000000
# 6 0.000000 0.000000 0.000000 0.000000 0.000000 0.049161
#
#
# Mechanical properties :
#
#
# Convention : Reuss Voigt Hill
#
# Bulk Modulus (GPa) = 17.51261 54.18893 35.85077
# Shear Modulus (GPa) = 15.99709 27.87224 21.93466
#
# Velocity S-wave (km/s) = 2.83861 3.74689 3.32392
# Velocity P-wave (km/s) = 4.42319 6.78334 5.72618
#
# Compressibility (1/GPa) = 0.05710171
#
# Stress axis : x y z
#
# Youngs Moduli (GPa) = 108.31600 24.29965 118.50591
#
# Poissons Ratio (x) = -0.12346 0.55940
# Poissons Ratio (y) = -0.55034 0.14474
# Poissons Ratio (z) = 0.51130 0.02968
#
# Static dielectric constant tensor:
#      x y z
#    x 1.674230 0.000000 0.000000 
#    y 0.000000 1.741150 0.000000 
#    z 0.000000 0.000000 1.701740 
# 
# From -- ./inp_files/15420.got.cif
#   From: 2010.05.17/outbox.cif.g08.bks.cpg/sg38_8_cif.got.tgz:15420.got - 2010.06.03 18:07:57.
