data_PCOD9357599
_publ_section_title
;
Structure prediction by ZEFSAII (Michael W. Deem and Ramdas Pophale) SiO2 
 PCOD9357599
Probable space group: A M M 2
;
_chemical_formula_sum "Si O2"
_cell_formula_units_Z 48
_cell_length_a 9.822009
_cell_length_b 8.295936
_cell_length_c 31.326093
_cell_angle_alpha 90.000000
_cell_angle_beta 90.000000
_cell_angle_gamma 90.000000
_cell_volume 2552.536457
_symmetry_space_group_name_H-M "A M M 2"
_symmetry_group_IT_number 38
_symmetry_cell_setting 'orthorhombic'
loop_
_space_group_symop_operation_xyz
x,y,z
-x,-y,z
-x,y,z
x,-y,z
x,1/2+y,1/2+z
-x,1/2-y,1/2+z
-x,1/2+y,1/2+z
x,1/2-y,1/2+z
loop_
_atom_site_type_symbol
_atom_site_label
_atom_site_fract_x
_atom_site_fract_y
_atom_site_fract_z
Si Si1 0.655352 0.194674 0.565310
Si Si2 0.845392 0.307781 0.738880
Si Si3 0.655530 0.194635 0.815068
Si Si4 0.344534 0.196601 0.912303
Si Si5 0.155194 0.694453 0.489207
Si Si6 0.654929 0.694591 0.162986
O O1 0.500000 0.245608 0.554854
O O2 0.761874 0.259033 0.531347
O O3 0.684235 0.245055 0.614186
O O4 0.657965 0.000000 0.564387
O O5 0.851190 0.500000 0.738930
O O6 0.761633 0.253663 0.780361
O O7 0.762588 0.254041 0.697169
O O8 0.000000 0.243750 0.739016
O O9 0.500000 0.246260 0.805079
O O10 0.687069 0.246220 0.863694
O O11 0.655951 0.000000 0.814465
O O12 0.500000 0.245852 0.922327
O O13 0.343263 0.000000 0.912590
O O14 0.239027 0.253306 0.947857
O O15 0.151311 0.500000 0.486829
O O16 0.000000 0.753790 0.489959
O O17 0.500000 0.746797 0.173644
O O18 0.655083 0.500000 0.163709
#
# Coordination Sequence:
#
# PCOD9357599 Si02
#       6
#     8   8   8   8   8   8
#     4   9  19  36  56  77 101 131 170 214 256 300
#     4  11  24  37  49  73 109 141 168 203 250 305
#     4   9  18  34  57  81 101 127 170 218 257 298
#     4   8  15  30  52  76 101 131 170 214 254 294
#     4  10  20  32  49  77 110 140 170 206 250 301
#     4   9  19  37  59  79  98 126 170 218 257 299
#
# _framework density 18.804822999999999
#
# number of rings (size 3 to 8) (size 9 to 14) (size 15 to 20)
#    0.000    2.667    0.000    3.500    0.000    7.333 
#    0.000    7.500    0.000    1.000    0.000    0.000 
#    0.000    0.000    0.000    0.000    0.000    0.000 
#
# Total GULP energy -133912.602591 kJ/mol
# GULP energy per Si atom -5579.691775 kJ/mol
# Density = 1.876202 g / cm^3
# Si number density = 18.804823 Si / 1000 Ang^3
#
#
#
# Elastic Constant Matrix: (Units=GPa)
#
#
# Indices 1 2 3 4 5 6 
#
# 1 194.0033 22.5073 148.1981 0.0000 0.0000 0.0000
# 2 22.5073 9.0659 18.9000 0.0000 0.0000 0.0000
# 3 148.1981 18.9000 162.3342 0.0000 0.0000 0.0000
# 4 0.0000 0.0000 0.0000 24.5944 0.0000 0.0000
# 5 0.0000 0.0000 0.0000 0.0000 -12.9853 0.0000
# 6 0.0000 0.0000 0.0000 0.0000 0.0000 24.7530
#
#
#
# Elastic Compliance Matrix: (Units=1/GPa)
#
#
# Indices 1 2 3 4 5 6 
#
# 1 0.018285 -0.013990 -0.015063 0.000000 0.000000 0.000000
# 2 -0.013990 0.156361 -0.005432 0.000000 0.000000 0.000000
# 3 -0.015063 -0.005432 0.020544 0.000000 0.000000 0.000000
# 4 0.000000 0.000000 0.000000 0.040660 0.000000 0.000000
# 5 0.000000 0.000000 0.000000 0.000000 -0.077010 0.000000
# 6 0.000000 0.000000 0.000000 0.000000 0.000000 0.040399
#
#
# Mechanical properties :
#
#
# Convention : Reuss Voigt Hill
#
# Bulk Modulus (GPa) = 7.92283 82.73489 45.32886
# Shear Modulus (GPa) = 16.11427 18.99230 17.55328
#
# Velocity S-wave (km/s) = 2.93050 3.18145 3.05855
# Velocity P-wave (km/s) = 3.95888 7.58865 6.05229
#
# Compressibility (1/GPa) = 0.12621756
#
# Stress axis : x y z
#
# Youngs Moduli (GPa) = 54.69094 6.39544 48.67517
#
# Poissons Ratio (x) = 0.08948 0.73322
# Poissons Ratio (y) = 0.76515 0.26442
# Poissons Ratio (z) = 0.82384 0.03474
#
# Static dielectric constant tensor:
#      x y z
#    x 1.641400 0.000000 0.000000 
#    y 0.000000 1.664570 0.000000 
#    z 0.000000 0.000000 1.635110 
# 
# From -- ./inp_files/24276.got.cif
#   From: 2010.05.17/outbox.cif.g08.bks.cpg/sg38_13_cif.got.tgz:24276.got - 2010.06.03 18:07:57.
