data_PCOD9357210
_publ_section_title
;
Structure prediction by ZEFSAII (Michael W. Deem and Ramdas Pophale) SiO2 
 PCOD9357210
Probable space group: A M M 2
;
_chemical_formula_sum "Si O2"
_cell_formula_units_Z 58
_cell_length_a 15.781655
_cell_length_b 7.747812
_cell_length_c 25.173903
_cell_angle_alpha 90.000000
_cell_angle_beta 90.000000
_cell_angle_gamma 90.000000
_cell_volume 3078.096093
_symmetry_space_group_name_H-M "A M M 2"
_symmetry_group_IT_number 38
_symmetry_cell_setting 'orthorhombic'
loop_
_space_group_symop_operation_xyz
x,y,z
-x,-y,z
-x,y,z
x,-y,z
x,1/2+y,1/2+z
-x,1/2-y,1/2+z
-x,1/2+y,1/2+z
x,1/2-y,1/2+z
loop_
_atom_site_type_symbol
_atom_site_label
_atom_site_fract_x
_atom_site_fract_y
_atom_site_fract_z
Si Si1 0.594435 0.292199 0.638920
Si Si2 0.095069 0.293617 0.262093
Si Si3 0.729953 0.289887 0.930009
Si Si4 0.266411 0.795493 0.222609
Si Si5 0.500000 0.000000 0.308517
Si Si6 0.364799 0.692315 0.322302
Si Si7 0.095033 0.793634 0.385364
Si Si8 0.594640 0.206925 0.515139
O O1 0.500000 0.230953 0.656396
O O2 0.592500 0.500000 0.642364
O O3 0.672274 0.232804 0.675286
O O4 0.605201 0.244820 0.577386
O O5 0.094665 0.500000 0.261793
O O6 0.166050 0.232287 0.220948
O O7 0.113952 0.237371 0.322925
O O8 0.000000 0.230891 0.249973
O O9 0.731624 0.500000 0.930876
O O10 0.678892 0.230943 0.878293
O O11 0.826870 0.229548 0.921394
O O12 0.673532 0.230001 0.980075
O O13 0.296003 0.701191 0.275728
O O14 0.280734 0.000000 0.228340
O O15 0.427911 0.847478 0.310078
O O16 0.401735 0.500000 0.323241
O O17 0.000000 0.724146 0.395950
O O18 0.091635 0.000000 0.392549
O O19 0.500000 0.271984 0.499105
O O20 0.592078 0.000000 0.508485
#
# Coordination Sequence:
#
# PCOD9357210 Si02
#       8
#     8   8   8   8   2   8   8   8
#     4   9  20  37  57  77 104 143 188 238 288 332
#     4  10  20  33  51  79 113 145 184 234 283 340
#     4  10  19  34  55  79 115 151 185 237 285 336
#     4  11  21  36  58  80 114 149 187 239 287 344
#     4  12  26  44  52  74 126 152 194 244 272 352
#     4  12  25  38  57  83 113 157 194 230 290 346
#     4   9  17  30  50  76 106 145 188 224 272 339
#     4   9  19  34  54  76 104 143 189 239 288 331
#
# _framework density 18.842815000000002
#
# number of rings (size 3 to 8) (size 9 to 14) (size 15 to 20)
#    0.000    1.931    2.759    1.034    1.931    2.483 
#    0.000    0.000    0.000    0.828    0.000    1.931 
#    0.000    0.000    0.000    0.000    0.000    0.000 
#
# Total GULP energy -161477.881566 kJ/mol
# GULP energy per Si atom -5568.202813 kJ/mol
# Density = 1.879993 g / cm^3
# Si number density = 18.842815 Si / 1000 Ang^3
#
#
#
# Elastic Constant Matrix: (Units=GPa)
#
#
# Indices 1 2 3 4 5 6 
#
# 1 182.4915 18.7600 68.8593 0.0000 0.0000 0.0000
# 2 18.7600 63.7528 -5.1195 0.0000 0.0000 0.0000
# 3 68.8593 -5.1195 69.0127 0.0000 0.0000 0.0000
# 4 0.0000 0.0000 0.0000 16.6835 0.0000 0.0000
# 5 0.0000 0.0000 0.0000 0.0000 24.5923 0.0000
# 6 0.0000 0.0000 0.0000 0.0000 0.0000 -28.7880
#
#
#
# Elastic Compliance Matrix: (Units=1/GPa)
#
#
# Indices 1 2 3 4 5 6 
#
# 1 0.009542 -0.003594 -0.009788 0.000000 0.000000 0.000000
# 2 -0.003594 0.017133 0.004857 0.000000 0.000000 0.000000
# 3 -0.009788 0.004857 0.024616 0.000000 0.000000 0.000000
# 4 0.000000 0.000000 0.000000 0.059940 0.000000 0.000000
# 5 0.000000 0.000000 0.000000 0.000000 0.040663 0.000000
# 6 0.000000 0.000000 0.000000 0.000000 0.000000 -0.034737
#
#
# Mechanical properties :
#
#
# Convention : Reuss Voigt Hill
#
# Bulk Modulus (GPa) = 29.20364 53.36187 41.28276
# Shear Modulus (GPa) = 34.33559 18.01471 26.17515
#
# Velocity S-wave (km/s) = 4.27337 3.09536 3.73115
# Velocity P-wave (km/s) = 6.31515 6.41529 6.36542
#
# Compressibility (1/GPa) = 0.03424231
#
# Stress axis : x y z
#
# Youngs Moduli (GPa) = 104.79583 58.36642 40.62337
#
# Poissons Ratio (x) = 0.20976 0.39761
# Poissons Ratio (y) = 0.37663 -0.19730
# Poissons Ratio (z) = 1.02572 -0.28348
#
# Static dielectric constant tensor:
#      x y z
#    x 1.743570 0.000000 0.000000 
#    y 0.000000 1.678330 0.000000 
#    z 0.000000 0.000000 1.621450 
# 
# From -- ./inp_files/24001.got.cif
#   From: 2010.05.17/outbox.cif.g08.bks.cpg/sg38_13_cif.got.tgz:24001.got - 2010.06.03 18:07:57.
