data_PCOD9357148
_publ_section_title
;
Structure prediction by ZEFSAII (Michael W. Deem and Ramdas Pophale) SiO2 
 PCOD9357148
Probable space group: A M M 2
;
_chemical_formula_sum "Si O2"
_cell_formula_units_Z 56
_cell_length_a 8.829042
_cell_length_b 14.565718
_cell_length_c 23.489090
_cell_angle_alpha 90.000000
_cell_angle_beta 90.000000
_cell_angle_gamma 90.000000
_cell_volume 3020.728355
_symmetry_space_group_name_H-M "A M M 2"
_symmetry_group_IT_number 38
_symmetry_cell_setting 'orthorhombic'
loop_
_space_group_symop_operation_xyz
x,y,z
-x,-y,z
-x,y,z
x,-y,z
x,1/2+y,1/2+z
-x,1/2-y,1/2+z
-x,1/2+y,1/2+z
x,1/2-y,1/2+z
loop_
_atom_site_type_symbol
_atom_site_label
_atom_site_fract_x
_atom_site_fract_y
_atom_site_fract_z
Si Si1 0.176046 0.390205 0.531770
Si Si2 0.316892 0.392964 0.757929
Si Si3 0.684152 0.897235 0.597953
Si Si4 0.319067 0.106049 0.909380
Si Si5 0.316899 0.706648 0.641320
Si Si6 0.321602 0.109467 0.467097
Si Si7 0.820576 0.717518 0.863250
O O1 0.184115 0.500000 0.540537
O O2 0.263834 0.370469 0.473278
O O3 0.249126 0.341487 0.585785
O O4 0.000000 0.364361 0.525298
O O5 0.500000 0.389201 0.761646
O O6 0.272435 0.500000 0.758724
O O7 0.270784 0.345135 0.698713
O O8 0.248417 0.338494 0.810749
O O9 0.500000 0.900613 0.597718
O O10 0.729239 0.813673 0.638315
O O11 0.727050 0.874995 0.532494
O O12 0.737863 0.000000 0.612301
O O13 0.500000 0.112264 0.906915
O O14 0.246120 0.180046 0.867682
O O15 0.274675 0.000000 0.898212
O O16 0.500000 0.702169 0.637778
O O17 0.500000 0.133901 0.462133
O O18 0.229181 0.165264 0.420873
O O19 0.309254 0.000000 0.456726
O O20 0.000000 0.720626 0.859097
#
# Coordination Sequence:
#
# PCOD9357148 Si02
#       7
#     8   8   8   8   8   8   8
#     4  10  20  33  52  82 118 148 174 215 274 332
#     4  10  22  39  56  76 106 144 188 235 276 322
#     4   8  15  29  51  80 109 135 167 212 266 318
#     4  10  21  38  60  83 108 141 181 222 266 325
#     4  10  19  33  56  81 106 143 190 234 272 315
#     4   9  17  31  53  80 111 146 181 219 267 326
#     4  12  24  36  54  79 108 142 180 227 283 335
#
# _framework density 18.538575000000002
#
# number of rings (size 3 to 8) (size 9 to 14) (size 15 to 20)
#    0.000    2.143    0.000    4.714    0.000    6.286 
#    0.000    0.714    0.000    3.857    0.000    0.000 
#    0.000    0.000    0.000    0.000    0.000    0.000 
#
# Total GULP energy -156366.884320 kJ/mol
# GULP energy per Si atom -5584.531583 kJ/mol
# Density = 1.849638 g / cm^3
# Si number density = 18.538575 Si / 1000 Ang^3
#
#
#
# Elastic Constant Matrix: (Units=GPa)
#
#
# Indices 1 2 3 4 5 6 
#
# 1 38.8278 48.0281 35.3155 0.0000 0.0000 0.0000
# 2 48.0281 145.7349 104.0230 0.0000 0.0000 0.0000
# 3 35.3155 104.0230 89.0293 0.0000 0.0000 0.0000
# 4 0.0000 0.0000 0.0000 33.6617 0.0000 0.0000
# 5 0.0000 0.0000 0.0000 0.0000 -30.3198 0.0000
# 6 0.0000 0.0000 0.0000 0.0000 0.0000 17.4527
#
#
#
# Elastic Compliance Matrix: (Units=1/GPa)
#
#
# Indices 1 2 3 4 5 6 
#
# 1 0.043616 -0.012196 -0.003051 0.000000 0.000000 0.000000
# 2 -0.012196 0.044745 -0.047442 0.000000 0.000000 0.000000
# 3 -0.003051 -0.047442 0.067875 0.000000 0.000000 0.000000
# 4 0.000000 0.000000 0.000000 0.029707 0.000000 0.000000
# 5 0.000000 0.000000 0.000000 0.000000 -0.032982 0.000000
# 6 0.000000 0.000000 0.000000 0.000000 0.000000 0.057298
#
#
# Mechanical properties :
#
#
# Convention : Reuss Voigt Hill
#
# Bulk Modulus (GPa) = 32.40850 72.03613 52.22231
# Shear Modulus (GPa) = 14.45409 9.90728 12.18069
#
# Velocity S-wave (km/s) = 2.79530 2.31425 2.56607
# Velocity P-wave (km/s) = 5.28563 6.78843 6.08361
#
# Compressibility (1/GPa) = 0.03085611
#
# Stress axis : x y z
#
# Youngs Moduli (GPa) = 22.92745 22.34909 14.73302
#
# Poissons Ratio (x) = 0.27257 0.04495
# Poissons Ratio (y) = 0.27963 0.69897
# Poissons Ratio (z) = 0.06996 1.06029
#
# Static dielectric constant tensor:
#      x y z
#    x 1.616610 0.000000 0.000000 
#    y 0.000000 1.664590 0.000000 
#    z 0.000000 0.000000 1.604970 
# 
# From -- ./inp_files/19753.got.cif
#   From: 2010.05.17/outbox.cif.g08.bks.cpg/sg38_10_cif.got.tgz:19753.got - 2010.06.03 18:07:57.
