data_PCOD9357831
_publ_section_title
;
Structure prediction by ZEFSAII (Michael W. Deem and Ramdas Pophale) SiO2 
 PCOD9357831
Probable space group: A M M 2
;
_chemical_formula_sum "Si O2"
_cell_formula_units_Z 64
_cell_length_a 14.515105
_cell_length_b 8.945173
_cell_length_c 32.015680
_cell_angle_alpha 90.000000
_cell_angle_beta 90.000000
_cell_angle_gamma 90.000000
_cell_volume 4156.919904
_symmetry_space_group_name_H-M "A M M 2"
_symmetry_group_IT_number 38
_symmetry_cell_setting 'orthorhombic'
loop_
_space_group_symop_operation_xyz
x,y,z
-x,-y,z
-x,y,z
x,-y,z
x,1/2+y,1/2+z
-x,1/2-y,1/2+z
-x,1/2+y,1/2+z
x,1/2-y,1/2+z
loop_
_atom_site_type_symbol
_atom_site_label
_atom_site_fract_x
_atom_site_fract_y
_atom_site_fract_z
Si Si1 0.782435 0.679040 0.940580
Si Si2 0.891602 0.179218 0.355403
Si Si3 0.108349 0.180898 0.017140
Si Si4 0.606032 0.678218 0.404263
Si Si5 0.217059 0.820372 0.778025
Si Si6 0.106501 0.179627 0.695797
Si Si7 0.888159 0.172789 0.109972
Si Si8 0.394001 0.177955 0.312528
O O1 0.776805 0.500000 0.943174
O O2 0.841779 0.717010 0.899010
O O3 0.832927 0.745026 0.980849
O O4 0.681895 0.749432 0.933974
O O5 0.842487 0.261983 0.317205
O O6 0.000000 0.215240 0.357252
O O7 0.882360 0.000000 0.349383
O O8 0.000000 0.219184 0.012089
O O9 0.114844 0.000000 0.015277
O O10 0.139604 0.227427 0.063878
O O11 0.500000 0.706160 0.417052
O O12 0.619573 0.500000 0.401309
O O13 0.618244 0.750795 0.358468
O O14 0.167549 0.772998 0.735119
O O15 0.318289 0.751367 0.782994
O O16 0.221462 0.000000 0.779334
O O17 0.140568 0.238481 0.651073
O O18 0.000000 0.229562 0.701677
O O19 0.106000 0.000000 0.694835
O O20 0.000000 0.176446 0.109136
O O21 0.860400 0.000000 0.114267
O O22 0.500000 0.204956 0.299792
O O23 0.379328 0.000000 0.315461
#
# Coordination Sequence:
#
# PCOD9357831 Si02
#       8
#     8   8   8   8   8   8   8   8
#     4  11  21  32  48  71  98 129 164 198 237 285
#     4  10  21  34  45  62  94 133 168 198 229 272
#     4   9  18  32  49  70  98 130 164 201 240 284
#     4  10  20  34  52  72  93 121 159 201 244 287
#     4  11  21  32  48  70  96 128 164 198 238 287
#     4   9  18  31  46  68  98 128 159 196 237 283
#     4   8  15  29  48  69  92 122 161 201 239 279
#     4  10  20  34  51  70  93 122 158 201 245 286
#
# _framework density 15.396015999999999
#
# number of rings (size 3 to 8) (size 9 to 14) (size 15 to 20)
#    0.000    2.250    1.250    3.000    0.000    5.000 
#    0.000    2.500    0.000    0.000    0.000    0.875 
#    0.000    5.000    0.000    0.000    0.000    0.000 
#
# Total GULP energy -178479.767714 kJ/mol
# GULP energy per Si atom -5577.492741 kJ/mol
# Density = 1.536097 g / cm^3
# Si number density = 15.396016 Si / 1000 Ang^3
#
#
#
# Elastic Constant Matrix: (Units=GPa)
#
#
# Indices 1 2 3 4 5 6 
#
# 1 101.8322 46.5414 73.0593 0.0000 0.0000 0.0000
# 2 46.5414 44.2748 52.3031 0.0000 0.0000 0.0000
# 3 73.0593 52.3031 145.0193 0.0000 0.0000 0.0000
# 4 0.0000 0.0000 0.0000 27.6518 0.0000 0.0000
# 5 0.0000 0.0000 0.0000 0.0000 8.3903 0.0000
# 6 0.0000 0.0000 0.0000 0.0000 0.0000 24.2000
#
#
#
# Elastic Compliance Matrix: (Units=1/GPa)
#
#
# Indices 1 2 3 4 5 6 
#
# 1 0.020416 -0.016223 -0.004434 0.000000 0.000000 0.000000
# 2 -0.016223 0.052244 -0.010670 0.000000 0.000000 0.000000
# 3 -0.004434 -0.010670 0.012978 0.000000 0.000000 0.000000
# 4 0.000000 0.000000 0.000000 0.036164 0.000000 0.000000
# 5 0.000000 0.000000 0.000000 0.000000 0.119185 0.000000
# 6 0.000000 0.000000 0.000000 0.000000 0.000000 0.041322
#
#
# Mechanical properties :
#
#
# Convention : Reuss Voigt Hill
#
# Bulk Modulus (GPa) = 43.50835 70.54823 57.02829
# Shear Modulus (GPa) = 14.17943 19.99658 17.08801
#
# Velocity S-wave (km/s) = 3.03806 3.60782 3.33513
# Velocity P-wave (km/s) = 6.37395 7.95468 7.20778
#
# Compressibility (1/GPa) = 0.02298409
#
# Stress axis : x y z
#
# Youngs Moduli (GPa) = 48.98130 19.14114 77.05479
#
# Poissons Ratio (x) = 0.31052 0.34170
# Poissons Ratio (y) = 0.79460 0.82214
# Poissons Ratio (z) = 0.21721 0.20423
#
# Static dielectric constant tensor:
#      x y z
#    x 1.508460 0.000000 0.000000 
#    y 0.000000 1.514380 0.000000 
#    z 0.000000 0.000000 1.497670 
# 
# From -- ./inp_files/25037.got.cif
#   From: 2010.05.17/outbox.cif.g08.bks.cpg/sg38_13_cif.got.tgz:25037.got - 2010.06.03 18:07:57.
