data_PCOD9357044
_publ_section_title
;
Structure prediction by ZEFSAII (Michael W. Deem and Ramdas Pophale) SiO2 
 PCOD9357044
Probable space group: A M M 2
;
_chemical_formula_sum "Si O2"
_cell_formula_units_Z 46
_cell_length_a 13.005736
_cell_length_b 11.557811
_cell_length_c 19.098592
_cell_angle_alpha 90.000000
_cell_angle_beta 90.000000
_cell_angle_gamma 90.000000
_cell_volume 2870.859070
_symmetry_space_group_name_H-M "A M M 2"
_symmetry_group_IT_number 38
_symmetry_cell_setting 'orthorhombic'
loop_
_space_group_symop_operation_xyz
x,y,z
-x,-y,z
-x,y,z
x,-y,z
x,1/2+y,1/2+z
-x,1/2-y,1/2+z
-x,1/2+y,1/2+z
x,1/2-y,1/2+z
loop_
_atom_site_type_symbol
_atom_site_label
_atom_site_fract_x
_atom_site_fract_y
_atom_site_fract_z
Si Si1 0.702994 0.277598 0.150410
Si Si2 0.500000 0.716234 0.836150
Si Si3 0.382077 0.000000 0.575911
Si Si4 0.884446 0.140179 0.913063
Si Si5 0.701292 0.639378 0.310453
Si Si6 0.500000 0.364935 0.675956
Si Si7 0.120948 0.138245 0.075202
Si Si8 0.500000 0.500000 0.939501
O O1 0.676723 0.387687 0.102572
O O2 0.715133 0.321560 0.230106
O O3 0.602705 0.195637 0.147580
O O4 0.802409 0.209531 0.123660
O O5 0.399879 0.797244 0.839326
O O6 0.500000 0.656862 0.759531
O O7 0.500000 0.614868 0.893001
O O8 0.403614 0.000000 0.493079
O O9 0.500000 0.000000 0.606853
O O10 0.798298 0.175260 0.857890
O O11 0.000000 0.181355 0.896194
O O12 0.887343 0.000000 0.911570
O O13 0.860345 0.170500 0.993610
O O14 0.689847 0.500000 0.312752
O O15 0.500000 0.500000 0.660443
O O16 0.000000 0.159371 0.089619
O O17 0.138329 0.000000 0.082425
#
# Coordination Sequence:
#
# PCOD9357044 Si02
#       8
#     8   4   4   8   8   4   8   2
#     4  11  20  34  55  79 107 148 179 212 274 329
#     4  10  21  33  52  76 103 138 178 212 265 313
#     4  10  22  36  53  73 114 151 175 205 265 334
#     4   8  16  32  52  74 100 132 169 218 270 308
#     4  10  20  33  54  80 108 136 174 223 270 314
#     4  10  19  33  52  77 105 131 176 228 261 313
#     4   9  19  36  56  78 107 141 181 228 276 318
#     4  10  22  38  50  74 106 150 182 210 256 330
#
# _framework density 16.023078000000002
#
# number of rings (size 3 to 8) (size 9 to 14) (size 15 to 20)
#    0.261    2.087    2.174    1.826    2.435    0.696 
#    0.000    0.435    0.000    0.000    0.000    0.000 
#    0.000    0.000    0.000    0.000    0.000    0.000 
#
# Total GULP energy -128186.820116 kJ/mol
# GULP energy per Si atom -5573.340005 kJ/mol
# Density = 1.598661 g / cm^3
# Si number density = 16.023078 Si / 1000 Ang^3
#
#
#
# Elastic Constant Matrix: (Units=GPa)
#
#
# Indices 1 2 3 4 5 6 
#
# 1 124.7713 69.7965 78.6369 0.0000 0.0000 0.0000
# 2 69.7965 109.4876 58.4769 0.0000 0.0000 0.0000
# 3 78.6369 58.4769 92.3268 0.0000 0.0000 0.0000
# 4 0.0000 0.0000 0.0000 12.5936 0.0000 0.0000
# 5 0.0000 0.0000 0.0000 0.0000 31.0820 0.0000
# 6 0.0000 0.0000 0.0000 0.0000 0.0000 25.3716
#
#
#
# Elastic Compliance Matrix: (Units=1/GPa)
#
#
# Indices 1 2 3 4 5 6 
#
# 1 0.019128 -0.005278 -0.012949 0.000000 0.000000 0.000000
# 2 -0.005278 0.015259 -0.005169 0.000000 0.000000 0.000000
# 3 -0.012949 -0.005169 0.025134 0.000000 0.000000 0.000000
# 4 0.000000 0.000000 0.000000 0.079406 0.000000 0.000000
# 5 0.000000 0.000000 0.000000 0.000000 0.032173 0.000000
# 6 0.000000 0.000000 0.000000 0.000000 0.000000 0.039414
#
#
# Mechanical properties :
#
#
# Convention : Reuss Voigt Hill
#
# Bulk Modulus (GPa) = 78.56153 82.26737 80.41445
# Shear Modulus (GPa) = 19.11685 21.78781 20.45233
#
# Velocity S-wave (km/s) = 3.45785 3.69152 3.57659
# Velocity P-wave (km/s) = 8.06715 8.34411 8.20680
#
# Compressibility (1/GPa) = 0.01272888
#
# Stress axis : x y z
#
# Youngs Moduli (GPa) = 52.27873 65.53577 39.78638
#
# Poissons Ratio (x) = 0.34589 0.51520
# Poissons Ratio (y) = 0.27592 0.20567
# Poissons Ratio (z) = 0.67697 0.33877
#
# Static dielectric constant tensor:
#      x y z
#    x 1.529430 0.000000 0.000000 
#    y 0.000000 1.510000 0.000000 
#    z 0.000000 0.000000 1.528220 
# 
# From -- ./inp_files/17699.got.cif
#   From: 2010.05.17/outbox.cif.g08.bks.cpg/sg38_9_cif.got.tgz:17699.got - 2010.06.03 18:07:57.
