data_PCOD9357310
_publ_section_title
;
Structure prediction by ZEFSAII (Michael W. Deem and Ramdas Pophale) SiO2 
 PCOD9357310
Probable space group: A M M 2
;
_chemical_formula_sum "Si O2"
_cell_formula_units_Z 56
_cell_length_a 14.100243
_cell_length_b 15.328969
_cell_length_c 11.868645
_cell_angle_alpha 90.000000
_cell_angle_beta 90.000000
_cell_angle_gamma 90.000000
_cell_volume 2565.314897
_symmetry_space_group_name_H-M "A M M 2"
_symmetry_group_IT_number 38
_symmetry_cell_setting 'orthorhombic'
loop_
_space_group_symop_operation_xyz
x,y,z
-x,-y,z
-x,y,z
x,-y,z
x,1/2+y,1/2+z
-x,1/2-y,1/2+z
-x,1/2+y,1/2+z
x,1/2-y,1/2+z
loop_
_atom_site_type_symbol
_atom_site_label
_atom_site_fract_x
_atom_site_fract_y
_atom_site_fract_z
Si Si1 0.390795 0.855798 0.857490
Si Si2 0.892578 0.731480 0.345574
Si Si3 0.198934 0.593646 0.936891
Si Si4 0.604835 0.355686 0.830603
Si Si5 0.744257 0.157865 0.666853
Si Si6 0.692785 0.152974 0.098972
Si Si7 0.104907 0.600934 0.557751
O O1 0.500000 0.883562 0.858118
O O2 0.389212 0.749526 0.846711
O O3 0.332791 0.886623 0.748188
O O4 0.340262 0.877141 0.975834
O O5 0.859223 0.825347 0.389050
O O6 0.822048 0.697413 0.250944
O O7 0.887916 0.665474 0.451460
O O8 0.000000 0.733227 0.304677
O O9 0.159903 0.500000 0.901954
O O10 0.307180 0.602984 0.894698
O O11 0.206273 0.601510 0.071611
O O12 0.500000 0.383804 0.866113
O O13 0.622509 0.373851 0.698418
O O14 0.698021 0.241511 0.603393
O O15 0.799093 0.119526 0.126093
O O16 0.108028 0.500000 0.522083
O O17 0.000000 0.615252 0.610204
#
# Coordination Sequence:
#
# PCOD9357310 Si02
#       7
#     8   8   8   8   8   8   8
#     4  10  19  34  63  96 125 166 222 273 327 388
#     4  11  23  44  68  92 129 170 215 271 330 395
#     4  12  25  43  66  98 138 179 222 270 332 404
#     4  10  21  37  60  91 127 172 221 270 327 393
#     4  11  20  40  62  95 125 174 214 265 331 395
#     4  11  18  38  64  91 127 165 216 273 327 389
#     4  10  21  38  65  95 121 158 209 266 330 392
#
# _framework density 21.829678000000001
#
# number of rings (size 3 to 8) (size 9 to 14) (size 15 to 20)
#    0.000    1.286    7.143    0.429    0.000    4.000 
#    0.000    0.000    0.000    2.143    0.000    0.000 
#    0.000    0.000    0.000    0.000    0.000    0.000 
#
# Total GULP energy -156535.547123 kJ/mol
# GULP energy per Si atom -5590.555254 kJ/mol
# Density = 2.177999 g / cm^3
# Si number density = 21.829678 Si / 1000 Ang^3
#
#
#
# Elastic Constant Matrix: (Units=GPa)
#
#
# Indices 1 2 3 4 5 6 
#
# 1 116.1775 2.6468 16.0324 0.0000 0.0000 0.0000
# 2 2.6468 83.9646 -0.1906 0.0000 0.0000 0.0000
# 3 16.0324 -0.1906 56.3952 0.0000 0.0000 0.0000
# 4 0.0000 0.0000 0.0000 -5.0839 0.0000 0.0000
# 5 0.0000 0.0000 0.0000 0.0000 13.0635 0.0000
# 6 0.0000 0.0000 0.0000 0.0000 0.0000 7.8142
#
#
#
# Elastic Compliance Matrix: (Units=1/GPa)
#
#
# Indices 1 2 3 4 5 6 
#
# 1 0.008966 -0.000288 -0.002550 0.000000 0.000000 0.000000
# 2 -0.000288 0.011919 0.000122 0.000000 0.000000 0.000000
# 3 -0.002550 0.000122 0.018457 0.000000 0.000000 0.000000
# 4 0.000000 0.000000 0.000000 -0.196698 0.000000 0.000000
# 5 0.000000 0.000000 0.000000 0.000000 0.076549 0.000000
# 6 0.000000 0.000000 0.000000 0.000000 0.000000 0.127973
#
#
# Mechanical properties :
#
#
# Convention : Reuss Voigt Hill
#
# Bulk Modulus (GPa) = 29.48950 32.61273 31.05111
# Shear Modulus (GPa) = 78.24451 19.02865 48.63658
#
# Velocity S-wave (km/s) = 5.99341 2.95564 4.72529
# Velocity P-wave (km/s) = 7.83791 5.15944 6.63523
#
# Compressibility (1/GPa) = 0.03391038
#
# Stress axis : x y z
#
# Youngs Moduli (GPa) = 111.53276 83.89861 54.17904
#
# Poissons Ratio (x) = 0.02420 0.13815
# Poissons Ratio (y) = 0.03217 -0.00662
# Poissons Ratio (z) = 0.28440 -0.01026
#
# Static dielectric constant tensor:
#      x y z
#    x 1.784720 0.000000 0.000000 
#    y 0.000000 1.818960 0.000000 
#    z 0.000000 0.000000 1.789790 
# 
# From -- ./inp_files/10102.got.cif
#   From: 2010.05.17/outbox.cif.g08.bks.cpg/sg38_6_cif.got.tgz:10102.got - 2010.06.03 18:07:57.
