data_PCOD9357620
_publ_section_title
;
Structure prediction by ZEFSAII (Michael W. Deem and Ramdas Pophale) SiO2 
 PCOD9357620
Probable space group: A M M 2
;
_chemical_formula_sum "Si O2"
_cell_formula_units_Z 58
_cell_length_a 7.525380
_cell_length_b 26.921787
_cell_length_c 13.424860
_cell_angle_alpha 90.000000
_cell_angle_beta 90.000000
_cell_angle_gamma 90.000000
_cell_volume 2719.832031
_symmetry_space_group_name_H-M "A M M 2"
_symmetry_group_IT_number 38
_symmetry_cell_setting 'orthorhombic'
loop_
_space_group_symop_operation_xyz
x,y,z
-x,-y,z
-x,y,z
x,-y,z
x,1/2+y,1/2+z
-x,1/2-y,1/2+z
-x,1/2+y,1/2+z
x,1/2-y,1/2+z
loop_
_atom_site_type_symbol
_atom_site_label
_atom_site_fract_x
_atom_site_fract_y
_atom_site_fract_z
Si Si1 0.287323 0.444129 0.056400
Si Si2 0.500000 0.500000 0.379541
Si Si3 0.215080 0.684011 0.380430
Si Si4 0.204966 0.215396 0.473416
Si Si5 0.213950 0.655006 0.163044
Si Si6 0.707477 0.880452 0.369742
Si Si7 0.786484 0.924745 0.956182
Si Si8 0.786675 0.554435 0.685457
O O1 0.500000 0.448178 0.048664
O O2 0.218679 0.500000 0.073227
O O3 0.252054 0.402748 0.140092
O O4 0.221445 0.419458 0.952701
O O5 0.657833 0.456998 0.387498
O O6 0.284680 0.733492 0.433548
O O7 0.280730 0.674666 0.268350
O O8 0.246145 0.633464 0.440074
O O9 0.000000 0.689620 0.372961
O O10 0.282510 0.188215 0.570856
O O11 0.207792 0.173003 0.388630
O O12 0.000000 0.226321 0.498827
O O13 0.000000 0.658400 0.163367
O O14 0.500000 0.873702 0.390546
O O15 0.727123 0.903479 0.261144
O O16 0.738502 0.938361 0.070250
O O17 0.000000 0.934021 0.941421
O O18 0.721542 0.500000 0.718782
O O19 0.000000 0.554260 0.688530
#
# Coordination Sequence:
#
# PCOD9357620 Si02
#       8
#     8   2   8   8   8   8   8   8
#     4   9  18  34  50  73 108 148 182 227 283 335
#     4  12  22  40  64  86 116 166 198 244 290 354
#     4   9  19  38  60  82 112 148 186 238 292 343
#     4   9  18  35  58  81 108 146 193 240 288 350
#     4   9  18  34  57  81 105 141 186 230 285 343
#     4  10  20  32  52  79 112 148 187 234 291 349
#     4  10  22  40  60  87 122 157 198 244 294 350
#     4  10  20  34  54  80 113 153 190 237 290 343
#
# _framework density 21.324846999999998
#
# number of rings (size 3 to 8) (size 9 to 14) (size 15 to 20)
#    0.000    2.483    0.690    1.034    0.966    2.759 
#    3.724    4.138    0.000    0.000    0.000    0.000 
#    0.000    0.000    0.000    0.000    0.000    0.000 
#
# Total GULP energy -161587.462231 kJ/mol
# GULP energy per Si atom -5571.981456 kJ/mol
# Density = 2.127631 g / cm^3
# Si number density = 21.324847 Si / 1000 Ang^3
#
#
#
# Elastic Constant Matrix: (Units=GPa)
#
#
# Indices 1 2 3 4 5 6 
#
# 1 70.5686 19.5535 4.2324 0.0000 0.0000 0.0000
# 2 19.5535 181.5620 41.0042 0.0000 0.0000 0.0000
# 3 4.2324 41.0042 46.9655 0.0000 0.0000 0.0000
# 4 0.0000 0.0000 0.0000 13.6385 0.0000 0.0000
# 5 0.0000 0.0000 0.0000 0.0000 -6.3472 0.0000
# 6 0.0000 0.0000 0.0000 0.0000 0.0000 27.6706
#
#
#
# Elastic Compliance Matrix: (Units=1/GPa)
#
#
# Indices 1 2 3 4 5 6 
#
# 1 0.014607 -0.001589 0.000071 0.000000 0.000000 0.000000
# 2 -0.001589 0.007033 -0.005997 0.000000 0.000000 0.000000
# 3 0.000071 -0.005997 0.026522 0.000000 0.000000 0.000000
# 4 0.000000 0.000000 0.000000 0.073322 0.000000 0.000000
# 5 0.000000 0.000000 0.000000 0.000000 -0.157549 0.000000
# 6 0.000000 0.000000 0.000000 0.000000 0.000000 0.036139
#
#
# Mechanical properties :
#
#
# Convention : Reuss Voigt Hill
#
# Bulk Modulus (GPa) = 30.18309 47.63071 38.90690
# Shear Modulus (GPa) = 191.21188 22.61276 106.91232
#
# Velocity S-wave (km/s) = 9.47950 3.25990 7.08830
# Velocity P-wave (km/s) = 11.57580 6.04595 9.23452
#
# Compressibility (1/GPa) = 0.03313113
#
# Stress axis : x y z
#
# Youngs Moduli (GPa) = 68.46191 142.17932 37.70456
#
# Poissons Ratio (x) = 0.22594 -0.00268
# Poissons Ratio (y) = 0.10880 0.22613
# Poissons Ratio (z) = -0.00487 0.85271
#
# Static dielectric constant tensor:
#      x y z
#    x 1.807600 0.000000 0.000000 
#    y 0.000000 1.761060 0.000000 
#    z 0.000000 0.000000 1.778230 
# 
# From -- ./inp_files/12698.got.cif
#   From: 2010.05.17/outbox.cif.g08.bks.cpg/sg38_7_cif.got.tgz:12698.got - 2010.06.03 18:07:57.
