data_PCOD9357297
_publ_section_title
;
Structure prediction by ZEFSAII (Michael W. Deem and Ramdas Pophale) SiO2 
 PCOD9357297
Probable space group: A M M 2
;
_chemical_formula_sum "Si O2"
_cell_formula_units_Z 64
_cell_length_a 13.293269
_cell_length_b 25.479661
_cell_length_c 9.225464
_cell_angle_alpha 90.000000
_cell_angle_beta 90.000000
_cell_angle_gamma 90.000000
_cell_volume 3124.738347
_symmetry_space_group_name_H-M "A M M 2"
_symmetry_group_IT_number 38
_symmetry_cell_setting 'orthorhombic'
loop_
_space_group_symop_operation_xyz
x,y,z
-x,-y,z
-x,y,z
x,-y,z
x,1/2+y,1/2+z
-x,1/2-y,1/2+z
-x,1/2+y,1/2+z
x,1/2-y,1/2+z
loop_
_atom_site_type_symbol
_atom_site_label
_atom_site_fract_x
_atom_site_fract_y
_atom_site_fract_z
Si Si1 0.220021 0.113180 0.482740
Si Si2 0.706878 0.776126 0.881460
Si Si3 0.385861 0.691366 0.094195
Si Si4 0.173360 0.437938 0.272265
Si Si5 0.392193 0.437011 0.414527
Si Si6 0.715907 0.437896 0.693723
Si Si7 0.888561 0.200410 0.292955
Si Si8 0.155851 0.636467 0.513316
O O1 0.304947 0.146583 0.563251
O O2 0.167366 0.077054 0.603176
O O3 0.278916 0.082404 0.356268
O O4 0.144576 0.153710 0.402574
O O5 0.628797 0.791743 0.758895
O O6 0.801194 0.743973 0.810410
O O7 0.753441 0.827366 0.955098
O O8 0.651513 0.739527 0.995823
O O9 0.500000 0.676873 0.060342
O O10 0.149499 0.500000 0.296342
O O11 0.290420 0.429213 0.322835
O O12 0.115674 0.394755 0.371881
O O13 0.500000 0.415456 0.361991
O O14 0.400139 0.500000 0.415689
O O15 0.372714 0.421403 0.582786
O O16 0.721209 0.500000 0.692629
O O17 0.810765 0.411916 0.614222
O O18 0.000000 0.220625 0.329912
O O19 0.892661 0.176190 0.130379
#
# Coordination Sequence:
#
# PCOD9357297 Si02
#       8
#     8   8   8   8   8   8   8   8
#     4  10  21  37  59  89 128 151 202 255 296 370
#     4  11  21  41  60  90 126 154 200 254 297 372
#     4  11  23  39  60  88 124 168 201 242 301 360
#     4  10  19  34  59  85 116 162 200 245 309 351
#     4   8  15  28  46  72 106 147 202 249 281 331
#     4   9  18  34  56  79 112 164 205 242 302 353
#     4  10  23  42  66  89 118 158 196 250 318 370
#     4  10  19  37  60  86 119 150 202 248 295 359
#
# _framework density 20.481715000000001
#
# number of rings (size 3 to 8) (size 9 to 14) (size 15 to 20)
#    0.000    2.125    2.500    1.875    0.000    1.500 
#    0.000    1.250    0.000   18.000    0.000    0.000 
#    0.000    0.000    0.000    0.000    0.000    0.000 
#
# Total GULP energy -178228.458761 kJ/mol
# GULP energy per Si atom -5569.639336 kJ/mol
# Density = 2.043510 g / cm^3
# Si number density = 20.481715 Si / 1000 Ang^3
#
#
#
# Elastic Constant Matrix: (Units=GPa)
#
#
# Indices 1 2 3 4 5 6 
#
# 1 53.3734 -14.1134 -4.5260 0.0000 0.0000 0.0000
# 2 -14.1134 64.9590 18.9459 0.0000 0.0000 0.0000
# 3 -4.5260 18.9459 96.7478 0.0000 0.0000 0.0000
# 4 0.0000 0.0000 0.0000 31.8942 0.0000 0.0000
# 5 0.0000 0.0000 0.0000 0.0000 290.2518 0.0000
# 6 0.0000 0.0000 0.0000 0.0000 0.0000 -31.1057
#
#
#
# Elastic Compliance Matrix: (Units=1/GPa)
#
#
# Indices 1 2 3 4 5 6 
#
# 1 0.019879 0.004293 0.000089 0.000000 0.000000 0.000000
# 2 0.004293 0.017254 -0.003178 0.000000 0.000000 0.000000
# 3 0.000089 -0.003178 0.010963 0.000000 0.000000 0.000000
# 4 0.000000 0.000000 0.000000 0.031354 0.000000 0.000000
# 5 0.000000 0.000000 0.000000 0.000000 0.003445 0.000000
# 6 0.000000 0.000000 0.000000 0.000000 0.000000 -0.032148
#
#
# Mechanical properties :
#
#
# Convention : Reuss Voigt Hill
#
# Bulk Modulus (GPa) = 19.80051 23.96590 21.88320
# Shear Modulus (GPa) = 76.72035 72.52632 74.62333
#
# Velocity S-wave (km/s) = 6.12693 5.95711 6.04262
# Velocity P-wave (km/s) = 7.72922 7.68393 7.70660
#
# Compressibility (1/GPa) = 0.05050375
#
# Stress axis : x y z
#
# Youngs Moduli (GPa) = 50.30516 57.95786 91.21877
#
# Poissons Ratio (x) = -0.24881 -0.00814
# Poissons Ratio (y) = -0.21596 0.28989
# Poissons Ratio (z) = -0.00449 0.18419
#
# Static dielectric constant tensor:
#      x y z
#    x 1.479650 0.000000 0.000000 
#    y 0.000000 1.724180 0.000000 
#    z 0.000000 0.000000 1.753290 
# 
# From -- ./inp_files/5889.got.cif
#   From: 2010.05.17/outbox.cif.g08.bks.cpg/sg38_3_cif.got.tgz:5889.got - 2010.06.03 18:07:57.
