data_PCOD9357864
_publ_section_title
;
Structure prediction by ZEFSAII (Michael W. Deem and Ramdas Pophale) SiO2 
 PCOD9357864
Probable space group: A M M 2
;
_chemical_formula_sum "Si O2"
_cell_formula_units_Z 64
_cell_length_a 14.092733
_cell_length_b 25.097928
_cell_length_c 9.000584
_cell_angle_alpha 90.000000
_cell_angle_beta 90.000000
_cell_angle_gamma 90.000000
_cell_volume 3183.492143
_symmetry_space_group_name_H-M "A M M 2"
_symmetry_group_IT_number 38
_symmetry_cell_setting 'orthorhombic'
loop_
_space_group_symop_operation_xyz
x,y,z
-x,-y,z
-x,y,z
x,-y,z
x,1/2+y,1/2+z
-x,1/2-y,1/2+z
-x,1/2+y,1/2+z
x,1/2-y,1/2+z
loop_
_atom_site_type_symbol
_atom_site_label
_atom_site_fract_x
_atom_site_fract_y
_atom_site_fract_z
Si Si1 0.741383 0.940020 0.629840
Si Si2 0.891455 0.842946 0.106977
Si Si3 0.106926 0.622251 0.940071
Si Si4 0.387091 0.441186 0.866944
Si Si5 0.386547 0.281428 0.185448
Si Si6 0.106724 0.782748 0.658655
Si Si7 0.747318 0.846748 0.857048
Si Si8 0.615540 0.178100 0.355124
O O1 0.817996 0.916573 0.514466
O O2 0.642575 0.939321 0.540143
O O3 0.741084 0.901339 0.767719
O O4 0.764804 0.000000 0.670503
O O5 0.884508 0.871387 0.265267
O O6 0.884152 0.779287 0.128525
O O7 0.000000 0.853537 0.049276
O O8 0.801541 0.857986 0.008055
O O9 0.000000 0.604521 0.977175
O O10 0.117680 0.681179 0.011627
O O11 0.500000 0.441992 0.847933
O O12 0.351000 0.500000 0.812781
O O13 0.354368 0.382246 0.814400
O O14 0.500000 0.281550 0.178331
O O15 0.352288 0.317864 0.323957
O O16 0.355024 0.221855 0.232839
O O17 0.352747 0.303514 0.023176
O O18 0.181612 0.805949 0.772931
O O19 0.000000 0.708204 0.216518
O O20 0.500000 0.178307 0.359857
#
# Coordination Sequence:
#
# PCOD9357864 Si02
#       8
#     8   8   8   8   8   8   8   8
#     4  10  21  37  56  78 101 133 182 233 272 316
#     4  10  20  34  52  78 109 139 172 215 270 332
#     4   9  19  35  53  74 104 139 174 215 267 327
#     4   9  17  32  55  79 103 137 182 227 264 306
#     4  10  21  35  51  78 116 150 179 219 269 326
#     4   9  18  33  52  77 108 139 172 213 262 322
#     4  11  21  32  54  80 107 143 180 224 271 331
#     4   9  18  34  52  76 110 144 181 224 270 321
#
# _framework density 20.103708000000001
#
# number of rings (size 3 to 8) (size 9 to 14) (size 15 to 20)
#    0.000    2.375    1.250    1.125    1.750    3.750 
#    0.000    0.625    0.000    0.750    0.000    0.875 
#    0.000   11.000    0.000    0.000    0.000    0.000 
#
# Total GULP energy -178415.558673 kJ/mol
# GULP energy per Si atom -5575.486209 kJ/mol
# Density = 2.005795 g / cm^3
# Si number density = 20.103708 Si / 1000 Ang^3
#
#
#
# Elastic Constant Matrix: (Units=GPa)
#
#
# Indices 1 2 3 4 5 6 
#
# 1 36.6248 12.2575 -0.9611 0.0000 0.0000 0.0000
# 2 12.2575 145.7461 12.1908 0.0000 0.0000 0.0000
# 3 -0.9611 12.1908 29.3411 0.0000 0.0000 0.0000
# 4 0.0000 0.0000 0.0000 4.3940 0.0000 0.0000
# 5 0.0000 0.0000 0.0000 0.0000 18.5190 0.0000
# 6 0.0000 0.0000 0.0000 0.0000 0.0000 15.7445
#
#
#
# Elastic Compliance Matrix: (Units=1/GPa)
#
#
# Indices 1 2 3 4 5 6 
#
# 1 0.028205 -0.002538 0.001978 0.000000 0.000000 0.000000
# 2 -0.002538 0.007337 -0.003131 0.000000 0.000000 0.000000
# 3 0.001978 -0.003131 0.035448 0.000000 0.000000 0.000000
# 4 0.000000 0.000000 0.000000 0.227583 0.000000 0.000000
# 5 0.000000 0.000000 0.000000 0.000000 0.053999 0.000000
# 6 0.000000 0.000000 0.000000 0.000000 0.000000 0.063514
#
#
# Mechanical properties :
#
#
# Convention : Reuss Voigt Hill
#
# Bulk Modulus (GPa) = 15.72130 28.74292 22.23211
# Shear Modulus (GPa) = 11.24431 20.27983 15.76207
#
# Velocity S-wave (km/s) = 2.36755 3.17954 2.80311
# Velocity P-wave (km/s) = 3.91290 5.27330 4.64319
#
# Compressibility (1/GPa) = 0.06360796
#
# Stress axis : x y z
#
# Youngs Moduli (GPa) = 35.45465 136.30328 28.21059
#
# Poissons Ratio (x) = 0.34588 -0.05581
# Poissons Ratio (y) = 0.08997 0.08834
# Poissons Ratio (z) = -0.07014 0.42681
#
# Static dielectric constant tensor:
#      x y z
#    x 1.787010 0.000000 0.000000 
#    y 0.000000 1.718910 0.000000 
#    z 0.000000 0.000000 1.732360 
# 
# From -- ./inp_files/5907.got.cif
#   From: 2010.05.17/outbox.cif.g08.bks.cpg/sg38_3_cif.got.tgz:5907.got - 2010.06.03 18:07:57.
