data_PCOD9357244
_publ_section_title
;
Structure prediction by ZEFSAII (Michael W. Deem and Ramdas Pophale) SiO2 
 PCOD9357244
Probable space group: A M M 2
;
_chemical_formula_sum "Si O2"
_cell_formula_units_Z 64
_cell_length_a 21.243726
_cell_length_b 8.385859
_cell_length_c 17.205266
_cell_angle_alpha 90.000000
_cell_angle_beta 90.000000
_cell_angle_gamma 90.000000
_cell_volume 3065.064645
_symmetry_space_group_name_H-M "A M M 2"
_symmetry_group_IT_number 38
_symmetry_cell_setting 'orthorhombic'
loop_
_space_group_symop_operation_xyz
x,y,z
-x,-y,z
-x,y,z
x,-y,z
x,1/2+y,1/2+z
-x,1/2-y,1/2+z
-x,1/2+y,1/2+z
x,1/2-y,1/2+z
loop_
_atom_site_type_symbol
_atom_site_label
_atom_site_fract_x
_atom_site_fract_y
_atom_site_fract_z
Si Si1 0.142804 0.181520 0.050330
Si Si2 0.363086 0.692106 0.653393
Si Si3 0.394769 0.318287 0.990705
Si Si4 0.728557 0.174590 0.952440
Si Si5 0.775521 0.818389 0.673777
Si Si6 0.929445 0.807470 0.902405
Si Si7 0.195992 0.177960 0.329263
Si Si8 0.426346 0.310487 0.816587
O O1 0.166269 0.302068 0.114739
O O2 0.131210 0.000000 0.078652
O O3 0.205655 0.174034 0.997216
O O4 0.087488 0.230511 0.992163
O O5 0.358635 0.500000 0.654547
O O6 0.403639 0.739277 0.576139
O O7 0.293236 0.765954 0.643670
O O8 0.389383 0.745823 0.738680
O O9 0.417612 0.500000 0.995387
O O10 0.319602 0.306899 0.979192
O O11 0.416421 0.248657 0.905888
O O12 0.750779 0.209346 0.865826
O O13 0.698935 0.000000 0.962602
O O14 0.792833 0.691563 0.739106
O O15 0.772148 0.000000 0.701677
O O16 0.873806 0.734014 0.851467
O O17 0.000000 0.757071 0.882203
O O18 0.925322 0.000000 0.896070
O O19 0.205469 0.000000 0.359802
O O20 0.500000 0.292381 0.799129
O O21 0.411251 0.500000 0.822513
#
# Coordination Sequence:
#
# PCOD9357244 Si02
#       8
#     8   8   8   8   8   8   8   8
#     4   9  18  33  55  82 113 147 182 230 288 346
#     4  11  22  38  62  90 122 160 201 253 311 370
#     4  11  21  35  60  90 118 155 199 248 305 368
#     4  10  19  34  56  82 114 147 185 233 288 351
#     4  12  23  36  56  84 118 152 193 243 298 358
#     4   9  19  38  61  83 111 150 195 240 288 348
#     4  11  22  35  55  82 116 153 191 239 295 354
#     4   9  21  41  61  83 116 160 208 252 301 366
#
# _framework density 20.880475000000001
#
# number of rings (size 3 to 8) (size 9 to 14) (size 15 to 20)
#    0.000    1.750    1.250    4.875    0.000    3.750 
#    0.000    2.500    0.000    7.500    0.000    0.000 
#    0.000    0.000    0.000    0.000    0.000    0.000 
#
# Total GULP energy -178258.301841 kJ/mol
# GULP energy per Si atom -5570.571933 kJ/mol
# Density = 2.083295 g / cm^3
# Si number density = 20.880475 Si / 1000 Ang^3
#
#
#
# Elastic Constant Matrix: (Units=GPa)
#
#
# Indices 1 2 3 4 5 6 
#
# 1 40.4658 0.8325 31.1850 0.0000 0.0000 0.0000
# 2 0.8325 43.4529 9.5810 0.0000 0.0000 0.0000
# 3 31.1850 9.5810 101.1608 0.0000 0.0000 0.0000
# 4 0.0000 0.0000 0.0000 25.2820 0.0000 0.0000
# 5 0.0000 0.0000 0.0000 0.0000 20.3484 0.0000
# 6 0.0000 0.0000 0.0000 0.0000 0.0000 3.7966
#
#
#
# Elastic Compliance Matrix: (Units=1/GPa)
#
#
# Indices 1 2 3 4 5 6 
#
# 1 0.032524 0.001621 -0.010180 0.000000 0.000000 0.000000
# 2 0.001621 0.023585 -0.002734 0.000000 0.000000 0.000000
# 3 -0.010180 -0.002734 0.013282 0.000000 0.000000 0.000000
# 4 0.000000 0.000000 0.000000 0.039554 0.000000 0.000000
# 5 0.000000 0.000000 0.000000 0.000000 0.049144 0.000000
# 6 0.000000 0.000000 0.000000 0.000000 0.000000 0.263393
#
#
# Mechanical properties :
#
#
# Convention : Reuss Voigt Hill
#
# Bulk Modulus (GPa) = 21.36414 29.80850 25.58632
# Shear Modulus (GPa) = 10.87740 19.45080 15.16410
#
# Velocity S-wave (km/s) = 2.28488 3.05541 2.69780
# Velocity P-wave (km/s) = 4.14907 5.17244 4.68876
#
# Compressibility (1/GPa) = 0.04680740
#
# Stress axis : x y z
#
# Youngs Moduli (GPa) = 30.74663 42.39964 75.28832
#
# Poissons Ratio (x) = -0.06875 0.76642
# Poissons Ratio (y) = -0.04985 0.20581
# Poissons Ratio (z) = 0.31299 0.11590
#
# Static dielectric constant tensor:
#      x y z
#    x 1.720060 0.000000 0.000000 
#    y 0.000000 1.746480 0.000000 
#    z 0.000000 0.000000 1.839480 
# 
# From -- ./inp_files/18935.got.cif
#   From: 2010.05.17/outbox.cif.g08.bks.cpg/sg38_10_cif.got.tgz:18935.got - 2010.06.03 18:07:57.
