data_PCOD9357449
_publ_section_title
;
Structure prediction by ZEFSAII (Michael W. Deem and Ramdas Pophale) SiO2 
 PCOD9357449
Probable space group: A M M 2
;
_chemical_formula_sum "Si O2"
_cell_formula_units_Z 58
_cell_length_a 7.489959
_cell_length_b 26.392465
_cell_length_c 12.544957
_cell_angle_alpha 90.000000
_cell_angle_beta 90.000000
_cell_angle_gamma 90.000000
_cell_volume 2479.868041
_symmetry_space_group_name_H-M "A M M 2"
_symmetry_group_IT_number 38
_symmetry_cell_setting 'orthorhombic'
loop_
_space_group_symop_operation_xyz
x,y,z
-x,-y,z
-x,y,z
x,-y,z
x,1/2+y,1/2+z
-x,1/2-y,1/2+z
-x,1/2+y,1/2+z
x,1/2-y,1/2+z
loop_
_atom_site_type_symbol
_atom_site_label
_atom_site_fract_x
_atom_site_fract_y
_atom_site_fract_z
Si Si1 0.202232 0.167523 0.060050
Si Si2 0.301135 0.910883 0.451115
Si Si3 0.296040 0.444906 0.541526
Si Si4 0.783146 0.827284 0.291975
Si Si5 0.000000 0.000000 0.468845
Si Si6 0.217820 0.218298 0.844710
Si Si7 0.785515 0.054361 0.795909
Si Si8 0.215641 0.149630 0.654825
O O1 0.197806 0.106615 0.067893
O O2 0.284598 0.182771 0.172147
O O3 0.000000 0.187841 0.060258
O O4 0.279645 0.185655 0.947027
O O5 0.500000 0.931782 0.458845
O O6 0.278363 0.880260 0.340546
O O7 0.280149 0.865550 0.538341
O O8 0.155336 0.954564 0.467634
O O9 0.500000 0.441325 0.579095
O O10 0.222629 0.500000 0.575717
O O11 0.295472 0.445310 0.412826
O O12 0.733763 0.776883 0.357080
O O13 0.000000 0.829523 0.289568
O O14 0.275601 0.195854 0.730035
O O15 0.000000 0.214446 0.842079
O O16 0.731524 0.100762 0.724891
O O17 0.000000 0.057932 0.810547
O O18 0.747868 0.000000 0.743905
O O19 0.000000 0.152465 0.646991
#
# Coordination Sequence:
#
# PCOD9357449 Si02
#       8
#     8   8   8   8   2   8   8   8
#     4  10  20  38  64  95 127 172 232 280 340 420
#     4  12  27  47  75 108 142 187 243 297 360 434
#     4  10  20  34  51  79 122 167 212 270 336 397
#     4  10  22  43  69  99 139 181 236 298 353 415
#     4  12  26  56  80 102 146 188 238 296 366 432
#     4   9  19  36  67 104 134 186 240 289 357 423
#     4   9  17  29  53  82 119 165 212 268 334 401
#     4  10  19  36  64  98 141 184 234 294 351 415
#
# _framework density 23.388339999999999
#
# number of rings (size 3 to 8) (size 9 to 14) (size 15 to 20)
#    0.000    1.931    2.759    0.621    2.897    1.931 
#    1.241    1.379    0.000    0.000    0.000    0.000 
#    0.000    0.000    0.000    0.000    0.000    0.000 
#
# Total GULP energy -161617.618251 kJ/mol
# GULP energy per Si atom -5573.021319 kJ/mol
# Density = 2.333511 g / cm^3
# Si number density = 23.388340 Si / 1000 Ang^3
#
#
#
# Elastic Constant Matrix: (Units=GPa)
#
#
# Indices 1 2 3 4 5 6 
#
# 1 105.5714 22.9187 16.7790 0.0000 0.0000 0.0000
# 2 22.9187 111.3400 33.9939 0.0000 0.0000 0.0000
# 3 16.7790 33.9939 80.8798 0.0000 0.0000 0.0000
# 4 0.0000 0.0000 0.0000 14.3844 0.0000 0.0000
# 5 0.0000 0.0000 0.0000 0.0000 13.4397 0.0000
# 6 0.0000 0.0000 0.0000 0.0000 0.0000 -42.7183
#
#
#
# Elastic Compliance Matrix: (Units=1/GPa)
#
#
# Indices 1 2 3 4 5 6 
#
# 1 0.010051 -0.001643 -0.001394 0.000000 0.000000 0.000000
# 2 -0.001643 0.010572 -0.004103 0.000000 0.000000 0.000000
# 3 -0.001394 -0.004103 0.014378 0.000000 0.000000 0.000000
# 4 0.000000 0.000000 0.000000 0.069520 0.000000 0.000000
# 5 0.000000 0.000000 0.000000 0.000000 0.074407 0.000000
# 6 0.000000 0.000000 0.000000 0.000000 0.000000 -0.023409
#
#
# Mechanical properties :
#
#
# Convention : Reuss Voigt Hill
#
# Bulk Modulus (GPa) = 48.26232 49.46383 48.86307
# Shear Modulus (GPa) = 28.29571 11.96112 20.12841
#
# Velocity S-wave (km/s) = 3.48202 2.26390 2.93681
# Velocity P-wave (km/s) = 6.07009 5.29419 5.69537
#
# Compressibility (1/GPa) = 0.02072010
#
# Stress axis : x y z
#
# Youngs Moduli (GPa) = 99.49657 94.58645 69.55224
#
# Poissons Ratio (x) = 0.15542 0.09699
# Poissons Ratio (y) = 0.16348 0.28535
# Poissons Ratio (z) = 0.13874 0.38806
#
# Static dielectric constant tensor:
#      x y z
#    x 1.894740 0.000000 0.000000 
#    y 0.000000 1.871460 0.000000 
#    z 0.000000 0.000000 1.909420 
# 
# From -- ./inp_files/8342.got.cif
#   From: 2010.05.17/outbox.cif.g08.bks.cpg/sg38_5_cif.got.tgz:8342.got - 2010.06.03 18:07:57.
