data_PCOD9357075
_publ_section_title
;
Structure prediction by ZEFSAII (Michael W. Deem and Ramdas Pophale) SiO2 
 PCOD9357075
Probable space group: A M M 2
;
_chemical_formula_sum "Si O2"
_cell_formula_units_Z 40
_cell_length_a 13.300082
_cell_length_b 8.799709
_cell_length_c 19.662183
_cell_angle_alpha 90.000000
_cell_angle_beta 90.000000
_cell_angle_gamma 90.000000
_cell_volume 2301.199988
_symmetry_space_group_name_H-M "A M M 2"
_symmetry_group_IT_number 38
_symmetry_cell_setting 'orthorhombic'
loop_
_space_group_symop_operation_xyz
x,y,z
-x,-y,z
-x,y,z
x,-y,z
x,1/2+y,1/2+z
-x,1/2-y,1/2+z
-x,1/2+y,1/2+z
x,1/2-y,1/2+z
loop_
_atom_site_type_symbol
_atom_site_label
_atom_site_fract_x
_atom_site_fract_y
_atom_site_fract_z
Si Si1 0.217042 0.683095 0.610950
Si Si2 0.000000 0.825003 0.266555
Si Si3 0.384595 0.182006 0.514850
Si Si4 0.211896 0.819048 0.761489
Si Si5 0.000000 0.674473 0.601084
Si Si6 0.384461 0.817507 0.354888
O O1 0.212020 0.500000 0.616706
O O2 0.305950 0.733090 0.561989
O O3 0.229875 0.750995 0.686211
O O4 0.108498 0.740608 0.582611
O O5 0.103633 0.743844 0.286526
O O6 0.000000 0.825578 0.183713
O O7 0.000000 0.000000 0.288970
O O8 0.500000 0.221300 0.532128
O O9 0.369789 0.215737 0.434932
O O10 0.373507 0.000000 0.523322
O O11 0.301643 0.764637 0.809839
O O12 0.207813 0.000000 0.757584
O O13 0.000000 0.500000 0.577008
O O14 0.500000 0.776153 0.337223
O O15 0.375258 0.000000 0.346274
#
# Coordination Sequence:
#
# PCOD9357075 Si02
#       6
#     8   4   8   8   4   8
#     4  10  19  33  54  77 103 137 174 211 254 307
#     4   9  17  33  54  75 104 139 173 209 255 311
#     4   9  19  36  55  75 102 135 172 217 265 310
#     4  11  21  33  53  81 109 136 172 217 261 306
#     4   7  14  29  48  71  98 129 163 201 245 291
#     4   9  19  37  57  74  99 139 180 216 262 317
#
# _framework density 17.382235000000001
#
# number of rings (size 3 to 8) (size 9 to 14) (size 15 to 20)
#    0.000    2.600    0.000    5.100    0.000    2.400 
#    0.000    4.500    0.000    4.800    0.000    0.000 
#    0.000    0.000    0.000    0.000    0.000    0.000 
#
# Total GULP energy -111496.383478 kJ/mol
# GULP energy per Si atom -5574.819174 kJ/mol
# Density = 1.734267 g / cm^3
# Si number density = 17.382235 Si / 1000 Ang^3
#
#
#
# Elastic Constant Matrix: (Units=GPa)
#
#
# Indices 1 2 3 4 5 6 
#
# 1 188.1813 83.9411 86.1342 0.0000 0.0000 0.0000
# 2 83.9411 87.0689 48.6218 0.0000 0.0000 0.0000
# 3 86.1342 48.6218 56.4740 0.0000 0.0000 0.0000
# 4 0.0000 0.0000 0.0000 26.0877 0.0000 0.0000
# 5 0.0000 0.0000 0.0000 0.0000 -106.9109 0.0000
# 6 0.0000 0.0000 0.0000 0.0000 0.0000 31.7074
#
#
#
# Elastic Compliance Matrix: (Units=1/GPa)
#
#
# Indices 1 2 3 4 5 6 
#
# 1 0.018284 -0.003957 -0.024480 0.000000 0.000000 0.000000
# 2 -0.003957 0.022976 -0.013747 0.000000 0.000000 0.000000
# 3 -0.024480 -0.013747 0.066880 0.000000 0.000000 0.000000
# 4 0.000000 0.000000 0.000000 0.038332 0.000000 0.000000
# 5 0.000000 0.000000 0.000000 0.000000 -0.009354 0.000000
# 6 0.000000 0.000000 0.000000 0.000000 0.000000 0.031538
#
#
# Mechanical properties :
#
#
# Convention : Reuss Voigt Hill
#
# Bulk Modulus (GPa) = 42.06498 85.45760 63.76129
# Shear Modulus (GPa) = 19.16075 -2.28801 8.43637
#
# Velocity S-wave (km/s) = 3.32372 -1.14854 2.20544
# Velocity P-wave (km/s) = 6.24356 6.89287 6.57623
#
# Compressibility (1/GPa) = 0.02377274
#
# Stress axis : x y z
#
# Youngs Moduli (GPa) = 54.69234 43.52280 14.95210
#
# Poissons Ratio (x) = 0.17221 0.36603
# Poissons Ratio (y) = 0.21640 0.20555
# Poissons Ratio (z) = 1.33889 0.59831
#
# Static dielectric constant tensor:
#      x y z
#    x 1.607650 0.000000 0.000000 
#    y 0.000000 1.585380 0.000000 
#    z 0.000000 0.000000 1.557470 
# 
# From -- ./inp_files/20450.got.cif
#   From: 2010.05.17/outbox.cif.g08.bks.cpg/sg38_11_cif.got.tgz:20450.got - 2010.06.03 18:07:57.
