data_PCOD9357054
_publ_section_title
;
Structure prediction by ZEFSAII (Michael W. Deem and Ramdas Pophale) SiO2 
 PCOD9357054
Probable space group: A M M 2
;
_chemical_formula_sum "Si O2"
_cell_formula_units_Z 64
_cell_length_a 19.413544
_cell_length_b 7.435531
_cell_length_c 20.524775
_cell_angle_alpha 90.000000
_cell_angle_beta 90.000000
_cell_angle_gamma 90.000000
_cell_volume 2962.751440
_symmetry_space_group_name_H-M "A M M 2"
_symmetry_group_IT_number 38
_symmetry_cell_setting 'orthorhombic'
loop_
_space_group_symop_operation_xyz
x,y,z
-x,-y,z
-x,y,z
x,-y,z
x,1/2+y,1/2+z
-x,1/2-y,1/2+z
-x,1/2+y,1/2+z
x,1/2-y,1/2+z
loop_
_atom_site_type_symbol
_atom_site_label
_atom_site_fract_x
_atom_site_fract_y
_atom_site_fract_z
Si Si1 0.687041 0.711487 0.698690
Si Si2 0.159021 0.216698 0.667632
Si Si3 0.920589 0.220521 0.538796
Si Si4 0.834413 0.706030 0.917624
Si Si5 0.078716 0.282143 0.294662
Si Si6 0.421355 0.283865 0.593730
Si Si7 0.421894 0.714260 0.945702
Si Si8 0.303752 0.778966 0.347812
O O1 0.672118 0.500000 0.705922
O O2 0.761489 0.730255 0.665405
O O3 0.628973 0.785770 0.650082
O O4 0.691492 0.782895 0.772752
O O5 0.112413 0.275846 0.607348
O O6 0.126564 0.279704 0.735524
O O7 0.156737 0.000000 0.667971
O O8 0.869979 0.284938 0.481554
O O9 0.000000 0.277563 0.531176
O O10 0.921528 0.000000 0.536904
O O11 0.816584 0.500000 0.934495
O O12 0.892172 0.710018 0.861947
O O13 0.765835 0.783284 0.884211
O O14 0.081518 0.500000 0.297485
O O15 0.000000 0.230323 0.283384
O O16 0.500000 0.217138 0.599989
O O17 0.423391 0.500000 0.599077
O O18 0.397532 0.245025 0.519911
O O19 0.500000 0.786429 0.940065
O O20 0.425847 0.500000 0.937055
O O21 0.368676 0.778838 0.891359
O O22 0.301445 0.000000 0.346360
#
# Coordination Sequence:
#
# PCOD9357054 Si02
#       8
#     8   8   8   8   8   8   8   8
#     4  10  20  35  53  75 105 137 169 210 252 299
#     4  10  20  34  53  75 100 133 170 211 254 302
#     4   9  18  32  51  75  99 128 171 215 254 300
#     4  10  19  33  53  76 101 132 170 213 254 299
#     4  10  20  34  52  74 102 134 167 207 256 306
#     4   9  19  35  54  77 105 138 172 205 249 303
#     4   9  18  33  55  81 106 134 170 211 252 296
#     4   9  18  32  51  76 106 134 167 210 253 297
#
# _framework density 21.601542999999999
#
# number of rings (size 3 to 8) (size 9 to 14) (size 15 to 20)
#    0.000    2.500    1.250    0.750    1.750    3.250 
#    0.000    4.375    0.000    1.875    0.000    3.500 
#    0.000    0.000    0.000    0.000    0.000    0.000 
#
# Total GULP energy -178695.636111 kJ/mol
# GULP energy per Si atom -5584.238628 kJ/mol
# Density = 2.155238 g / cm^3
# Si number density = 21.601543 Si / 1000 Ang^3
#
#
#
# Elastic Constant Matrix: (Units=GPa)
#
#
# Indices 1 2 3 4 5 6 
#
# 1 99.8255 -2.3140 40.6671 0.0000 0.0000 0.0000
# 2 -2.3140 66.4507 -2.2538 0.0000 0.0000 0.0000
# 3 40.6671 -2.2538 103.5748 0.0000 0.0000 0.0000
# 4 0.0000 0.0000 0.0000 49.2497 0.0000 0.0000
# 5 0.0000 0.0000 0.0000 0.0000 44.3462 0.0000
# 6 0.0000 0.0000 0.0000 0.0000 0.0000 13.4839
#
#
#
# Elastic Compliance Matrix: (Units=1/GPa)
#
#
# Indices 1 2 3 4 5 6 
#
# 1 0.011929 0.000257 -0.004678 0.000000 0.000000 0.000000
# 2 0.000257 0.015065 0.000227 0.000000 0.000000 0.000000
# 3 -0.004678 0.000227 0.011497 0.000000 0.000000 0.000000
# 4 0.000000 0.000000 0.000000 0.020305 0.000000 0.000000
# 5 0.000000 0.000000 0.000000 0.000000 0.022550 0.000000
# 6 0.000000 0.000000 0.000000 0.000000 0.000000 0.074162
#
#
# Mechanical properties :
#
#
# Convention : Reuss Voigt Hill
#
# Bulk Modulus (GPa) = 33.22005 38.00551 35.61278
# Shear Modulus (GPa) = 28.74696 36.99940 32.87318
#
# Velocity S-wave (km/s) = 3.65195 4.14310 3.90525
# Velocity P-wave (km/s) = 5.76144 6.36547 6.07097
#
# Compressibility (1/GPa) = 0.03010231
#
# Stress axis : x y z
#
# Youngs Moduli (GPa) = 83.82739 66.37727 86.98190
#
# Poissons Ratio (x) = -0.01704 0.40692
# Poissons Ratio (y) = -0.02152 -0.01975
# Poissons Ratio (z) = 0.39217 -0.01507
#
# Static dielectric constant tensor:
#      x y z
#    x 1.752850 0.000000 0.000000 
#    y 0.000000 1.832290 0.000000 
#    z 0.000000 0.000000 1.743140 
# 
# From -- ./inp_files/18758.got.cif
#   From: 2010.05.17/outbox.cif.g08.bks.cpg/sg38_10_cif.got.tgz:18758.got - 2010.06.03 18:07:57.
