data_PCOD9357971
_publ_section_title
;
Structure prediction by ZEFSAII (Michael W. Deem and Ramdas Pophale) SiO2 
 PCOD9357971
Probable space group: A M M 2
;
_chemical_formula_sum "Si O2"
_cell_formula_units_Z 64
_cell_length_a 9.118689
_cell_length_b 17.440921
_cell_length_c 20.919288
_cell_angle_alpha 90.000000
_cell_angle_beta 90.000000
_cell_angle_gamma 90.000000
_cell_volume 3326.968722
_symmetry_space_group_name_H-M "A M M 2"
_symmetry_group_IT_number 38
_symmetry_cell_setting 'orthorhombic'
loop_
_space_group_symop_operation_xyz
x,y,z
-x,-y,z
-x,y,z
x,-y,z
x,1/2+y,1/2+z
-x,1/2-y,1/2+z
-x,1/2+y,1/2+z
x,1/2-y,1/2+z
loop_
_atom_site_type_symbol
_atom_site_label
_atom_site_fract_x
_atom_site_fract_y
_atom_site_fract_z
Si Si1 0.324002 0.704814 0.041830
Si Si2 0.828033 0.625927 0.280197
Si Si3 0.671940 0.086762 0.169547
Si Si4 0.328411 0.585035 0.151803
Si Si5 0.667450 0.190956 0.401359
Si Si6 0.175157 0.869974 0.039985
Si Si7 0.828455 0.310172 0.774137
Si Si8 0.669221 0.377641 0.409644
O O1 0.500000 0.723357 0.042913
O O2 0.289741 0.649410 0.100400
O O3 0.229535 0.781740 0.045509
O O4 0.296211 0.665204 0.973174
O O5 0.764721 0.590789 0.215830
O O6 0.807716 0.718115 0.272329
O O7 0.743675 0.598334 0.343424
O O8 0.000000 0.611008 0.287702
O O9 0.500000 0.102940 0.158450
O O10 0.757036 0.091130 0.102507
O O11 0.737998 0.147337 0.219243
O O12 0.685538 0.000000 0.195129
O O13 0.500000 0.595834 0.168695
O O14 0.312583 0.500000 0.123636
O O15 0.500000 0.169644 0.385585
O O16 0.772219 0.165880 0.344373
O O17 0.672129 0.284071 0.406751
O O18 0.000000 0.875231 0.038898
O O19 0.243204 0.900029 0.973374
O O20 0.000000 0.326486 0.765891
O O21 0.500000 0.401335 0.413671
#
# Coordination Sequence:
#
# PCOD9357971 Si02
#       8
#     8   8   8   8   8   8   8   8
#     4   9  18  34  56  80 108 142 180 221 262 310
#     4  10  20  34  54  82 111 139 174 217 267 318
#     4  11  24  40  56  75 103 141 182 220 260 312
#     4  10  21  36  53  75 105 143 185 225 264 308
#     4   8  15  29  51  79 107 136 172 214 260 308
#     4  11  21  34  56  84 111 137 170 216 267 318
#     4  10  20  34  55  82 109 137 171 215 266 317
#     4   9  17  32  55  81 108 138 174 216 260 309
#
# _framework density 19.236730000000001
#
# number of rings (size 3 to 8) (size 9 to 14) (size 15 to 20)
#    0.000    2.250    0.000    4.125    0.000    8.250 
#    0.000    1.250    0.000    6.000    0.000    0.000 
#    0.000    0.000    0.000    0.000    0.000    0.000 
#
# Total GULP energy -178680.624195 kJ/mol
# GULP energy per Si atom -5583.769506 kJ/mol
# Density = 1.919295 g / cm^3
# Si number density = 19.236730 Si / 1000 Ang^3
#
#
#
# Elastic Constant Matrix: (Units=GPa)
#
#
# Indices 1 2 3 4 5 6 
#
# 1 107.7499 41.6459 53.5073 0.0000 0.0000 0.0000
# 2 41.6459 39.4877 31.3163 0.0000 0.0000 0.0000
# 3 53.5073 31.3163 110.7834 0.0000 0.0000 0.0000
# 4 0.0000 0.0000 0.0000 -23.0282 0.0000 0.0000
# 5 0.0000 0.0000 0.0000 0.0000 18.6585 0.0000
# 6 0.0000 0.0000 0.0000 0.0000 0.0000 9.9166
#
#
#
# Elastic Compliance Matrix: (Units=1/GPa)
#
#
# Indices 1 2 3 4 5 6 
#
# 1 0.016964 -0.014686 -0.004042 0.000000 0.000000 0.000000
# 2 -0.014686 0.045355 -0.005728 0.000000 0.000000 0.000000
# 3 -0.004042 -0.005728 0.012598 0.000000 0.000000 0.000000
# 4 0.000000 0.000000 0.000000 -0.043425 0.000000 0.000000
# 5 0.000000 0.000000 0.000000 0.000000 0.053595 0.000000
# 6 0.000000 0.000000 0.000000 0.000000 0.000000 0.100841
#
#
# Mechanical properties :
#
#
# Convention : Reuss Voigt Hill
#
# Bulk Modulus (GPa) = 38.45275 56.77331 47.61303
# Shear Modulus (GPa) = 20.53316 9.87948 15.20632
#
# Velocity S-wave (km/s) = 3.27064 2.26868 2.81460
# Velocity P-wave (km/s) = 5.85623 6.03652 5.94706
#
# Compressibility (1/GPa) = 0.02600595
#
# Stress axis : x y z
#
# Youngs Moduli (GPa) = 58.94800 22.04811 79.37662
#
# Poissons Ratio (x) = 0.32379 0.32085
# Poissons Ratio (y) = 0.86569 0.45468
# Poissons Ratio (z) = 0.23828 0.12629
#
# Static dielectric constant tensor:
#      x y z
#    x 1.644160 0.000000 0.000000 
#    y 0.000000 1.666310 0.000000 
#    z 0.000000 0.000000 1.656220 
# 
# From -- ./inp_files/20036.got.cif
#   From: 2010.05.17/outbox.cif.g08.bks.cpg/sg38_11_cif.got.tgz:20036.got - 2010.06.03 18:07:57.
