data_PCOD9357527
_publ_section_title
;
Structure prediction by ZEFSAII (Michael W. Deem and Ramdas Pophale) SiO2 
 PCOD9357527
Probable space group: A M M 2
;
_chemical_formula_sum "Si O2"
_cell_formula_units_Z 64
_cell_length_a 7.797278
_cell_length_b 15.178138
_cell_length_c 28.837789
_cell_angle_alpha 90.000000
_cell_angle_beta 90.000000
_cell_angle_gamma 90.000000
_cell_volume 3412.899310
_symmetry_space_group_name_H-M "A M M 2"
_symmetry_group_IT_number 38
_symmetry_cell_setting 'orthorhombic'
loop_
_space_group_symop_operation_xyz
x,y,z
-x,-y,z
-x,y,z
x,-y,z
x,1/2+y,1/2+z
-x,1/2-y,1/2+z
-x,1/2+y,1/2+z
x,1/2-y,1/2+z
loop_
_atom_site_type_symbol
_atom_site_label
_atom_site_fract_x
_atom_site_fract_y
_atom_site_fract_z
Si Si1 0.206653 0.098925 0.277410
Si Si2 0.797782 0.599393 0.154375
Si Si3 0.199264 0.276190 0.967919
Si Si4 0.208633 0.600043 0.319094
Si Si5 0.701300 0.598837 0.051057
Si Si6 0.295094 0.601296 0.883653
Si Si7 0.789989 0.599967 0.425101
Si Si8 0.210486 0.724321 0.235305
O O1 0.250258 0.123104 0.330580
O O2 0.267895 0.175491 0.243212
O O3 0.000000 0.095752 0.274533
O O4 0.272997 0.000000 0.268823
O O5 0.725319 0.500000 0.160284
O O6 0.780456 0.624005 0.100488
O O7 0.728984 0.672037 0.189901
O O8 0.000000 0.592827 0.164671
O O9 0.217375 0.332360 0.920730
O O10 0.271933 0.178959 0.957624
O O11 0.000000 0.265331 0.978716
O O12 0.273352 0.332896 0.009792
O O13 0.259973 0.500000 0.307206
O O14 0.263267 0.618422 0.371838
O O15 0.264586 0.668441 0.280413
O O16 0.000000 0.601619 0.319297
O O17 0.500000 0.592428 0.059483
O O18 0.765333 0.500000 0.038272
O O19 0.500000 0.603599 0.889200
O O20 0.237567 0.500000 0.891920
O O21 0.738097 0.500000 0.436986
O O22 0.000000 0.601258 0.425312
O O23 0.000000 0.726001 0.234730
#
# Coordination Sequence:
#
# PCOD9357527 Si02
#       8
#     8   8   8   8   8   8   8   8
#     4   9  17  29  45  66  93 125 160 195 229 269
#     4   9  17  30  49  72  94 116 148 191 236 283
#     4  11  20  30  50  75  95 120 157 198 237 280
#     4   8  12  19  34  59  91 121 144 170 211 262
#     4  10  21  36  51  68  94 125 153 187 237 292
#     4  10  20  32  45  65  97 133 164 195 234 280
#     4   8  15  27  43  67  98 126 152 185 225 268
#     4   9  15  24  42  68  94 117 146 187 231 268
#
# _framework density 18.752383999999999
#
# number of rings (size 3 to 8) (size 9 to 14) (size 15 to 20)
#    0.000    2.750    0.000    3.375    0.000    6.500 
#    0.000    0.625    0.000    2.250    0.000    3.500 
#    0.000    0.000    0.000    0.000    0.000    0.000 
#
# Total GULP energy -178466.290072 kJ/mol
# GULP energy per Si atom -5577.071565 kJ/mol
# Density = 1.870970 g / cm^3
# Si number density = 18.752384 Si / 1000 Ang^3
#
#
#
# Elastic Constant Matrix: (Units=GPa)
#
#
# Indices 1 2 3 4 5 6 
#
# 1 22.5922 0.2092 -2.7541 0.0000 0.0000 0.0000
# 2 0.2092 130.3179 91.0610 0.0000 0.0000 0.0000
# 3 -2.7541 91.0610 92.1221 0.0000 0.0000 0.0000
# 4 0.0000 0.0000 0.0000 29.5205 0.0000 0.0000
# 5 0.0000 0.0000 0.0000 0.0000 -53.5308 0.0000
# 6 0.0000 0.0000 0.0000 0.0000 0.0000 -2.7614
#
#
#
# Elastic Compliance Matrix: (Units=1/GPa)
#
#
# Indices 1 2 3 4 5 6 
#
# 1 0.044850 -0.003262 0.004565 0.000000 0.000000 0.000000
# 2 -0.003262 0.025048 -0.024857 0.000000 0.000000 0.000000
# 3 0.004565 -0.024857 0.035562 0.000000 0.000000 0.000000
# 4 0.000000 0.000000 0.000000 0.033875 0.000000 0.000000
# 5 0.000000 0.000000 0.000000 0.000000 -0.018681 0.000000
# 6 0.000000 0.000000 0.000000 0.000000 0.000000 -0.362136
#
#
# Mechanical properties :
#
#
# Convention : Reuss Voigt Hill
#
# Bulk Modulus (GPa) = 17.13715 46.89603 32.01659
# Shear Modulus (GPa) = -28.58370 5.08006 -11.75182
#
# Velocity S-wave (km/s) = -3.90843 1.64770 -2.50608
# Velocity P-wave (km/s) = 3.34802 5.35558 2.95575
#
# Compressibility (1/GPa) = 0.05835275
#
# Stress axis : x y z
#
# Youngs Moduli (GPa) = 22.29659 39.92404 28.11999
#
# Poissons Ratio (x) = 0.13024 -0.12838
# Poissons Ratio (y) = 0.07273 0.69897
# Poissons Ratio (z) = -0.10179 0.99237
#
# Static dielectric constant tensor:
#      x y z
#    x 1.678870 0.000000 0.000000 
#    y 0.000000 1.684670 0.000000 
#    z 0.000000 0.000000 1.616960 
# 
# From -- ./inp_files/24767.got.cif
#   From: 2010.05.17/outbox.cif.g08.bks.cpg/sg38_13_cif.got.tgz:24767.got - 2010.06.03 18:07:57.
