data_PCOD9357467
_publ_section_title
;
Structure prediction by ZEFSAII (Michael W. Deem and Ramdas Pophale) SiO2 
 PCOD9357467
Probable space group: A M M 2
;
_chemical_formula_sum "Si O2"
_cell_formula_units_Z 52
_cell_length_a 21.583884
_cell_length_b 21.273023
_cell_length_c 5.443089
_cell_angle_alpha 90.000000
_cell_angle_beta 90.000000
_cell_angle_gamma 90.000000
_cell_volume 2499.218595
_symmetry_space_group_name_H-M "A M M 2"
_symmetry_group_IT_number 38
_symmetry_cell_setting 'orthorhombic'
loop_
_space_group_symop_operation_xyz
x,y,z
-x,-y,z
-x,y,z
x,-y,z
x,1/2+y,1/2+z
-x,1/2-y,1/2+z
-x,1/2+y,1/2+z
x,1/2-y,1/2+z
loop_
_atom_site_type_symbol
_atom_site_label
_atom_site_fract_x
_atom_site_fract_y
_atom_site_fract_z
Si Si1 0.256389 0.857410 0.494760
Si Si2 0.232975 0.000000 0.521732
Si Si3 0.754180 0.000000 0.022147
Si Si4 0.572373 0.790062 0.896607
Si Si5 0.000000 0.216277 0.443764
Si Si6 0.928217 0.927276 0.855398
Si Si7 0.310483 0.363939 0.494968
Si Si8 0.884071 0.871666 0.355843
O O1 0.295801 0.834997 0.262232
O O2 0.185196 0.849951 0.418323
O O3 0.268461 0.933502 0.515845
O O4 0.271954 0.834255 0.767232
O O5 0.202043 0.000000 0.258886
O O6 0.202917 0.000000 0.784741
O O7 0.712125 0.937043 0.015946
O O8 0.500000 0.808441 0.903835
O O9 0.582869 0.755349 0.634202
O O10 0.618951 0.848576 0.927543
O O11 0.062992 0.179664 0.387592
O O12 0.000000 0.231929 0.730508
O O13 0.901449 0.918499 0.580639
O O14 0.000000 0.904347 0.858702
O O15 0.931521 0.000000 0.917560
O O16 0.890100 0.894192 0.074204
#
# Coordination Sequence:
#
# PCOD9357467 Si02
#       8
#     8   4   4   8   4   8   8   8
#     4  10  21  34  58  86 120 151 192 230 292 346
#     4   8  16  30  48  79 113 152 176 210 272 352
#     4   8  16  30  53  76 114 155 190 216 268 346
#     4  10  21  38  62  90 118 156 202 246 299 354
#     4  12  26  46  65  74 101 154 204 254 302 342
#     4  11  22  37  59  90 122 148 178 236 311 368
#     4  10  19  38  56  86 123 158 190 243 286 344
#     4  12  23  42  60  86 116 150 202 247 291 369
#
# _framework density 20.806502999999999
#
# number of rings (size 3 to 8) (size 9 to 14) (size 15 to 20)
#    0.000    1.692    1.538    3.231    2.154    1.231 
#    2.769    5.000    0.000    0.000    0.000    9.692 
#    0.000    0.000    0.000    0.000    0.000    0.000 
#
# Total GULP energy -144877.662373 kJ/mol
# GULP energy per Si atom -5572.217784 kJ/mol
# Density = 2.075915 g / cm^3
# Si number density = 20.806503 Si / 1000 Ang^3
#
#
#
# Elastic Constant Matrix: (Units=GPa)
#
#
# Indices 1 2 3 4 5 6 
#
# 1 86.7052 17.7224 14.5856 0.0000 0.0000 0.0000
# 2 17.7224 43.0398 2.9192 0.0000 0.0000 0.0000
# 3 14.5856 2.9192 166.6005 0.0000 0.0000 0.0000
# 4 0.0000 0.0000 0.0000 22.3903 0.0000 0.0000
# 5 0.0000 0.0000 0.0000 0.0000 7.6100 0.0000
# 6 0.0000 0.0000 0.0000 0.0000 0.0000 20.2011
#
#
#
# Elastic Compliance Matrix: (Units=1/GPa)
#
#
# Indices 1 2 3 4 5 6 
#
# 1 0.012766 -0.005187 -0.001027 0.000000 0.000000 0.000000
# 2 -0.005187 0.025370 0.000010 0.000000 0.000000 0.000000
# 3 -0.001027 0.000010 0.006092 0.000000 0.000000 0.000000
# 4 0.000000 0.000000 0.000000 0.044662 0.000000 0.000000
# 5 0.000000 0.000000 0.000000 0.000000 0.131407 0.000000
# 6 0.000000 0.000000 0.000000 0.000000 0.000000 0.049502
#
#
# Mechanical properties :
#
#
# Convention : Reuss Voigt Hill
#
# Bulk Modulus (GPa) = 31.42741 40.75555 36.09148
# Shear Modulus (GPa) = 17.07566 27.44815 22.26190
#
# Velocity S-wave (km/s) = 2.86787 3.63603 3.27456
# Velocity P-wave (km/s) = 5.10918 6.10394 5.62858
#
# Compressibility (1/GPa) = 0.03181936
#
# Stress axis : x y z
#
# Youngs Moduli (GPa) = 78.33119 39.41731 164.14684
#
# Poissons Ratio (x) = 0.20446 0.16854
# Poissons Ratio (y) = 0.40631 -0.00157
# Poissons Ratio (z) = 0.08043 -0.00038
#
# Static dielectric constant tensor:
#      x y z
#    x 1.748720 0.000000 0.000000 
#    y 0.000000 1.823320 0.000000 
#    z 0.000000 0.000000 1.825560 
# 
# From -- ./inp_files/1917.got.cif
#   From: 2010.05.17/outbox.cif.g08.bks.cpg/sg38_1_cif.got.tgz:1917.got - 2010.06.03 18:07:57.
