data_PCOD9357828
_publ_section_title
;
Structure prediction by ZEFSAII (Michael W. Deem and Ramdas Pophale) SiO2 
 PCOD9357828
Probable space group: A M M 2
;
_chemical_formula_sum "Si O2"
_cell_formula_units_Z 48
_cell_length_a 9.324893
_cell_length_b 12.951945
_cell_length_c 18.094722
_cell_angle_alpha 90.000000
_cell_angle_beta 90.000000
_cell_angle_gamma 90.000000
_cell_volume 2185.399120
_symmetry_space_group_name_H-M "A M M 2"
_symmetry_group_IT_number 38
_symmetry_cell_setting 'orthorhombic'
loop_
_space_group_symop_operation_xyz
x,y,z
-x,-y,z
-x,y,z
x,-y,z
x,1/2+y,1/2+z
-x,1/2-y,1/2+z
-x,1/2+y,1/2+z
x,1/2-y,1/2+z
loop_
_atom_site_type_symbol
_atom_site_label
_atom_site_fract_x
_atom_site_fract_y
_atom_site_fract_z
Si Si1 0.659449 0.117813 0.750000
Si Si2 0.173104 0.614132 0.035836
Si Si3 0.669254 0.322288 0.572939
Si Si4 0.172563 0.181396 0.215311
Si Si5 0.160651 0.843050 0.375812
Si Si6 0.764306 0.614065 0.410654
O O1 0.500000 0.148446 0.724459
O O2 0.777291 0.198906 0.723169
O O3 0.659514 0.116458 0.839784
O O4 0.688254 0.000000 0.727664
O O5 0.192681 0.500000 0.067579
O O6 0.223510 0.611406 0.950159
O O7 0.000000 0.637353 0.038014
O O8 0.264697 0.706899 0.068268
O O9 0.500000 0.323012 0.584788
O O10 0.752666 0.367262 0.643858
O O11 0.701506 0.373101 0.493040
O O12 0.224263 0.138324 0.295022
O O13 0.000000 0.175235 0.210120
O O14 0.152473 0.720113 0.393894
O O15 0.000000 0.883209 0.370882
O O16 0.833898 0.500000 0.407346
#
# Coordination Sequence:
#
# PCOD9357828 Si02
#       6
#     8   8   8   8   8   8
#     4   9  17  31  53  78 100 125 163 211 260 308
#     4   9  18  35  58  79 100 130 169 213 259 305
#     4  11  22  34  51  76 107 140 171 207 251 301
#     4  10  20  34  50  70 102 138 170 207 250 299
#     4   8  16  32  54  79 103 130 169 214 257 301
#     4   9  18  33  54  79 105 134 169 209 255 306
#
# _framework density 21.963951000000002
#
# number of rings (size 3 to 8) (size 9 to 14) (size 15 to 20)
#    0.000    2.667    0.000    1.500    0.000    3.333 
#    0.000    5.000    0.000    1.000    0.000    0.000 
#    0.000    0.000    0.000    0.000    0.000    0.000 
#
# Total GULP energy -133645.093771 kJ/mol
# GULP energy per Si atom -5568.545574 kJ/mol
# Density = 2.191396 g / cm^3
# Si number density = 21.963951 Si / 1000 Ang^3
#
#
#
# Elastic Constant Matrix: (Units=GPa)
#
#
# Indices 1 2 3 4 5 6 
#
# 1 85.9057 13.7898 37.3710 0.0000 0.0000 0.0000
# 2 13.7898 86.7232 -1.0607 0.0000 0.0000 0.0000
# 3 37.3710 -1.0607 177.7584 0.0000 0.0000 0.0000
# 4 0.0000 0.0000 0.0000 3.0094 0.0000 0.0000
# 5 0.0000 0.0000 0.0000 0.0000 14.7522 0.0000
# 6 0.0000 0.0000 0.0000 0.0000 0.0000 -0.2190
#
#
#
# Elastic Compliance Matrix: (Units=1/GPa)
#
#
# Indices 1 2 3 4 5 6 
#
# 1 0.013195 -0.002132 -0.002787 0.000000 0.000000 0.000000
# 2 -0.002132 0.011876 0.000519 0.000000 0.000000 0.000000
# 3 -0.002787 0.000519 0.006215 0.000000 0.000000 0.000000
# 4 0.000000 0.000000 0.000000 0.332291 0.000000 0.000000
# 5 0.000000 0.000000 0.000000 0.000000 0.067787 0.000000
# 6 0.000000 0.000000 0.000000 0.000000 0.000000 -4.566629
#
#
# Mechanical properties :
#
#
# Convention : Reuss Voigt Hill
#
# Bulk Modulus (GPa) = 44.47148 50.06528 47.26838
# Shear Modulus (GPa) = -1.21390 23.52767 11.15689
#
# Velocity S-wave (km/s) = -0.74423 3.27646 2.25625
# Velocity P-wave (km/s) = 4.42187 6.09569 5.32496
#
# Compressibility (1/GPa) = 0.02248632
#
# Stress axis : x y z
#
# Youngs Moduli (GPa) = 75.78466 84.20103 160.91138
#
# Poissons Ratio (x) = 0.17954 0.44843
# Poissons Ratio (y) = 0.16159 -0.08354
# Poissons Ratio (z) = 0.21120 -0.04371
#
# Static dielectric constant tensor:
#      x y z
#    x 1.753730 0.000000 0.000000 
#    y 0.000000 1.825930 0.000000 
#    z 0.000000 0.000000 1.889130 
# 
# From -- ./inp_files/17728.got.cif
#   From: 2010.05.17/outbox.cif.g08.bks.cpg/sg38_9_cif.got.tgz:17728.got - 2010.06.03 18:07:57.
