data_PCOD9357601
_publ_section_title
;
Structure prediction by ZEFSAII (Michael W. Deem and Ramdas Pophale) SiO2 
 PCOD9357601
Probable space group: A M M 2
;
_chemical_formula_sum "Si O2"
_cell_formula_units_Z 58
_cell_length_a 7.250830
_cell_length_b 16.160432
_cell_length_c 19.375875
_cell_angle_alpha 90.000000
_cell_angle_beta 90.000000
_cell_angle_gamma 90.000000
_cell_volume 2270.398092
_symmetry_space_group_name_H-M "A M M 2"
_symmetry_group_IT_number 38
_symmetry_cell_setting 'orthorhombic'
loop_
_space_group_symop_operation_xyz
x,y,z
-x,-y,z
-x,y,z
x,-y,z
x,1/2+y,1/2+z
-x,1/2-y,1/2+z
-x,1/2+y,1/2+z
x,1/2-y,1/2+z
loop_
_atom_site_type_symbol
_atom_site_label
_atom_site_fract_x
_atom_site_fract_y
_atom_site_fract_z
Si Si1 0.224236 0.590492 0.073380
Si Si2 0.224325 0.274982 0.186020
Si Si3 0.718260 0.412124 0.823094
Si Si4 0.784113 0.308864 0.949216
Si Si5 0.776793 0.623645 0.460388
Si Si6 0.776886 0.907069 0.799467
Si Si7 0.500000 0.000000 0.027880
Si Si8 0.207957 0.408671 0.664930
O O1 0.290411 0.500000 0.091807
O O2 0.274394 0.660612 0.126899
O O3 0.000000 0.587012 0.074384
O O4 0.288702 0.619528 0.998323
O O5 0.282813 0.325748 0.255537
O O6 0.290240 0.183973 0.160712
O O7 0.000000 0.266442 0.190375
O O8 0.771166 0.500000 0.857074
O O9 0.764427 0.335600 0.870609
O O10 0.804982 0.410963 0.748300
O O11 0.000000 0.408543 0.635735
O O12 0.716487 0.218494 0.965891
O O13 0.000000 0.303664 0.963500
O O14 0.732172 0.598532 0.380905
O O15 0.662158 0.571288 0.514551
O O16 0.000000 0.615089 0.468012
O O17 0.000000 0.906266 0.794369
O O18 0.718983 0.000000 0.775029
O O19 0.500000 0.411709 0.812227
O O20 0.296687 0.500000 0.647383
#
# Coordination Sequence:
#
# PCOD9357601 Si02
#       8
#     8   8   8   8   8   8   2   8
#     4   9  17  30  51  81 111 140 180 229 280 337
#     4   9  16  27  48  77 106 138 179 226 280 335
#     4  10  20  32  49  78 110 143 181 226 276 337
#     4  10  20  34  54  78 109 143 182 232 280 334
#     4  10  21  36  55  84 117 151 192 235 290 350
#     4   9  15  26  45  72 109 143 171 217 276 335
#     4  12  22  36  60  82 110 160 186 240 292 344
#     4   9  17  30  49  73 104 139 176 223 277 333
#
# _framework density 25.546181000000001
#
# number of rings (size 3 to 8) (size 9 to 14) (size 15 to 20)
#    0.000    2.483    0.690    2.276    0.966    5.241 
#    0.000    0.000    1.517    0.828    0.000    0.000 
#    0.000    0.000    0.000    0.000    0.000    0.138 
#
# Total GULP energy -161732.818011 kJ/mol
# GULP energy per Si atom -5576.993725 kJ/mol
# Density = 2.548804 g / cm^3
# Si number density = 25.546181 Si / 1000 Ang^3
#
#
#
# Elastic Constant Matrix: (Units=GPa)
#
#
# Indices 1 2 3 4 5 6 
#
# 1 108.0635 21.3244 -26.2036 0.0000 0.0000 0.0000
# 2 21.3244 231.6478 43.6198 0.0000 0.0000 0.0000
# 3 -26.2036 43.6198 70.0211 0.0000 0.0000 0.0000
# 4 0.0000 0.0000 0.0000 39.9395 0.0000 0.0000
# 5 0.0000 0.0000 0.0000 0.0000-1762.7997 0.0000
# 6 0.0000 0.0000 0.0000 0.0000 0.0000 68.4290
#
#
#
# Elastic Compliance Matrix: (Units=1/GPa)
#
#
# Indices 1 2 3 4 5 6 
#
# 1 0.010950 -0.002016 0.005354 0.000000 0.000000 0.000000
# 2 -0.002016 0.005262 -0.004032 0.000000 0.000000 0.000000
# 3 0.005354 -0.004032 0.018797 0.000000 0.000000 0.000000
# 4 0.000000 0.000000 0.000000 0.025038 0.000000 0.000000
# 5 0.000000 0.000000 0.000000 0.000000 -0.000567 0.000000
# 6 0.000000 0.000000 0.000000 0.000000 0.000000 0.014614
#
#
# Mechanical properties :
#
#
# Convention : Reuss Voigt Hill
#
# Bulk Modulus (GPa) = 29.74521 54.13486 41.94003
# Shear Modulus (GPa) = 57.67773 -306.15346 -124.23786
#
# Velocity S-wave (km/s) = 4.75677 -10.95917 -6.98128
# Velocity P-wave (km/s) = 6.46824 11.78562 6.96644
#
# Compressibility (1/GPa) = 0.03361886
#
# Stress axis : x y z
#
# Youngs Moduli (GPa) = 91.32568 190.04962 53.20051
#
# Poissons Ratio (x) = 0.38316 -0.28482
# Poissons Ratio (y) = 0.18412 0.21452
# Poissons Ratio (z) = -0.48892 0.76634
#
# Static dielectric constant tensor:
#      x y z
#    x 2.026440 0.000000 0.000000 
#    y 0.000000 2.028240 0.000000 
#    z 0.000000 0.000000 2.016600 
# 
# From -- ./inp_files/22060.got.cif
#   From: 2010.05.17/outbox.cif.g08.bks.cpg/sg38_12_cif.got.tgz:22060.got - 2010.06.03 18:07:57.
