data_PCOD9357853
_publ_section_title
;
Structure prediction by ZEFSAII (Michael W. Deem and Ramdas Pophale) SiO2 
 PCOD9357853
Probable space group: A M M 2
;
_chemical_formula_sum "Si O2"
_cell_formula_units_Z 48
_cell_length_a 16.874783
_cell_length_b 8.748456
_cell_length_c 18.856664
_cell_angle_alpha 90.000000
_cell_angle_beta 90.000000
_cell_angle_gamma 90.000000
_cell_volume 2783.777186
_symmetry_space_group_name_H-M "A M M 2"
_symmetry_group_IT_number 38
_symmetry_cell_setting 'orthorhombic'
loop_
_space_group_symop_operation_xyz
x,y,z
-x,-y,z
-x,y,z
x,-y,z
x,1/2+y,1/2+z
-x,1/2-y,1/2+z
-x,1/2+y,1/2+z
x,1/2-y,1/2+z
loop_
_atom_site_type_symbol
_atom_site_label
_atom_site_fract_x
_atom_site_fract_y
_atom_site_fract_z
Si Si1 0.410678 0.184379 0.417680
Si Si2 0.738042 0.681824 0.332684
Si Si3 0.237468 0.318808 0.678487
Si Si4 0.910934 0.182691 0.593144
Si Si5 0.326097 0.818771 0.555605
Si Si6 0.177032 0.817452 0.971844
O O1 0.500000 0.225875 0.396903
O O2 0.342922 0.262305 0.370499
O O3 0.395972 0.222404 0.500993
O O4 0.401652 0.000000 0.411768
O O5 0.733881 0.500000 0.321960
O O6 0.751424 0.763616 0.258443
O O7 0.809267 0.712563 0.388851
O O8 0.231437 0.500000 0.674427
O O9 0.157700 0.247287 0.644174
O O10 0.311534 0.264036 0.629936
O O11 0.897647 0.256218 0.515272
O O12 0.000000 0.216704 0.618265
O O13 0.901644 0.000000 0.588225
O O14 0.249016 0.770432 0.510227
O O15 0.327305 0.000000 0.567653
O O16 0.185103 0.000000 0.982766
#
# Coordination Sequence:
#
# PCOD9357853 Si02
#       6
#     8   8   8   8   8   8
#     4   9  18  33  53  77 103 131 166 209 255 301
#     4  10  20  34  52  75 103 136 172 208 251 303
#     4  11  21  33  52  75 101 135 172 211 253 299
#     4  10  20  34  53  76 102 131 164 206 254 303
#     4   9  16  29  50  72  97 129 163 201 244 295
#     4   9  17  30  50  73  96 125 163 203 241 290
#
# _framework density 17.242760000000001
#
# number of rings (size 3 to 8) (size 9 to 14) (size 15 to 20)
#    0.000    2.333    0.000    5.500    0.000    4.333 
#    0.000    1.667    0.000    4.000    0.000    0.000 
#    0.000    0.000    0.000    0.000    0.000    0.000 
#
# Total GULP energy -133698.121355 kJ/mol
# GULP energy per Si atom -5570.755056 kJ/mol
# Density = 1.720351 g / cm^3
# Si number density = 17.242760 Si / 1000 Ang^3
#
#
#
# Elastic Constant Matrix: (Units=GPa)
#
#
# Indices 1 2 3 4 5 6 
#
# 1 72.9622 31.2117 36.6534 0.0000 0.0000 0.0000
# 2 31.2117 68.8655 42.9645 0.0000 0.0000 0.0000
# 3 36.6534 42.9645 124.7248 0.0000 0.0000 0.0000
# 4 0.0000 0.0000 0.0000 28.2736 0.0000 0.0000
# 5 0.0000 0.0000 0.0000 0.0000 16.9443 0.0000
# 6 0.0000 0.0000 0.0000 0.0000 0.0000 16.6120
#
#
#
# Elastic Compliance Matrix: (Units=1/GPa)
#
#
# Indices 1 2 3 4 5 6 
#
# 1 0.017921 -0.006160 -0.003144 0.000000 0.000000 0.000000
# 2 -0.006160 0.020614 -0.005291 0.000000 0.000000 0.000000
# 3 -0.003144 -0.005291 0.010764 0.000000 0.000000 0.000000
# 4 0.000000 0.000000 0.000000 0.035369 0.000000 0.000000
# 5 0.000000 0.000000 0.000000 0.000000 0.059017 0.000000
# 6 0.000000 0.000000 0.000000 0.000000 0.000000 0.060197
#
#
# Mechanical properties :
#
#
# Convention : Reuss Voigt Hill
#
# Bulk Modulus (GPa) = 49.73130 54.24576 51.98853
# Shear Modulus (GPa) = 20.85289 22.74749 21.80019
#
# Velocity S-wave (km/s) = 3.48137 3.63609 3.55957
# Velocity P-wave (km/s) = 6.71300 7.01117 6.86371
#
# Compressibility (1/GPa) = 0.02010806
#
# Stress axis : x y z
#
# Youngs Moduli (GPa) = 55.80165 48.51106 92.90098
#
# Poissons Ratio (x) = 0.29885 0.29211
# Poissons Ratio (y) = 0.34376 0.49150
# Poissons Ratio (z) = 0.17546 0.25665
#
# Static dielectric constant tensor:
#      x y z
#    x 1.606980 0.000000 0.000000 
#    y 0.000000 1.575590 0.000000 
#    z 0.000000 0.000000 1.603580 
# 
# From -- ./inp_files/18573.got.cif
#   From: 2010.05.17/outbox.cif.g08.bks.cpg/sg38_10_cif.got.tgz:18573.got - 2010.06.03 18:07:57.
