data_PCOD9357132
_publ_section_title
;
Structure prediction by ZEFSAII (Michael W. Deem and Ramdas Pophale) SiO2 
 PCOD9357132
Probable space group: A M M 2
;
_chemical_formula_sum "Si O2"
_cell_formula_units_Z 64
_cell_length_a 21.267156
_cell_length_b 9.366875
_cell_length_c 16.217693
_cell_angle_alpha 90.000000
_cell_angle_beta 90.000000
_cell_angle_gamma 90.000000
_cell_volume 3230.674594
_symmetry_space_group_name_H-M "A M M 2"
_symmetry_group_IT_number 38
_symmetry_cell_setting 'orthorhombic'
loop_
_space_group_symop_operation_xyz
x,y,z
-x,-y,z
-x,y,z
x,-y,z
x,1/2+y,1/2+z
-x,1/2-y,1/2+z
-x,1/2+y,1/2+z
x,1/2-y,1/2+z
loop_
_atom_site_type_symbol
_atom_site_label
_atom_site_fract_x
_atom_site_fract_y
_atom_site_fract_z
Si Si1 0.107658 0.332243 0.181700
Si Si2 0.764021 0.152621 0.768240
Si Si3 0.126208 0.827837 0.014342
Si Si4 0.724137 0.834963 0.026365
Si Si5 0.925527 0.167250 0.351733
Si Si6 0.430645 0.339299 0.765488
Si Si7 0.305510 0.159786 0.375053
Si Si8 0.645304 0.345093 0.154443
O O1 0.087167 0.500000 0.178617
O O2 0.182710 0.334818 0.199594
O O3 0.096104 0.249173 0.095576
O O4 0.083968 0.249076 0.263875
O O5 0.755073 0.296871 0.819517
O O6 0.695858 0.139567 0.727945
O O7 0.777745 0.000000 0.813218
O O8 0.201346 0.805759 0.023609
O O9 0.113899 0.000000 0.013525
O O10 0.105303 0.753588 0.928412
O O11 0.684080 0.749049 0.091800
O O12 0.716353 0.000000 0.043039
O O13 0.695639 0.785008 0.940422
O O14 0.000000 0.166012 0.367770
O O15 0.904695 0.000000 0.347439
O O16 0.500000 0.312900 0.801513
O O17 0.430161 0.500000 0.731204
O O18 0.372319 0.336612 0.828630
O O19 0.414675 0.230387 0.693069
O O20 0.296785 0.000000 0.408678
O O21 0.630744 0.500000 0.119540
#
# Coordination Sequence:
#
# PCOD9357132 Si02
#       8
#     8   8   8   8   8   8   8   8
#     4  11  22  39  65  94 124 161 203 252 312 373
#     4   9  18  33  53  81 114 144 179 228 287 350
#     4  11  24  41  65  95 127 165 209 258 314 375
#     4  11  22  36  55  84 120 152 187 236 299 359
#     4  11  26  46  65  89 124 166 213 261 309 368
#     4   9  19  37  57  78 108 148 194 240 288 348
#     4  10  20  32  53  81 110 149 191 237 292 348
#     4  10  19  33  55  82 113 146 184 233 284 343
#
# _framework density 19.810105
#
# number of rings (size 3 to 8) (size 9 to 14) (size 15 to 20)
#    0.000    1.750    1.250    3.000    0.000    8.250 
#    0.000    0.625    0.000    2.250    0.000    0.000 
#    0.000    0.000    0.000    0.000    0.000    0.000 
#
# Total GULP energy -178263.368310 kJ/mol
# GULP energy per Si atom -5570.730260 kJ/mol
# Density = 1.976502 g / cm^3
# Si number density = 19.810105 Si / 1000 Ang^3
#
#
#
# Elastic Constant Matrix: (Units=GPa)
#
#
# Indices 1 2 3 4 5 6 
#
# 1 42.8017 40.4292 17.7826 0.0000 0.0000 0.0000
# 2 40.4292 121.5887 71.0343 0.0000 0.0000 0.0000
# 3 17.7826 71.0343 91.9970 0.0000 0.0000 0.0000
# 4 0.0000 0.0000 0.0000 36.3282 0.0000 0.0000
# 5 0.0000 0.0000 0.0000 0.0000 16.3048 0.0000
# 6 0.0000 0.0000 0.0000 0.0000 0.0000 54.2114
#
#
#
# Elastic Compliance Matrix: (Units=1/GPa)
#
#
# Indices 1 2 3 4 5 6 
#
# 1 0.034863 -0.013946 0.004030 0.000000 0.000000 0.000000
# 2 -0.013946 0.020562 -0.013181 0.000000 0.000000 0.000000
# 3 0.004030 -0.013181 0.020269 0.000000 0.000000 0.000000
# 4 0.000000 0.000000 0.000000 0.027527 0.000000 0.000000
# 5 0.000000 0.000000 0.000000 0.000000 0.061332 0.000000
# 6 0.000000 0.000000 0.000000 0.000000 0.000000 0.018446
#
#
# Mechanical properties :
#
#
# Convention : Reuss Voigt Hill
#
# Bulk Modulus (GPa) = 33.90060 57.20885 45.55472
# Shear Modulus (GPa) = 20.91814 29.84497 25.38155
#
# Velocity S-wave (km/s) = 3.25304 3.88564 3.58333
# Velocity P-wave (km/s) = 5.59103 7.00516 6.33766
#
# Compressibility (1/GPa) = 0.02949800
#
# Stress axis : x y z
#
# Youngs Moduli (GPa) = 28.68404 48.63245 49.33712
#
# Poissons Ratio (x) = 0.67824 -0.19881
# Poissons Ratio (y) = 0.40004 0.65032
# Poissons Ratio (z) = -0.11559 0.64104
#
# Static dielectric constant tensor:
#      x y z
#    x 1.694310 0.000000 0.000000 
#    y 0.000000 1.736230 0.000000 
#    z 0.000000 0.000000 1.799870 
# 
# From -- ./inp_files/18858.got.cif
#   From: 2010.05.17/outbox.cif.g08.bks.cpg/sg38_10_cif.got.tgz:18858.got - 2010.06.03 18:07:57.
