data_PCOD9357722
_publ_section_title
;
Structure prediction by ZEFSAII (Michael W. Deem and Ramdas Pophale) SiO2 
 PCOD9357722
Probable space group: A M M 2
;
_chemical_formula_sum "Si O2"
_cell_formula_units_Z 40
_cell_length_a 7.592344
_cell_length_b 8.014684
_cell_length_c 30.291633
_cell_angle_alpha 90.000000
_cell_angle_beta 90.000000
_cell_angle_gamma 90.000000
_cell_volume 1843.253077
_symmetry_space_group_name_H-M "A M M 2"
_symmetry_group_IT_number 38
_symmetry_cell_setting 'orthorhombic'
loop_
_space_group_symop_operation_xyz
x,y,z
-x,-y,z
-x,y,z
x,-y,z
x,1/2+y,1/2+z
-x,1/2-y,1/2+z
-x,1/2+y,1/2+z
x,1/2-y,1/2+z
loop_
_atom_site_type_symbol
_atom_site_label
_atom_site_fract_x
_atom_site_fract_y
_atom_site_fract_z
Si Si1 0.216554 0.000000 0.791311
Si Si2 0.205107 0.688655 0.847262
Si Si3 0.209153 0.180007 0.135981
Si Si4 0.215984 0.500000 0.189112
Si Si5 0.713169 0.307077 0.040440
Si Si6 0.703598 0.797236 0.445265
O O1 0.279518 0.833353 0.816363
O O2 0.266348 0.000000 0.740162
O O3 0.000000 0.000000 0.793404
O O4 0.281724 0.500000 0.844154
O O5 0.212968 0.745032 0.898480
O O6 0.000000 0.673784 0.835506
O O7 0.279433 0.336513 0.163183
O O8 0.234126 0.209295 0.083887
O O9 0.000000 0.176328 0.144195
O O10 0.283294 0.000000 0.148591
O O11 0.000000 0.500000 0.187582
O O12 0.500000 0.308380 0.038073
O O13 0.771472 0.500000 0.045935
O O14 0.776088 0.240640 0.992736
O O15 0.500000 0.745632 0.442309
O O16 0.709181 0.000000 0.448165
#
# Coordination Sequence:
#
# PCOD9357722 Si02
#       6
#     4   8   8   4   8   8
#     4   9  18  32  51  75 101 129 165 209 254 297
#     4   9  17  30  49  73  99 128 164 204 246 292
#     4  10  20  33  51  76 102 131 170 211 254 303
#     4   9  18  34  53  73 101 133 165 211 262 301
#     4   9  17  31  52  75 101 137 174 206 248 302
#     4   8  15  29  49  72  99 133 168 200 242 296
#
# _framework density 21.700765000000001
#
# number of rings (size 3 to 8) (size 9 to 14) (size 15 to 20)
#    0.000    3.000    1.000    1.200    0.000    2.000 
#    1.800    6.500    0.000    2.400    0.000    2.800 
#    0.000    0.000    0.000    0.000    0.000    0.000 
#
# Total GULP energy -111545.840918 kJ/mol
# GULP energy per Si atom -5577.292046 kJ/mol
# Density = 2.165137 g / cm^3
# Si number density = 21.700765 Si / 1000 Ang^3
#
#
#
# Elastic Constant Matrix: (Units=GPa)
#
#
# Indices 1 2 3 4 5 6 
#
# 1 44.0871 9.4138 -2.3767 0.0000 0.0000 0.0000
# 2 9.4138 152.9655 106.9886 0.0000 0.0000 0.0000
# 3 -2.3767 106.9886 170.6032 0.0000 0.0000 0.0000
# 4 0.0000 0.0000 0.0000 -18.9870 0.0000 0.0000
# 5 0.0000 0.0000 0.0000 0.0000 36.6297 0.0000
# 6 0.0000 0.0000 0.0000 0.0000 0.0000 -3.0756
#
#
#
# Elastic Compliance Matrix: (Units=1/GPa)
#
#
# Indices 1 2 3 4 5 6 
#
# 1 0.023436 -0.002976 0.002193 0.000000 0.000000 0.000000
# 2 -0.002976 0.012023 -0.007582 0.000000 0.000000 0.000000
# 3 0.002193 -0.007582 0.010647 0.000000 0.000000 0.000000
# 4 0.000000 0.000000 0.000000 -0.052668 0.000000 0.000000
# 5 0.000000 0.000000 0.000000 0.000000 0.027300 0.000000
# 6 0.000000 0.000000 0.000000 0.000000 0.000000 -0.325136
#
#
# Mechanical properties :
#
#
# Convention : Reuss Voigt Hill
#
# Bulk Modulus (GPa) = 34.04075 66.18968 50.11521
# Shear Modulus (GPa) = -17.99364 19.82207 0.91422
#
# Velocity S-wave (km/s) = -2.88266 3.02558 0.64977
# Velocity P-wave (km/s) = 2.15427 6.54009 4.86897
#
# Compressibility (1/GPa) = 0.02937655
#
# Stress axis : x y z
#
# Youngs Moduli (GPa) = 42.66928 83.17181 93.92655
#
# Poissons Ratio (x) = 0.24752 -0.20596
# Poissons Ratio (y) = 0.12698 0.71210
# Poissons Ratio (z) = -0.09357 0.63057
#
# Static dielectric constant tensor:
#      x y z
#    x 1.811990 0.000000 0.000000 
#    y 0.000000 1.814280 0.000000 
#    z 0.000000 0.000000 1.760140 
# 
# From -- ./inp_files/23234.got.cif
#   From: 2010.05.17/outbox.cif.g08.bks.cpg/sg38_12_cif.got.tgz:23234.got - 2010.06.03 18:07:57.
