data_PCOD9357199
_publ_section_title
;
Structure prediction by ZEFSAII (Michael W. Deem and Ramdas Pophale) SiO2 
 PCOD9357199
Probable space group: A M M 2
;
_chemical_formula_sum "Si O2"
_cell_formula_units_Z 56
_cell_length_a 13.679105
_cell_length_b 12.893142
_cell_length_c 13.374503
_cell_angle_alpha 90.000000
_cell_angle_beta 90.000000
_cell_angle_gamma 90.000000
_cell_volume 2358.816199
_symmetry_space_group_name_H-M "A M M 2"
_symmetry_group_IT_number 38
_symmetry_cell_setting 'orthorhombic'
loop_
_space_group_symop_operation_xyz
x,y,z
-x,-y,z
-x,y,z
x,-y,z
x,1/2+y,1/2+z
-x,1/2-y,1/2+z
-x,1/2+y,1/2+z
x,1/2-y,1/2+z
loop_
_atom_site_type_symbol
_atom_site_label
_atom_site_fract_x
_atom_site_fract_y
_atom_site_fract_z
Si Si1 0.888552 0.833443 0.737340
Si Si2 0.885335 0.715521 0.452744
Si Si3 0.383858 0.384041 0.721127
Si Si4 0.883802 0.887919 0.159194
Si Si5 0.698633 0.171273 0.433260
Si Si6 0.613906 0.388248 0.368098
Si Si7 0.683584 0.663296 0.152498
O O1 0.877978 0.856058 0.854216
O O2 0.874018 0.708486 0.733059
O O3 0.796108 0.870082 0.674471
O O4 0.000000 0.857749 0.704638
O O5 0.853620 0.652247 0.550314
O O6 0.815300 0.815202 0.444101
O O7 0.000000 0.744088 0.462221
O O8 0.500000 0.361199 0.727233
O O9 0.374128 0.500000 0.678041
O O10 0.339904 0.383078 0.833637
O O11 0.333039 0.288466 0.663576
O O12 0.000000 0.899360 0.150908
O O13 0.842420 0.000000 0.187521
O O14 0.666085 0.290460 0.415690
O O15 0.657968 0.133101 0.539622
O O16 0.500000 0.382191 0.393650
O O17 0.652702 0.500000 0.400007
O O18 0.625093 0.379498 0.247642
#
# Coordination Sequence:
#
# PCOD9357199 Si02
#       7
#     8   8   8   8   8   8   8
#     4  10  19  34  54  81 117 154 187 225 278 331
#     4  10  19  34  54  81 117 154 187 225 278 331
#     4  10  23  42  60  83 116 148 186 240 294 344
#     4   9  18  32  52  80 110 143 188 234 274 325
#     4  11  21  37  61  88 115 150 192 233 282 340
#     4  10  23  42  60  83 116 148 186 240 294 344
#     4  11  21  37  61  88 115 150 192 233 282 340
#
# _framework density 23.740722999999999
#
# number of rings (size 3 to 8) (size 9 to 14) (size 15 to 20)
#    0.000    1.857    4.286    1.714    0.000    4.571 
#    0.000    2.857    0.000    0.857    0.000    2.000 
#    0.000    0.000    0.000    0.000    0.000    0.000 
#
# Total GULP energy -156332.532539 kJ/mol
# GULP energy per Si atom -5583.304734 kJ/mol
# Density = 2.368669 g / cm^3
# Si number density = 23.740723 Si / 1000 Ang^3
#
#
#
# Elastic Constant Matrix: (Units=GPa)
#
#
# Indices 1 2 3 4 5 6 
#
# 1 117.8283 10.5331 -9.9494 0.0000 0.0000 0.0000
# 2 10.5331 89.1652 -0.7846 0.0000 0.0000 0.0000
# 3 -9.9494 -0.7846 89.0988 0.0000 0.0000 0.0000
# 4 0.0000 0.0000 0.0000 -10.6023 0.0000 0.0000
# 5 0.0000 0.0000 0.0000 0.0000 6.6366 0.0000
# 6 0.0000 0.0000 0.0000 0.0000 0.0000 -7.8338
#
#
#
# Elastic Compliance Matrix: (Units=1/GPa)
#
#
# Indices 1 2 3 4 5 6 
#
# 1 0.008658 -0.001014 0.000958 0.000000 0.000000 0.000000
# 2 -0.001014 0.011335 -0.000013 0.000000 0.000000 0.000000
# 3 0.000958 -0.000013 0.011330 0.000000 0.000000 0.000000
# 4 0.000000 0.000000 0.000000 -0.094319 0.000000 0.000000
# 5 0.000000 0.000000 0.000000 0.000000 0.150679 0.000000
# 6 0.000000 0.000000 0.000000 0.000000 0.000000 -0.127652
#
#
# Mechanical properties :
#
#
# Convention : Reuss Voigt Hill
#
# Bulk Modulus (GPa) = 32.06789 32.85450 32.46120
# Shear Modulus (GPa) = -169.86950 17.39299 -76.23826
#
# Velocity S-wave (km/s) = -8.46802 2.70964 -5.67297
# Velocity P-wave (km/s) = 9.05941 4.86399 5.40437
#
# Compressibility (1/GPa) = 0.03118384
#
# Stress axis : x y z
#
# Youngs Moduli (GPa) = 115.49354 88.22344 88.25854
#
# Poissons Ratio (x) = 0.08949 -0.08455
# Poissons Ratio (y) = 0.11716 0.00119
# Poissons Ratio (z) = -0.11064 0.00119
#
# Static dielectric constant tensor:
#      x y z
#    x 1.933020 0.000000 0.000000 
#    y 0.000000 1.958150 0.000000 
#    z 0.000000 0.000000 1.887790 
# 
# From -- ./inp_files/14655.got.cif
#   From: 2010.05.17/outbox.cif.g08.bks.cpg/sg38_8_cif.got.tgz:14655.got - 2010.06.03 18:07:57.
