data_PCOD9357113
_publ_section_title
;
Structure prediction by ZEFSAII (Michael W. Deem and Ramdas Pophale) SiO2 
 PCOD9357113
Probable space group: A M M 2
;
_chemical_formula_sum "Si O2"
_cell_formula_units_Z 32
_cell_length_a 10.802534
_cell_length_b 9.257173
_cell_length_c 15.525116
_cell_angle_alpha 90.000000
_cell_angle_beta 90.000000
_cell_angle_gamma 90.000000
_cell_volume 1552.525977
_symmetry_space_group_name_H-M "A M M 2"
_symmetry_group_IT_number 38
_symmetry_cell_setting 'orthorhombic'
loop_
_space_group_symop_operation_xyz
x,y,z
-x,-y,z
-x,y,z
x,-y,z
x,1/2+y,1/2+z
-x,1/2-y,1/2+z
-x,1/2+y,1/2+z
x,1/2-y,1/2+z
loop_
_atom_site_type_symbol
_atom_site_label
_atom_site_fract_x
_atom_site_fract_y
_atom_site_fract_z
Si Si1 0.000000 0.164468 0.054310
Si Si2 0.500000 0.165073 0.808493
Si Si3 0.500000 0.335033 0.103542
Si Si4 0.238620 0.664120 0.053354
Si Si5 0.753109 0.335104 0.847055
Si Si6 0.000000 0.332775 0.342859
O O1 0.122352 0.246062 0.084546
O O2 0.000000 0.166622 0.948666
O O3 0.000000 0.000000 0.082119
O O4 0.500000 0.156128 0.705474
O O5 0.625067 0.250087 0.832663
O O6 0.500000 0.000000 0.842843
O O7 0.500000 0.500000 0.066115
O O8 0.628801 0.267362 0.074848
O O9 0.235030 0.500000 0.088504
O O10 0.230769 0.655375 0.950292
O O11 0.747046 0.500000 0.813750
O O12 0.874591 0.249332 0.815032
O O13 0.000000 0.500000 0.315438
#
# Coordination Sequence:
#
# PCOD9357113 Si02
#       6
#     4   4   4   8   8   4
#     4   9  17  29  48  79 110 129 155 203 258 303
#     4  11  22  35  51  73 104 139 174 212 254 301
#     4   9  19  35  53  73  98 133 176 212 244 293
#     4   9  17  33  56  77  98 130 171 209 246 296
#     4  10  19  33  55  80 104 132 169 212 256 302
#     4   9  17  31  52  79 108 133 163 207 256 305
#
# _framework density 20.61157
#
# number of rings (size 3 to 8) (size 9 to 14) (size 15 to 20)
#    0.000    2.500    0.000    2.625    0.000    6.000 
#    0.000    4.375    0.000    3.000    0.000    0.000 
#    0.000    0.000    0.000    0.000    0.000    0.000 
#
# Total GULP energy -89277.341068 kJ/mol
# GULP energy per Si atom -5579.833817 kJ/mol
# Density = 2.056466 g / cm^3
# Si number density = 20.611570 Si / 1000 Ang^3
#
#
#
# Elastic Constant Matrix: (Units=GPa)
#
#
# Indices 1 2 3 4 5 6 
#
# 1 254.8313 126.5388 0.9515 0.0000 0.0000 0.0000
# 2 126.5388 164.7214 4.1006 0.0000 0.0000 0.0000
# 3 0.9515 4.1006 11.1932 0.0000 0.0000 0.0000
# 4 0.0000 0.0000 0.0000 1.0319 0.0000 0.0000
# 5 0.0000 0.0000 0.0000 0.0000 -68.4017 0.0000
# 6 0.0000 0.0000 0.0000 0.0000 0.0000 -27.7009
#
#
#
# Elastic Compliance Matrix: (Units=1/GPa)
#
#
# Indices 1 2 3 4 5 6 
#
# 1 0.006362 -0.004919 0.001261 0.000000 0.000000 0.000000
# 2 -0.004919 0.009929 -0.003220 0.000000 0.000000 0.000000
# 3 0.001261 -0.003220 0.090412 0.000000 0.000000 0.000000
# 4 0.000000 0.000000 0.000000 0.969119 0.000000 0.000000
# 5 0.000000 0.000000 0.000000 0.000000 -0.014620 0.000000
# 6 0.000000 0.000000 0.000000 0.000000 0.000000 -0.036100
#
#
# Mechanical properties :
#
#
# Convention : Reuss Voigt Hill
#
# Bulk Modulus (GPa) = 10.75852 77.10306 43.93079
# Shear Modulus (GPa) = 4.67360 0.92952 2.80156
#
# Velocity S-wave (km/s) = 1.50744 0.67227 1.16712
# Velocity P-wave (km/s) = 2.87417 6.17183 4.81416
#
# Compressibility (1/GPa) = 0.09294961
#
# Stress axis : x y z
#
# Youngs Moduli (GPa) = 157.18855 100.71108 11.06045
#
# Poissons Ratio (x) = 0.49535 -0.01395
# Poissons Ratio (y) = 0.77313 0.03561
# Poissons Ratio (z) = -0.19823 0.32424
#
# Static dielectric constant tensor:
#      x y z
#    x 1.736750 0.000000 0.000000 
#    y 0.000000 1.739870 0.000000 
#    z 0.000000 0.000000 1.731210 
# 
# From -- ./inp_files/17440.got.cif
#   From: 2010.05.17/outbox.cif.g08.bks.cpg/sg38_9_cif.got.tgz:17440.got - 2010.06.03 18:07:57.
