data_PCOD9357849
_publ_section_title
;
Structure prediction by ZEFSAII (Michael W. Deem and Ramdas Pophale) SiO2 
 PCOD9357849
Probable space group: A M M 2
;
_chemical_formula_sum "Si O2"
_cell_formula_units_Z 64
_cell_length_a 29.510449
_cell_length_b 12.802079
_cell_length_c 8.329624
_cell_angle_alpha 90.000000
_cell_angle_beta 90.000000
_cell_angle_gamma 90.000000
_cell_volume 3146.891127
_symmetry_space_group_name_H-M "A M M 2"
_symmetry_group_IT_number 38
_symmetry_cell_setting 'orthorhombic'
loop_
_space_group_symop_operation_xyz
x,y,z
-x,-y,z
-x,y,z
x,-y,z
x,1/2+y,1/2+z
-x,1/2-y,1/2+z
-x,1/2+y,1/2+z
x,1/2-y,1/2+z
loop_
_atom_site_type_symbol
_atom_site_label
_atom_site_fract_x
_atom_site_fract_y
_atom_site_fract_z
Si Si1 0.394046 0.719349 0.545660
Si Si2 0.945434 0.111397 0.830426
Si Si3 0.341623 0.620536 0.253611
Si Si4 0.185913 0.716425 0.066387
Si Si5 0.054103 0.331216 0.966637
Si Si6 0.553241 0.620457 0.837706
Si Si7 0.135789 0.615923 0.766849
Si Si8 0.762350 0.620164 0.360917
O O1 0.373152 0.648887 0.405552
O O2 0.355626 0.795282 0.619750
O O3 0.416592 0.650060 0.683738
O O4 0.431342 0.798129 0.473131
O O5 0.935527 0.208886 0.941849
O O6 0.932928 0.131251 0.644508
O O7 0.000000 0.106057 0.828908
O O8 0.926590 0.000000 0.884162
O O9 0.348705 0.500000 0.203105
O O10 0.289624 0.631887 0.307011
O O11 0.148952 0.794965 0.141521
O O12 0.206254 0.646188 0.207553
O O13 0.164657 0.647255 0.925479
O O14 0.223739 0.794185 0.992779
O O15 0.084066 0.382478 0.828309
O O16 0.000000 0.347940 0.945873
O O17 0.500000 0.632266 0.802226
O O18 0.561194 0.500000 0.884888
O O19 0.147679 0.500000 0.711267
O O20 0.769087 0.500000 0.413171
#
# Coordination Sequence:
#
# PCOD9357849 Si02
#       8
#     8   8   8   8   8   8   8   8
#     4  10  20  34  52  78 110 140 178 228 272 314
#     4   9  18  34  53  73 101 133 164 204 249 291
#     4  10  20  34  55  81 107 137 172 217 273 324
#     4  10  22  38  56  80 106 136 174 212 252 312
#     4  10  20  35  56  80 105 136 174 211 252 304
#     4  10  20  34  52  74 105 148 191 227 266 313
#     4  11  22  37  56  78 106 138 171 211 256 300
#     4  10  20  37  59  81 107 138 172 212 263 320
#
# _framework density 20.337531999999999
#
# number of rings (size 3 to 8) (size 9 to 14) (size 15 to 20)
#    0.000    2.000    0.000    3.750    0.000    0.750 
#    0.000    5.625    0.000   25.500    0.000    0.000 
#    0.000    0.000    0.000    0.000    0.000    0.000 
#
# Total GULP energy -178793.060645 kJ/mol
# GULP energy per Si atom -5587.283145 kJ/mol
# Density = 2.029124 g / cm^3
# Si number density = 20.337532 Si / 1000 Ang^3
#
#
#
# Elastic Constant Matrix: (Units=GPa)
#
#
# Indices 1 2 3 4 5 6 
#
# 1 63.4729 21.2369 -8.9175 0.0000 0.0000 0.0000
# 2 21.2369 89.2429 -9.5946 0.0000 0.0000 0.0000
# 3 -8.9175 -9.5946 15.7741 0.0000 0.0000 0.0000
# 4 0.0000 0.0000 0.0000 27.1851 0.0000 0.0000
# 5 0.0000 0.0000 0.0000 0.0000 23.9200 0.0000
# 6 0.0000 0.0000 0.0000 0.0000 0.0000 24.6489
#
#
#
# Elastic Compliance Matrix: (Units=1/GPa)
#
#
# Indices 1 2 3 4 5 6 
#
# 1 0.018040 -0.003420 0.008118 0.000000 0.000000 0.000000
# 2 -0.003420 0.012638 0.005754 0.000000 0.000000 0.000000
# 3 0.008118 0.005754 0.071484 0.000000 0.000000 0.000000
# 4 0.000000 0.000000 0.000000 0.036785 0.000000 0.000000
# 5 0.000000 0.000000 0.000000 0.000000 0.041806 0.000000
# 6 0.000000 0.000000 0.000000 0.000000 0.000000 0.040570
#
#
# Mechanical properties :
#
#
# Convention : Reuss Voigt Hill
#
# Bulk Modulus (GPa) = 8.12585 19.32659 13.72622
# Shear Modulus (GPa) = 20.70905 26.20181 23.45543
#
# Velocity S-wave (km/s) = 3.19449 3.59325 3.39972
# Velocity P-wave (km/s) = 4.19649 5.17096 4.70900
#
# Compressibility (1/GPa) = 0.12306409
#
# Stress axis : x y z
#
# Youngs Moduli (GPa) = 55.43370 79.12768 13.98917
#
# Poissons Ratio (x) = 0.27062 -0.11356
# Poissons Ratio (y) = 0.18959 -0.08049
# Poissons Ratio (z) = -0.45001 -0.45526
#
# Static dielectric constant tensor:
#      x y z
#    x 1.705210 0.000000 0.000000 
#    y 0.000000 1.700970 0.000000 
#    z 0.000000 0.000000 1.704170 
# 
# From -- ./inp_files/7047.got.cif
#   From: 2010.05.17/outbox.cif.g08.bks.cpg/sg38_4_cif.got.tgz:7047.got - 2010.06.03 18:07:57.
