data_PCOD9357028
_publ_section_title
;
Structure prediction by ZEFSAII (Michael W. Deem and Ramdas Pophale) SiO2 
 PCOD9357028
Probable space group: A M M 2
;
_chemical_formula_sum "Si O2"
_cell_formula_units_Z 38
_cell_length_a 12.634249
_cell_length_b 12.267946
_cell_length_c 13.985452
_cell_angle_alpha 90.000000
_cell_angle_beta 90.000000
_cell_angle_gamma 90.000000
_cell_volume 2167.693097
_symmetry_space_group_name_H-M "A M M 2"
_symmetry_group_IT_number 38
_symmetry_cell_setting 'orthorhombic'
loop_
_space_group_symop_operation_xyz
x,y,z
-x,-y,z
-x,y,z
x,-y,z
x,1/2+y,1/2+z
-x,1/2-y,1/2+z
-x,1/2+y,1/2+z
x,1/2-y,1/2+z
loop_
_atom_site_type_symbol
_atom_site_label
_atom_site_fract_x
_atom_site_fract_y
_atom_site_fract_z
Si Si1 0.000000 0.626343 0.009530
Si Si2 0.214798 0.206862 0.176345
Si Si3 0.230755 0.368080 0.009384
Si Si4 0.121676 0.000000 0.070589
Si Si5 0.000000 0.500000 0.383226
Si Si6 0.621586 0.131591 0.333747
Si Si7 0.000000 0.806503 0.732309
O O1 0.000000 0.500000 0.983290
O O2 0.000000 0.639813 0.125099
O O3 0.887089 0.670591 0.975998
O O4 0.308203 0.175837 0.247325
O O5 0.107613 0.237408 0.233210
O O6 0.181970 0.105953 0.108502
O O7 0.247032 0.308112 0.109562
O O8 0.227781 0.500000 0.020456
O O9 0.318985 0.339496 0.932198
O O10 0.000000 0.000000 0.110276
O O11 0.099269 0.000000 0.956895
O O12 0.000000 0.395936 0.314662
O O13 0.500000 0.168164 0.331724
O O14 0.622683 0.000000 0.327867
#
# Coordination Sequence:
#
# PCOD9357028 Si02
#       7
#     4   8   8   4   2   8   4
#     4   8  14  30  49  80 116 137 170 211 273 336
#     4  11  21  37  59  83 118 150 188 234 284 344
#     4   9  20  36  57  86 113 142 185 237 283 341
#     4  10  22  38  47  84 125 150 184 225 281 346
#     4  10  22  34  56  86 130 152 182 220 280 360
#     4  10  22  39  58  80 108 150 198 239 287 334
#     4  10  19  32  57  87 117 151 176 219 284 338
#
# _framework density 17.530156999999999
#
# number of rings (size 3 to 8) (size 9 to 14) (size 15 to 20)
#    0.316    1.895    2.632    0.000    4.421    1.684 
#    0.000    1.053    0.000    0.000    0.000    0.000 
#    0.000    0.000    0.000    0.000    0.000    0.000 
#
# Total GULP energy -105914.719714 kJ/mol
# GULP energy per Si atom -5574.458932 kJ/mol
# Density = 1.749026 g / cm^3
# Si number density = 17.530157 Si / 1000 Ang^3
#
#
#
# Elastic Constant Matrix: (Units=GPa)
#
#
# Indices 1 2 3 4 5 6 
#
# 1 161.8268 31.6892 76.0905 0.0000 0.0000 0.0000
# 2 31.6892 49.5832 35.8780 0.0000 0.0000 0.0000
# 3 76.0905 35.8780 98.6257 0.0000 0.0000 0.0000
# 4 0.0000 0.0000 0.0000 27.1487 0.0000 0.0000
# 5 0.0000 0.0000 0.0000 0.0000 12.6127 0.0000
# 6 0.0000 0.0000 0.0000 0.0000 0.0000 20.6825
#
#
#
# Elastic Compliance Matrix: (Units=1/GPa)
#
#
# Indices 1 2 3 4 5 6 
#
# 1 0.009739 -0.001069 -0.007125 0.000000 0.000000 0.000000
# 2 -0.001069 0.027491 -0.009176 0.000000 0.000000 0.000000
# 3 -0.007125 -0.009176 0.018974 0.000000 0.000000 0.000000
# 4 0.000000 0.000000 0.000000 0.036834 0.000000 0.000000
# 5 0.000000 0.000000 0.000000 0.000000 0.079285 0.000000
# 6 0.000000 0.000000 0.000000 0.000000 0.000000 0.048350
#
#
# Mechanical properties :
#
#
# Convention : Reuss Voigt Hill
#
# Bulk Modulus (GPa) = 46.58802 66.37234 56.48018
# Shear Modulus (GPa) = 19.04276 23.18067 21.11171
#
# Velocity S-wave (km/s) = 3.29946 3.64033 3.47408
# Velocity P-wave (km/s) = 6.41474 7.45744 6.95565
#
# Compressibility (1/GPa) = 0.02146474
#
# Stress axis : x y z
#
# Youngs Moduli (GPa) = 102.68253 36.37563 52.70313
#
# Poissons Ratio (x) = 0.03888 0.37550
# Poissons Ratio (y) = 0.10974 0.48361
# Poissons Ratio (z) = 0.73159 0.33379
#
# Static dielectric constant tensor:
#      x y z
#    x 1.599410 0.000000 0.000000 
#    y 0.000000 1.608290 0.000000 
#    z 0.000000 0.000000 1.590930 
# 
# From -- ./inp_files/13561.got.cif
#   From: 2010.05.17/outbox.cif.g08.bks.cpg/sg38_7_cif.got.tgz:13561.got - 2010.06.03 18:07:57.
