data_PCOD9357605
_publ_section_title
;
Structure prediction by ZEFSAII (Michael W. Deem and Ramdas Pophale) SiO2 
 PCOD9357605
Probable space group: A M M 2
;
_chemical_formula_sum "Si O2"
_cell_formula_units_Z 56
_cell_length_a 8.601907
_cell_length_b 17.161139
_cell_length_c 20.160245
_cell_angle_alpha 90.000000
_cell_angle_beta 90.000000
_cell_angle_gamma 90.000000
_cell_volume 2976.025564
_symmetry_space_group_name_H-M "A M M 2"
_symmetry_group_IT_number 38
_symmetry_cell_setting 'orthorhombic'
loop_
_space_group_symop_operation_xyz
x,y,z
-x,-y,z
-x,y,z
x,-y,z
x,1/2+y,1/2+z
-x,1/2-y,1/2+z
-x,1/2+y,1/2+z
x,1/2-y,1/2+z
loop_
_atom_site_type_symbol
_atom_site_label
_atom_site_fract_x
_atom_site_fract_y
_atom_site_fract_z
Si Si1 0.684741 0.085886 0.414910
Si Si2 0.815280 0.000000 0.871948
Si Si3 0.314871 0.343322 0.305953
Si Si4 0.313186 0.000000 0.022978
Si Si5 0.312240 0.170853 0.051701
Si Si6 0.818075 0.747560 0.924490
Si Si7 0.312193 0.765266 0.190095
Si Si8 0.184879 0.413949 0.766614
O O1 0.500000 0.095142 0.422515
O O2 0.771620 0.160014 0.443960
O O3 0.729447 0.087171 0.337304
O O4 0.729314 0.000000 0.440601
O O5 0.760989 0.077257 0.832542
O O6 0.748530 0.000000 0.947129
O O7 0.000000 0.000000 0.876956
O O8 0.500000 0.354827 0.304790
O O9 0.273433 0.276454 0.359517
O O10 0.263643 0.309106 0.234377
O O11 0.269204 0.920170 0.060105
O O12 0.500000 0.000000 0.017855
O O13 0.500000 0.175427 0.044079
O O14 0.231800 0.197836 0.984617
O O15 0.267251 0.225756 0.113240
O O16 0.000000 0.753208 0.910509
O O17 0.500000 0.767947 0.193109
O O18 0.246668 0.842929 0.224072
O O19 0.212708 0.500000 0.736765
O O20 0.000000 0.405659 0.777945
#
# Coordination Sequence:
#
# PCOD9357605 Si02
#       8
#     8   4   8   4   8   8   8   8
#     4  10  20  35  57  83 110 146 192 239 284 341
#     4  12  24  38  62  94 122 153 202 259 312 365
#     4  11  22  39  62  89 120 156 201 251 303 360
#     4  10  20  36  60  88 124 165 198 247 310 365
#     4  10  22  39  59  86 120 159 204 247 298 365
#     4  12  23  36  58  88 119 154 193 245 303 359
#     4  10  22  38  60  86 114 156 203 245 291 355
#     4  10  20  32  49  79 117 152 184 226 277 329
#
# _framework density 18.817042000000001
#
# number of rings (size 3 to 8) (size 9 to 14) (size 15 to 20)
#    0.000    1.429    2.857    3.214    1.000    2.857 
#    0.000    0.000    1.571    0.000    0.000    0.000 
#    0.000    0.000    0.000    0.000    0.000    0.000 
#
# Total GULP energy -156311.985754 kJ/mol
# GULP energy per Si atom -5582.570920 kJ/mol
# Density = 1.877421 g / cm^3
# Si number density = 18.817042 Si / 1000 Ang^3
#
#
#
# Elastic Constant Matrix: (Units=GPa)
#
#
# Indices 1 2 3 4 5 6 
#
# 1 7.1870 6.3009 7.9274 0.0000 0.0000 0.0000
# 2 6.3009 84.7761 13.8447 0.0000 0.0000 0.0000
# 3 7.9274 13.8447 56.9920 0.0000 0.0000 0.0000
# 4 0.0000 0.0000 0.0000 29.7165 0.0000 0.0000
# 5 0.0000 0.0000 0.0000 0.0000 -89.3435 0.0000
# 6 0.0000 0.0000 0.0000 0.0000 0.0000 21.5485
#
#
#
# Elastic Compliance Matrix: (Units=1/GPa)
#
#
# Indices 1 2 3 4 5 6 
#
# 1 0.170964 -0.009188 -0.021549 0.000000 0.000000 0.000000
# 2 -0.009188 0.012777 -0.001826 0.000000 0.000000 0.000000
# 3 -0.021549 -0.001826 0.020987 0.000000 0.000000 0.000000
# 4 0.000000 0.000000 0.000000 0.033651 0.000000 0.000000
# 5 0.000000 0.000000 0.000000 0.000000 -0.011193 0.000000
# 6 0.000000 0.000000 0.000000 0.000000 0.000000 0.046407
#
#
# Mechanical properties :
#
#
# Convention : Reuss Voigt Hill
#
# Bulk Modulus (GPa) = 7.16312 22.78900 14.97606
# Shear Modulus (GPa) = 12.97848 0.44309 6.71078
#
# Velocity S-wave (km/s) = 2.62910 0.48578 1.89052
# Velocity P-wave (km/s) = 3.60988 3.52871 3.56952
#
# Compressibility (1/GPa) = 0.13960394
#
# Stress axis : x y z
#
# Youngs Moduli (GPa) = 5.84917 78.26670 47.64807
#
# Poissons Ratio (x) = 0.71910 1.02675
# Poissons Ratio (y) = 0.05374 0.08700
# Poissons Ratio (z) = 0.12604 0.14290
#
# Static dielectric constant tensor:
#      x y z
#    x 1.629840 0.000000 0.000000 
#    y 0.000000 1.680240 0.000000 
#    z 0.000000 0.000000 1.639680 
# 
# From -- ./inp_files/19890.got.cif
#   From: 2010.05.17/outbox.cif.g08.bks.cpg/sg38_10_cif.got.tgz:19890.got - 2010.06.03 18:07:57.
