data_PCOD9357118
_publ_section_title
;
Structure prediction by ZEFSAII (Michael W. Deem and Ramdas Pophale) SiO2 
 PCOD9357118
Probable space group: A M M 2
;
_chemical_formula_sum "Si O2"
_cell_formula_units_Z 48
_cell_length_a 7.740056
_cell_length_b 15.111508
_cell_length_c 20.866853
_cell_angle_alpha 90.000000
_cell_angle_beta 90.000000
_cell_angle_gamma 90.000000
_cell_volume 2440.668887
_symmetry_space_group_name_H-M "A M M 2"
_symmetry_group_IT_number 38
_symmetry_cell_setting 'orthorhombic'
loop_
_space_group_symop_operation_xyz
x,y,z
-x,-y,z
-x,y,z
x,-y,z
x,1/2+y,1/2+z
-x,1/2-y,1/2+z
-x,1/2+y,1/2+z
x,1/2-y,1/2+z
loop_
_atom_site_type_symbol
_atom_site_label
_atom_site_fract_x
_atom_site_fract_y
_atom_site_fract_z
Si Si1 0.707800 0.000000 0.864990
Si Si2 0.288931 0.500000 0.215746
Si Si3 0.296746 0.500000 0.774580
Si Si4 0.708457 0.307826 0.177635
Si Si5 0.796966 0.691218 0.418080
Si Si6 0.792794 0.816974 0.060873
Si Si7 0.703905 0.307319 0.797549
Si Si8 0.789487 0.500000 0.625081
O O1 0.761589 0.000000 0.790506
O O2 0.771486 0.089075 0.898442
O O3 0.500000 0.000000 0.866544
O O4 0.500000 0.500000 0.214572
O O5 0.229755 0.591251 0.183736
O O6 0.500000 0.500000 0.791803
O O7 0.222136 0.593336 0.799090
O O8 0.277304 0.500000 0.697667
O O9 0.500000 0.310696 0.182298
O O10 0.753981 0.258369 0.112441
O O11 0.774912 0.250279 0.238137
O O12 0.725156 0.702908 0.489766
O O13 0.720755 0.753206 0.362956
O O14 0.000000 0.710814 0.418957
O O15 0.731199 0.911263 0.088723
O O16 0.000000 0.825230 0.055330
O O17 0.500000 0.316968 0.783938
O O18 0.000000 0.500000 0.627736
#
# Coordination Sequence:
#
# PCOD9357118 Si02
#       8
#     4   4   4   8   8   8   8   4
#     4  11  20  36  60  86 118 148 182 233 287 338
#     4   9  18  34  55  83 113 139 173 230 285 324
#     4  10  20  35  56  85 115 139 180 238 285 329
#     4  10  19  35  59  82 109 144 186 231 278 335
#     4  11  23  38  56  82 118 154 190 231 280 340
#     4  10  22  38  54  79 116 150 183 229 279 329
#     4  10  20  36  58  83 112 146 187 237 285 334
#     4  10  19  33  55  80 110 144 177 221 281 339
#
# _framework density 19.666739
#
# number of rings (size 3 to 8) (size 9 to 14) (size 15 to 20)
#    0.000    1.833    3.333    1.250    0.000    4.000 
#    0.000    2.083    0.000    5.000    0.000    0.000 
#    0.000    0.000    0.000    0.000    0.000    0.000 
#
# Total GULP energy -134026.661680 kJ/mol
# GULP energy per Si atom -5584.444237 kJ/mol
# Density = 1.962198 g / cm^3
# Si number density = 19.666739 Si / 1000 Ang^3
#
#
#
# Elastic Constant Matrix: (Units=GPa)
#
#
# Indices 1 2 3 4 5 6 
#
# 1 20.4237 -6.9784 -21.5005 0.0000 0.0000 0.0000
# 2 -6.9784 184.9553 93.6030 0.0000 0.0000 0.0000
# 3 -21.5005 93.6030 144.0038 0.0000 0.0000 0.0000
# 4 0.0000 0.0000 0.0000 27.7780 0.0000 0.0000
# 5 0.0000 0.0000 0.0000 0.0000 23.9029 0.0000
# 6 0.0000 0.0000 0.0000 0.0000 0.0000 16.4561
#
#
#
# Elastic Compliance Matrix: (Units=1/GPa)
#
#
# Indices 1 2 3 4 5 6 
#
# 1 0.059456 -0.003352 0.011056 0.000000 0.000000 0.000000
# 2 -0.003352 0.008246 -0.005860 0.000000 0.000000 0.000000
# 3 0.011056 -0.005860 0.012404 0.000000 0.000000 0.000000
# 4 0.000000 0.000000 0.000000 0.036000 0.000000 0.000000
# 5 0.000000 0.000000 0.000000 0.000000 0.041836 0.000000
# 6 0.000000 0.000000 0.000000 0.000000 0.000000 0.060768
#
#
# Mechanical properties :
#
#
# Convention : Reuss Voigt Hill
#
# Bulk Modulus (GPa) = 11.93407 53.29232 32.61320
# Shear Modulus (GPa) = 20.57999 32.57797 26.57898
#
# Velocity S-wave (km/s) = 3.23838 4.07443 3.68022
# Velocity P-wave (km/s) = 4.47930 7.02077 5.88877
#
# Compressibility (1/GPa) = 0.08379369
#
# Stress axis : x y z
#
# Youngs Moduli (GPa) = 16.81909 121.26874 80.61713
#
# Poissons Ratio (x) = 0.40648 -0.89130
# Poissons Ratio (y) = 0.05638 0.47246
# Poissons Ratio (z) = -0.18595 0.71069
#
# Static dielectric constant tensor:
#      x y z
#    x 1.721930 0.000000 0.000000 
#    y 0.000000 1.682650 0.000000 
#    z 0.000000 0.000000 1.662200 
# 
# From -- ./inp_files/16736.got.cif
#   From: 2010.05.17/outbox.cif.g08.bks.cpg/sg38_9_cif.got.tgz:16736.got - 2010.06.03 18:07:57.
