data_PCOD9357155
_publ_section_title
;
Structure prediction by ZEFSAII (Michael W. Deem and Ramdas Pophale) SiO2 
 PCOD9357155
Probable space group: A M M 2
;
_chemical_formula_sum "Si O2"
_cell_formula_units_Z 58
_cell_length_a 7.389731
_cell_length_b 22.580360
_cell_length_c 15.459382
_cell_angle_alpha 90.000000
_cell_angle_beta 90.000000
_cell_angle_gamma 90.000000
_cell_volume 2579.595555
_symmetry_space_group_name_H-M "A M M 2"
_symmetry_group_IT_number 38
_symmetry_cell_setting 'orthorhombic'
loop_
_space_group_symop_operation_xyz
x,y,z
-x,-y,z
-x,y,z
x,-y,z
x,1/2+y,1/2+z
-x,1/2-y,1/2+z
-x,1/2+y,1/2+z
x,1/2-y,1/2+z
loop_
_atom_site_type_symbol
_atom_site_label
_atom_site_fract_x
_atom_site_fract_y
_atom_site_fract_z
Si Si1 0.720525 0.759532 0.282150
Si Si2 0.719088 0.267748 0.091001
Si Si3 0.000000 0.500000 0.767811
Si Si4 0.783234 0.066627 0.863535
Si Si5 0.714673 0.315315 0.447722
Si Si6 0.207845 0.888763 0.501398
Si Si7 0.293353 0.897101 0.304913
Si Si8 0.206245 0.429667 0.180143
O O1 0.500000 0.758225 0.283543
O O2 0.779604 0.731928 0.190327
O O3 0.785720 0.722462 0.365506
O O4 0.768410 0.829204 0.286327
O O5 0.500000 0.272123 0.093246
O O6 0.786092 0.320433 0.029596
O O7 0.776790 0.209103 0.039810
O O8 0.158501 0.447394 0.771963
O O9 0.747072 0.115689 0.934045
O O10 0.710669 0.090566 0.770778
O O11 0.000000 0.063036 0.852928
O O12 0.717556 0.000000 0.881238
O O13 0.500000 0.305821 0.446481
O O14 0.296446 0.900600 0.409942
O O15 0.291073 0.917814 0.587484
O O16 0.000000 0.909734 0.491592
O O17 0.500000 0.904026 0.272799
O O18 0.196688 0.500000 0.191142
O O19 0.000000 0.406047 0.173912
#
# Coordination Sequence:
#
# PCOD9357155 Si02
#       8
#     8   8   2   8   8   8   8   8
#     4   9  19  38  62  87 119 157 201 257 314 371
#     4  10  20  36  58  83 116 156 198 250 313 374
#     4  12  26  44  64  94 120 164 222 268 316 386
#     4   9  18  34  53  76 110 153 192 233 295 359
#     4  10  19  33  56  84 112 148 192 242 298 357
#     4  11  20  32  54  88 124 156 200 250 303 373
#     4  11  23  42  65  89 125 169 211 264 324 377
#     4   8  16  29  48  73 109 150 185 228 283 349
#
# _framework density 22.484144000000001
#
# number of rings (size 3 to 8) (size 9 to 14) (size 15 to 20)
#    0.000    2.207    2.069    2.276    0.966    0.828 
#    2.483    0.690    1.517    1.655    0.000    0.000 
#    0.000    0.000    0.000    0.000    0.000    0.000 
#
# Total GULP energy -161601.258063 kJ/mol
# GULP energy per Si atom -5572.457175 kJ/mol
# Density = 2.243297 g / cm^3
# Si number density = 22.484144 Si / 1000 Ang^3
#
#
#
# Elastic Constant Matrix: (Units=GPa)
#
#
# Indices 1 2 3 4 5 6 
#
# 1 97.6570 5.9575 -2.0793 0.0000 0.0000 0.0000
# 2 5.9575 84.0144 1.3848 0.0000 0.0000 0.0000
# 3 -2.0793 1.3848 45.3455 0.0000 0.0000 0.0000
# 4 0.0000 0.0000 0.0000 36.4564 0.0000 0.0000
# 5 0.0000 0.0000 0.0000 0.0000 5.5879 0.0000
# 6 0.0000 0.0000 0.0000 0.0000 0.0000 327.9681
#
#
#
# Elastic Compliance Matrix: (Units=1/GPa)
#
#
# Indices 1 2 3 4 5 6 
#
# 1 0.010295 -0.000738 0.000495 0.000000 0.000000 0.000000
# 2 -0.000738 0.011962 -0.000399 0.000000 0.000000 0.000000
# 3 0.000495 -0.000399 0.022088 0.000000 0.000000 0.000000
# 4 0.000000 0.000000 0.000000 0.027430 0.000000 0.000000
# 5 0.000000 0.000000 0.000000 0.000000 0.178958 0.000000
# 6 0.000000 0.000000 0.000000 0.000000 0.000000 0.003049
#
#
# Mechanical properties :
#
#
# Convention : Reuss Voigt Hill
#
# Bulk Modulus (GPa) = 23.22370 26.39366 24.80868
# Shear Modulus (GPa) = 18.55831 88.78606 53.67219
#
# Velocity S-wave (km/s) = 2.87609 6.29079 4.89111
# Velocity P-wave (km/s) = 4.62391 8.03303 6.55401
#
# Compressibility (1/GPa) = 0.04305946
#
# Stress axis : x y z
#
# Youngs Moduli (GPa) = 97.12990 83.60052 45.27396
#
# Poissons Ratio (x) = 0.06172 -0.02239
# Poissons Ratio (y) = 0.07170 0.01807
# Poissons Ratio (z) = -0.04805 0.03337
#
# Static dielectric constant tensor:
#      x y z
#    x 1.930730 0.000000 0.000000 
#    y 0.000000 1.887610 0.000000 
#    z 0.000000 0.000000 1.848040 
# 
# From -- ./inp_files/12638.got.cif
#   From: 2010.05.17/outbox.cif.g08.bks.cpg/sg38_7_cif.got.tgz:12638.got - 2010.06.03 18:07:57.
