data_PCOD9357421
_publ_section_title
;
Structure prediction by ZEFSAII (Michael W. Deem and Ramdas Pophale) SiO2 
 PCOD9357421
Probable space group: A M M 2
;
_chemical_formula_sum "Si O2"
_cell_formula_units_Z 64
_cell_length_a 8.696176
_cell_length_b 25.701050
_cell_length_c 15.311647
_cell_angle_alpha 90.000000
_cell_angle_beta 90.000000
_cell_angle_gamma 90.000000
_cell_volume 3422.166183
_symmetry_space_group_name_H-M "A M M 2"
_symmetry_group_IT_number 38
_symmetry_cell_setting 'orthorhombic'
loop_
_space_group_symop_operation_xyz
x,y,z
-x,-y,z
-x,y,z
x,-y,z
x,1/2+y,1/2+z
-x,1/2-y,1/2+z
-x,1/2+y,1/2+z
x,1/2-y,1/2+z
loop_
_atom_site_type_symbol
_atom_site_label
_atom_site_fract_x
_atom_site_fract_y
_atom_site_fract_z
Si Si1 0.684832 0.648988 0.118140
Si Si2 0.686280 0.635345 0.750007
Si Si3 0.315848 0.236733 0.148440
Si Si4 0.185406 0.559090 0.238737
Si Si5 0.817542 0.835736 0.426307
Si Si6 0.682301 0.775974 0.942081
Si Si7 0.183764 0.113481 0.918235
Si Si8 0.314436 0.439509 0.591951
O O1 0.500000 0.649962 0.117105
O O2 0.740627 0.704189 0.159600
O O3 0.744312 0.600426 0.172411
O O4 0.743666 0.648367 0.018684
O O5 0.500000 0.636538 0.756471
O O6 0.742187 0.690344 0.708828
O O7 0.756400 0.630474 0.845685
O O8 0.728086 0.590769 0.680607
O O9 0.500000 0.238066 0.161373
O O10 0.290849 0.222276 0.046891
O O11 0.235912 0.500000 0.222396
O O12 0.225433 0.576685 0.337018
O O13 0.000000 0.560908 0.231586
O O14 0.763707 0.776204 0.409655
O O15 0.000000 0.838122 0.432751
O O16 0.500000 0.771216 0.926881
O O17 0.744778 0.829535 0.904009
O O18 0.000000 0.117997 0.922437
O O19 0.244892 0.089331 0.008237
O O20 0.500000 0.436603 0.584693
O O21 0.269156 0.500000 0.593731
#
# Coordination Sequence:
#
# PCOD9357421 Si02
#       8
#     8   8   8   8   8   8   8   8
#     4  10  21  39  62  88 113 149 200 249 297 348
#     4  10  19  36  58  84 118 157 199 246 294 343
#     4   8  16  32  55  82 111 146 187 234 288 339
#     4  10  23  42  60  82 117 158 197 242 298 355
#     4  11  23  38  57  87 122 156 194 241 299 362
#     4  10  19  36  58  84 118 157 196 237 287 344
#     4  11  22  36  57  88 123 159 195 236 292 357
#     4  10  21  38  61  87 117 157 205 251 292 340
#
# _framework density 18.701605000000001
#
# number of rings (size 3 to 8) (size 9 to 14) (size 15 to 20)
#    0.000    2.000    1.250    3.375    1.750    2.500 
#    0.000    1.250    0.000    2.250    0.000    0.000 
#    0.000    0.000    0.000    0.000    0.000    0.000 
#
# Total GULP energy -178720.665144 kJ/mol
# GULP energy per Si atom -5585.020786 kJ/mol
# Density = 1.865904 g / cm^3
# Si number density = 18.701605 Si / 1000 Ang^3
#
#
#
# Elastic Constant Matrix: (Units=GPa)
#
#
# Indices 1 2 3 4 5 6 
#
# 1 33.6921 31.0634 21.2950 0.0000 0.0000 0.0000
# 2 31.0634 111.0502 44.2375 0.0000 0.0000 0.0000
# 3 21.2950 44.2375 70.5592 0.0000 0.0000 0.0000
# 4 0.0000 0.0000 0.0000 29.4006 0.0000 0.0000
# 5 0.0000 0.0000 0.0000 0.0000 18.5949 0.0000
# 6 0.0000 0.0000 0.0000 0.0000 0.0000 24.5229
#
#
#
# Elastic Compliance Matrix: (Units=1/GPa)
#
#
# Indices 1 2 3 4 5 6 
#
# 1 0.042554 -0.009047 -0.007171 0.000000 0.000000 0.000000
# 2 -0.009047 0.013926 -0.006001 0.000000 0.000000 0.000000
# 3 -0.007171 -0.006001 0.020099 0.000000 0.000000 0.000000
# 4 0.000000 0.000000 0.000000 0.034013 0.000000 0.000000
# 5 0.000000 0.000000 0.000000 0.000000 0.053778 0.000000
# 6 0.000000 0.000000 0.000000 0.000000 0.000000 0.040778
#
#
# Mechanical properties :
#
#
# Convention : Reuss Voigt Hill
#
# Bulk Modulus (GPa) = 31.11200 45.38815 38.25008
# Shear Modulus (GPa) = 19.20872 22.41739 20.81305
#
# Velocity S-wave (km/s) = 3.20834 3.46596 3.33964
# Velocity P-wave (km/s) = 5.51332 6.35134 5.94711
#
# Compressibility (1/GPa) = 0.03214193
#
# Stress axis : x y z
#
# Youngs Moduli (GPa) = 23.49966 71.80871 49.75419
#
# Poissons Ratio (x) = 0.64963 0.35679
# Poissons Ratio (y) = 0.21259 0.29855
# Poissons Ratio (z) = 0.16852 0.43089
#
# Static dielectric constant tensor:
#      x y z
#    x 1.645400 0.000000 0.000000 
#    y 0.000000 1.640780 0.000000 
#    z 0.000000 0.000000 1.640860 
# 
# From -- ./inp_files/12812.got.cif
#   From: 2010.05.17/outbox.cif.g08.bks.cpg/sg38_7_cif.got.tgz:12812.got - 2010.06.03 18:07:57.
