data_PCOD9357947
_publ_section_title
;
Structure prediction by ZEFSAII (Michael W. Deem and Ramdas Pophale) SiO2 
 PCOD9357947
Probable space group: A M M 2
;
_chemical_formula_sum "Si O2"
_cell_formula_units_Z 64
_cell_length_a 8.778011
_cell_length_b 19.999673
_cell_length_c 21.228847
_cell_angle_alpha 90.000000
_cell_angle_beta 90.000000
_cell_angle_gamma 90.000000
_cell_volume 3726.880114
_symmetry_space_group_name_H-M "A M M 2"
_symmetry_group_IT_number 38
_symmetry_cell_setting 'orthorhombic'
loop_
_space_group_symop_operation_xyz
x,y,z
-x,-y,z
-x,y,z
x,-y,z
x,1/2+y,1/2+z
-x,1/2-y,1/2+z
-x,1/2+y,1/2+z
x,1/2-y,1/2+z
loop_
_atom_site_type_symbol
_atom_site_label
_atom_site_fract_x
_atom_site_fract_y
_atom_site_fract_z
Si Si1 0.683941 0.285543 0.762400
Si Si2 0.317358 0.706173 0.136307
Si Si3 0.818864 0.076394 0.582913
Si Si4 0.682501 0.575580 0.942756
Si Si5 0.683157 0.424102 0.560958
Si Si6 0.818006 0.290462 0.893300
Si Si7 0.685002 0.426189 0.709361
Si Si8 0.817695 0.211137 0.019196
O O1 0.500000 0.286051 0.767212
O O2 0.725225 0.240522 0.702278
O O3 0.754071 0.262624 0.827975
O O4 0.736696 0.361511 0.747366
O O5 0.500000 0.704607 0.132341
O O6 0.250356 0.632309 0.127833
O O7 0.255084 0.750033 0.078253
O O8 0.742748 0.083808 0.514148
O O9 0.000000 0.086553 0.576040
O O10 0.792107 0.000000 0.603834
O O11 0.500000 0.581107 0.942013
O O12 0.723207 0.500000 0.922179
O O13 0.753489 0.634869 0.902587
O O14 0.500000 0.416597 0.556404
O O15 0.722176 0.500000 0.541806
O O16 0.722368 0.417490 0.635345
O O17 0.763587 0.365301 0.523291
O O18 0.000000 0.292547 0.891849
O O19 0.770989 0.247247 0.954327
O O20 0.500000 0.426791 0.712708
O O21 0.738027 0.500000 0.729955
O O22 0.000000 0.215116 0.024280
#
# Coordination Sequence:
#
# PCOD9357947 Si02
#       8
#     8   8   8   8   8   8   8   8
#     4  10  21  36  54  79 108 143 185 226 270 320
#     4  11  21  35  58  84 109 141 184 230 276 325
#     4  10  20  34  54  82 114 144 177 223 278 331
#     4  10  20  34  54  79 107 145 189 227 267 320
#     4   9  17  32  56  83 109 138 174 221 273 321
#     4  11  24  38  52  76 111 150 185 224 276 327
#     4   8  14  28  50  75 105 138 172 211 258 314
#     4  11  22  35  54  80 111 146 182 223 273 324
#
# _framework density 17.172540999999999
#
# number of rings (size 3 to 8) (size 9 to 14) (size 15 to 20)
#    0.000    2.000    2.500    2.625    0.000    4.750 
#    0.000    1.250    0.000    0.750    0.000    0.000 
#    0.000    0.000    0.000    0.000    0.000    0.000 
#
# Total GULP energy -178615.465237 kJ/mol
# GULP energy per Si atom -5581.733289 kJ/mol
# Density = 1.713346 g / cm^3
# Si number density = 17.172541 Si / 1000 Ang^3
#
#
#
# Elastic Constant Matrix: (Units=GPa)
#
#
# Indices 1 2 3 4 5 6 
#
# 1 31.9005 32.0636 36.2083 0.0000 0.0000 0.0000
# 2 32.0636 99.6904 59.3668 0.0000 0.0000 0.0000
# 3 36.2083 59.3668 113.7048 0.0000 0.0000 0.0000
# 4 0.0000 0.0000 0.0000 22.6242 0.0000 0.0000
# 5 0.0000 0.0000 0.0000 0.0000 33.7071 0.0000
# 6 0.0000 0.0000 0.0000 0.0000 0.0000 26.5688
#
#
#
# Elastic Compliance Matrix: (Units=1/GPa)
#
#
# Indices 1 2 3 4 5 6 
#
# 1 0.056023 -0.010732 -0.012237 0.000000 0.000000 0.000000
# 2 -0.010732 0.016613 -0.005256 0.000000 0.000000 0.000000
# 3 -0.012237 -0.005256 0.015436 0.000000 0.000000 0.000000
# 4 0.000000 0.000000 0.000000 0.044201 0.000000 0.000000
# 5 0.000000 0.000000 0.000000 0.000000 0.029667 0.000000
# 6 0.000000 0.000000 0.000000 0.000000 0.000000 0.037638
#
#
# Mechanical properties :
#
#
# Convention : Reuss Voigt Hill
#
# Bulk Modulus (GPa) = 31.62346 55.61924 43.62135
# Shear Modulus (GPa) = 18.75684 24.42380 21.59032
#
# Velocity S-wave (km/s) = 3.30852 3.77538 3.54963
# Velocity P-wave (km/s) = 5.74893 7.17380 6.50052
#
# Compressibility (1/GPa) = 0.03162209
#
# Stress axis : x y z
#
# Youngs Moduli (GPa) = 17.84967 60.19389 64.78381
#
# Poissons Ratio (x) = 0.64598 0.79276
# Poissons Ratio (y) = 0.19156 0.34053
# Poissons Ratio (z) = 0.21843 0.31641
#
# Static dielectric constant tensor:
#      x y z
#    x 1.572790 0.000000 0.000000 
#    y 0.000000 1.598830 0.000000 
#    z 0.000000 0.000000 1.568500 
# 
# From -- ./inp_files/17205.got.cif
#   From: 2010.05.17/outbox.cif.g08.bks.cpg/sg38_9_cif.got.tgz:17205.got - 2010.06.03 18:07:57.
