data_PCOD9357873
_publ_section_title
;
Structure prediction by ZEFSAII (Michael W. Deem and Ramdas Pophale) SiO2 
 PCOD9357873
Probable space group: A M M 2
;
_chemical_formula_sum "Si O2"
_cell_formula_units_Z 40
_cell_length_a 13.255969
_cell_length_b 7.524842
_cell_length_c 18.970124
_cell_angle_alpha 90.000000
_cell_angle_beta 90.000000
_cell_angle_gamma 90.000000
_cell_volume 1892.252270
_symmetry_space_group_name_H-M "A M M 2"
_symmetry_group_IT_number 38
_symmetry_cell_setting 'orthorhombic'
loop_
_space_group_symop_operation_xyz
x,y,z
-x,-y,z
-x,y,z
x,-y,z
x,1/2+y,1/2+z
-x,1/2-y,1/2+z
-x,1/2+y,1/2+z
x,1/2-y,1/2+z
loop_
_atom_site_type_symbol
_atom_site_label
_atom_site_fract_x
_atom_site_fract_y
_atom_site_fract_z
Si Si1 0.500000 0.282633 0.820750
Si Si2 0.112854 0.712479 0.825229
Si Si3 0.886288 0.213837 0.661538
Si Si4 0.500000 0.211653 0.159757
Si Si5 0.693957 0.282028 0.910663
Si Si6 0.699527 0.711162 0.070754
O O1 0.500000 0.500000 0.819691
O O2 0.500000 0.220131 0.739994
O O3 0.599416 0.226652 0.863146
O O4 0.108762 0.500000 0.834641
O O5 0.136863 0.745637 0.743170
O O6 0.201749 0.778255 0.875145
O O7 0.000000 0.783108 0.839072
O O8 0.798128 0.282819 0.611049
O O9 0.000000 0.279539 0.646366
O O10 0.888811 0.000000 0.655177
O O11 0.400001 0.263904 0.117372
O O12 0.500000 0.000000 0.164076
O O13 0.693209 0.500000 0.910338
O O14 0.685620 0.221186 0.991342
O O15 0.715101 0.500000 0.063890
#
# Coordination Sequence:
#
# PCOD9357873 Si02
#       6
#     4   8   8   4   8   8
#     4   9  17  29  47  69  92 121 156 196 242 289
#     4   9  17  30  50  74  98 128 168 209 245 286
#     4   9  18  32  50  74 104 136 168 203 246 296
#     4  11  22  35  53  75 100 129 164 208 254 301
#     4   9  17  30  49  72  96 123 159 202 245 289
#     4  10  20  34  53  75 101 133 167 205 250 299
#
# _framework density 21.138829999999999
#
# number of rings (size 3 to 8) (size 9 to 14) (size 15 to 20)
#    0.000    2.600    0.000    2.100    0.000    4.800 
#    0.000    5.000    0.000    7.200    0.000    5.600 
#    0.000    0.000    0.000    0.000    0.000    0.000 
#
# Total GULP energy -111695.119537 kJ/mol
# GULP energy per Si atom -5584.755977 kJ/mol
# Density = 2.109072 g / cm^3
# Si number density = 21.138830 Si / 1000 Ang^3
#
#
#
# Elastic Constant Matrix: (Units=GPa)
#
#
# Indices 1 2 3 4 5 6 
#
# 1 185.3633 0.1419 153.1777 0.0000 0.0000 0.0000
# 2 0.1419 52.7794 -0.2463 0.0000 0.0000 0.0000
# 3 153.1777 -0.2463 215.4959 0.0000 0.0000 0.0000
# 4 0.0000 0.0000 0.0000 27.4168 0.0000 0.0000
# 5 0.0000 0.0000 0.0000 0.0000 -42.4206 0.0000
# 6 0.0000 0.0000 0.0000 0.0000 0.0000 -23.0553
#
#
#
# Elastic Compliance Matrix: (Units=1/GPa)
#
#
# Indices 1 2 3 4 5 6 
#
# 1 0.013075 -0.000079 -0.009294 0.000000 0.000000 0.000000
# 2 -0.000079 0.018947 0.000077 0.000000 0.000000 0.000000
# 3 -0.009294 0.000077 0.011247 0.000000 0.000000 0.000000
# 4 0.000000 0.000000 0.000000 0.036474 0.000000 0.000000
# 5 0.000000 0.000000 0.000000 0.000000 -0.023573 0.000000
# 6 0.000000 0.000000 0.000000 0.000000 0.000000 -0.043374
#
#
# Mechanical properties :
#
#
# Convention : Reuss Voigt Hill
#
# Bulk Modulus (GPa) = 40.52003 84.42057 62.47030
# Shear Modulus (GPa) = 126.22175 12.42589 69.32382
#
# Velocity S-wave (km/s) = 7.73566 2.42714 5.73286
# Velocity P-wave (km/s) = 9.94975 6.91936 8.56957
#
# Compressibility (1/GPa) = 0.02467915
#
# Stress axis : x y z
#
# Youngs Moduli (GPa) = 76.48042 52.77778 88.91276
#
# Poissons Ratio (x) = 0.00414 0.82637
# Poissons Ratio (y) = 0.00601 -0.00689
# Poissons Ratio (z) = 0.71082 -0.00409
#
# Static dielectric constant tensor:
#      x y z
#    x 1.731370 0.000000 0.000000 
#    y 0.000000 1.804450 0.000000 
#    z 0.000000 0.000000 1.718790 
# 
# From -- ./inp_files/14287.got.cif
#   From: 2010.05.17/outbox.cif.g08.bks.cpg/sg38_8_cif.got.tgz:14287.got - 2010.06.03 18:07:57.
