data_PCOD9357325
_publ_section_title
;
Structure prediction by ZEFSAII (Michael W. Deem and Ramdas Pophale) SiO2 
 PCOD9357325
Probable space group: A M M 2
;
_chemical_formula_sum "Si O2"
_cell_formula_units_Z 64
_cell_length_a 9.642665
_cell_length_b 36.475776
_cell_length_c 9.118404
_cell_angle_alpha 90.000000
_cell_angle_beta 90.000000
_cell_angle_gamma 90.000000
_cell_volume 3207.158689
_symmetry_space_group_name_H-M "A M M 2"
_symmetry_group_IT_number 38
_symmetry_cell_setting 'orthorhombic'
loop_
_space_group_symop_operation_xyz
x,y,z
-x,-y,z
-x,y,z
x,-y,z
x,1/2+y,1/2+z
-x,1/2-y,1/2+z
-x,1/2+y,1/2+z
x,1/2-y,1/2+z
loop_
_atom_site_type_symbol
_atom_site_label
_atom_site_fract_x
_atom_site_fract_y
_atom_site_fract_z
Si Si1 0.341974 0.072445 0.595130
Si Si2 0.236242 0.815069 0.494488
Si Si3 0.657707 0.730958 0.749654
Si Si4 0.843442 0.765069 0.977402
Si Si5 0.653506 0.648766 0.278518
Si Si6 0.164785 0.614845 0.517963
Si Si7 0.162864 0.459343 0.342813
Si Si8 0.840976 0.609355 0.855632
O O1 0.500000 0.060820 0.567187
O O2 0.347729 0.109657 0.692967
O O3 0.255159 0.045356 0.697949
O O4 0.259136 0.083017 0.448276
O O5 0.342302 0.801878 0.368173
O O6 0.144876 0.778715 0.509866
O O7 0.305913 0.824366 0.647671
O O8 0.162158 0.851347 0.436768
O O9 0.500000 0.740370 0.707200
O O10 0.755688 0.719930 0.614097
O O11 0.740973 0.762934 0.837727
O O12 0.758589 0.856315 0.912673
O O13 0.000000 0.779631 0.958345
O O14 0.500000 0.656848 0.334834
O O15 0.193311 0.574132 0.452989
O O16 0.205109 0.615400 0.688113
O O17 0.000000 0.621309 0.509416
O O18 0.184145 0.500000 0.406366
O O19 0.000000 0.455753 0.303511
O O20 0.000000 0.595727 0.854562
#
# Coordination Sequence:
#
# PCOD9357325 Si02
#       8
#     8   8   8   8   8   8   8   8
#     4   9  18  31  51  78 106 138 176 220 265 312
#     4   9  21  35  58  75 106 139 183 219 274 326
#     4  10  21  38  59  79 107 141 179 224 279 333
#     4  10  21  37  58  81 107 139 181 226 276 331
#     4   9  17  33  54  76 103 135 173 216 260 317
#     4   9  19  33  51  79 110 142 178 223 271 316
#     4   9  17  32  54  78 105 141 184 224 266 321
#     4  10  19  35  56  79 110 145 179 221 272 324
#
# _framework density 19.955359000000001
#
# number of rings (size 3 to 8) (size 9 to 14) (size 15 to 20)
#    0.750    1.875    0.000    1.875    0.000    4.750 
#    2.250    0.625    0.000    2.250    0.000    0.000 
#    0.000    0.000    0.000    0.000    0.000    0.000 
#
# Total GULP energy -178310.254300 kJ/mol
# GULP energy per Si atom -5572.195447 kJ/mol
# Density = 1.990994 g / cm^3
# Si number density = 19.955359 Si / 1000 Ang^3
#
#
#
# Elastic Constant Matrix: (Units=GPa)
#
#
# Indices 1 2 3 4 5 6 
#
# 1 107.6786 10.6033 44.2000 0.0000 0.0000 0.0000
# 2 10.6033 51.8101 16.2491 0.0000 0.0000 0.0000
# 3 44.2000 16.2491 96.0214 0.0000 0.0000 0.0000
# 4 0.0000 0.0000 0.0000 21.5179 0.0000 0.0000
# 5 0.0000 0.0000 0.0000 0.0000 17.5138 0.0000
# 6 0.0000 0.0000 0.0000 0.0000 0.0000 12.7489
#
#
#
# Elastic Compliance Matrix: (Units=1/GPa)
#
#
# Indices 1 2 3 4 5 6 
#
# 1 0.011477 -0.000731 -0.005159 0.000000 0.000000 0.000000
# 2 -0.000731 0.020430 -0.003121 0.000000 0.000000 0.000000
# 3 -0.005159 -0.003121 0.013317 0.000000 0.000000 0.000000
# 4 0.000000 0.000000 0.000000 0.046473 0.000000 0.000000
# 5 0.000000 0.000000 0.000000 0.000000 0.057098 0.000000
# 6 0.000000 0.000000 0.000000 0.000000 0.000000 0.078438
#
#
# Mechanical properties :
#
#
# Convention : Reuss Voigt Hill
#
# Bulk Modulus (GPa) = 36.76189 44.17942 40.47065
# Shear Modulus (GPa) = 19.66019 22.65331 21.15675
#
# Velocity S-wave (km/s) = 3.14221 3.37293 3.25961
# Velocity P-wave (km/s) = 5.62376 6.11196 5.87293
#
# Compressibility (1/GPa) = 0.02720209
#
# Stress axis : x y z
#
# Youngs Moduli (GPa) = 87.13387 48.94862 75.09021
#
# Poissons Ratio (x) = 0.03577 0.38740
# Poissons Ratio (y) = 0.06367 0.23434
# Poissons Ratio (z) = 0.44954 0.15276
#
# Static dielectric constant tensor:
#      x y z
#    x 1.717470 0.000000 0.000000 
#    y 0.000000 1.744180 0.000000 
#    z 0.000000 0.000000 1.685300 
# 
# From -- ./inp_files/8518.got.cif
#   From: 2010.05.17/outbox.cif.g08.bks.cpg/sg38_5_cif.got.tgz:8518.got - 2010.06.03 18:07:57.
