data_PCOD9357618
_publ_section_title
;
Structure prediction by ZEFSAII (Michael W. Deem and Ramdas Pophale) SiO2 
 PCOD9357618
Probable space group: A M M 2
;
_chemical_formula_sum "Si O2"
_cell_formula_units_Z 58
_cell_length_a 7.631360
_cell_length_b 15.962243
_cell_length_c 19.760811
_cell_angle_alpha 90.000000
_cell_angle_beta 90.000000
_cell_angle_gamma 90.000000
_cell_volume 2407.135976
_symmetry_space_group_name_H-M "A M M 2"
_symmetry_group_IT_number 38
_symmetry_cell_setting 'orthorhombic'
loop_
_space_group_symop_operation_xyz
x,y,z
-x,-y,z
-x,y,z
x,-y,z
x,1/2+y,1/2+z
-x,1/2-y,1/2+z
-x,1/2+y,1/2+z
x,1/2-y,1/2+z
loop_
_atom_site_type_symbol
_atom_site_label
_atom_site_fract_x
_atom_site_fract_y
_atom_site_fract_z
Si Si1 0.708776 0.685819 0.443750
Si Si2 0.000000 0.000000 0.511567
Si Si3 0.702552 0.622813 0.960919
Si Si4 0.697816 0.407915 0.170570
Si Si5 0.710916 0.776810 0.185061
Si Si6 0.801284 0.089774 0.818780
Si Si7 0.714594 0.907314 0.073424
Si Si8 0.790430 0.594110 0.803692
O O1 0.500000 0.676640 0.437674
O O2 0.742390 0.779136 0.467775
O O3 0.780778 0.664283 0.370528
O O4 0.773387 0.620966 0.499512
O O5 0.155545 0.928446 0.502406
O O6 0.500000 0.607132 0.979969
O O7 0.720482 0.603374 0.880325
O O8 0.500000 0.407729 0.142379
O O9 0.779153 0.500000 0.152254
O O10 0.780785 0.315515 0.163713
O O11 0.686291 0.407949 0.252413
O O12 0.500000 0.767677 0.182398
O O13 0.772822 0.841379 0.128638
O O14 0.745377 0.826618 0.255651
O O15 0.000000 0.089880 0.793349
O O16 0.768040 0.000000 0.854071
O O17 0.500000 0.905908 0.073397
O O18 0.772472 0.000000 0.090406
O O19 0.734137 0.500000 0.778469
O O20 0.000000 0.592544 0.808999
#
# Coordination Sequence:
#
# PCOD9357618 Si02
#       8
#     8   2   8   8   8   8   8   8
#     4  10  21  35  56  81 109 148 194 239 289 355
#     4  12  22  40  60  86 118 164 190 248 304 356
#     4  11  22  37  59  88 120 157 200 243 297 363
#     4   9  18  33  52  76 109 144 180 228 285 345
#     4  10  20  33  55  83 109 145 197 246 294 354
#     4  10  20  32  50  80 112 146 184 231 289 350
#     4   9  18  35  57  82 113 148 188 241 300 352
#     4  11  21  35  53  81 120 158 190 233 295 357
#
# _framework density 24.095023999999999
#
# number of rings (size 3 to 8) (size 9 to 14) (size 15 to 20)
#    0.000    1.931    1.379    2.690    0.966    6.621 
#    0.000    0.690    1.517    2.483    0.000    0.000 
#    0.000    0.000    0.000    0.000    0.000    0.000 
#
# Total GULP energy -161718.291044 kJ/mol
# GULP energy per Si atom -5576.492795 kJ/mol
# Density = 2.404018 g / cm^3
# Si number density = 24.095024 Si / 1000 Ang^3
#
#
#
# Elastic Constant Matrix: (Units=GPa)
#
#
# Indices 1 2 3 4 5 6 
#
# 1 73.3756 41.4030 -10.6412 0.0000 0.0000 0.0000
# 2 41.4030 184.1546 32.7817 0.0000 0.0000 0.0000
# 3 -10.6412 32.7817 61.6900 0.0000 0.0000 0.0000
# 4 0.0000 0.0000 0.0000 -18.4083 0.0000 0.0000
# 5 0.0000 0.0000 0.0000 0.0000 24.2180 0.0000
# 6 0.0000 0.0000 0.0000 0.0000 0.0000 3.3266
#
#
#
# Elastic Compliance Matrix: (Units=1/GPa)
#
#
# Indices 1 2 3 4 5 6 
#
# 1 0.017165 -0.004844 0.005535 0.000000 0.000000 0.000000
# 2 -0.004844 0.007365 -0.004749 0.000000 0.000000 0.000000
# 3 0.005535 -0.004749 0.019689 0.000000 0.000000 0.000000
# 4 0.000000 0.000000 0.000000 -0.054323 0.000000 0.000000
# 5 0.000000 0.000000 0.000000 0.000000 0.041292 0.000000
# 6 0.000000 0.000000 0.000000 0.000000 0.000000 0.300606
#
#
# Mechanical properties :
#
#
# Convention : Reuss Voigt Hill
#
# Bulk Modulus (GPa) = 27.70004 49.58969 38.64487
# Shear Modulus (GPa) = 14.20685 18.87238 16.53961
#
# Velocity S-wave (km/s) = 2.43084 2.80169 2.62283
# Velocity P-wave (km/s) = 4.40452 5.57598 5.02450
#
# Compressibility (1/GPa) = 0.03610103
#
# Stress axis : x y z
#
# Youngs Moduli (GPa) = 58.25896 135.78095 50.79084
#
# Poissons Ratio (x) = 0.65778 -0.28113
# Poissons Ratio (y) = 0.28223 0.24122
# Poissons Ratio (z) = -0.32247 0.64486
#
# Static dielectric constant tensor:
#      x y z
#    x 1.902530 0.000000 0.000000 
#    y 0.000000 1.977660 0.000000 
#    z 0.000000 0.000000 1.908620 
# 
# From -- ./inp_files/22089.got.cif
#   From: 2010.05.17/outbox.cif.g08.bks.cpg/sg38_12_cif.got.tgz:22089.got - 2010.06.03 18:07:57.
