data_PCOD9357513
_publ_section_title
;
Structure prediction by ZEFSAII (Michael W. Deem and Ramdas Pophale) SiO2 
 PCOD9357513
Probable space group: A M M 2
;
_chemical_formula_sum "Si O2"
_cell_formula_units_Z 56
_cell_length_a 15.994728
_cell_length_b 7.891804
_cell_length_c 21.070843
_cell_angle_alpha 90.000000
_cell_angle_beta 90.000000
_cell_angle_gamma 90.000000
_cell_volume 2659.714744
_symmetry_space_group_name_H-M "A M M 2"
_symmetry_group_IT_number 38
_symmetry_cell_setting 'orthorhombic'
loop_
_space_group_symop_operation_xyz
x,y,z
-x,-y,z
-x,y,z
x,-y,z
x,1/2+y,1/2+z
-x,1/2-y,1/2+z
-x,1/2+y,1/2+z
x,1/2-y,1/2+z
loop_
_atom_site_type_symbol
_atom_site_label
_atom_site_fract_x
_atom_site_fract_y
_atom_site_fract_z
Si Si1 0.224693 0.699145 0.534000
Si Si2 0.590694 0.204602 0.346027
Si Si3 0.178790 0.795787 0.169780
Si Si4 0.409518 0.302893 0.065015
Si Si5 0.771337 0.201350 0.896183
Si Si6 0.091716 0.203820 0.292642
Si Si7 0.370371 0.797340 0.203701
O O1 0.203562 0.500000 0.533116
O O2 0.182836 0.772504 0.597877
O O3 0.325209 0.713014 0.542521
O O4 0.204206 0.773753 0.465316
O O5 0.500000 0.261052 0.371309
O O6 0.674844 0.257642 0.381176
O O7 0.598230 0.259130 0.272251
O O8 0.591058 0.000000 0.345961
O O9 0.114373 0.731029 0.222071
O O10 0.270930 0.769587 0.199171
O O11 0.167890 0.000000 0.164951
O O12 0.500000 0.236734 0.043034
O O13 0.403429 0.500000 0.046545
O O14 0.407656 0.288597 0.141544
O O15 0.834042 0.257803 0.841250
O O16 0.777481 0.000000 0.899657
O O17 0.000000 0.265184 0.313024
O O18 0.088664 0.000000 0.288346
O O19 0.385811 0.000000 0.197974
#
# Coordination Sequence:
#
# PCOD9357513 Si02
#       7
#     8   8   8   8   8   8   8
#     4   9  20  37  55  74 104 151 193 226 273 332
#     4  10  20  34  54  79 110 153 201 242 280 331
#     4   8  14  31  57  81 103 131 179 231 270 321
#     4  10  20  31  46  74 109 142 183 237 288 331
#     4  11  23  38  56  82 120 156 187 235 291 338
#     4  10  20  37  64  91 112 140 183 235 288 345
#     4   9  16  30  52  74 103 143 185 231 279 330
#
# _framework density 21.05489
#
# number of rings (size 3 to 8) (size 9 to 14) (size 15 to 20)
#    0.000    2.429    1.429    2.143    0.000    4.571 
#    0.000    3.571    0.000    2.571    0.000    0.000 
#    0.000    0.000    0.000    0.000    0.000    0.000 
#
# Total GULP energy -156193.180693 kJ/mol
# GULP energy per Si atom -5578.327882 kJ/mol
# Density = 2.100697 g / cm^3
# Si number density = 21.054890 Si / 1000 Ang^3
#
#
#
# Elastic Constant Matrix: (Units=GPa)
#
#
# Indices 1 2 3 4 5 6 
#
# 1 93.9008 10.5093 58.7409 0.0000 0.0000 0.0000
# 2 10.5093 21.2167 2.4964 0.0000 0.0000 0.0000
# 3 58.7409 2.4964 140.9963 0.0000 0.0000 0.0000
# 4 0.0000 0.0000 0.0000 16.4009 0.0000 0.0000
# 5 0.0000 0.0000 0.0000 0.0000 -7.7810 0.0000
# 6 0.0000 0.0000 0.0000 0.0000 0.0000 6.9253
#
#
#
# Elastic Compliance Matrix: (Units=1/GPa)
#
#
# Indices 1 2 3 4 5 6 
#
# 1 0.015339 -0.006860 -0.006269 0.000000 0.000000 0.000000
# 2 -0.006860 0.050299 0.001968 0.000000 0.000000 0.000000
# 3 -0.006269 0.001968 0.009669 0.000000 0.000000 0.000000
# 4 0.000000 0.000000 0.000000 0.060972 0.000000 0.000000
# 5 0.000000 0.000000 0.000000 0.000000 -0.128518 0.000000
# 6 0.000000 0.000000 0.000000 0.000000 0.000000 0.144397
#
#
# Mechanical properties :
#
#
# Convention : Reuss Voigt Hill
#
# Bulk Modulus (GPa) = 18.87356 44.40078 31.63717
# Shear Modulus (GPa) = 26.02210 15.40018 20.71114
#
# Velocity S-wave (km/s) = 3.51938 2.70743 3.13976
# Velocity P-wave (km/s) = 5.04957 5.55945 5.31063
#
# Compressibility (1/GPa) = 0.05298419
#
# Stress axis : x y z
#
# Youngs Moduli (GPa) = 65.19347 19.88095 103.42043
#
# Poissons Ratio (x) = 0.13639 0.64834
# Poissons Ratio (y) = 0.44725 -0.20348
# Poissons Ratio (z) = 0.40869 -0.03912
#
# Static dielectric constant tensor:
#      x y z
#    x 1.760160 0.000000 0.000000 
#    y 0.000000 1.773210 0.000000 
#    z 0.000000 0.000000 1.802030 
# 
# From -- ./inp_files/21061.got.cif
#   From: 2010.05.17/outbox.cif.g08.bks.cpg/sg38_11_cif.got.tgz:21061.got - 2010.06.03 18:07:57.
