data_PCOD9357077
_publ_section_title
;
Structure prediction by ZEFSAII (Michael W. Deem and Ramdas Pophale) SiO2 
 PCOD9357077
Probable space group: A M M 2
;
_chemical_formula_sum "Si O2"
_cell_formula_units_Z 48
_cell_length_a 8.718671
_cell_length_b 16.973102
_cell_length_c 19.073793
_cell_angle_alpha 90.000000
_cell_angle_beta 90.000000
_cell_angle_gamma 90.000000
_cell_volume 2822.595053
_symmetry_space_group_name_H-M "A M M 2"
_symmetry_group_IT_number 38
_symmetry_cell_setting 'orthorhombic'
loop_
_space_group_symop_operation_xyz
x,y,z
-x,-y,z
-x,y,z
x,-y,z
x,1/2+y,1/2+z
-x,1/2-y,1/2+z
-x,1/2+y,1/2+z
x,1/2-y,1/2+z
loop_
_atom_site_type_symbol
_atom_site_label
_atom_site_fract_x
_atom_site_fract_y
_atom_site_fract_z
Si Si1 0.683814 0.683128 0.748110
Si Si2 0.813350 0.500000 0.518980
Si Si3 0.815856 0.763413 0.466205
Si Si4 0.815969 0.500000 0.355727
Si Si5 0.815113 0.660384 0.594560
Si Si6 0.683681 0.834101 0.837126
Si Si7 0.314521 0.409504 0.886969
O O1 0.500000 0.677554 0.742263
O O2 0.755412 0.667666 0.672999
O O3 0.721862 0.769937 0.777596
O O4 0.731823 0.622693 0.809856
O O5 0.766898 0.500000 0.437790
O O6 0.762663 0.578739 0.558736
O O7 0.000000 0.500000 0.518879
O O8 0.768855 0.731467 0.542574
O O9 0.754432 0.701185 0.408664
O O10 0.751715 0.848060 0.443143
O O11 0.000000 0.764251 0.462616
O O12 0.750643 0.420018 0.323334
O O13 0.000000 0.500000 0.352817
O O14 0.000000 0.659088 0.596061
O O15 0.500000 0.837047 0.844172
O O16 0.500000 0.405271 0.889957
O O17 0.267894 0.500000 0.897043
#
# Coordination Sequence:
#
# PCOD9357077 Si02
#       7
#     8   4   8   4   8   8   8
#     4   9  20  35  52  75 106 139 172 213 256 309
#     4   9  18  33  49  75 111 138 161 204 259 305
#     4  10  19  33  54  78 104 137 176 219 263 308
#     4  11  19  33  57  81 109 136 171 220 265 307
#     4  10  20  34  52  75 108 141 170 209 257 312
#     4  10  20  35  53  77 107 140 178 217 259 311
#     4   9  19  36  55  76 105 137 172 217 266 312
#
# _framework density 17.005625999999999
#
# number of rings (size 3 to 8) (size 9 to 14) (size 15 to 20)
#    0.000    2.333    1.667    2.250    1.167    5.000 
#    0.000    0.000    1.833    0.000    0.000    0.000 
#    0.000    0.000    0.000    0.000    0.000    0.000 
#
# Total GULP energy -133872.899393 kJ/mol
# GULP energy per Si atom -5578.037475 kJ/mol
# Density = 1.696692 g / cm^3
# Si number density = 17.005626 Si / 1000 Ang^3
#
#
#
# Elastic Constant Matrix: (Units=GPa)
#
#
# Indices 1 2 3 4 5 6 
#
# 1 23.2511 33.2079 18.4318 0.0000 0.0000 0.0000
# 2 33.2079 150.8878 46.4162 0.0000 0.0000 0.0000
# 3 18.4318 46.4162 84.5399 0.0000 0.0000 0.0000
# 4 0.0000 0.0000 0.0000 16.3604 0.0000 0.0000
# 5 0.0000 0.0000 0.0000 0.0000 37.6995 0.0000
# 6 0.0000 0.0000 0.0000 0.0000 0.0000 27.7841
#
#
#
# Elastic Compliance Matrix: (Units=1/GPa)
#
#
# Indices 1 2 3 4 5 6 
#
# 1 0.066748 -0.012289 -0.007805 0.000000 0.000000 0.000000
# 2 -0.012289 0.010237 -0.002941 0.000000 0.000000 0.000000
# 3 -0.007805 -0.002941 0.015145 0.000000 0.000000 0.000000
# 4 0.000000 0.000000 0.000000 0.061123 0.000000 0.000000
# 5 0.000000 0.000000 0.000000 0.000000 0.026526 0.000000
# 6 0.000000 0.000000 0.000000 0.000000 0.000000 0.035992
#
#
# Mechanical properties :
#
#
# Convention : Reuss Voigt Hill
#
# Bulk Modulus (GPa) = 21.71141 50.53229 36.12185
# Shear Modulus (GPa) = 18.03788 27.07700 22.55744
#
# Velocity S-wave (km/s) = 3.26037 3.99461 3.64602
# Velocity P-wave (km/s) = 5.19310 7.14531 6.24595
#
# Compressibility (1/GPa) = 0.04605873
#
# Stress axis : x y z
#
# Youngs Moduli (GPa) = 14.98177 97.68672 66.02688
#
# Poissons Ratio (x) = 1.20047 0.51537
# Poissons Ratio (y) = 0.18411 0.19420
# Poissons Ratio (z) = 0.11694 0.28731
#
# Static dielectric constant tensor:
#      x y z
#    x 1.576090 0.000000 0.000000 
#    y 0.000000 1.579920 0.000000 
#    z 0.000000 0.000000 1.547790 
# 
# From -- ./inp_files/16677.got.cif
#   From: 2010.05.17/outbox.cif.g08.bks.cpg/sg38_9_cif.got.tgz:16677.got - 2010.06.03 18:07:57.
