data_PCOD9357838
_publ_section_title
;
Structure prediction by ZEFSAII (Michael W. Deem and Ramdas Pophale) SiO2 
 PCOD9357838
Probable space group: A M M 2
;
_chemical_formula_sum "Si O2"
_cell_formula_units_Z 58
_cell_length_a 24.133038
_cell_length_b 7.714664
_cell_length_c 15.165971
_cell_angle_alpha 90.000000
_cell_angle_beta 90.000000
_cell_angle_gamma 90.000000
_cell_volume 2823.574387
_symmetry_space_group_name_H-M "A M M 2"
_symmetry_group_IT_number 38
_symmetry_cell_setting 'orthorhombic'
loop_
_space_group_symop_operation_xyz
x,y,z
-x,-y,z
-x,y,z
x,-y,z
x,1/2+y,1/2+z
-x,1/2-y,1/2+z
-x,1/2+y,1/2+z
x,1/2-y,1/2+z
loop_
_atom_site_type_symbol
_atom_site_label
_atom_site_fract_x
_atom_site_fract_y
_atom_site_fract_z
Si Si1 0.438325 0.794121 0.583750
Si Si2 0.842084 0.701022 0.336557
Si Si3 0.245822 0.210946 0.192709
Si Si4 0.000000 0.000000 0.635359
Si Si5 0.940338 0.311139 0.712952
Si Si6 0.222704 0.207122 0.999378
Si Si7 0.651956 0.289911 0.943954
Si Si8 0.368092 0.791136 0.245369
O O1 0.500000 0.722482 0.569889
O O2 0.391068 0.724932 0.517752
O O3 0.417670 0.768453 0.683437
O O4 0.440894 0.000000 0.567520
O O5 0.857187 0.500000 0.348059
O O6 0.788614 0.716141 0.273710
O O7 0.891633 0.785817 0.282174
O O8 0.822209 0.776610 0.430073
O O9 0.309903 0.262639 0.200881
O O10 0.243295 0.000000 0.196951
O O11 0.220818 0.270443 0.099684
O O12 0.951628 0.846272 0.646275
O O13 0.933348 0.500000 0.669707
O O14 0.000000 0.311547 0.762643
O O15 0.285110 0.237449 0.964586
O O16 0.214872 0.000000 0.002249
O O17 0.651691 0.500000 0.944417
O O18 0.633398 0.232014 0.846544
O O19 0.369093 0.000000 0.246306
#
# Coordination Sequence:
#
# PCOD9357838 Si02
#       8
#     8   8   8   2   8   8   8   8
#     4  10  22  38  55  75 103 137 175 221 271 327
#     4  11  20  33  54  82 112 149 190 229 277 337
#     4  10  20  34  51  79 111 142 179 226 278 334
#     4   8  14  32  52  82 116 148 202 238 282 342
#     4   9  17  31  54  82 113 155 195 240 287 333
#     4  10  21  34  52  78 112 145 178 224 279 329
#     4  10  20  35  55  77 103 136 174 217 270 329
#     4  10  20  35  56  79 104 136 175 219 269 327
#
# _framework density 20.541336999999999
#
# number of rings (size 3 to 8) (size 9 to 14) (size 15 to 20)
#    0.414    1.655    3.448    0.414    0.000    3.034 
#    0.000    1.379    0.000    0.828    0.000    1.931 
#    0.000    0.000    0.000    0.000    0.000    0.000 
#
# Total GULP energy -161448.234426 kJ/mol
# GULP energy per Si atom -5567.180497 kJ/mol
# Density = 2.049458 g / cm^3
# Si number density = 20.541337 Si / 1000 Ang^3
#
#
#
# Elastic Constant Matrix: (Units=GPa)
#
#
# Indices 1 2 3 4 5 6 
#
# 1 30.3419 -7.2054 -33.5423 0.0000 0.0000 0.0000
# 2 -7.2054 65.8567 -5.3487 0.0000 0.0000 0.0000
# 3 -33.5423 -5.3487 55.5474 0.0000 0.0000 0.0000
# 4 0.0000 0.0000 0.0000 10.8402 0.0000 0.0000
# 5 0.0000 0.0000 0.0000 0.0000 -21.0172 0.0000
# 6 0.0000 0.0000 0.0000 0.0000 0.0000 22.8140
#
#
#
# Elastic Compliance Matrix: (Units=1/GPa)
#
#
# Indices 1 2 3 4 5 6 
#
# 1 0.118752 0.018965 0.073535 0.000000 0.000000 0.000000
# 2 0.018965 0.018333 0.013217 0.000000 0.000000 0.000000
# 3 0.073535 0.013217 0.063679 0.000000 0.000000 0.000000
# 4 0.000000 0.000000 0.000000 0.092249 0.000000 0.000000
# 5 0.000000 0.000000 0.000000 0.000000 -0.047580 0.000000
# 6 0.000000 0.000000 0.000000 0.000000 0.000000 0.043833
#
#
# Mechanical properties :
#
#
# Convention : Reuss Voigt Hill
#
# Bulk Modulus (GPa) = 2.42602 6.61703 4.52153
# Shear Modulus (GPa) = 23.23074 15.71690 19.47382
#
# Velocity S-wave (km/s) = 3.36657 2.76911 3.08235
# Velocity P-wave (km/s) = 4.03675 3.66773 3.85666
#
# Compressibility (1/GPa) = 0.41219856
#
# Stress axis : x y z
#
# Youngs Moduli (GPa) = 8.42089 54.54672 15.70370
#
# Poissons Ratio (x) = -1.03448 -1.15477
# Poissons Ratio (y) = -0.15970 -0.20756
# Poissons Ratio (z) = -0.61923 -0.72096
#
# Static dielectric constant tensor:
#      x y z
#    x 1.736220 0.000000 0.000000 
#    y 0.000000 1.794060 0.000000 
#    z 0.000000 0.000000 1.728080 
# 
# From -- ./inp_files/15661.got.cif
#   From: 2010.05.17/outbox.cif.g08.bks.cpg/sg38_8_cif.got.tgz:15661.got - 2010.06.03 18:07:57.
