data_PCOD9357049
_publ_section_title
;
Structure prediction by ZEFSAII (Michael W. Deem and Ramdas Pophale) SiO2 
 PCOD9357049
Probable space group: A M M 2
;
_chemical_formula_sum "Si O2"
_cell_formula_units_Z 48
_cell_length_a 9.356796
_cell_length_b 8.062856
_cell_length_c 35.272343
_cell_angle_alpha 90.000000
_cell_angle_beta 90.000000
_cell_angle_gamma 90.000000
_cell_volume 2661.033693
_symmetry_space_group_name_H-M "A M M 2"
_symmetry_group_IT_number 38
_symmetry_cell_setting 'orthorhombic'
loop_
_space_group_symop_operation_xyz
x,y,z
-x,-y,z
-x,y,z
x,-y,z
x,1/2+y,1/2+z
-x,1/2-y,1/2+z
-x,1/2+y,1/2+z
x,1/2-y,1/2+z
loop_
_atom_site_type_symbol
_atom_site_label
_atom_site_fract_x
_atom_site_fract_y
_atom_site_fract_z
Si Si1 0.164522 0.805109 0.635960
Si Si2 0.174470 0.000000 0.853095
Si Si3 0.836102 0.699965 0.989889
Si Si4 0.825798 0.690639 0.904198
Si Si5 0.337302 0.803057 0.063174
Si Si6 0.174209 0.683364 0.717000
Si Si7 0.825382 0.000000 0.765612
O O1 0.254220 0.775880 0.598360
O O2 0.218689 0.712050 0.673417
O O3 0.000000 0.753740 0.628750
O O4 0.163512 0.000000 0.645446
O O5 0.220090 0.167223 0.875029
O O6 0.219388 0.000000 0.809352
O O7 0.000000 0.000000 0.853652
O O8 0.838492 0.500000 0.992217
O O9 0.785184 0.739050 0.947262
O O10 0.000000 0.758996 0.994198
O O11 0.740521 0.766272 0.023673
O O12 0.779801 0.500000 0.896300
O O13 0.000000 0.687190 0.904080
O O14 0.500000 0.742504 0.061805
O O15 0.337468 0.000000 0.069203
O O16 0.217121 0.500000 0.730081
O O17 0.000000 0.688832 0.716553
O O18 0.221546 0.834785 0.743389
O O19 0.000000 0.000000 0.765162
#
# Coordination Sequence:
#
# PCOD9357049 Si02
#       7
#     8   4   8   8   8   8   4
#     4  10  19  33  53  73  95 127 172 216 251 299
#     4   9  16  24  40  64  95 133 165 199 251 299
#     4   9  18  33  52  72  94 126 171 214 251 297
#     4   8  15  27  42  64  93 124 163 206 243 292
#     4  11  24  36  46  69 103 132 164 209 256 306
#     4   9  16  27  44  65  93 129 165 205 248 291
#     4   9  16  26  38  64  99 129 167 205 243 301
#
# _framework density 18.038101999999999
#
# number of rings (size 3 to 8) (size 9 to 14) (size 15 to 20)
#    0.000    2.667    0.833    2.500    1.167    5.333 
#    0.000    3.333    0.000    0.000    0.000    0.000 
#    0.000    2.667    0.000    4.667    0.000    5.333 
#
# Total GULP energy -133799.996048 kJ/mol
# GULP energy per Si atom -5574.999835 kJ/mol
# Density = 1.799705 g / cm^3
# Si number density = 18.038102 Si / 1000 Ang^3
#
#
#
# Elastic Constant Matrix: (Units=GPa)
#
#
# Indices 1 2 3 4 5 6 
#
# 1 31.1994 16.0089 31.8879 0.0000 0.0000 0.0000
# 2 16.0089 104.3525 74.0123 0.0000 0.0000 0.0000
# 3 31.8879 74.0123 138.1581 0.0000 0.0000 0.0000
# 4 0.0000 0.0000 0.0000 19.1717 0.0000 0.0000
# 5 0.0000 0.0000 0.0000 0.0000 -5.0379 0.0000
# 6 0.0000 0.0000 0.0000 0.0000 0.0000 9.4864
#
#
#
# Elastic Compliance Matrix: (Units=1/GPa)
#
#
# Indices 1 2 3 4 5 6 
#
# 1 0.041979 0.000697 -0.010062 0.000000 0.000000 0.000000
# 2 0.000697 0.015467 -0.008446 0.000000 0.000000 0.000000
# 3 -0.010062 -0.008446 0.014085 0.000000 0.000000 0.000000
# 4 0.000000 0.000000 0.000000 0.052160 0.000000 0.000000
# 5 0.000000 0.000000 0.000000 0.000000 -0.198497 0.000000
# 6 0.000000 0.000000 0.000000 0.000000 0.000000 0.105414
#
#
# Mechanical properties :
#
#
# Convention : Reuss Voigt Hill
#
# Bulk Modulus (GPa) = 27.84990 57.50313 42.67651
# Shear Modulus (GPa) = 63.93844 14.84411 39.39127
#
# Velocity S-wave (km/s) = 5.96014 2.87179 4.67816
# Velocity P-wave (km/s) = 7.92700 6.55318 7.27260
#
# Compressibility (1/GPa) = 0.03590678
#
# Stress axis : x y z
#
# Youngs Moduli (GPa) = 23.82157 64.65526 70.99601
#
# Poissons Ratio (x) = -0.04504 0.71438
# Poissons Ratio (y) = -0.01659 0.59966
# Poissons Ratio (z) = 0.23970 0.54610
#
# Static dielectric constant tensor:
#      x y z
#    x 1.591250 0.000000 0.000000 
#    y 0.000000 1.643850 0.000000 
#    z 0.000000 0.000000 1.601780 
# 
# From -- ./inp_files/24309.got.cif
#   From: 2010.05.17/outbox.cif.g08.bks.cpg/sg38_13_cif.got.tgz:24309.got - 2010.06.03 18:07:57.
