data_PCOD9357189
_publ_section_title
;
Structure prediction by ZEFSAII (Michael W. Deem and Ramdas Pophale) SiO2 
 PCOD9357189
Probable space group: A M M 2
;
_chemical_formula_sum "Si O2"
_cell_formula_units_Z 40
_cell_length_a 8.457766
_cell_length_b 26.962696
_cell_length_c 9.406114
_cell_angle_alpha 90.000000
_cell_angle_beta 90.000000
_cell_angle_gamma 90.000000
_cell_volume 2145.009493
_symmetry_space_group_name_H-M "A M M 2"
_symmetry_group_IT_number 38
_symmetry_cell_setting 'orthorhombic'
loop_
_space_group_symop_operation_xyz
x,y,z
-x,-y,z
-x,y,z
x,-y,z
x,1/2+y,1/2+z
-x,1/2-y,1/2+z
-x,1/2+y,1/2+z
x,1/2-y,1/2+z
loop_
_atom_site_type_symbol
_atom_site_label
_atom_site_fract_x
_atom_site_fract_y
_atom_site_fract_z
Si Si1 0.692035 0.392423 0.634110
Si Si2 0.318286 0.000000 0.804298
Si Si3 0.693048 0.703561 0.810536
Si Si4 0.308586 0.300755 0.137504
Si Si5 0.812717 0.606250 0.312338
Si Si6 0.682795 0.000000 0.150162
O O1 0.500000 0.394259 0.635742
O O2 0.743960 0.346068 0.728407
O O3 0.742209 0.386059 0.470516
O O4 0.751927 0.446280 0.688698
O O5 0.237977 0.948604 0.761186
O O6 0.500000 0.000000 0.758347
O O7 0.316636 0.000000 0.977447
O O8 0.500000 0.703580 0.809349
O O9 0.744162 0.752871 0.727547
O O10 0.743587 0.703611 0.974170
O O11 0.500000 0.301201 0.138899
O O12 0.250082 0.350887 0.210246
O O13 0.000000 0.608472 0.322236
O O14 0.500000 0.000000 0.198484
#
# Coordination Sequence:
#
# PCOD9357189 Si02
#       6
#     8   4   8   8   8   4
#     4   9  16  31  53  78 105 138 177 219 260 306
#     4   9  17  33  56  79 102 136 176 216 254 301
#     4   9  18  32  55  79 101 134 182 229 267 308
#     4  10  19  34  53  75 101 136 180 226 269 313
#     4  11  21  33  51  79 110 141 172 211 261 316
#     4   7  12  23  46  75 102 128 160 200 248 297
#
# _framework density 18.647936000000001
#
# number of rings (size 3 to 8) (size 9 to 14) (size 15 to 20)
#    0.000    2.600    0.000    4.500    0.000    3.200 
#    0.000    6.000    0.000    3.600    0.000    2.800 
#    0.000    0.000    0.000    0.000    0.000    0.000 
#
# Total GULP energy -111530.455950 kJ/mol
# GULP energy per Si atom -5576.522798 kJ/mol
# Density = 1.860549 g / cm^3
# Si number density = 18.647936 Si / 1000 Ang^3
#
#
#
# Elastic Constant Matrix: (Units=GPa)
#
#
# Indices 1 2 3 4 5 6 
#
# 1 25.9366 26.8124 16.7304 0.0000 0.0000 0.0000
# 2 26.8124 221.9491 107.0482 0.0000 0.0000 0.0000
# 3 16.7304 107.0482 115.3014 0.0000 0.0000 0.0000
# 4 0.0000 0.0000 0.0000 32.4719 0.0000 0.0000
# 5 0.0000 0.0000 0.0000 0.0000 0.4159 0.0000
# 6 0.0000 0.0000 0.0000 0.0000 0.0000 4.9903
#
#
#
# Elastic Compliance Matrix: (Units=1/GPa)
#
#
# Indices 1 2 3 4 5 6 
#
# 1 0.044502 -0.004096 -0.002655 0.000000 0.000000 0.000000
# 2 -0.004096 0.008536 -0.007331 0.000000 0.000000 0.000000
# 3 -0.002655 -0.007331 0.015864 0.000000 0.000000 0.000000
# 4 0.000000 0.000000 0.000000 0.030796 0.000000 0.000000
# 5 0.000000 0.000000 0.000000 0.000000 2.404663 0.000000
# 6 0.000000 0.000000 0.000000 0.000000 0.000000 0.200388
#
#
# Mechanical properties :
#
#
# Convention : Reuss Voigt Hill
#
# Bulk Modulus (GPa) = 24.54602 73.81877 49.18240
# Shear Modulus (GPa) = 1.82050 21.74870 11.78460
#
# Velocity S-wave (km/s) = 0.98913 3.41879 2.51659
# Velocity P-wave (km/s) = 3.80735 7.43341 5.90557
#
# Compressibility (1/GPa) = 0.04073980
#
# Stress axis : x y z
#
# Youngs Moduli (GPa) = 22.47090 117.15152 63.03536
#
# Poissons Ratio (x) = 0.47980 0.16735
# Poissons Ratio (y) = 0.09203 0.46209
# Poissons Ratio (z) = 0.05966 0.85880
#
# Static dielectric constant tensor:
#      x y z
#    x 1.627480 0.000000 0.000000 
#    y 0.000000 1.664700 0.000000 
#    z 0.000000 0.000000 1.614800 
# 
# From -- ./inp_files/3486.got.cif
#   From: 2010.05.17/outbox.cif.g08.bks.cpg/sg38_2_cif.got.tgz:3486.got - 2010.06.03 18:07:57.
