data_PCOD9357911
_publ_section_title
;
Structure prediction by ZEFSAII (Michael W. Deem and Ramdas Pophale) SiO2 
 PCOD9357911
Probable space group: A M M 2
;
_chemical_formula_sum "Si O2"
_cell_formula_units_Z 58
_cell_length_a 7.340182
_cell_length_b 15.477770
_cell_length_c 24.959158
_cell_angle_alpha 90.000000
_cell_angle_beta 90.000000
_cell_angle_gamma 90.000000
_cell_volume 2835.601174
_symmetry_space_group_name_H-M "A M M 2"
_symmetry_group_IT_number 38
_symmetry_cell_setting 'orthorhombic'
loop_
_space_group_symop_operation_xyz
x,y,z
-x,-y,z
-x,y,z
x,-y,z
x,1/2+y,1/2+z
-x,1/2-y,1/2+z
-x,1/2+y,1/2+z
x,1/2-y,1/2+z
loop_
_atom_site_type_symbol
_atom_site_label
_atom_site_fract_x
_atom_site_fract_y
_atom_site_fract_z
Si Si1 0.220075 0.900411 0.406210
Si Si2 0.277654 0.901422 0.888367
Si Si3 0.781882 0.402784 0.026837
Si Si4 0.290238 0.744362 0.819006
Si Si5 0.000000 0.500000 0.701871
Si Si6 0.721968 0.098463 0.010505
Si Si7 0.723641 0.837573 0.207814
Si Si8 0.714417 0.737426 0.595501
O O1 0.281001 0.877751 0.466737
O O2 0.283923 0.832988 0.362232
O O3 0.000000 0.898631 0.405016
O O4 0.274573 0.000000 0.395414
O O5 0.500000 0.899476 0.888564
O O6 0.210484 0.829090 0.847435
O O7 0.224352 0.000000 0.876041
O O8 0.221530 0.881468 0.949585
O O9 0.716189 0.500000 0.038391
O O10 0.739479 0.331910 0.070953
O O11 0.000000 0.407054 0.023345
O O12 0.500000 0.766187 0.808124
O O13 0.219475 0.709654 0.762775
O O14 0.161000 0.575338 0.702902
O O15 0.500000 0.099618 0.010377
O O16 0.790336 0.167162 0.053497
O O17 0.776069 0.000000 0.023543
O O18 0.500000 0.851643 0.209064
O O19 0.772618 0.779836 0.155958
O O20 0.500000 0.721128 0.596261
#
# Coordination Sequence:
#
# PCOD9357911 Si02
#       8
#     8   8   8   8   2   8   8   8
#     4   9  19  33  52  78 110 148 191 233 287 354
#     4   8  14  27  49  77 106 142 186 228 287 355
#     4   9  19  36  55  79 111 148 191 244 294 350
#     4  10  20  34  53  80 115 147 187 248 292 338
#     4  12  26  44  68  82 114 176 194 240 300 352
#     4   8  14  25  46  76 108 143 180 225 288 350
#     4  10  25  42  60  92 122 150 203 250 287 350
#     4  10  20  35  55  80 115 149 189 246 291 343
#
# _framework density 20.454215999999999
#
# number of rings (size 3 to 8) (size 9 to 14) (size 15 to 20)
#    0.000    2.759    0.000    2.690    3.862    2.207 
#    0.000    2.069    0.000    2.897    0.000    3.862 
#    0.000    0.000    0.000    0.000    0.000    0.000 
#
# Total GULP energy -161556.198127 kJ/mol
# GULP energy per Si atom -5570.903384 kJ/mol
# Density = 2.040766 g / cm^3
# Si number density = 20.454216 Si / 1000 Ang^3
#
#
#
# Elastic Constant Matrix: (Units=GPa)
#
#
# Indices 1 2 3 4 5 6 
#
# 1 86.0540 4.3619 12.3026 0.0000 0.0000 0.0000
# 2 4.3619 137.8981 128.7465 0.0000 0.0000 0.0000
# 3 12.3026 128.7465 175.4563 0.0000 0.0000 0.0000
# 4 0.0000 0.0000 0.0000 -14.0573 0.0000 0.0000
# 5 0.0000 0.0000 0.0000 0.0000 15.8397 0.0000
# 6 0.0000 0.0000 0.0000 0.0000 0.0000 31.9326
#
#
#
# Elastic Compliance Matrix: (Units=1/GPa)
#
#
# Indices 1 2 3 4 5 6 
#
# 1 0.011808 0.001269 -0.001759 0.000000 0.000000 0.000000
# 2 0.001269 0.023164 -0.017086 0.000000 0.000000 0.000000
# 3 -0.001759 -0.017086 0.018360 0.000000 0.000000 0.000000
# 4 0.000000 0.000000 0.000000 -0.071137 0.000000 0.000000
# 5 0.000000 0.000000 0.000000 0.000000 0.063132 0.000000
# 6 0.000000 0.000000 0.000000 0.000000 0.000000 0.031316
#
#
# Mechanical properties :
#
#
# Convention : Reuss Voigt Hill
#
# Bulk Modulus (GPa) = 55.00818 76.69226 65.85022
# Shear Modulus (GPa) = 42.42487 23.67615 33.05051
#
# Velocity S-wave (km/s) = 4.55921 3.40592 4.02410
# Velocity P-wave (km/s) = 7.39371 7.28307 7.33860
#
# Compressibility (1/GPa) = 0.01817911
#
# Stress axis : x y z
#
# Youngs Moduli (GPa) = 84.69016 43.17078 54.46556
#
# Poissons Ratio (x) = -0.05477 0.09579
# Poissons Ratio (y) = -0.10744 0.93061
# Poissons Ratio (z) = 0.14895 0.73762
#
# Static dielectric constant tensor:
#      x y z
#    x 1.799250 0.000000 0.000000 
#    y 0.000000 1.713320 0.000000 
#    z 0.000000 0.000000 1.719710 
# 
# From -- ./inp_files/22111.got.cif
#   From: 2010.05.17/outbox.cif.g08.bks.cpg/sg38_12_cif.got.tgz:22111.got - 2010.06.03 18:07:57.
