data_PCOD9357985
_publ_section_title
;
Structure prediction by ZEFSAII (Michael W. Deem and Ramdas Pophale) SiO2 
 PCOD9357985
Probable space group: A M M 2
;
_chemical_formula_sum "Si O2"
_cell_formula_units_Z 48
_cell_length_a 9.622648
_cell_length_b 8.240990
_cell_length_c 31.951533
_cell_angle_alpha 90.000000
_cell_angle_beta 90.000000
_cell_angle_gamma 90.000000
_cell_volume 2533.761230
_symmetry_space_group_name_H-M "A M M 2"
_symmetry_group_IT_number 38
_symmetry_cell_setting 'orthorhombic'
loop_
_space_group_symop_operation_xyz
x,y,z
-x,-y,z
-x,y,z
x,-y,z
x,1/2+y,1/2+z
-x,1/2-y,1/2+z
-x,1/2+y,1/2+z
x,1/2-y,1/2+z
loop_
_atom_site_type_symbol
_atom_site_label
_atom_site_fract_x
_atom_site_fract_y
_atom_site_fract_z
Si Si1 0.838056 0.303769 0.278230
Si Si2 0.158915 0.304248 0.435022
Si Si3 0.338732 0.198042 0.013539
Si Si4 0.158365 0.695357 0.184403
Si Si5 0.659229 0.193558 0.356487
Si Si6 0.659205 0.804573 0.106957
O O1 0.834580 0.500000 0.279762
O O2 0.797367 0.251484 0.231092
O O3 0.736593 0.238561 0.313558
O O4 0.000000 0.256227 0.285322
O O5 0.153358 0.500000 0.437298
O O6 0.238155 0.245160 0.476714
O O7 0.249788 0.259955 0.394775
O O8 0.000000 0.244790 0.432005
O O9 0.500000 0.246254 0.006696
O O10 0.295075 0.249215 0.060392
O O11 0.337650 0.000000 0.012998
O O12 0.157162 0.500000 0.185338
O O13 0.250721 0.748984 0.145834
O O14 0.000000 0.751736 0.178314
O O15 0.500000 0.255145 0.357560
O O16 0.655074 0.000000 0.360099
O O17 0.500000 0.750311 0.112257
O O18 0.659859 0.000000 0.106420
#
# Coordination Sequence:
#
# PCOD9357985 Si02
#       6
#     8   8   8   8   8   8
#     4   9  19  37  58  77  99 131 172 214 254 300
#     4  10  20  34  55  81 104 130 169 213 254 300
#     4   8  15  30  51  74 102 136 172 210 251 295
#     4   9  19  35  53  75 104 136 171 211 253 300
#     4  11  24  38  52  75 106 136 167 206 253 305
#     4   9  18  32  51  77 107 137 171 211 253 299
#
# _framework density 18.944168999999999
#
# number of rings (size 3 to 8) (size 9 to 14) (size 15 to 20)
#    0.000    2.667    0.000    3.500    0.000    7.333 
#    0.000    7.500    0.000    1.000    0.000    0.000 
#    0.000    0.000    0.000    0.000    0.000    0.000 
#
# Total GULP energy -133871.857700 kJ/mol
# GULP energy per Si atom -5577.994071 kJ/mol
# Density = 1.890105 g / cm^3
# Si number density = 18.944169 Si / 1000 Ang^3
#
#
#
# Elastic Constant Matrix: (Units=GPa)
#
#
# Indices 1 2 3 4 5 6 
#
# 1 141.2182 16.0045 130.0866 0.0000 0.0000 0.0000
# 2 16.0045 6.5949 14.5101 0.0000 0.0000 0.0000
# 3 130.0866 14.5101 208.6723 0.0000 0.0000 0.0000
# 4 0.0000 0.0000 0.0000 26.5925 0.0000 0.0000
# 5 0.0000 0.0000 0.0000 0.0000 42.7351 0.0000
# 6 0.0000 0.0000 0.0000 0.0000 0.0000 23.9354
#
#
#
# Elastic Compliance Matrix: (Units=1/GPa)
#
#
# Indices 1 2 3 4 5 6 
#
# 1 0.019435 -0.024212 -0.010432 0.000000 0.000000 0.000000
# 2 -0.024212 0.209186 0.000548 0.000000 0.000000 0.000000
# 3 -0.010432 0.000548 0.011258 0.000000 0.000000 0.000000
# 4 0.000000 0.000000 0.000000 0.037605 0.000000 0.000000
# 5 0.000000 0.000000 0.000000 0.000000 0.023400 0.000000
# 6 0.000000 0.000000 0.000000 0.000000 0.000000 0.041779
#
#
# Mechanical properties :
#
#
# Convention : Reuss Voigt Hill
#
# Bulk Modulus (GPa) = 5.82460 75.29865 40.56162
# Shear Modulus (GPa) = 10.68185 31.71154 21.19670
#
# Velocity S-wave (km/s) = 2.37715 4.09583 3.34863
# Velocity P-wave (km/s) = 3.25818 7.88681 6.03396
#
# Compressibility (1/GPa) = 0.17168564
#
# Stress axis : x y z
#
# Youngs Moduli (GPa) = 51.45282 4.78044 88.82855
#
# Poissons Ratio (x) = 0.11575 0.92669
# Poissons Ratio (y) = 1.24579 -0.04869
# Poissons Ratio (z) = 0.53677 -0.00262
#
# Static dielectric constant tensor:
#      x y z
#    x 1.645270 0.000000 0.000000 
#    y 0.000000 1.675180 0.000000 
#    z 0.000000 0.000000 1.648470 
# 
# From -- ./inp_files/24269.got.cif
#   From: 2010.05.17/outbox.cif.g08.bks.cpg/sg38_13_cif.got.tgz:24269.got - 2010.06.03 18:07:57.
