data_PCOD9357660
_publ_section_title
;
Structure prediction by ZEFSAII (Michael W. Deem and Ramdas Pophale) SiO2 
 PCOD9357660
Probable space group: A M M 2
;
_chemical_formula_sum "Si O2"
_cell_formula_units_Z 56
_cell_length_a 14.665030
_cell_length_b 7.328597
_cell_length_c 22.933433
_cell_angle_alpha 90.000000
_cell_angle_beta 90.000000
_cell_angle_gamma 90.000000
_cell_volume 2464.749954
_symmetry_space_group_name_H-M "A M M 2"
_symmetry_group_IT_number 38
_symmetry_cell_setting 'orthorhombic'
loop_
_space_group_symop_operation_xyz
x,y,z
-x,-y,z
-x,y,z
x,-y,z
x,1/2+y,1/2+z
-x,1/2-y,1/2+z
-x,1/2+y,1/2+z
x,1/2-y,1/2+z
loop_
_atom_site_type_symbol
_atom_site_label
_atom_site_fract_x
_atom_site_fract_y
_atom_site_fract_z
Si Si1 0.176116 0.720997 0.964540
Si Si2 0.402768 0.779256 0.884843
Si Si3 0.000000 0.279638 0.034860
Si Si4 0.367870 0.791302 0.014267
Si Si5 0.211935 0.205119 0.337178
Si Si6 0.202106 0.776605 0.206167
Si Si7 0.000000 0.204119 0.167347
Si Si8 0.396571 0.722508 0.645725
O O1 0.183820 0.500000 0.961620
O O2 0.176789 0.788528 0.897809
O O3 0.260217 0.787633 0.002898
O O4 0.086708 0.773046 0.997870
O O5 0.500000 0.735261 0.858439
O O6 0.319743 0.699946 0.849504
O O7 0.392030 0.000000 0.886301
O O8 0.401295 0.714285 0.952235
O O9 0.000000 0.500000 0.041383
O O10 0.000000 0.197676 0.098093
O O11 0.390736 0.715898 0.077713
O O12 0.399764 0.000000 0.015721
O O13 0.199821 0.284949 0.273547
O O14 0.173581 0.000000 0.334150
O O15 0.101822 0.718647 0.181917
O O16 0.300146 0.720692 0.176848
O O17 0.204047 0.000000 0.203210
O O18 0.000000 0.000000 0.193777
O O19 0.500000 0.774425 0.667293
O O20 0.394810 0.500000 0.646703
#
# Coordination Sequence:
#
# PCOD9357660 Si02
#       8
#     8   8   4   8   8   8   4   8
#     4   9  18  31  47  68  95 125 156 194 239 289
#     4   9  17  29  46  69  96 126 160 199 244 291
#     4  10  20  33  49  71  97 124 155 192 242 296
#     4   9  16  28  47  69  93 122 157 197 241 286
#     4   9  18  32  48  68  94 125 161 197 237 284
#     4   9  18  31  48  72  99 126 159 200 241 281
#     4  10  20  35  55  77  99 124 159 202 244 286
#     4   9  16  26  43  69  98 125 155 194 239 285
#
# _framework density 22.720358000000001
#
# number of rings (size 3 to 8) (size 9 to 14) (size 15 to 20)
#    0.000    2.857    0.000    1.286    0.000    4.857 
#    0.000    5.000    0.000    2.143    0.000    2.000 
#    0.000    0.000    0.000    0.000    0.000    0.000 
#
# Total GULP energy -156009.075530 kJ/mol
# GULP energy per Si atom -5571.752698 kJ/mol
# Density = 2.266865 g / cm^3
# Si number density = 22.720358 Si / 1000 Ang^3
#
#
#
# Elastic Constant Matrix: (Units=GPa)
#
#
# Indices 1 2 3 4 5 6 
#
# 1 208.6207 5.6168 87.8872 0.0000 0.0000 0.0000
# 2 5.6168 86.3794 6.8028 0.0000 0.0000 0.0000
# 3 87.8872 6.8028 130.5706 0.0000 0.0000 0.0000
# 4 0.0000 0.0000 0.0000 -2.5474 0.0000 0.0000
# 5 0.0000 0.0000 0.0000 0.0000 -59.2496 0.0000
# 6 0.0000 0.0000 0.0000 0.0000 0.0000 9.1846
#
#
#
# Elastic Compliance Matrix: (Units=1/GPa)
#
#
# Indices 1 2 3 4 5 6 
#
# 1 0.006691 -0.000081 -0.004500 0.000000 0.000000 0.000000
# 2 -0.000081 0.011626 -0.000551 0.000000 0.000000 0.000000
# 3 -0.004500 -0.000551 0.010716 0.000000 0.000000 0.000000
# 4 0.000000 0.000000 0.000000 -0.392557 0.000000 0.000000
# 5 0.000000 0.000000 0.000000 0.000000 -0.016878 0.000000
# 6 0.000000 0.000000 0.000000 0.000000 0.000000 0.108878
#
#
# Mechanical properties :
#
#
# Convention : Reuss Voigt Hill
#
# Bulk Modulus (GPa) = 53.27828 69.57605 61.42716
# Shear Modulus (GPa) = -19.60752 11.16177 -4.22287
#
# Velocity S-wave (km/s) = -2.94086 2.21886 -1.36479
# Velocity P-wave (km/s) = 3.45961 6.10358 4.96098
#
# Compressibility (1/GPa) = 0.01876937
#
# Stress axis : x y z
#
# Youngs Moduli (GPa) = 149.45116 86.01772 93.31741
#
# Poissons Ratio (x) = 0.00694 0.41989
# Poissons Ratio (y) = 0.01206 0.05145
# Poissons Ratio (z) = 0.67247 0.04743
#
# Static dielectric constant tensor:
#      x y z
#    x 1.878520 0.000000 0.000000 
#    y 0.000000 1.875960 0.000000 
#    z 0.000000 0.000000 1.800300 
# 
# From -- ./inp_files/21152.got.cif
#   From: 2010.05.17/outbox.cif.g08.bks.cpg/sg38_11_cif.got.tgz:21152.got - 2010.06.03 18:07:57.
