data_PCOD9357358
_publ_section_title
;
Structure prediction by ZEFSAII (Michael W. Deem and Ramdas Pophale) SiO2 
 PCOD9357358
Probable space group: A M M 2
;
_chemical_formula_sum "Si O2"
_cell_formula_units_Z 48
_cell_length_a 7.684025
_cell_length_b 18.940801
_cell_length_c 15.567839
_cell_angle_alpha 90.000000
_cell_angle_beta 90.000000
_cell_angle_gamma 90.000000
_cell_volume 2265.768016
_symmetry_space_group_name_H-M "A M M 2"
_symmetry_group_IT_number 38
_symmetry_cell_setting 'orthorhombic'
loop_
_space_group_symop_operation_xyz
x,y,z
-x,-y,z
-x,y,z
x,-y,z
x,1/2+y,1/2+z
-x,1/2-y,1/2+z
-x,1/2+y,1/2+z
x,1/2-y,1/2+z
loop_
_atom_site_type_symbol
_atom_site_label
_atom_site_fract_x
_atom_site_fract_y
_atom_site_fract_z
Si Si1 0.207659 0.390090 0.647390
Si Si2 0.203326 0.270870 0.902324
Si Si3 0.298434 0.500000 0.503546
Si Si4 0.802154 0.500000 0.312912
Si Si5 0.788011 0.767063 0.596465
Si Si6 0.299415 0.076690 0.336206
Si Si7 0.785776 0.845756 0.763811
O O1 0.256514 0.433326 0.563098
O O2 0.256894 0.309223 0.634487
O O3 0.291601 0.420472 0.732965
O O4 0.000000 0.394771 0.659098
O O5 0.214565 0.350721 0.867404
O O6 0.272975 0.213076 0.834125
O O7 0.000000 0.252308 0.911199
O O8 0.277983 0.271015 0.998858
O O9 0.500000 0.500000 0.480402
O O10 0.194458 0.500000 0.415894
O O11 0.724889 0.424739 0.285378
O O12 0.000000 0.500000 0.278985
O O13 0.731772 0.823123 0.667979
O O14 0.000000 0.771337 0.593027
O O15 0.500000 0.079118 0.363821
O O16 0.225429 0.000000 0.363341
O O17 0.000000 0.844876 0.766211
#
# Coordination Sequence:
#
# PCOD9357358 Si02
#       7
#     8   8   4   4   8   8   8
#     4  11  20  35  61  85 111 147 191 234 286 345
#     4  10  19  35  59  83 112 150 194 237 284 346
#     4  12  24  36  52  83 124 149 182 239 292 346
#     4  10  20  36  60  83 112 155 196 233 286 340
#     4   9  18  33  57  88 114 141 187 246 288 325
#     4  11  23  38  55  80 118 152 184 235 293 341
#     4   9  17  33  56  85 117 147 189 246 289 329
#
# _framework density 21.18487
#
# number of rings (size 3 to 8) (size 9 to 14) (size 15 to 20)
#    0.000    1.833    2.500    2.750    0.000    3.667 
#    1.500    4.167    0.000    0.000    0.000    0.000 
#    0.000    0.000    0.000    0.000    0.000    0.000 
#
# Total GULP energy -133984.724347 kJ/mol
# GULP energy per Si atom -5582.696848 kJ/mol
# Density = 2.113665 g / cm^3
# Si number density = 21.184870 Si / 1000 Ang^3
#
#
#
# Elastic Constant Matrix: (Units=GPa)
#
#
# Indices 1 2 3 4 5 6 
#
# 1 40.9851 1.6696 -2.3929 0.0000 0.0000 0.0000
# 2 1.6696 152.7546 62.6058 0.0000 0.0000 0.0000
# 3 -2.3929 62.6058 114.6643 0.0000 0.0000 0.0000
# 4 0.0000 0.0000 0.0000 -31.7688 0.0000 0.0000
# 5 0.0000 0.0000 0.0000 0.0000-2745.1235 0.0000
# 6 0.0000 0.0000 0.0000 0.0000 0.0000 -96.8206
#
#
#
# Elastic Compliance Matrix: (Units=1/GPa)
#
#
# Indices 1 2 3 4 5 6 
#
# 1 0.024474 -0.000614 0.000846 0.000000 0.000000 0.000000
# 2 -0.000614 0.008449 -0.004626 0.000000 0.000000 0.000000
# 3 0.000846 -0.004626 0.011264 0.000000 0.000000 0.000000
# 4 0.000000 0.000000 0.000000 -0.031477 0.000000 0.000000
# 5 0.000000 0.000000 0.000000 0.000000 -0.000364 0.000000
# 6 0.000000 0.000000 0.000000 0.000000 0.000000 -0.010328
#
#
# Mechanical properties :
#
#
# Convention : Reuss Voigt Hill
#
# Bulk Modulus (GPa) = 28.24946 48.01877 38.13411
# Shear Modulus (GPa) = 221.19126 -558.30781 -168.55828
#
# Velocity S-wave (km/s) = 10.22921 -16.25155 -8.92962
# Velocity P-wave (km/s) = 12.36444 18.15034 9.39563
#
# Compressibility (1/GPa) = 0.03539891
#
# Stress axis : x y z
#
# Youngs Moduli (GPa) = 40.86049 118.35597 88.77451
#
# Poissons Ratio (x) = 0.07270 -0.07511
# Poissons Ratio (y) = 0.02510 0.41067
# Poissons Ratio (z) = -0.03457 0.54751
#
# Static dielectric constant tensor:
#      x y z
#    x 4.036970 0.000000 0.000000 
#    y 0.000000 1.791690 0.000000 
#    z 0.000000 0.000000 1.746280 
# 
# From -- ./inp_files/12097.got.cif
#   From: 2010.05.17/outbox.cif.g08.bks.cpg/sg38_7_cif.got.tgz:12097.got - 2010.06.03 18:07:57.
