data_PCOD9357024
_publ_section_title
;
Structure prediction by ZEFSAII (Michael W. Deem and Ramdas Pophale) SiO2 
 PCOD9357024
Probable space group: A M M 2
;
_chemical_formula_sum "Si O2"
_cell_formula_units_Z 64
_cell_length_a 19.839626
_cell_length_b 18.810341
_cell_length_c 9.319834
_cell_angle_alpha 90.000000
_cell_angle_beta 90.000000
_cell_angle_gamma 90.000000
_cell_volume 3478.070066
_symmetry_space_group_name_H-M "A M M 2"
_symmetry_group_IT_number 38
_symmetry_cell_setting 'orthorhombic'
loop_
_space_group_symop_operation_xyz
x,y,z
-x,-y,z
-x,y,z
x,-y,z
x,1/2+y,1/2+z
-x,1/2-y,1/2+z
-x,1/2+y,1/2+z
x,1/2-y,1/2+z
loop_
_atom_site_type_symbol
_atom_site_label
_atom_site_fract_x
_atom_site_fract_y
_atom_site_fract_z
Si Si1 0.421027 0.417278 0.144120
Si Si2 0.129132 0.295567 0.361003
Si Si3 0.318429 0.323319 0.966584
Si Si4 0.269291 0.268862 0.238838
Si Si5 0.808033 0.083727 0.391463
Si Si6 0.306518 0.579453 0.347448
Si Si7 0.076246 0.169643 0.549883
Si Si8 0.805774 0.581803 0.553566
O O1 0.500000 0.401947 0.151997
O O2 0.412864 0.500000 0.094981
O O3 0.384482 0.414414 0.300816
O O4 0.381916 0.361661 0.040716
O O5 0.194937 0.253711 0.297901
O O6 0.088406 0.243403 0.464695
O O7 0.089842 0.319261 0.218713
O O8 0.154686 0.362343 0.454945
O O9 0.324304 0.278298 0.821013
O O10 0.262804 0.383134 0.938595
O O11 0.283521 0.264751 0.071360
O O12 0.275863 0.353416 0.265786
O O13 0.867973 0.117761 0.483152
O O14 0.815354 0.096621 0.220737
O O15 0.807072 0.000000 0.414020
O O16 0.285921 0.500000 0.296532
O O17 0.273412 0.585329 0.504768
O O18 0.000000 0.145046 0.526258
O O19 0.827120 0.500000 0.526665
#
# Coordination Sequence:
#
# PCOD9357024 Si02
#       8
#     8   8   8   8   8   8   8   8
#     4   9  18  35  59  87 123 163 199 239 291 353
#     4  11  20  38  59  86 116 151 195 242 298 360
#     4  11  21  35  56  90 117 150 196 245 290 349
#     4  10  19  32  56  83 112 149 187 243 291 337
#     4  11  23  39  60  86 117 157 202 254 304 353
#     4   8  16  31  54  86 116 147 192 240 283 339
#     4  12  25  40  60  86 118 156 197 248 308 372
#     4   9  20  36  60  89 119 151 196 250 299 348
#
# _framework density 18.401009999999999
#
# number of rings (size 3 to 8) (size 9 to 14) (size 15 to 20)
#    0.000    1.875    2.500    1.500    3.500    1.250 
#    0.000    3.125    0.000    3.375    0.000    3.500 
#    0.000    0.000    0.000    0.000    0.000    0.000 
#
# Total GULP energy -178250.286229 kJ/mol
# GULP energy per Si atom -5570.321445 kJ/mol
# Density = 1.835913 g / cm^3
# Si number density = 18.401010 Si / 1000 Ang^3
#
#
#
# Elastic Constant Matrix: (Units=GPa)
#
#
# Indices 1 2 3 4 5 6 
#
# 1 63.9575 22.2726 24.3753 0.0000 0.0000 0.0000
# 2 22.2726 96.8274 38.9000 0.0000 0.0000 0.0000
# 3 24.3753 38.9000 93.3226 0.0000 0.0000 0.0000
# 4 0.0000 0.0000 0.0000 24.5504 0.0000 0.0000
# 5 0.0000 0.0000 0.0000 0.0000 19.5021 0.0000
# 6 0.0000 0.0000 0.0000 0.0000 0.0000 18.0452
#
#
#
# Elastic Compliance Matrix: (Units=1/GPa)
#
#
# Indices 1 2 3 4 5 6 
#
# 1 0.017930 -0.002694 -0.003560 0.000000 0.000000 0.000000
# 2 -0.002694 0.012810 -0.004636 0.000000 0.000000 0.000000
# 3 -0.003560 -0.004636 0.013578 0.000000 0.000000 0.000000
# 4 0.000000 0.000000 0.000000 0.040733 0.000000 0.000000
# 5 0.000000 0.000000 0.000000 0.000000 0.051277 0.000000
# 6 0.000000 0.000000 0.000000 0.000000 0.000000 0.055416
#
#
# Mechanical properties :
#
#
# Convention : Reuss Voigt Hill
#
# Bulk Modulus (GPa) = 44.37046 47.24481 45.80764
# Shear Modulus (GPa) = 22.62066 23.65683 23.13874
#
# Velocity S-wave (km/s) = 3.50996 3.58945 3.54993
# Velocity P-wave (km/s) = 6.37118 6.55055 6.46149
#
# Compressibility (1/GPa) = 0.02253752
#
# Stress axis : x y z
#
# Youngs Moduli (GPa) = 55.77094 78.06515 73.64931
#
# Poissons Ratio (x) = 0.21031 0.26222
# Poissons Ratio (y) = 0.15025 0.34143
# Poissons Ratio (z) = 0.19856 0.36190
#
# Static dielectric constant tensor:
#      x y z
#    x 1.630690 0.000000 0.000000 
#    y 0.000000 1.666310 0.000000 
#    z 0.000000 0.000000 1.665860 
# 
# From -- ./inp_files/6516.got.cif
#   From: 2010.05.17/outbox.cif.g08.bks.cpg/sg38_4_cif.got.tgz:6516.got - 2010.06.03 18:07:57.
