data_PCOD9357738
_publ_section_title
;
Structure prediction by ZEFSAII (Michael W. Deem and Ramdas Pophale) SiO2 
 PCOD9357738
Probable space group: A M M 2
;
_chemical_formula_sum "Si O2"
_cell_formula_units_Z 64
_cell_length_a 16.565700
_cell_length_b 8.527855
_cell_length_c 23.994546
_cell_angle_alpha 90.000000
_cell_angle_beta 90.000000
_cell_angle_gamma 90.000000
_cell_volume 3389.706816
_symmetry_space_group_name_H-M "A M M 2"
_symmetry_group_IT_number 38
_symmetry_cell_setting 'orthorhombic'
loop_
_space_group_symop_operation_xyz
x,y,z
-x,-y,z
-x,y,z
x,-y,z
x,1/2+y,1/2+z
-x,1/2-y,1/2+z
-x,1/2+y,1/2+z
x,1/2-y,1/2+z
loop_
_atom_site_type_symbol
_atom_site_label
_atom_site_fract_x
_atom_site_fract_y
_atom_site_fract_z
Si Si1 0.246089 0.186057 0.645440
Si Si2 0.595520 0.824552 0.967127
Si Si3 0.910130 0.820448 0.829990
Si Si4 0.593701 0.809979 0.088998
Si Si5 0.139350 0.810468 0.443422
Si Si6 0.301682 0.185590 0.380412
Si Si7 0.906826 0.191102 0.569685
Si Si8 0.234352 0.183112 0.267692
O O1 0.332439 0.257565 0.627372
O O2 0.166771 0.242739 0.610364
O O3 0.235376 0.225127 0.710310
O O4 0.250662 0.000000 0.636687
O O5 0.500000 0.837507 0.970782
O O6 0.618987 0.731004 0.912753
O O7 0.630341 0.000000 0.962458
O O8 0.618266 0.752745 0.026816
O O9 0.911195 0.769796 0.894496
O O10 0.852250 0.704482 0.796974
O O11 0.000000 0.814526 0.807104
O O12 0.880285 0.000000 0.825575
O O13 0.500000 0.761012 0.101819
O O14 0.591819 0.000000 0.087000
O O15 0.229962 0.767682 0.423194
O O16 0.115999 0.763879 0.505968
O O17 0.130562 0.000000 0.440230
O O18 0.291514 0.247227 0.317679
O O19 0.294412 0.000000 0.374584
O O20 0.000000 0.241194 0.582356
O O21 0.907614 0.000000 0.571624
O O22 0.251328 0.000000 0.256493
#
# Coordination Sequence:
#
# PCOD9357738 Si02
#       8
#     8   8   8   8   8   8   8   8
#     4  11  22  36  56  81 108 140 183 233 277 315
#     4   9  18  32  52  80 110 137 166 203 253 316
#     4  10  20  33  51  77 106 134 170 221 273 314
#     4   9  19  37  59  82 110 144 178 213 262 325
#     4   9  17  31  52  76 103 137 175 212 257 320
#     4   9  18  32  51  76 102 130 169 216 263 312
#     4   9  18  32  51  77 110 146 179 214 264 325
#     4  10  22  39  55  72  99 138 183 222 261 319
#
# _framework density 18.880690000000001
#
# number of rings (size 3 to 8) (size 9 to 14) (size 15 to 20)
#    0.000    2.500    0.000    3.750    0.000    6.500 
#    0.000    4.375    0.000    3.375    0.000    0.000 
#    0.000    0.000    0.000    0.000    0.000    0.000 
#
# Total GULP energy -178181.773086 kJ/mol
# GULP energy per Si atom -5568.180409 kJ/mol
# Density = 1.883772 g / cm^3
# Si number density = 18.880690 Si / 1000 Ang^3
#
#
#
# Elastic Constant Matrix: (Units=GPa)
#
#
# Indices 1 2 3 4 5 6 
#
# 1 57.4898 10.7550 56.8062 0.0000 0.0000 0.0000
# 2 10.7550 6.7587 6.1055 0.0000 0.0000 0.0000
# 3 56.8062 6.1055 119.1601 0.0000 0.0000 0.0000
# 4 0.0000 0.0000 0.0000 21.8246 0.0000 0.0000
# 5 0.0000 0.0000 0.0000 0.0000 3.1124 0.0000
# 6 0.0000 0.0000 0.0000 0.0000 0.0000 22.1669
#
#
#
# Elastic Compliance Matrix: (Units=1/GPa)
#
#
# Indices 1 2 3 4 5 6 
#
# 1 0.047932 -0.058332 -0.019862 0.000000 0.000000 0.000000
# 2 -0.058332 0.226126 0.016222 0.000000 0.000000 0.000000
# 3 -0.019862 0.016222 0.017029 0.000000 0.000000 0.000000
# 4 0.000000 0.000000 0.000000 0.045820 0.000000 0.000000
# 5 0.000000 0.000000 0.000000 0.000000 0.321291 0.000000
# 6 0.000000 0.000000 0.000000 0.000000 0.000000 0.045112
#
#
# Mechanical properties :
#
#
# Convention : Reuss Voigt Hill
#
# Bulk Modulus (GPa) = 5.98285 36.74911 21.36598
# Shear Modulus (GPa) = 5.66272 16.73691 11.19981
#
# Velocity S-wave (km/s) = 1.73370 2.98057 2.43819
# Velocity P-wave (km/s) = 2.68016 5.59921 4.38945
#
# Compressibility (1/GPa) = 0.16714445
#
# Stress axis : x y z
#
# Youngs Moduli (GPa) = 20.86272 4.42232 58.72211
#
# Poissons Ratio (x) = 0.25796 1.16632
# Poissons Ratio (y) = 1.21696 -0.95258
# Poissons Ratio (z) = 0.41437 -0.07174
#
# Static dielectric constant tensor:
#      x y z
#    x 1.693620 0.000000 0.000000 
#    y 0.000000 1.672510 0.000000 
#    z 0.000000 0.000000 1.655330 
# 
# From -- ./inp_files/22946.got.cif
#   From: 2010.05.17/outbox.cif.g08.bks.cpg/sg38_12_cif.got.tgz:22946.got - 2010.06.03 18:07:57.
