data_PCOD9357547
_publ_section_title
;
Structure prediction by ZEFSAII (Michael W. Deem and Ramdas Pophale) SiO2 
 PCOD9357547
Probable space group: A M M 2
;
_chemical_formula_sum "Si O2"
_cell_formula_units_Z 64
_cell_length_a 19.057803
_cell_length_b 7.908462
_cell_length_c 21.743095
_cell_angle_alpha 90.000000
_cell_angle_beta 90.000000
_cell_angle_gamma 90.000000
_cell_volume 3277.073853
_symmetry_space_group_name_H-M "A M M 2"
_symmetry_group_IT_number 38
_symmetry_cell_setting 'orthorhombic'
loop_
_space_group_symop_operation_xyz
x,y,z
-x,-y,z
-x,y,z
x,-y,z
x,1/2+y,1/2+z
-x,1/2-y,1/2+z
-x,1/2+y,1/2+z
x,1/2-y,1/2+z
loop_
_atom_site_type_symbol
_atom_site_label
_atom_site_fract_x
_atom_site_fract_y
_atom_site_fract_z
Si Si1 0.080509 0.201518 0.522920
Si Si2 0.585390 0.304398 0.525792
Si Si3 0.919544 0.797054 0.155806
Si Si4 0.327568 0.296094 0.775319
Si Si5 0.418738 0.207488 0.159792
Si Si6 0.919578 0.799125 0.889867
Si Si7 0.580410 0.704434 0.392246
Si Si8 0.831130 0.297946 0.771511
O O1 0.111039 0.257913 0.588242
O O2 0.110723 0.257880 0.457505
O O3 0.000000 0.269461 0.523023
O O4 0.078362 0.000000 0.522874
O O5 0.500000 0.306442 0.525864
O O6 0.609217 0.500000 0.525956
O O7 0.605278 0.231266 0.592142
O O8 0.604806 0.230031 0.459475
O O9 0.873769 0.730997 0.212482
O O10 0.000000 0.731318 0.158896
O O11 0.923326 0.000000 0.161085
O O12 0.325547 0.500000 0.771549
O O13 0.370393 0.235579 0.715635
O O14 0.369330 0.252005 0.836931
O O15 0.247987 0.231094 0.775797
O O16 0.500000 0.256431 0.169691
O O17 0.418001 0.000000 0.157999
O O18 0.873827 0.732498 0.833858
O O19 0.000000 0.731118 0.886708
O O20 0.923005 0.000000 0.884219
O O21 0.500000 0.761918 0.380916
O O22 0.578159 0.500000 0.396500
O O23 0.825983 0.500000 0.763197
#
# Coordination Sequence:
#
# PCOD9357547 Si02
#       8
#     8   8   8   8   8   8   8   8
#     4   9  17  30  51  78 104 128 157 198 249 302
#     4   7  11  22  42  67  91 116 153 200 241 278
#     4   9  17  31  51  72  96 129 168 208 249 295
#     4  10  20  32  47  70 100 131 163 200 241 289
#     4   8  13  24  45  70  92 117 154 198 238 276
#     4  10  20  34  54  78 100 125 164 212 255 298
#     4   9  17  30  49  72  97 126 161 202 248 295
#     4  10  21  35  49  69 102 140 172 206 251 299
#
# _framework density 19.529620000000001
#
# number of rings (size 3 to 8) (size 9 to 14) (size 15 to 20)
#    0.000    3.000    0.000    3.000    0.000    4.500 
#    0.000    2.500    0.000    3.750    0.000    1.750 
#    0.000    0.000    0.000    0.000    0.000    0.000 
#
# Total GULP energy -178312.976593 kJ/mol
# GULP energy per Si atom -5572.280519 kJ/mol
# Density = 1.948517 g / cm^3
# Si number density = 19.529620 Si / 1000 Ang^3
#
#
#
# Elastic Constant Matrix: (Units=GPa)
#
#
# Indices 1 2 3 4 5 6 
#
# 1 92.2380 6.1376 95.2421 0.0000 0.0000 0.0000
# 2 6.1376 17.3048 0.2572 0.0000 0.0000 0.0000
# 3 95.2421 0.2572 224.3978 0.0000 0.0000 0.0000
# 4 0.0000 0.0000 0.0000 26.3660 0.0000 0.0000
# 5 0.0000 0.0000 0.0000 0.0000 -9.2322 0.0000
# 6 0.0000 0.0000 0.0000 0.0000 0.0000 10.1305
#
#
#
# Elastic Compliance Matrix: (Units=1/GPa)
#
#
# Indices 1 2 3 4 5 6 
#
# 1 0.020115 -0.007008 -0.008530 0.000000 0.000000 0.000000
# 2 -0.007008 0.060230 0.002905 0.000000 0.000000 0.000000
# 3 -0.008530 0.002905 0.008073 0.000000 0.000000 0.000000
# 4 0.000000 0.000000 0.000000 0.037928 0.000000 0.000000
# 5 0.000000 0.000000 0.000000 0.000000 -0.108317 0.000000
# 6 0.000000 0.000000 0.000000 0.000000 0.000000 0.098712
#
#
# Mechanical properties :
#
#
# Convention : Reuss Voigt Hill
#
# Bulk Modulus (GPa) = 15.83423 59.69050 37.76236
# Shear Modulus (GPa) = 30.66432 20.93977 25.80205
#
# Velocity S-wave (km/s) = 3.96680 3.27801 3.63874
# Velocity P-wave (km/s) = 5.39501 6.70504 6.08538
#
# Compressibility (1/GPa) = 0.06315434
#
# Stress axis : x y z
#
# Youngs Moduli (GPa) = 49.71382 16.60312 123.86569
#
# Poissons Ratio (x) = 0.11635 1.05651
# Poissons Ratio (y) = 0.34837 -0.35985
# Poissons Ratio (z) = 0.42403 -0.04824
#
# Static dielectric constant tensor:
#      x y z
#    x 1.666460 0.000000 0.000000 
#    y 0.000000 1.715580 0.000000 
#    z 0.000000 0.000000 1.710910 
# 
# From -- ./inp_files/21398.got.cif
#   From: 2010.05.17/outbox.cif.g08.bks.cpg/sg38_11_cif.got.tgz:21398.got - 2010.06.03 18:07:57.
