data_PCOD9357460
_publ_section_title
;
Structure prediction by ZEFSAII (Michael W. Deem and Ramdas Pophale) SiO2 
 PCOD9357460
Probable space group: A M M 2
;
_chemical_formula_sum "Si O2"
_cell_formula_units_Z 48
_cell_length_a 8.634551
_cell_length_b 31.193492
_cell_length_c 9.391363
_cell_angle_alpha 90.000000
_cell_angle_beta 90.000000
_cell_angle_gamma 90.000000
_cell_volume 2529.486592
_symmetry_space_group_name_H-M "A M M 2"
_symmetry_group_IT_number 38
_symmetry_cell_setting 'orthorhombic'
loop_
_space_group_symop_operation_xyz
x,y,z
-x,-y,z
-x,y,z
x,-y,z
x,1/2+y,1/2+z
-x,1/2-y,1/2+z
-x,1/2+y,1/2+z
x,1/2-y,1/2+z
loop_
_atom_site_type_symbol
_atom_site_label
_atom_site_fract_x
_atom_site_fract_y
_atom_site_fract_z
Si Si1 0.685210 0.049951 0.514550
Si Si2 0.312014 0.706334 0.007757
Si Si3 0.688412 0.291302 0.336803
Si Si4 0.686104 0.374598 0.515280
Si Si5 0.185469 0.549667 0.328250
Si Si6 0.815780 0.873751 0.332332
O O1 0.500000 0.054883 0.509781
O O2 0.743902 0.060369 0.673622
O O3 0.762116 0.081747 0.402915
O O4 0.723339 0.000000 0.487363
O O5 0.500000 0.704252 0.004887
O O6 0.262240 0.708862 0.172437
O O7 0.263299 0.748795 0.921631
O O8 0.246828 0.664514 0.931069
O O9 0.500000 0.291183 0.336463
O O10 0.737384 0.334097 0.419453
O O11 0.500000 0.375653 0.515721
O O12 0.749639 0.417780 0.444173
O O13 0.745535 0.369444 0.675210
O O14 0.225778 0.500000 0.359531
O O15 0.000000 0.552979 0.320800
O O16 0.000000 0.872084 0.324936
#
# Coordination Sequence:
#
# PCOD9357460 Si02
#       6
#     8   8   8   8   8   8
#     4  10  21  39  63  88 113 148 196 243 287 343
#     4  10  19  37  62  87 115 148 190 236 287 349
#     4   9  19  35  61  90 114 146 189 239 289 341
#     4  11  22  38  60  86 116 154 200 244 287 340
#     4  10  21  38  60  88 122 156 189 232 289 347
#     4  12  25  39  56  83 118 155 194 241 299 350
#
# _framework density 18.976184
#
# number of rings (size 3 to 8) (size 9 to 14) (size 15 to 20)
#    0.000    1.667    0.000    5.000    0.000    6.667 
#    0.000    5.000    0.000    0.000    0.000    0.000 
#    0.000    0.000    0.000    0.000    0.000    0.000 
#
# Total GULP energy -134173.598594 kJ/mol
# GULP energy per Si atom -5590.566608 kJ/mol
# Density = 1.893299 g / cm^3
# Si number density = 18.976184 Si / 1000 Ang^3
#
#
#
# Elastic Constant Matrix: (Units=GPa)
#
#
# Indices 1 2 3 4 5 6 
#
# 1 46.1880 27.4100 27.7970 0.0000 0.0000 0.0000
# 2 27.4100 95.0695 79.4984 0.0000 0.0000 0.0000
# 3 27.7970 79.4984 162.9336 0.0000 0.0000 0.0000
# 4 0.0000 0.0000 0.0000 36.4106 0.0000 0.0000
# 5 0.0000 0.0000 0.0000 0.0000 15.4754 0.0000
# 6 0.0000 0.0000 0.0000 0.0000 0.0000 14.7741
#
#
#
# Elastic Compliance Matrix: (Units=1/GPa)
#
#
# Indices 1 2 3 4 5 6 
#
# 1 0.026289 -0.006468 -0.001329 0.000000 0.000000 0.000000
# 2 -0.006468 0.019359 -0.008342 0.000000 0.000000 0.000000
# 3 -0.001329 -0.008342 0.010435 0.000000 0.000000 0.000000
# 4 0.000000 0.000000 0.000000 0.027465 0.000000 0.000000
# 5 0.000000 0.000000 0.000000 0.000000 0.064619 0.000000
# 6 0.000000 0.000000 0.000000 0.000000 0.000000 0.067686
#
#
# Mechanical properties :
#
#
# Convention : Reuss Voigt Hill
#
# Bulk Modulus (GPa) = 42.00986 63.73355 52.87171
# Shear Modulus (GPa) = 19.52622 24.63107 22.07864
#
# Velocity S-wave (km/s) = 3.21126 3.60668 3.41470
# Velocity P-wave (km/s) = 5.99465 7.14165 6.59314
#
# Compressibility (1/GPa) = 0.02380393
#
# Stress axis : x y z
#
# Youngs Moduli (GPa) = 38.03878 51.65425 95.83487
#
# Poissons Ratio (x) = 0.33411 0.12737
# Poissons Ratio (y) = 0.24604 0.79949
# Poissons Ratio (z) = 0.05056 0.43092
#
# Static dielectric constant tensor:
#      x y z
#    x 1.635920 0.000000 0.000000 
#    y 0.000000 1.640850 0.000000 
#    z 0.000000 0.000000 1.622580 
# 
# From -- ./inp_files/3734.got.cif
#   From: 2010.05.17/outbox.cif.g08.bks.cpg/sg38_2_cif.got.tgz:3734.got - 2010.06.03 18:07:57.
