data_PCOD9357766
_publ_section_title
;
Structure prediction by ZEFSAII (Michael W. Deem and Ramdas Pophale) SiO2 
 PCOD9357766
Probable space group: A M M 2
;
_chemical_formula_sum "Si O2"
_cell_formula_units_Z 48
_cell_length_a 9.277563
_cell_length_b 7.542901
_cell_length_c 35.957425
_cell_angle_alpha 90.000000
_cell_angle_beta 90.000000
_cell_angle_gamma 90.000000
_cell_volume 2516.291225
_symmetry_space_group_name_H-M "A M M 2"
_symmetry_group_IT_number 38
_symmetry_cell_setting 'orthorhombic'
loop_
_space_group_symop_operation_xyz
x,y,z
-x,-y,z
-x,y,z
x,-y,z
x,1/2+y,1/2+z
-x,1/2-y,1/2+z
-x,1/2+y,1/2+z
x,1/2-y,1/2+z
loop_
_atom_site_type_symbol
_atom_site_label
_atom_site_fract_x
_atom_site_fract_y
_atom_site_fract_z
Si Si1 0.827743 0.208728 0.059220
Si Si2 0.824922 0.500000 0.202883
Si Si3 0.824884 0.000000 0.618389
Si Si4 0.827821 0.790531 0.262210
Si Si5 0.334394 0.783490 0.983914
Si Si6 0.162949 0.712021 0.411523
Si Si7 0.663612 0.287024 0.836550
O O1 0.784064 0.328231 0.094201
O O2 0.000000 0.229633 0.053414
O O3 0.800138 0.000000 0.065640
O O4 0.745756 0.266221 0.021907
O O5 0.770905 0.500000 0.160637
O O6 0.784286 0.672218 0.226997
O O7 0.000000 0.500000 0.201113
O O8 0.000000 0.000000 0.620168
O O9 0.745445 0.728815 0.299243
O O10 0.000000 0.769050 0.268043
O O11 0.800782 0.000000 0.256191
O O12 0.500000 0.725582 0.983365
O O13 0.249381 0.720780 0.947439
O O14 0.334342 0.000000 0.983133
O O15 0.153497 0.500000 0.416025
O O16 0.248390 0.744026 0.373580
O O17 0.000000 0.782041 0.409601
O O18 0.500000 0.219338 0.838548
O O19 0.657623 0.500000 0.834321
#
# Coordination Sequence:
#
# PCOD9357766 Si02
#       7
#     8   4   4   8   8   8   8
#     4   9  17  31  52  75 102 138 176 216 265 319
#     4   9  18  32  53  81 109 135 173 223 271 323
#     4   9  18  32  51  81 111 133 171 225 271 319
#     4   9  18  33  53  76 104 139 177 219 267 320
#     4   9  17  31  51  74 102 137 177 217 260 312
#     4  10  20  33  52  78 106 137 176 221 265 315
#     4  10  21  36  52  73 104 139 177 220 266 318
#
# _framework density 19.075693000000001
#
# number of rings (size 3 to 8) (size 9 to 14) (size 15 to 20)
#    0.000    2.667    0.000    1.500    1.167    4.667 
#    1.500    3.750    0.000    2.000    0.000    4.667 
#    0.000    0.000    0.000    0.000    0.000    0.000 
#
# Total GULP energy -133938.636732 kJ/mol
# GULP energy per Si atom -5580.776531 kJ/mol
# Density = 1.903228 g / cm^3
# Si number density = 19.075693 Si / 1000 Ang^3
#
#
#
# Elastic Constant Matrix: (Units=GPa)
#
#
# Indices 1 2 3 4 5 6 
#
# 1 97.4913 39.5391 91.4571 0.0000 0.0000 0.0000
# 2 39.5391 69.7061 61.4172 0.0000 0.0000 0.0000
# 3 91.4571 61.4172 228.5489 0.0000 0.0000 0.0000
# 4 0.0000 0.0000 0.0000 44.2313 0.0000 0.0000
# 5 0.0000 0.0000 0.0000 0.0000 -17.8096 0.0000
# 6 0.0000 0.0000 0.0000 0.0000 0.0000 9.1169
#
#
#
# Elastic Compliance Matrix: (Units=1/GPa)
#
#
# Indices 1 2 3 4 5 6 
#
# 1 0.017641 -0.004961 -0.005726 0.000000 0.000000 0.000000
# 2 -0.004961 0.020192 -0.003441 0.000000 0.000000 0.000000
# 3 -0.005726 -0.003441 0.007591 0.000000 0.000000 0.000000
# 4 0.000000 0.000000 0.000000 0.022608 0.000000 0.000000
# 5 0.000000 0.000000 0.000000 0.000000 -0.056150 0.000000
# 6 0.000000 0.000000 0.000000 0.000000 0.000000 0.109687
#
#
# Mechanical properties :
#
#
# Convention : Reuss Voigt Hill
#
# Bulk Modulus (GPa) = 58.24789 86.73034 72.48912
# Shear Modulus (GPa) = 32.14420 20.66325 26.40372
#
# Velocity S-wave (km/s) = 4.10943 3.29481 3.72446
# Velocity P-wave (km/s) = 7.28821 7.74851 7.52188
#
# Compressibility (1/GPa) = 0.01716801
#
# Stress axis : x y z
#
# Youngs Moduli (GPa) = 56.68559 49.52532 131.72745
#
# Poissons Ratio (x) = 0.24571 0.75429
# Poissons Ratio (y) = 0.28123 0.45324
# Poissons Ratio (z) = 0.32459 0.17040
#
# Static dielectric constant tensor:
#      x y z
#    x 1.649710 0.000000 0.000000 
#    y 0.000000 1.698430 0.000000 
#    z 0.000000 0.000000 1.624870 
# 
# From -- ./inp_files/24368.got.cif
#   From: 2010.05.17/outbox.cif.g08.bks.cpg/sg38_13_cif.got.tgz:24368.got - 2010.06.03 18:07:57.
