data_PCOD9357055
_publ_section_title
;
Structure prediction by ZEFSAII (Michael W. Deem and Ramdas Pophale) SiO2 
 PCOD9357055
Probable space group: A M M 2
;
_chemical_formula_sum "Si O2"
_cell_formula_units_Z 64
_cell_length_a 7.565366
_cell_length_b 20.238306
_cell_length_c 21.199219
_cell_angle_alpha 90.000000
_cell_angle_beta 90.000000
_cell_angle_gamma 90.000000
_cell_volume 3245.816494
_symmetry_space_group_name_H-M "A M M 2"
_symmetry_group_IT_number 38
_symmetry_cell_setting 'orthorhombic'
loop_
_space_group_symop_operation_xyz
x,y,z
-x,-y,z
-x,y,z
x,-y,z
x,1/2+y,1/2+z
-x,1/2-y,1/2+z
-x,1/2+y,1/2+z
x,1/2-y,1/2+z
loop_
_atom_site_type_symbol
_atom_site_label
_atom_site_fract_x
_atom_site_fract_y
_atom_site_fract_z
Si Si1 0.715227 0.072800 0.821530
Si Si2 0.792767 0.427963 0.532513
Si Si3 0.710993 0.713764 0.362808
Si Si4 0.713091 0.426889 0.173679
Si Si5 0.206245 0.286118 0.127005
Si Si6 0.212833 0.285466 0.501012
Si Si7 0.285517 0.573334 0.680262
Si Si8 0.703855 0.202648 0.246974
O O1 0.500000 0.071450 0.824467
O O2 0.779375 0.138315 0.856774
O O3 0.763130 0.080592 0.747506
O O4 0.776315 0.000000 0.843224
O O5 0.715257 0.500000 0.515729
O O6 0.715753 0.360650 0.504806
O O7 0.778800 0.420431 0.608287
O O8 0.000000 0.429971 0.516035
O O9 0.500000 0.709096 0.352888
O O10 0.743130 0.741345 0.432220
O O11 0.783404 0.759537 0.306767
O O12 0.500000 0.425897 0.172266
O O13 0.771962 0.500000 0.152949
O O14 0.776263 0.364657 0.133934
O O15 0.275133 0.256526 0.061169
O O16 0.294502 0.251873 0.187284
O O17 0.000000 0.268616 0.131696
O O18 0.000000 0.288434 0.505643
O O19 0.500000 0.576893 0.677267
O O20 0.236767 0.500000 0.702922
O O21 0.218604 0.633578 0.722577
O O22 0.500000 0.188101 0.263433
#
# Coordination Sequence:
#
# PCOD9357055 Si02
#       8
#     8   8   8   8   8   8   8   8
#     4   8  14  27  47  71 100 130 161 199 245 298
#     4   9  17  31  49  68  98 137 170 201 241 294
#     4  10  20  33  50  72  97 133 174 209 253 302
#     4   9  17  32  55  79 104 133 165 208 259 305
#     4  11  21  33  52  77 104 135 172 212 255 301
#     4  10  22  36  47  69 104 139 173 209 253 298
#     4   9  17  29  49  77 103 126 159 208 259 300
#     4  10  19  33  53  76 102 131 169 213 258 307
#
# _framework density 19.717689
#
# number of rings (size 3 to 8) (size 9 to 14) (size 15 to 20)
#    0.000    2.500    2.500    1.125    0.000    2.750 
#    0.000    0.000    0.000    0.750    0.000    1.750 
#    0.000    0.000    0.000    0.000    0.000    0.000 
#
# Total GULP energy -178531.379313 kJ/mol
# GULP energy per Si atom -5579.105604 kJ/mol
# Density = 1.967281 g / cm^3
# Si number density = 19.717689 Si / 1000 Ang^3
#
#
#
# Elastic Constant Matrix: (Units=GPa)
#
#
# Indices 1 2 3 4 5 6 
#
# 1 46.6065 -5.5945 -8.6583 0.0000 0.0000 0.0000
# 2 -5.5945 112.5711 53.2617 0.0000 0.0000 0.0000
# 3 -8.6583 53.2617 107.3610 0.0000 0.0000 0.0000
# 4 0.0000 0.0000 0.0000 22.0255 0.0000 0.0000
# 5 0.0000 0.0000 0.0000 0.0000 13.5602 0.0000
# 6 0.0000 0.0000 0.0000 0.0000 0.0000 6.9669
#
#
#
# Elastic Compliance Matrix: (Units=1/GPa)
#
#
# Indices 1 2 3 4 5 6 
#
# 1 0.021792 0.000329 0.001594 0.000000 0.000000 0.000000
# 2 0.000329 0.011613 -0.005735 0.000000 0.000000 0.000000
# 3 0.001594 -0.005735 0.012288 0.000000 0.000000 0.000000
# 4 0.000000 0.000000 0.000000 0.045402 0.000000 0.000000
# 5 0.000000 0.000000 0.000000 0.000000 0.073745 0.000000
# 6 0.000000 0.000000 0.000000 0.000000 0.000000 0.143537
#
#
# Mechanical properties :
#
#
# Convention : Reuss Voigt Hill
#
# Bulk Modulus (GPa) = 26.26779 38.28406 32.27592
# Shear Modulus (GPa) = 15.21194 23.67917 19.44555
#
# Velocity S-wave (km/s) = 2.78058 3.46917 3.14379
# Velocity P-wave (km/s) = 4.86412 5.95862 5.43897
#
# Compressibility (1/GPa) = 0.03806944
#
# Stress axis : x y z
#
# Youngs Moduli (GPa) = 45.88866 86.11132 81.38091
#
# Poissons Ratio (x) = -0.02830 -0.12975
# Poissons Ratio (y) = -0.01508 0.46669
# Poissons Ratio (z) = -0.07317 0.49382
#
# Static dielectric constant tensor:
#      x y z
#    x 1.747200 0.000000 0.000000 
#    y 0.000000 1.728590 0.000000 
#    z 0.000000 0.000000 1.673290 
# 
# From -- ./inp_files/17211.got.cif
#   From: 2010.05.17/outbox.cif.g08.bks.cpg/sg38_9_cif.got.tgz:17211.got - 2010.06.03 18:07:57.
