data_PCOD9357804
_publ_section_title
;
Structure prediction by ZEFSAII (Michael W. Deem and Ramdas Pophale) SiO2 
 PCOD9357804
Probable space group: A M M 2
;
_chemical_formula_sum "Si O2"
_cell_formula_units_Z 64
_cell_length_a 18.083277
_cell_length_b 25.351210
_cell_length_c 6.231362
_cell_angle_alpha 90.000000
_cell_angle_beta 90.000000
_cell_angle_gamma 90.000000
_cell_volume 2856.661681
_symmetry_space_group_name_H-M "A M M 2"
_symmetry_group_IT_number 38
_symmetry_cell_setting 'orthorhombic'
loop_
_space_group_symop_operation_xyz
x,y,z
-x,-y,z
-x,y,z
x,-y,z
x,1/2+y,1/2+z
-x,1/2-y,1/2+z
-x,1/2+y,1/2+z
x,1/2-y,1/2+z
loop_
_atom_site_type_symbol
_atom_site_label
_atom_site_fract_x
_atom_site_fract_y
_atom_site_fract_z
Si Si1 0.585043 0.708458 0.376670
Si Si2 0.198320 0.359693 0.772596
Si Si3 0.581918 0.110455 0.186115
Si Si4 0.914138 0.760487 0.675086
Si Si5 0.084165 0.135206 0.922485
Si Si6 0.337857 0.180544 0.484758
Si Si7 0.710591 0.440366 0.479739
Si Si8 0.826360 0.439695 0.143671
O O1 0.500000 0.711908 0.286450
O O2 0.578946 0.667659 0.570677
O O3 0.615536 0.766318 0.430336
O O4 0.650719 0.682298 0.237510
O O5 0.131987 0.340815 0.619561
O O6 0.256001 0.319666 0.885722
O O7 0.248896 0.395069 0.614693
O O8 0.168225 0.400671 0.945831
O O9 0.500000 0.091719 0.230554
O O10 0.624197 0.127049 0.401220
O O11 0.625735 0.071238 0.031473
O O12 0.886795 0.757404 0.421574
O O13 0.000000 0.741822 0.661521
O O14 0.913519 0.823031 0.728860
O O15 0.000000 0.126240 0.987095
O O16 0.121490 0.082173 0.833378
O O17 0.729335 0.500000 0.552554
O O18 0.743199 0.436439 0.240896
O O19 0.842778 0.500000 0.090181
#
# Coordination Sequence:
#
# PCOD9357804 Si02
#       8
#     8   8   8   8   8   8   8   8
#     4  11  20  33  54  81 119 163 197 247 309 359
#     4  10  22  39  59  89 117 159 204 254 316 390
#     4  10  20  33  53  83 116 154 200 244 303 367
#     4   9  19  37  62  90 123 169 215 253 310 390
#     4  10  23  42  64  91 125 157 202 266 329 396
#     4  11  21  35  54  81 118 157 204 245 299 371
#     4   9  19  37  58  80 113 154 201 254 303 368
#     4  10  21  40  65  88 117 159 204 255 329 403
#
# _framework density 22.403772
#
# number of rings (size 3 to 8) (size 9 to 14) (size 15 to 20)
#    0.000    2.000    1.250    2.250    1.750    1.500 
#    2.250    0.000    0.000    0.000    0.000    3.500 
#    0.000    0.000    0.000    0.000    0.000    0.000 
#
# Total GULP energy -178259.301680 kJ/mol
# GULP energy per Si atom -5570.603177 kJ/mol
# Density = 2.235278 g / cm^3
# Si number density = 22.403772 Si / 1000 Ang^3
#
#
#
# Elastic Constant Matrix: (Units=GPa)
#
#
# Indices 1 2 3 4 5 6 
#
# 1 96.5149 9.0014 13.9998 0.0000 0.0000 0.0000
# 2 9.0014 45.3477 15.5340 0.0000 0.0000 0.0000
# 3 13.9998 15.5340 77.8212 0.0000 0.0000 0.0000
# 4 0.0000 0.0000 0.0000 22.7236 0.0000 0.0000
# 5 0.0000 0.0000 0.0000 0.0000 27.5622 0.0000
# 6 0.0000 0.0000 0.0000 0.0000 0.0000 -3.3695
#
#
#
# Elastic Compliance Matrix: (Units=1/GPa)
#
#
# Indices 1 2 3 4 5 6 
#
# 1 0.010743 -0.001578 -0.001618 0.000000 0.000000 0.000000
# 2 -0.001578 0.023902 -0.004487 0.000000 0.000000 0.000000
# 3 -0.001618 -0.004487 0.014037 0.000000 0.000000 0.000000
# 4 0.000000 0.000000 0.000000 0.044007 0.000000 0.000000
# 5 0.000000 0.000000 0.000000 0.000000 0.036282 0.000000
# 6 0.000000 0.000000 0.000000 0.000000 0.000000 -0.296781
#
#
# Mechanical properties :
#
#
# Convention : Reuss Voigt Hill
#
# Bulk Modulus (GPa) = 30.01599 32.97269 31.49434
# Shear Modulus (GPa) = -35.37588 21.45985 -6.95802
#
# Velocity S-wave (km/s) = -3.97799 3.09830 -1.76422
# Velocity P-wave (km/s) = 2.76991 5.24869 3.15248
#
# Compressibility (1/GPa) = 0.03331558
#
# Stress axis : x y z
#
# Youngs Moduli (GPa) = 93.08448 41.83713 71.24204
#
# Poissons Ratio (x) = 0.06603 0.11524
# Poissons Ratio (y) = 0.14692 0.31968
# Poissons Ratio (z) = 0.15057 0.18773
#
# Static dielectric constant tensor:
#      x y z
#    x 1.884920 0.000000 0.000000 
#    y 0.000000 1.853250 0.000000 
#    z 0.000000 0.000000 1.908460 
# 
# From -- ./inp_files/1734.got.cif
#   From: 2010.05.17/outbox.cif.g08.bks.cpg/sg38_1_cif.got.tgz:1734.got - 2010.06.03 18:07:57.
