data_PCOD9357917
_publ_section_title
;
Structure prediction by ZEFSAII (Michael W. Deem and Ramdas Pophale) SiO2 
 PCOD9357917
Probable space group: A M M 2
;
_chemical_formula_sum "Si O2"
_cell_formula_units_Z 56
_cell_length_a 20.153659
_cell_length_b 8.288962
_cell_length_c 16.340227
_cell_angle_alpha 90.000000
_cell_angle_beta 90.000000
_cell_angle_gamma 90.000000
_cell_volume 2729.682529
_symmetry_space_group_name_H-M "A M M 2"
_symmetry_group_IT_number 38
_symmetry_cell_setting 'orthorhombic'
loop_
_space_group_symop_operation_xyz
x,y,z
-x,-y,z
-x,y,z
x,-y,z
x,1/2+y,1/2+z
-x,1/2-y,1/2+z
-x,1/2+y,1/2+z
x,1/2-y,1/2+z
loop_
_atom_site_type_symbol
_atom_site_label
_atom_site_fract_x
_atom_site_fract_y
_atom_site_fract_z
Si Si1 0.571892 0.304247 0.561940
Si Si2 0.846430 0.192314 0.383021
Si Si3 0.850605 0.192387 0.057884
Si Si4 0.923325 0.807205 0.721840
Si Si5 0.427955 0.806359 0.868572
Si Si6 0.286850 0.303043 0.624291
Si Si7 0.286738 0.193539 0.308664
O O1 0.500000 0.246326 0.593781
O O2 0.571700 0.500000 0.569732
O O3 0.574683 0.268443 0.465297
O O4 0.639727 0.243690 0.601620
O O5 0.874785 0.260513 0.467689
O O6 0.886047 0.235039 0.300649
O O7 0.770847 0.255087 0.368564
O O8 0.844880 0.000000 0.390974
O O9 0.890418 0.259599 0.135442
O O10 0.773846 0.249182 0.067414
O O11 0.851460 0.000000 0.065132
O O12 0.000000 0.754491 0.722145
O O13 0.920831 0.000000 0.729342
O O14 0.500000 0.747846 0.836980
O O15 0.361648 0.740768 0.828597
O O16 0.427130 0.000000 0.861212
O O17 0.289180 0.500000 0.621373
O O18 0.270380 0.253687 0.716610
O O19 0.283378 0.000000 0.310129
#
# Coordination Sequence:
#
# PCOD9357917 Si02
#       7
#     8   8   8   8   8   8   8
#     4   8  14  26  46  71 101 140 188 240 289 342
#     4  11  23  41  64  94 130 166 208 257 308 367
#     4  11  22  40  66  94 126 166 209 255 308 367
#     4  11  25  45  68  96 128 162 204 252 306 371
#     4   9  18  32  49  73 106 146 196 251 305 362
#     4   9  17  31  51  79 113 148 193 246 298 355
#     4  10  20  34  53  81 116 151 194 250 307 361
#
# _framework density 20.515207
#
# number of rings (size 3 to 8) (size 9 to 14) (size 15 to 20)
#    0.000    2.143    1.429    3.000    0.000    4.857 
#    0.000    1.429    0.000    0.857    0.000    0.000 
#    0.000    0.000    0.000    0.000    0.000    0.000 
#
# Total GULP energy -156254.093130 kJ/mol
# GULP energy per Si atom -5580.503326 kJ/mol
# Density = 2.046851 g / cm^3
# Si number density = 20.515207 Si / 1000 Ang^3
#
#
#
# Elastic Constant Matrix: (Units=GPa)
#
#
# Indices 1 2 3 4 5 6 
#
# 1 100.7766 -3.4900 27.0953 0.0000 0.0000 0.0000
# 2 -3.4900 6.2196 -6.1535 0.0000 0.0000 0.0000
# 3 27.0953 -6.1535 88.3857 0.0000 0.0000 0.0000
# 4 0.0000 0.0000 0.0000 21.4491 0.0000 0.0000
# 5 0.0000 0.0000 0.0000 0.0000 16.3858 0.0000
# 6 0.0000 0.0000 0.0000 0.0000 0.0000 24.3965
#
#
#
# Elastic Compliance Matrix: (Units=1/GPa)
#
#
# Indices 1 2 3 4 5 6 
#
# 1 0.010866 0.003009 -0.003122 0.000000 0.000000 0.000000
# 2 0.003009 0.173510 0.011158 0.000000 0.000000 0.000000
# 3 -0.003122 0.011158 0.013048 0.000000 0.000000 0.000000
# 4 0.000000 0.000000 0.000000 0.046622 0.000000 0.000000
# 5 0.000000 0.000000 0.000000 0.000000 0.061029 0.000000
# 6 0.000000 0.000000 0.000000 0.000000 0.000000 0.040989
#
#
# Mechanical properties :
#
#
# Convention : Reuss Voigt Hill
#
# Bulk Modulus (GPa) = 4.55552 25.58727 15.07140
# Shear Modulus (GPa) = 12.58983 24.30829 18.44906
#
# Velocity S-wave (km/s) = 2.47995 3.44596 3.00206
# Velocity P-wave (km/s) = 3.22887 5.32281 4.40215
#
# Compressibility (1/GPa) = 0.21951370
#
# Stress axis : x y z
#
# Youngs Moduli (GPa) = 92.02635 5.76336 76.64106
#
# Poissons Ratio (x) = -0.01734 0.23925
# Poissons Ratio (y) = -0.27690 -0.85513
# Poissons Ratio (z) = 0.28728 -0.06431
#
# Static dielectric constant tensor:
#      x y z
#    x 1.758090 0.000000 0.000000 
#    y 0.000000 1.707020 0.000000 
#    z 0.000000 0.000000 1.719910 
# 
# From -- ./inp_files/15472.got.cif
#   From: 2010.05.17/outbox.cif.g08.bks.cpg/sg38_8_cif.got.tgz:15472.got - 2010.06.03 18:07:57.
