data_PCOD9357144
_publ_section_title
;
Structure prediction by ZEFSAII (Michael W. Deem and Ramdas Pophale) SiO2 
 PCOD9357144
Probable space group: A M M 2
;
_chemical_formula_sum "Si O2"
_cell_formula_units_Z 64
_cell_length_a 25.005280
_cell_length_b 7.636988
_cell_length_c 15.805285
_cell_angle_alpha 90.000000
_cell_angle_beta 90.000000
_cell_angle_gamma 90.000000
_cell_volume 3018.256618
_symmetry_space_group_name_H-M "A M M 2"
_symmetry_group_IT_number 38
_symmetry_cell_setting 'orthorhombic'
loop_
_space_group_symop_operation_xyz
x,y,z
-x,-y,z
-x,y,z
x,-y,z
x,1/2+y,1/2+z
-x,1/2-y,1/2+z
-x,1/2+y,1/2+z
x,1/2-y,1/2+z
loop_
_atom_site_type_symbol
_atom_site_label
_atom_site_fract_x
_atom_site_fract_y
_atom_site_fract_z
Si Si1 0.558275 0.204624 0.959200
Si Si2 0.742956 0.715291 0.568005
Si Si3 0.938710 0.713968 0.412865
Si Si4 0.326933 0.706799 0.726826
Si Si5 0.441158 0.709514 0.155688
Si Si6 0.060851 0.711239 0.220774
Si Si7 0.864342 0.207792 0.063977
Si Si8 0.327939 0.705359 0.413182
O O1 0.500000 0.282263 0.938124
O O2 0.612380 0.283581 0.921664
O O3 0.556013 0.000000 0.933790
O O4 0.564146 0.214161 0.061045
O O5 0.743400 0.500000 0.569189
O O6 0.707906 0.773767 0.648194
O O7 0.804079 0.776348 0.571052
O O8 0.713001 0.774544 0.482758
O O9 0.938244 0.500000 0.413813
O O10 0.925608 0.768007 0.316642
O O11 0.898233 0.778088 0.484434
O O12 0.000000 0.766622 0.431263
O O13 0.319425 0.500000 0.730497
O O14 0.389536 0.741627 0.709491
O O15 0.309814 0.779929 0.817104
O O16 0.500000 0.762649 0.189076
O O17 0.441199 0.500000 0.147628
O O18 0.060100 0.500000 0.221295
O O19 0.102076 0.767379 0.149445
O O20 0.000000 0.770618 0.201691
O O21 0.859455 0.000000 0.049628
O O22 0.333881 0.500000 0.434028
#
# Coordination Sequence:
#
# PCOD9357144 Si02
#       8
#     8   8   8   8   8   8   8   8
#     4   9  17  32  56  81 107 140 172 211 272 335
#     4   9  20  38  55  75 109 145 179 223 275 319
#     4   8  15  29  50  76 105 137 173 212 259 316
#     4  11  22  38  57  79 108 145 183 224 275 328
#     4  10  20  34  55  83 111 138 175 223 271 325
#     4   9  18  33  52  78 113 144 170 213 273 325
#     4  10  19  33  56  80 103 140 187 227 260 310
#     4  10  20  37  57  79 107 143 183 225 273 328
#
# _framework density 21.204294999999998
#
# number of rings (size 3 to 8) (size 9 to 14) (size 15 to 20)
#    0.000    2.500    1.250    1.875    0.000    3.500 
#    0.000    5.000    0.000    0.750    0.000    0.000 
#    0.000    0.000    0.000    0.000    0.000    0.000 
#
# Total GULP energy -178631.638924 kJ/mol
# GULP energy per Si atom -5582.238716 kJ/mol
# Density = 2.115603 g / cm^3
# Si number density = 21.204295 Si / 1000 Ang^3
#
#
#
# Elastic Constant Matrix: (Units=GPa)
#
#
# Indices 1 2 3 4 5 6 
#
# 1 179.1844 4.8294 116.3300 0.0000 0.0000 0.0000
# 2 4.8294 35.2953 -11.1577 0.0000 0.0000 0.0000
# 3 116.3300 -11.1577 145.4211 0.0000 0.0000 0.0000
# 4 0.0000 0.0000 0.0000 10.5315 0.0000 0.0000
# 5 0.0000 0.0000 0.0000 0.0000 -2.2564 0.0000
# 6 0.0000 0.0000 0.0000 0.0000 0.0000 9.5731
#
#
#
# Elastic Compliance Matrix: (Units=1/GPa)
#
#
# Indices 1 2 3 4 5 6 
#
# 1 0.012402 -0.004953 -0.010301 0.000000 0.000000 0.000000
# 2 -0.004953 0.031015 0.006342 0.000000 0.000000 0.000000
# 3 -0.010301 0.006342 0.015604 0.000000 0.000000 0.000000
# 4 0.000000 0.000000 0.000000 0.094954 0.000000 0.000000
# 5 0.000000 0.000000 0.000000 0.000000 -0.443188 0.000000
# 6 0.000000 0.000000 0.000000 0.000000 0.000000 0.104460
#
#
# Mechanical properties :
#
#
# Convention : Reuss Voigt Hill
#
# Bulk Modulus (GPa) = 24.27420 64.43380 44.35400
# Shear Modulus (GPa) = -32.63757 20.22957 -6.20400
#
# Velocity S-wave (km/s) = -3.92752 3.09209 -1.71236
# Velocity P-wave (km/s) = 3.01572 6.57276 4.12956
#
# Compressibility (1/GPa) = 0.04119600
#
# Stress axis : x y z
#
# Youngs Moduli (GPa) = 80.63218 32.24244 64.08795
#
# Poissons Ratio (x) = 0.15971 0.66017
# Poissons Ratio (y) = 0.39940 -0.40645
# Poissons Ratio (z) = 0.83060 -0.20449
#
# Static dielectric constant tensor:
#      x y z
#    x 1.761790 0.000000 0.000000 
#    y 0.000000 1.812060 0.000000 
#    z 0.000000 0.000000 1.741190 
# 
# From -- ./inp_files/15878.got.cif
#   From: 2010.05.17/outbox.cif.g08.bks.cpg/sg38_8_cif.got.tgz:15878.got - 2010.06.03 18:07:57.
