data_PCOD9357924
_publ_section_title
;
Structure prediction by ZEFSAII (Michael W. Deem and Ramdas Pophale) SiO2 
 PCOD9357924
Probable space group: A M M 2
;
_chemical_formula_sum "Si O2"
_cell_formula_units_Z 48
_cell_length_a 7.996101
_cell_length_b 38.634902
_cell_length_c 7.254256
_cell_angle_alpha 90.000000
_cell_angle_beta 90.000000
_cell_angle_gamma 90.000000
_cell_volume 2241.046994
_symmetry_space_group_name_H-M "A M M 2"
_symmetry_group_IT_number 38
_symmetry_cell_setting 'orthorhombic'
loop_
_space_group_symop_operation_xyz
x,y,z
-x,-y,z
-x,y,z
x,-y,z
x,1/2+y,1/2+z
-x,1/2-y,1/2+z
-x,1/2+y,1/2+z
x,1/2-y,1/2+z
loop_
_atom_site_type_symbol
_atom_site_label
_atom_site_fract_x
_atom_site_fract_y
_atom_site_fract_z
Si Si1 0.192497 0.325653 0.992210
Si Si2 0.798211 0.902704 0.434334
Si Si3 0.500000 0.298939 0.486145
Si Si4 0.304796 0.586211 0.351926
Si Si5 0.817092 0.840917 0.935061
Si Si6 0.500000 0.280896 0.054492
Si Si7 0.797997 0.461271 0.653697
O O1 0.247212 0.362440 0.904529
O O2 0.000000 0.317060 0.941621
O O3 0.188437 0.333173 0.214204
O O4 0.332116 0.296443 0.962908
O O5 0.739666 0.913294 0.637618
O O6 0.735921 0.931245 0.290906
O O7 0.000000 0.902928 0.433283
O O8 0.667113 0.320286 0.528205
O O9 0.500000 0.294303 0.264146
O O10 0.500000 0.260318 0.561902
O O11 0.500000 0.593731 0.372613
O O12 0.206568 0.617904 0.447293
O O13 0.257282 0.550877 0.451868
O O14 0.000000 0.830872 0.004094
O O15 0.740255 0.500000 0.698690
O O16 0.000000 0.461232 0.661041
#
# Coordination Sequence:
#
# PCOD9357924 Si02
#       7
#     8   8   4   8   8   4   8
#     4   8  16  32  55  79 105 145 192 238 287 344
#     4   9  19  37  61  87 113 153 209 253 298 359
#     4  10  20  36  52  82 110 145 185 232 296 359
#     4  11  21  36  60  89 119 156 204 250 302 364
#     4   9  17  34  58  79 108 150 197 243 286 347
#     4  10  20  34  54  76 114 143 181 230 290 359
#     4  10  22  40  60  86 122 160 202 255 307 359
#
# _framework density 21.418558000000001
#
# number of rings (size 3 to 8) (size 9 to 14) (size 15 to 20)
#    0.000    2.500    0.833    2.500    3.500    2.333 
#    3.000    1.667    0.000    0.000    0.000    0.000 
#    0.000    0.000    0.000    0.000    0.000    0.000 
#
# Total GULP energy -134109.648856 kJ/mol
# GULP energy per Si atom -5587.902036 kJ/mol
# Density = 2.136981 g / cm^3
# Si number density = 21.418558 Si / 1000 Ang^3
#
#
#
# Elastic Constant Matrix: (Units=GPa)
#
#
# Indices 1 2 3 4 5 6 
#
# 1 77.7458 54.5767 10.7754 0.0000 0.0000 0.0000
# 2 54.5767 110.8770 27.0777 0.0000 0.0000 0.0000
# 3 10.7754 27.0777 60.5616 0.0000 0.0000 0.0000
# 4 0.0000 0.0000 0.0000 32.1295 0.0000 0.0000
# 5 0.0000 0.0000 0.0000 0.0000 5.4847 0.0000
# 6 0.0000 0.0000 0.0000 0.0000 0.0000 18.9466
#
#
#
# Elastic Compliance Matrix: (Units=1/GPa)
#
#
# Indices 1 2 3 4 5 6 
#
# 1 0.019700 -0.009925 0.000932 0.000000 0.000000 0.000000
# 2 -0.009925 0.015124 -0.004996 0.000000 0.000000 0.000000
# 3 0.000932 -0.004996 0.018580 0.000000 0.000000 0.000000
# 4 0.000000 0.000000 0.000000 0.031124 0.000000 0.000000
# 5 0.000000 0.000000 0.000000 0.000000 0.182325 0.000000
# 6 0.000000 0.000000 0.000000 0.000000 0.000000 0.052780
#
#
# Mechanical properties :
#
#
# Convention : Reuss Voigt Hill
#
# Bulk Modulus (GPa) = 39.32803 48.22713 43.77758
# Shear Modulus (GPa) = 14.04153 21.76249 17.90201
#
# Velocity S-wave (km/s) = 2.56320 3.19102 2.89419
# Velocity P-wave (km/s) = 5.21167 6.01184 5.62600
#
# Compressibility (1/GPa) = 0.02542716
#
# Stress axis : x y z
#
# Youngs Moduli (GPa) = 50.76087 66.11838 53.82072
#
# Poissons Ratio (x) = 0.65620 -0.05018
# Poissons Ratio (y) = 0.50378 0.26891
# Poissons Ratio (z) = -0.04732 0.33036
#
# Static dielectric constant tensor:
#      x y z
#    x 1.759990 0.000000 0.000000 
#    y 0.000000 1.737470 0.000000 
#    z 0.000000 0.000000 1.811510 
# 
# From -- ./inp_files/3842.got.cif
#   From: 2010.05.17/outbox.cif.g08.bks.cpg/sg38_2_cif.got.tgz:3842.got - 2010.06.03 18:07:57.
