data_PCOD9357107
_publ_section_title
;
Structure prediction by ZEFSAII (Michael W. Deem and Ramdas Pophale) SiO2 
 PCOD9357107
Probable space group: A M M 2
;
_chemical_formula_sum "Si O2"
_cell_formula_units_Z 48
_cell_length_a 15.918826
_cell_length_b 7.599455
_cell_length_c 18.490404
_cell_angle_alpha 90.000000
_cell_angle_beta 90.000000
_cell_angle_gamma 90.000000
_cell_volume 2236.865564
_symmetry_space_group_name_H-M "A M M 2"
_symmetry_group_IT_number 38
_symmetry_cell_setting 'orthorhombic'
loop_
_space_group_symop_operation_xyz
x,y,z
-x,-y,z
-x,y,z
x,-y,z
x,1/2+y,1/2+z
-x,1/2-y,1/2+z
-x,1/2+y,1/2+z
x,1/2-y,1/2+z
loop_
_atom_site_type_symbol
_atom_site_label
_atom_site_fract_x
_atom_site_fract_y
_atom_site_fract_z
Si Si1 0.828090 0.707242 0.309480
Si Si2 0.338946 0.205900 0.394750
Si Si3 0.000000 0.715318 0.058121
Si Si4 0.165480 0.715308 0.144453
Si Si5 0.500000 0.286747 0.806531
Si Si6 0.000000 0.789452 0.392139
Si Si7 0.331633 0.216089 0.558912
Si Si8 0.500000 0.291017 0.137227
O O1 0.812187 0.500000 0.304489
O O2 0.749238 0.781402 0.353379
O O3 0.833847 0.776028 0.227470
O O4 0.915820 0.734237 0.350558
O O5 0.416180 0.278146 0.347491
O O6 0.331736 0.277785 0.475943
O O7 0.358511 0.000000 0.404178
O O8 0.917145 0.771396 0.101127
O O9 0.000000 0.500000 0.057052
O O10 0.000000 0.774872 0.974988
O O11 0.164063 0.500000 0.145501
O O12 0.248794 0.770939 0.102110
O O13 0.500000 0.500000 0.807630
O O14 0.500000 0.236678 0.722756
O O15 0.000000 0.000000 0.394514
O O16 0.415346 0.276535 0.599885
O O17 0.330257 0.000000 0.559041
O O18 0.500000 0.500000 0.124212
#
# Coordination Sequence:
#
# PCOD9357107 Si02
#       8
#     8   8   4   8   4   4   8   4
#     4  11  22  36  56  83 113 142 176 224 278 327
#     4  10  20  36  57  80 109 145 184 226 271 323
#     4   9  17  31  53  77  98 129 176 220 256 303
#     4   9  17  30  50  76 103 132 171 220 266 307
#     4  10  21  35  53  81 115 146 176 220 282 336
#     4  11  22  37  59  83 108 143 184 224 268 323
#     4   9  17  31  53  78 101 133 183 230 260 301
#     4  10  19  33  55  79 103 138 186 230 264 310
#
# _framework density 21.458597999999999
#
# number of rings (size 3 to 8) (size 9 to 14) (size 15 to 20)
#    0.000    2.167    0.000    3.750    0.000    8.000 
#    0.000    0.833    0.000   17.000    0.000    0.000 
#    0.000    0.000    0.000    0.000    0.000    0.000 
#
# Total GULP energy -134146.281791 kJ/mol
# GULP energy per Si atom -5589.428408 kJ/mol
# Density = 2.140976 g / cm^3
# Si number density = 21.458598 Si / 1000 Ang^3
#
#
#
# Elastic Constant Matrix: (Units=GPa)
#
#
# Indices 1 2 3 4 5 6 
#
# 1 220.6714 -15.8751 134.7858 0.0000 0.0000 0.0000
# 2 -15.8751 39.7929 -10.4318 0.0000 0.0000 0.0000
# 3 134.7858 -10.4318 243.7988 0.0000 0.0000 0.0000
# 4 0.0000 0.0000 0.0000 15.3723 0.0000 0.0000
# 5 0.0000 0.0000 0.0000 0.0000 44.0389 0.0000
# 6 0.0000 0.0000 0.0000 0.0000 0.0000 62.7474
#
#
#
# Elastic Compliance Matrix: (Units=1/GPa)
#
#
# Indices 1 2 3 4 5 6 
#
# 1 0.006966 0.001789 -0.003775 0.000000 0.000000 0.000000
# 2 0.001789 0.025875 0.000118 0.000000 0.000000 0.000000
# 3 -0.003775 0.000118 0.006194 0.000000 0.000000 0.000000
# 4 0.000000 0.000000 0.000000 0.065052 0.000000 0.000000
# 5 0.000000 0.000000 0.000000 0.000000 0.022707 0.000000
# 6 0.000000 0.000000 0.000000 0.000000 0.000000 0.015937
#
#
# Mechanical properties :
#
#
# Convention : Reuss Voigt Hill
#
# Bulk Modulus (GPa) = 28.32877 80.13566 54.23221
# Shear Modulus (GPa) = 31.59929 50.81734 41.20832
#
# Velocity S-wave (km/s) = 3.84157 4.87165 4.38695
# Velocity P-wave (km/s) = 5.73647 8.31080 7.14061
#
# Compressibility (1/GPa) = 0.03529981
#
# Stress axis : x y z
#
# Youngs Moduli (GPa) = 143.55754 38.64751 161.45785
#
# Poissons Ratio (x) = -0.06916 0.60943
# Poissons Ratio (y) = -0.25689 -0.01902
# Poissons Ratio (z) = 0.54186 -0.00455
#
# Static dielectric constant tensor:
#      x y z
#    x 1.813750 0.000000 0.000000 
#    y 0.000000 1.828950 0.000000 
#    z 0.000000 0.000000 1.739530 
# 
# From -- ./inp_files/18228.got.cif
#   From: 2010.05.17/outbox.cif.g08.bks.cpg/sg38_10_cif.got.tgz:18228.got - 2010.06.03 18:07:57.
