data_PCOD9357371
_publ_section_title
;
Structure prediction by ZEFSAII (Michael W. Deem and Ramdas Pophale) SiO2 
 PCOD9357371
Probable space group: A M M 2
;
_chemical_formula_sum "Si O2"
_cell_formula_units_Z 64
_cell_length_a 24.521605
_cell_length_b 8.310587
_cell_length_c 15.952800
_cell_angle_alpha 90.000000
_cell_angle_beta 90.000000
_cell_angle_gamma 90.000000
_cell_volume 3251.004070
_symmetry_space_group_name_H-M "A M M 2"
_symmetry_group_IT_number 38
_symmetry_cell_setting 'orthorhombic'
loop_
_space_group_symop_operation_xyz
x,y,z
-x,-y,z
-x,y,z
x,-y,z
x,1/2+y,1/2+z
-x,1/2-y,1/2+z
-x,1/2+y,1/2+z
x,1/2-y,1/2+z
loop_
_atom_site_type_symbol
_atom_site_label
_atom_site_fract_x
_atom_site_fract_y
_atom_site_fract_z
Si Si1 0.868616 0.807705 0.228500
Si Si2 0.751440 0.195742 0.486731
Si Si3 0.633800 0.193714 0.733634
Si Si4 0.437487 0.694513 0.390664
Si Si5 0.367135 0.805111 0.547568
Si Si6 0.248833 0.805501 0.291157
Si Si7 0.937496 0.692523 0.387471
Si Si8 0.868994 0.807684 0.546576
O O1 0.806747 0.749796 0.247053
O O2 0.905908 0.756752 0.306186
O O3 0.887510 0.743159 0.138828
O O4 0.867446 0.000000 0.225234
O O5 0.694786 0.249566 0.527637
O O6 0.752696 0.242746 0.389018
O O7 0.806756 0.251555 0.531288
O O8 0.751531 0.000000 0.489331
O O9 0.596458 0.254082 0.809872
O O10 0.617007 0.249136 0.640903
O O11 0.696335 0.240228 0.750134
O O12 0.630410 0.000000 0.733986
O O13 0.500000 0.750264 0.389106
O O14 0.437753 0.500000 0.387752
O O15 0.406700 0.746261 0.474726
O O16 0.367186 0.000000 0.546052
O O17 0.250294 0.000000 0.288576
O O18 0.937609 0.500000 0.383350
O O19 0.906272 0.744034 0.471584
O O20 0.000000 0.750304 0.388647
O O21 0.868537 0.000000 0.541178
#
# Coordination Sequence:
#
# PCOD9357371 Si02
#       8
#     8   8   8   8   8   8   8   8
#     4  11  23  40  62  91 124 160 200 243 296 355
#     4   9  17  33  57  86 119 150 183 232 290 344
#     4  10  21  36  57  86 114 147 188 233 289 346
#     4  10  22  39  55  76 111 149 188 238 290 338
#     4  10  20  36  59  84 112 146 188 232 278 340
#     4  10  19  35  59  87 120 154 188 233 288 345
#     4  11  25  44  64  88 119 158 205 252 298 351
#     4  11  22  40  65  92 123 158 196 244 301 357
#
# _framework density 19.686225
#
# number of rings (size 3 to 8) (size 9 to 14) (size 15 to 20)
#    0.000    1.750    2.500    1.875    0.000    4.750 
#    0.000    2.500    0.000    0.000    0.000    0.000 
#    0.000    0.000    0.000    0.000    0.000    0.000 
#
# Total GULP energy -178800.579550 kJ/mol
# GULP energy per Si atom -5587.518111 kJ/mol
# Density = 1.964142 g / cm^3
# Si number density = 19.686225 Si / 1000 Ang^3
#
#
#
# Elastic Constant Matrix: (Units=GPa)
#
#
# Indices 1 2 3 4 5 6 
#
# 1 181.4208 41.0751 126.9569 0.0000 0.0000 0.0000
# 2 41.0751 41.0703 59.2931 0.0000 0.0000 0.0000
# 3 126.9569 59.2931 259.3126 0.0000 0.0000 0.0000
# 4 0.0000 0.0000 0.0000 26.7605 0.0000 0.0000
# 5 0.0000 0.0000 0.0000 0.0000 -2.1573 0.0000
# 6 0.0000 0.0000 0.0000 0.0000 0.0000 -0.6094
#
#
#
# Elastic Compliance Matrix: (Units=1/GPa)
#
#
# Indices 1 2 3 4 5 6 
#
# 1 0.008773 -0.003841 -0.003417 0.000000 0.000000 0.000000
# 2 -0.003841 0.038029 -0.006815 0.000000 0.000000 0.000000
# 3 -0.003417 -0.006815 0.007087 0.000000 0.000000 0.000000
# 4 0.000000 0.000000 0.000000 0.037369 0.000000 0.000000
# 5 0.000000 0.000000 0.000000 0.000000 -0.463535 0.000000
# 6 0.000000 0.000000 0.000000 0.000000 0.000000 -1.640998
#
#
# Mechanical properties :
#
#
# Convention : Reuss Voigt Hill
#
# Bulk Modulus (GPa) = 38.84492 104.05043 71.44768
# Shear Modulus (GPa) = -2.52966 21.76399 9.61717
#
# Velocity S-wave (km/s) = -1.13480 3.32858 2.21265
# Velocity P-wave (km/s) = 4.24945 8.23054 6.54979
#
# Compressibility (1/GPa) = 0.02574339
#
# Stress axis : x y z
#
# Youngs Moduli (GPa) = 113.98995 26.29606 141.09475
#
# Poissons Ratio (x) = 0.10100 0.48209
# Poissons Ratio (y) = 0.43783 0.96155
# Poissons Ratio (z) = 0.38948 0.17921
#
# Static dielectric constant tensor:
#      x y z
#    x 1.676100 0.000000 0.000000 
#    y 0.000000 1.681500 0.000000 
#    z 0.000000 0.000000 1.668270 
# 
# From -- ./inp_files/15734.got.cif
#   From: 2010.05.17/outbox.cif.g08.bks.cpg/sg38_8_cif.got.tgz:15734.got - 2010.06.03 18:07:57.
