data_PCOD9357156
_publ_section_title
;
Structure prediction by ZEFSAII (Michael W. Deem and Ramdas Pophale) SiO2 
 PCOD9357156
Probable space group: A M M 2
;
_chemical_formula_sum "Si O2"
_cell_formula_units_Z 64
_cell_length_a 8.576875
_cell_length_b 25.791666
_cell_length_c 15.468952
_cell_angle_alpha 90.000000
_cell_angle_beta 90.000000
_cell_angle_gamma 90.000000
_cell_volume 3421.916191
_symmetry_space_group_name_H-M "A M M 2"
_symmetry_group_IT_number 38
_symmetry_cell_setting 'orthorhombic'
loop_
_space_group_symop_operation_xyz
x,y,z
-x,-y,z
-x,y,z
x,-y,z
x,1/2+y,1/2+z
-x,1/2-y,1/2+z
-x,1/2+y,1/2+z
x,1/2-y,1/2+z
loop_
_atom_site_type_symbol
_atom_site_label
_atom_site_fract_x
_atom_site_fract_y
_atom_site_fract_z
Si Si1 0.688299 0.887149 0.772290
Si Si2 0.184018 0.236692 0.006991
Si Si3 0.186413 0.851315 0.474769
Si Si4 0.687189 0.137436 0.100521
Si Si5 0.690591 0.440237 0.452340
Si Si6 0.685385 0.664591 0.784843
Si Si7 0.182636 0.724263 0.301114
Si Si8 0.688194 0.441338 0.095005
O O1 0.500000 0.883370 0.773951
O O2 0.738606 0.913017 0.862739
O O3 0.757237 0.829751 0.764217
O O4 0.733676 0.922172 0.690785
O O5 0.269227 0.193503 0.062432
O O6 0.000000 0.235211 0.027779
O O7 0.241169 0.296032 0.014832
O O8 0.201308 0.222754 0.905410
O O9 0.236584 0.851630 0.374660
O O10 0.250906 0.899858 0.526624
O O11 0.000000 0.850655 0.478554
O O12 0.500000 0.133651 0.102478
O O13 0.741748 0.134369 0.199568
O O14 0.744918 0.093814 0.033854
O O15 0.500000 0.440014 0.452761
O O16 0.740333 0.500000 0.456014
O O17 0.500000 0.658519 0.793663
O O18 0.725122 0.725199 0.770478
O O19 0.000000 0.731443 0.282130
O O20 0.500000 0.441321 0.091949
O O21 0.742489 0.500000 0.079044
#
# Coordination Sequence:
#
# PCOD9357156 Si02
#       8
#     8   8   8   8   8   8   8   8
#     4  10  19  33  56  84 113 149 187 228 279 338
#     4   9  19  34  52  77 110 146 182 224 277 333
#     4  10  22  40  59  82 110 149 193 236 291 347
#     4  10  20  33  54  84 113 145 187 229 277 331
#     4   9  17  32  55  82 113 147 183 225 272 328
#     4  10  21  36  55  82 115 149 188 237 285 337
#     4  10  20  34  52  79 114 152 188 226 277 337
#     4  10  22  39  59  85 114 147 193 245 291 338
#
# _framework density 18.702970000000001
#
# number of rings (size 3 to 8) (size 9 to 14) (size 15 to 20)
#    0.000    2.250    1.250    2.250    1.750    5.750 
#    0.000    0.625    0.000    4.500    0.000    0.000 
#    0.000    0.000    0.000    0.000    0.000    0.000 
#
# Total GULP energy -178634.459085 kJ/mol
# GULP energy per Si atom -5582.326846 kJ/mol
# Density = 1.866040 g / cm^3
# Si number density = 18.702970 Si / 1000 Ang^3
#
#
#
# Elastic Constant Matrix: (Units=GPa)
#
#
# Indices 1 2 3 4 5 6 
#
# 1 5.5174 11.4812 9.3714 0.0000 0.0000 0.0000
# 2 11.4812 127.2127 62.8667 0.0000 0.0000 0.0000
# 3 9.3714 62.8667 91.3536 0.0000 0.0000 0.0000
# 4 0.0000 0.0000 0.0000 28.1971 0.0000 0.0000
# 5 0.0000 0.0000 0.0000 0.0000 6.2933 0.0000
# 6 0.0000 0.0000 0.0000 0.0000 0.0000 0.1484
#
#
#
# Elastic Compliance Matrix: (Units=1/GPa)
#
#
# Indices 1 2 3 4 5 6 
#
# 1 0.235049 -0.014089 -0.014417 0.000000 0.000000 0.000000
# 2 -0.014089 0.012756 -0.007333 0.000000 0.000000 0.000000
# 3 -0.014417 -0.007333 0.017472 0.000000 0.000000 0.000000
# 4 0.000000 0.000000 0.000000 0.035465 0.000000 0.000000
# 5 0.000000 0.000000 0.000000 0.000000 0.158900 0.000000
# 6 0.000000 0.000000 0.000000 0.000000 0.000000 6.736561
#
#
# Mechanical properties :
#
#
# Convention : Reuss Voigt Hill
#
# Bulk Modulus (GPa) = 5.16529 43.50249 24.33389
# Shear Modulus (GPa) = 0.68190 16.28539 8.48365
#
# Velocity S-wave (km/s) = 0.60447 2.95403 2.13210
# Velocity P-wave (km/s) = 1.80414 5.91145 4.37036
#
# Compressibility (1/GPa) = 0.19359980
#
# Stress axis : x y z
#
# Youngs Moduli (GPa) = 4.25442 78.39202 57.23482
#
# Poissons Ratio (x) = 1.10448 0.82513
# Poissons Ratio (y) = 0.05994 0.41972
# Poissons Ratio (z) = 0.06133 0.57487
#
# Static dielectric constant tensor:
#      x y z
#    x 1.630110 0.000000 0.000000 
#    y 0.000000 1.625210 0.000000 
#    z 0.000000 0.000000 1.657800 
# 
# From -- ./inp_files/12732.got.cif
#   From: 2010.05.17/outbox.cif.g08.bks.cpg/sg38_7_cif.got.tgz:12732.got - 2010.06.03 18:07:57.
