data_PCOD9357266
_publ_section_title
;
Structure prediction by ZEFSAII (Michael W. Deem and Ramdas Pophale) SiO2 
 PCOD9357266
Probable space group: A M M 2
;
_chemical_formula_sum "Si O2"
_cell_formula_units_Z 64
_cell_length_a 8.861510
_cell_length_b 33.013018
_cell_length_c 11.963796
_cell_angle_alpha 90.000000
_cell_angle_beta 90.000000
_cell_angle_gamma 90.000000
_cell_volume 3499.950964
_symmetry_space_group_name_H-M "A M M 2"
_symmetry_group_IT_number 38
_symmetry_cell_setting 'orthorhombic'
loop_
_space_group_symop_operation_xyz
x,y,z
-x,-y,z
-x,y,z
x,-y,z
x,1/2+y,1/2+z
-x,1/2-y,1/2+z
-x,1/2+y,1/2+z
x,1/2-y,1/2+z
loop_
_atom_site_type_symbol
_atom_site_label
_atom_site_fract_x
_atom_site_fract_y
_atom_site_fract_z
Si Si1 0.674584 0.673159 0.657300
Si Si2 0.676253 0.227844 0.364759
Si Si3 0.319807 0.452531 0.360397
Si Si4 0.180195 0.121586 0.732825
Si Si5 0.822299 0.102778 0.292257
Si Si6 0.178399 0.811607 0.921452
Si Si7 0.680103 0.354794 0.996158
Si Si8 0.825630 0.048298 0.094819
O O1 0.500000 0.659123 0.664262
O O2 0.684763 0.712264 0.737199
O O3 0.785129 0.640699 0.712644
O O4 0.725196 0.680562 0.532178
O O5 0.500000 0.237703 0.388547
O O6 0.779066 0.266605 0.382018
O O7 0.718914 0.189394 0.443180
O O8 0.500000 0.450588 0.353045
O O9 0.274292 0.500000 0.344593
O O10 0.247225 0.421282 0.273601
O O11 0.267708 0.439627 0.485315
O O12 0.215668 0.155346 0.826858
O O13 0.246318 0.136324 0.615058
O O14 0.000000 0.118211 0.724621
O O15 0.734987 0.111997 0.406056
O O16 0.773351 0.065677 0.213521
O O17 0.000000 0.099586 0.316031
O O18 0.000000 0.814580 0.945745
O O19 0.500000 0.356053 0.005061
O O20 0.000000 0.061822 0.078735
O O21 0.823247 0.000000 0.099419
#
# Coordination Sequence:
#
# PCOD9357266 Si02
#       8
#     8   8   8   8   8   8   8   8
#     4  10  21  37  56  79 107 143 184 225 275 335
#     4   9  21  39  57  79 107 145 188 231 284 342
#     4  10  21  37  59  88 119 152 192 240 293 345
#     4  11  24  40  58  85 116 153 197 240 291 350
#     4  10  19  34  57  82 110 145 185 231 280 337
#     4  11  24  37  55  84 114 144 184 236 285 336
#     4  10  22  40  60  81 110 152 195 239 289 344
#     4   9  18  33  55  84 117 150 184 227 281 341
#
# _framework density 18.285971
#
# number of rings (size 3 to 8) (size 9 to 14) (size 15 to 20)
#    0.000    2.000    0.000    3.750    1.750    9.750 
#    0.000    0.625    0.000    2.250    0.000    0.000 
#    0.000    0.000    0.000    0.000    0.000    0.000 
#
# Total GULP energy -178615.645500 kJ/mol
# GULP energy per Si atom -5581.738922 kJ/mol
# Density = 1.824435 g / cm^3
# Si number density = 18.285971 Si / 1000 Ang^3
#
#
#
# Elastic Constant Matrix: (Units=GPa)
#
#
# Indices 1 2 3 4 5 6 
#
# 1 44.8100 35.4273 45.7314 0.0000 0.0000 0.0000
# 2 35.4273 67.9121 53.4313 0.0000 0.0000 0.0000
# 3 45.7314 53.4313 134.1253 0.0000 0.0000 0.0000
# 4 0.0000 0.0000 0.0000 12.0697 0.0000 0.0000
# 5 0.0000 0.0000 0.0000 0.0000 32.0985 0.0000
# 6 0.0000 0.0000 0.0000 0.0000 0.0000 21.0519
#
#
#
# Elastic Compliance Matrix: (Units=1/GPa)
#
#
# Indices 1 2 3 4 5 6 
#
# 1 0.043734 -0.016142 -0.008481 0.000000 0.000000 0.000000
# 2 -0.016142 0.027405 -0.005414 0.000000 0.000000 0.000000
# 3 -0.008481 -0.005414 0.012504 0.000000 0.000000 0.000000
# 4 0.000000 0.000000 0.000000 0.082852 0.000000 0.000000
# 5 0.000000 0.000000 0.000000 0.000000 0.031154 0.000000
# 6 0.000000 0.000000 0.000000 0.000000 0.000000 0.047502
#
#
# Mechanical properties :
#
#
# Convention : Reuss Voigt Hill
#
# Bulk Modulus (GPa) = 42.42710 57.33638 49.88174
# Shear Modulus (GPa) = 15.97042 20.52786 18.24914
#
# Velocity S-wave (km/s) = 2.95849 3.35416 3.16252
# Velocity P-wave (km/s) = 5.90953 6.81351 6.37756
#
# Compressibility (1/GPa) = 0.02356984
#
# Stress axis : x y z
#
# Youngs Moduli (GPa) = 22.86570 36.49027 79.97429
#
# Poissons Ratio (x) = 0.58901 0.67827
# Poissons Ratio (y) = 0.36909 0.43294
# Poissons Ratio (z) = 0.19393 0.19754
#
# Static dielectric constant tensor:
#      x y z
#    x 1.618190 0.000000 0.000000 
#    y 0.000000 1.633710 0.000000 
#    z 0.000000 0.000000 1.615470 
# 
# From -- ./inp_files/8529.got.cif
#   From: 2010.05.17/outbox.cif.g08.bks.cpg/sg38_5_cif.got.tgz:8529.got - 2010.06.03 18:07:57.
