data_PCOD9357171
_publ_section_title
;
Structure prediction by ZEFSAII (Michael W. Deem and Ramdas Pophale) SiO2 
 PCOD9357171
Probable space group: A M M 2
;
_chemical_formula_sum "Si O2"
_cell_formula_units_Z 64
_cell_length_a 14.370927
_cell_length_b 8.662834
_cell_length_c 26.890668
_cell_angle_alpha 90.000000
_cell_angle_beta 90.000000
_cell_angle_gamma 90.000000
_cell_volume 3347.698722
_symmetry_space_group_name_H-M "A M M 2"
_symmetry_group_IT_number 38
_symmetry_cell_setting 'orthorhombic'
loop_
_space_group_symop_operation_xyz
x,y,z
-x,-y,z
-x,y,z
x,-y,z
x,1/2+y,1/2+z
-x,1/2-y,1/2+z
-x,1/2+y,1/2+z
x,1/2-y,1/2+z
loop_
_atom_site_type_symbol
_atom_site_label
_atom_site_fract_x
_atom_site_fract_y
_atom_site_fract_z
Si Si1 0.283728 0.816236 0.546030
Si Si2 0.112953 0.324373 0.702039
Si Si3 0.715391 0.313876 0.848764
Si Si4 0.607347 0.311355 0.947638
Si Si5 0.106576 0.316644 0.307387
Si Si6 0.392099 0.688074 0.750321
Si Si7 0.612466 0.818319 0.140321
Si Si8 0.106773 0.686410 0.591826
O O1 0.337624 0.761157 0.496838
O O2 0.342366 0.769817 0.594684
O O3 0.181374 0.745820 0.552827
O O4 0.276007 0.000000 0.543410
O O5 0.148354 0.500000 0.708235
O O6 0.135610 0.230197 0.751209
O O7 0.138801 0.263614 0.647499
O O8 0.000000 0.331856 0.699886
O O9 0.714224 0.500000 0.848361
O O10 0.660214 0.262132 0.897611
O O11 0.820865 0.257538 0.845109
O O12 0.664481 0.259686 0.798265
O O13 0.500000 0.260860 0.948237
O O14 0.606416 0.500000 0.947672
O O15 0.108346 0.500000 0.311816
O O16 0.000000 0.262610 0.314418
O O17 0.500000 0.733975 0.755413
O O18 0.390702 0.500000 0.749763
O O19 0.357633 0.735879 0.695553
O O20 0.500000 0.806473 0.138881
O O21 0.636503 0.000000 0.135525
O O22 0.106898 0.500000 0.593022
O O23 0.000000 0.736532 0.583360
#
# Coordination Sequence:
#
# PCOD9357171 Si02
#       8
#     8   8   8   8   8   8   8   8
#     4  11  22  34  53  81 112 146 182 223 277 335
#     4   8  15  30  52  75 100 136 182 225 260 303
#     4  10  19  33  58  83 101 134 185 232 271 312
#     4   9  19  37  59  82 108 139 181 230 275 323
#     4  10  21  35  50  74 113 151 178 213 267 327
#     4   8  15  29  51  79 105 129 166 218 271 319
#     4   9  18  33  52  76 108 142 176 219 271 331
#     4   9  19  36  56  78 107 144 187 232 273 318
#
# _framework density 19.117609999999999
#
# number of rings (size 3 to 8) (size 9 to 14) (size 15 to 20)
#    0.000    2.750    0.000    3.000    1.750    3.750 
#    0.000    3.125    0.000    7.500    0.000    0.000 
#    0.000    0.000    0.000    0.000    0.000    0.000 
#
# Total GULP energy -178554.952361 kJ/mol
# GULP energy per Si atom -5579.842261 kJ/mol
# Density = 1.907410 g / cm^3
# Si number density = 19.117610 Si / 1000 Ang^3
#
#
#
# Elastic Constant Matrix: (Units=GPa)
#
#
# Indices 1 2 3 4 5 6 
#
# 1 130.5760 20.6206 92.0683 0.0000 0.0000 0.0000
# 2 20.6206 8.1238 20.5762 0.0000 0.0000 0.0000
# 3 92.0683 20.5762 147.2108 0.0000 0.0000 0.0000
# 4 0.0000 0.0000 0.0000 20.3978 0.0000 0.0000
# 5 0.0000 0.0000 0.0000 0.0000 36.9740 0.0000
# 6 0.0000 0.0000 0.0000 0.0000 0.0000 22.6637
#
#
#
# Elastic Compliance Matrix: (Units=1/GPa)
#
#
# Indices 1 2 3 4 5 6 
#
# 1 0.016249 -0.024002 -0.006807 0.000000 0.000000 0.000000
# 2 -0.024002 0.226013 -0.016579 0.000000 0.000000 0.000000
# 3 -0.006807 -0.016579 0.013368 0.000000 0.000000 0.000000
# 4 0.000000 0.000000 0.000000 0.049025 0.000000 0.000000
# 5 0.000000 0.000000 0.000000 0.000000 0.027046 0.000000
# 6 0.000000 0.000000 0.000000 0.000000 0.000000 0.044123
#
#
# Mechanical properties :
#
#
# Convention : Reuss Voigt Hill
#
# Bulk Modulus (GPa) = 6.21690 61.38229 33.79959
# Shear Modulus (GPa) = 9.53802 26.18347 17.86074
#
# Velocity S-wave (km/s) = 2.23606 3.70483 3.05988
# Velocity P-wave (km/s) = 3.15049 7.10482 5.49563
#
# Compressibility (1/GPa) = 0.16085196
#
# Stress axis : x y z
#
# Youngs Moduli (GPa) = 61.54399 4.42453 74.80695
#
# Poissons Ratio (x) = 0.10620 0.50923
# Poissons Ratio (y) = 1.47718 1.24025
# Poissons Ratio (z) = 0.41895 0.07336
#
# Static dielectric constant tensor:
#      x y z
#    x 1.695750 0.000000 0.000000 
#    y 0.000000 1.655410 0.000000 
#    z 0.000000 0.000000 1.658420 
# 
# From -- ./inp_files/23008.got.cif
#   From: 2010.05.17/outbox.cif.g08.bks.cpg/sg38_12_cif.got.tgz:23008.got - 2010.06.03 18:07:57.
