data_PCOD9357970
_publ_section_title
;
Structure prediction by ZEFSAII (Michael W. Deem and Ramdas Pophale) SiO2 
 PCOD9357970
Probable space group: A M M 2
;
_chemical_formula_sum "Si O2"
_cell_formula_units_Z 56
_cell_length_a 7.741124
_cell_length_b 19.324138
_cell_length_c 17.470888
_cell_angle_alpha 90.000000
_cell_angle_beta 90.000000
_cell_angle_gamma 90.000000
_cell_volume 2613.479718
_symmetry_space_group_name_H-M "A M M 2"
_symmetry_group_IT_number 38
_symmetry_cell_setting 'orthorhombic'
loop_
_space_group_symop_operation_xyz
x,y,z
-x,-y,z
-x,y,z
x,-y,z
x,1/2+y,1/2+z
-x,1/2-y,1/2+z
-x,1/2+y,1/2+z
x,1/2-y,1/2+z
loop_
_atom_site_type_symbol
_atom_site_label
_atom_site_fract_x
_atom_site_fract_y
_atom_site_fract_z
Si Si1 0.709553 0.309262 0.961400
Si Si2 0.706863 0.921816 0.345368
Si Si3 0.295871 0.077758 0.753642
Si Si4 0.204276 0.810234 0.639564
Si Si5 0.703316 0.832916 0.893011
Si Si6 0.209564 0.579964 0.542029
Si Si7 0.208463 0.337154 0.693087
O O1 0.500000 0.308214 0.959934
O O2 0.770115 0.378497 0.918627
O O3 0.775093 0.242376 0.914441
O O4 0.761952 0.303707 0.049488
O O5 0.500000 0.926830 0.352599
O O6 0.741197 0.876286 0.270074
O O7 0.776094 0.000000 0.338853
O O8 0.500000 0.071322 0.769610
O O9 0.277563 0.119868 0.675386
O O10 0.220410 0.126142 0.820883
O O11 0.223740 0.000000 0.752017
O O12 0.272711 0.741560 0.682939
O O13 0.000000 0.812454 0.651483
O O14 0.500000 0.822194 0.877537
O O15 0.723189 0.880523 0.967728
O O16 0.263339 0.500000 0.542656
O O17 0.266098 0.619105 0.618977
O O18 0.000000 0.582009 0.539645
O O19 0.000000 0.334955 0.690737
#
# Coordination Sequence:
#
# PCOD9357970 Si02
#       7
#     8   8   8   8   8   8   8
#     4  10  21  38  60  86 117 153 192 238 292 345
#     4  10  22  39  60  87 116 149 194 244 290 341
#     4  10  22  40  61  86 119 156 192 237 293 345
#     4  11  23  39  61  88 117 152 197 242 283 340
#     4  10  20  36  59  85 113 149 194 239 283 343
#     4  10  20  34  54  81 117 156 189 230 286 344
#     4  10  21  38  58  83 117 155 192 233 287 348
#
# _framework density 21.42737
#
# number of rings (size 3 to 8) (size 9 to 14) (size 15 to 20)
#    0.000    1.857    1.429    2.143    0.000    6.571 
#    0.000    1.429    0.000    0.000    0.000    0.000 
#    0.000    0.000    0.000    0.000    0.000    0.000 
#
# Total GULP energy -156477.563887 kJ/mol
# GULP energy per Si atom -5588.484425 kJ/mol
# Density = 2.137860 g / cm^3
# Si number density = 21.427370 Si / 1000 Ang^3
#
#
#
# Elastic Constant Matrix: (Units=GPa)
#
#
# Indices 1 2 3 4 5 6 
#
# 1 29.6654 1.3672 -2.3883 0.0000 0.0000 0.0000
# 2 1.3672 157.2092 88.2659 0.0000 0.0000 0.0000
# 3 -2.3883 88.2659 71.6386 0.0000 0.0000 0.0000
# 4 0.0000 0.0000 0.0000 -26.0970 0.0000 0.0000
# 5 0.0000 0.0000 0.0000 0.0000 39.4041 0.0000
# 6 0.0000 0.0000 0.0000 0.0000 0.0000 4.9252
#
#
#
# Elastic Compliance Matrix: (Units=1/GPa)
#
#
# Indices 1 2 3 4 5 6 
#
# 1 0.034244 -0.003046 0.004894 0.000000 0.000000 0.000000
# 2 -0.003046 0.020908 -0.025862 0.000000 0.000000 0.000000
# 3 0.004894 -0.025862 0.045987 0.000000 0.000000 0.000000
# 4 0.000000 0.000000 0.000000 -0.038319 0.000000 0.000000
# 5 0.000000 0.000000 0.000000 0.000000 0.025378 0.000000
# 6 0.000000 0.000000 0.000000 0.000000 0.000000 0.203036
#
#
# Mechanical properties :
#
#
# Convention : Reuss Voigt Hill
#
# Bulk Modulus (GPa) = 18.82839 48.11141 33.46990
# Shear Modulus (GPa) = 14.00699 15.06437 14.53568
#
# Velocity S-wave (km/s) = 2.55952 2.65437 2.60738
# Velocity P-wave (km/s) = 4.18820 5.64768 4.97178
#
# Compressibility (1/GPa) = 0.05311129
#
# Stress axis : x y z
#
# Youngs Moduli (GPa) = 29.20241 47.82901 21.74539
#
# Poissons Ratio (x) = 0.14567 -0.10643
# Poissons Ratio (y) = 0.08894 0.56238
# Poissons Ratio (z) = -0.14292 1.23696
#
# Static dielectric constant tensor:
#      x y z
#    x 1.783710 0.000000 0.000000 
#    y 0.000000 1.785330 0.000000 
#    z 0.000000 0.000000 1.727150 
# 
# From -- ./inp_files/12399.got.cif
#   From: 2010.05.17/outbox.cif.g08.bks.cpg/sg38_7_cif.got.tgz:12399.got - 2010.06.03 18:07:57.
