data_PCOD9357322
_publ_section_title
;
Structure prediction by ZEFSAII (Michael W. Deem and Ramdas Pophale) SiO2 
 PCOD9357322
Probable space group: A M M 2
;
_chemical_formula_sum "Si O2"
_cell_formula_units_Z 48
_cell_length_a 10.649432
_cell_length_b 7.929796
_cell_length_c 29.143201
_cell_angle_alpha 90.000000
_cell_angle_beta 90.000000
_cell_angle_gamma 90.000000
_cell_volume 2461.079888
_symmetry_space_group_name_H-M "A M M 2"
_symmetry_group_IT_number 38
_symmetry_cell_setting 'orthorhombic'
loop_
_space_group_symop_operation_xyz
x,y,z
-x,-y,z
-x,y,z
x,-y,z
x,1/2+y,1/2+z
-x,1/2-y,1/2+z
-x,1/2+y,1/2+z
x,1/2-y,1/2+z
loop_
_atom_site_type_symbol
_atom_site_label
_atom_site_fract_x
_atom_site_fract_y
_atom_site_fract_z
Si Si1 0.000000 0.796258 0.325090
Si Si2 0.356355 0.799309 0.681568
Si Si3 0.749097 0.201551 0.275922
Si Si4 0.753646 0.298324 0.485514
Si Si5 0.500000 0.202421 0.433190
Si Si6 0.644593 0.203367 0.079116
Si Si7 0.500000 0.706619 0.827373
Si Si8 0.000000 0.204459 0.932042
O O1 0.124804 0.732164 0.299490
O O2 0.000000 0.754232 0.378812
O O3 0.000000 0.000000 0.321500
O O4 0.500000 0.732164 0.687886
O O5 0.268349 0.735811 0.722186
O O6 0.315436 0.752247 0.630244
O O7 0.361958 0.000000 0.684705
O O8 0.624597 0.266665 0.301501
O O9 0.749836 0.000000 0.282097
O O10 0.769574 0.500000 0.488718
O O11 0.625494 0.264219 0.458123
O O12 0.730098 0.233957 0.537272
O O13 0.874916 0.233295 0.458250
O O14 0.500000 0.257849 0.380289
O O15 0.500000 0.000000 0.434268
O O16 0.500000 0.263205 0.072737
O O17 0.641620 0.000000 0.076873
O O18 0.500000 0.500000 0.826224
O O19 0.000000 0.000000 0.933289
#
# Coordination Sequence:
#
# PCOD9357322 Si02
#       8
#     4   8   8   8   4   8   4   4
#     4  10  22  38  57  80 111 147 188 231 271 324
#     4  10  20  33  52  82 114 139 173 225 279 327
#     4  10  19  35  56  77 104 143 184 222 267 323
#     4  10  20  37  56  81 112 147 188 228 273 333
#     4  11  21  33  54  83 110 141 182 235 286 325
#     4   9  17  32  55  78 106 146 184 221 270 325
#     4   9  18  31  50  75 102 133 176 221 264 317
#     4  10  22  38  59  82 113 153 188 227 281 334
#
# _framework density 19.503633000000001
#
# number of rings (size 3 to 8) (size 9 to 14) (size 15 to 20)
#    0.000    2.167    1.667    1.750    0.000    4.000 
#    0.000    2.500    0.000    3.000    0.000    0.000 
#    0.000    0.000    0.000    0.000    0.000    0.000 
#
# Total GULP energy -133977.029558 kJ/mol
# GULP energy per Si atom -5582.376232 kJ/mol
# Density = 1.945924 g / cm^3
# Si number density = 19.503633 Si / 1000 Ang^3
#
#
#
# Elastic Constant Matrix: (Units=GPa)
#
#
# Indices 1 2 3 4 5 6 
#
# 1 165.3039 7.0690 112.1771 0.0000 0.0000 0.0000
# 2 7.0690 11.9507 -2.5663 0.0000 0.0000 0.0000
# 3 112.1771 -2.5663 193.6858 0.0000 0.0000 0.0000
# 4 0.0000 0.0000 0.0000 23.5606 0.0000 0.0000
# 5 0.0000 0.0000 0.0000 0.0000 -215.6747 0.0000
# 6 0.0000 0.0000 0.0000 0.0000 0.0000 -8.5279
#
#
#
# Elastic Compliance Matrix: (Units=1/GPa)
#
#
# Indices 1 2 3 4 5 6 
#
# 1 0.010617 -0.007622 -0.006250 0.000000 0.000000 0.000000
# 2 -0.007622 0.089388 0.005599 0.000000 0.000000 0.000000
# 3 -0.006250 0.005599 0.008857 0.000000 0.000000 0.000000
# 4 0.000000 0.000000 0.000000 0.042444 0.000000 0.000000
# 5 0.000000 0.000000 0.000000 0.000000 -0.004637 0.000000
# 6 0.000000 0.000000 0.000000 0.000000 0.000000 -0.117263
#
#
# Mechanical properties :
#
#
# Convention : Reuss Voigt Hill
#
# Bulk Modulus (GPa) = 10.83245 67.14445 38.98845
# Shear Modulus (GPa) = 65.16930 -23.17768 20.99581
#
# Velocity S-wave (km/s) = 5.78675 -3.45103 3.28458
# Velocity P-wave (km/s) = 7.08624 4.31531 5.86672
#
# Compressibility (1/GPa) = 0.09231520
#
# Stress axis : x y z
#
# Youngs Moduli (GPa) = 94.19219 11.18723 112.90650
#
# Poissons Ratio (x) = 0.08527 0.70564
# Poissons Ratio (y) = 0.71792 -0.63213
# Poissons Ratio (z) = 0.58868 -0.06263
#
# Static dielectric constant tensor:
#      x y z
#    x 1.783530 0.000000 0.000000 
#    y 0.000000 1.694480 0.000000 
#    z 0.000000 0.000000 1.670900 
# 
# From -- ./inp_files/24467.got.cif
#   From: 2010.05.17/outbox.cif.g08.bks.cpg/sg38_13_cif.got.tgz:24467.got - 2010.06.03 18:07:57.
