data_PCOD9357249
_publ_section_title
;
Structure prediction by ZEFSAII (Michael W. Deem and Ramdas Pophale) SiO2 
 PCOD9357249
Probable space group: A M M 2
;
_chemical_formula_sum "Si O2"
_cell_formula_units_Z 48
_cell_length_a 8.460021
_cell_length_b 32.378772
_cell_length_c 9.032746
_cell_angle_alpha 90.000000
_cell_angle_beta 90.000000
_cell_angle_gamma 90.000000
_cell_volume 2474.295771
_symmetry_space_group_name_H-M "A M M 2"
_symmetry_group_IT_number 38
_symmetry_cell_setting 'orthorhombic'
loop_
_space_group_symop_operation_xyz
x,y,z
-x,-y,z
-x,y,z
x,-y,z
x,1/2+y,1/2+z
-x,1/2-y,1/2+z
-x,1/2+y,1/2+z
x,1/2-y,1/2+z
loop_
_atom_site_type_symbol
_atom_site_label
_atom_site_fract_x
_atom_site_fract_y
_atom_site_fract_z
Si Si1 0.816337 0.291517 0.445940
Si Si2 0.187442 0.544336 0.986483
Si Si3 0.686770 0.632771 0.630836
Si Si4 0.683952 0.783972 0.624830
Si Si5 0.813260 0.454696 0.627707
Si Si6 0.808922 0.865688 0.468144
O O1 0.768720 0.333494 0.528110
O O2 0.782605 0.253284 0.554149
O O3 0.714056 0.285429 0.299224
O O4 0.000000 0.292591 0.404207
O O5 0.254707 0.500000 0.038571
O O6 0.200290 0.544439 0.807166
O O7 0.247437 0.589606 0.031207
O O8 0.000000 0.543802 0.020756
O O9 0.500000 0.639942 0.634900
O O10 0.723442 0.586121 0.577595
O O11 0.755640 0.636908 0.797016
O O12 0.500000 0.777087 0.592333
O O13 0.739525 0.827196 0.555401
O O14 0.759881 0.500000 0.573926
O O15 0.000000 0.450425 0.594670
O O16 0.000000 0.864854 0.472786
#
# Coordination Sequence:
#
# PCOD9357249 Si02
#       6
#     8   8   8   8   8   8
#     4  12  25  43  63  83 108 144 187 226 271 334
#     4   7  11  22  44  74 106 140 181 226 264 303
#     4  11  21  34  54  84 118 150 185 232 285 327
#     4  12  25  42  61  85 114 142 177 228 285 332
#     4   8  14  27  48  75 108 147 189 230 272 323
#     4  10  19  34  56  83 114 151 191 228 271 329
#
# _framework density 19.399457999999999
#
# number of rings (size 3 to 8) (size 9 to 14) (size 15 to 20)
#    0.000    2.000    0.000    8.000    0.000    0.333 
#    0.000    0.000    0.000    2.500    0.000    2.333 
#    0.000    0.000    0.000    0.000    0.000    0.000 
#
# Total GULP energy -133924.686661 kJ/mol
# GULP energy per Si atom -5580.195278 kJ/mol
# Density = 1.935530 g / cm^3
# Si number density = 19.399458 Si / 1000 Ang^3
#
#
#
# Elastic Constant Matrix: (Units=GPa)
#
#
# Indices 1 2 3 4 5 6 
#
# 1 51.3047 -0.8301 -12.9218 0.0000 0.0000 0.0000
# 2 -0.8301 131.6328 21.2778 0.0000 0.0000 0.0000
# 3 -12.9218 21.2778 35.7030 0.0000 0.0000 0.0000
# 4 0.0000 0.0000 0.0000 16.8140 0.0000 0.0000
# 5 0.0000 0.0000 0.0000 0.0000 136.5756 0.0000
# 6 0.0000 0.0000 0.0000 0.0000 0.0000 -6.0149
#
#
#
# Elastic Compliance Matrix: (Units=1/GPa)
#
#
# Indices 1 2 3 4 5 6 
#
# 1 0.021630 -0.001249 0.008573 0.000000 0.000000 0.000000
# 2 -0.001249 0.008479 -0.005505 0.000000 0.000000 0.000000
# 3 0.008573 -0.005505 0.034393 0.000000 0.000000 0.000000
# 4 0.000000 0.000000 0.000000 0.059474 0.000000 0.000000
# 5 0.000000 0.000000 0.000000 0.000000 0.007322 0.000000
# 6 0.000000 0.000000 0.000000 0.000000 0.000000 -0.166253
#
#
# Mechanical properties :
#
#
# Convention : Reuss Voigt Hill
#
# Bulk Modulus (GPa) = 14.67587 25.96579 20.32083
# Shear Modulus (GPa) = -314.89105 43.54925 -135.67090
#
# Velocity S-wave (km/s) = -12.75429 4.74315 -8.37181
# Velocity P-wave (km/s) = 14.46770 6.58866 9.10780
#
# Compressibility (1/GPa) = 0.06813908
#
# Stress axis : x y z
#
# Youngs Moduli (GPa) = 46.23106 117.93949 29.07592
#
# Poissons Ratio (x) = 0.14736 -0.24927
# Poissons Ratio (y) = 0.05776 0.16007
# Poissons Ratio (z) = -0.39635 0.64930
#
# Static dielectric constant tensor:
#      x y z
#    x 1.224940 0.000000 0.000000 
#    y 0.000000 1.717290 0.000000 
#    z 0.000000 0.000000 1.647800 
# 
# From -- ./inp_files/3790.got.cif
#   From: 2010.05.17/outbox.cif.g08.bks.cpg/sg38_2_cif.got.tgz:3790.got - 2010.06.03 18:07:57.
