data_PCOD9357798
_publ_section_title
;
Structure prediction by ZEFSAII (Michael W. Deem and Ramdas Pophale) SiO2 
 PCOD9357798
Probable space group: A M M 2
;
_chemical_formula_sum "Si O2"
_cell_formula_units_Z 64
_cell_length_a 19.656719
_cell_length_b 8.944795
_cell_length_c 20.978145
_cell_angle_alpha 90.000000
_cell_angle_beta 90.000000
_cell_angle_gamma 90.000000
_cell_volume 3688.489096
_symmetry_space_group_name_H-M "A M M 2"
_symmetry_group_IT_number 38
_symmetry_cell_setting 'orthorhombic'
loop_
_space_group_symop_operation_xyz
x,y,z
-x,-y,z
-x,y,z
x,-y,z
x,1/2+y,1/2+z
-x,1/2-y,1/2+z
-x,1/2+y,1/2+z
x,1/2-y,1/2+z
loop_
_atom_site_type_symbol
_atom_site_label
_atom_site_fract_x
_atom_site_fract_y
_atom_site_fract_z
Si Si1 0.788632 0.679287 0.416810
Si Si2 0.289893 0.678104 0.798070
Si Si3 0.796267 0.179009 0.170370
Si Si4 0.921638 0.676756 0.230571
Si Si5 0.289025 0.820068 0.046153
Si Si6 0.078202 0.178684 0.369889
Si Si7 0.421697 0.320678 0.245515
Si Si8 0.422939 0.820160 0.595860
O O1 0.792490 0.500000 0.413277
O O2 0.747367 0.742070 0.356424
O O3 0.749031 0.721784 0.481209
O O4 0.864286 0.746917 0.413087
O O5 0.288840 0.500000 0.807520
O O6 0.249149 0.711896 0.732761
O O7 0.366049 0.737135 0.787291
O O8 0.867745 0.259805 0.180836
O O9 0.756130 0.226001 0.107178
O O10 0.806560 0.000000 0.167851
O O11 0.911345 0.500000 0.240311
O O12 0.911395 0.759952 0.298088
O O13 0.000000 0.701201 0.211250
O O14 0.363567 0.751134 0.054481
O O15 0.294954 0.000000 0.047861
O O16 0.000000 0.214005 0.387929
O O17 0.086356 0.000000 0.369405
O O18 0.500000 0.286253 0.262243
O O19 0.412642 0.500000 0.250799
O O20 0.412367 0.280663 0.170654
O O21 0.500000 0.774359 0.578489
O O22 0.419651 0.000000 0.591870
#
# Coordination Sequence:
#
# PCOD9357798 Si02
#       8
#     8   8   8   8   8   8   8   8
#     4  11  23  38  57  80 111 148 186 226 270 326
#     4  11  21  34  56  83 111 141 179 228 275 323
#     4  10  20  35  55  80 110 141 179 225 272 323
#     4  10  20  33  53  83 113 142 181 226 272 324
#     4  10  22  39  56  80 111 146 186 225 269 323
#     4  10  20  35  56  81 109 142 181 225 274 326
#     4   9  18  33  54  82 114 145 181 226 276 328
#     4   9  18  33  55  83 111 141 179 223 272 325
#
# _framework density 17.351278000000001
#
# number of rings (size 3 to 8) (size 9 to 14) (size 15 to 20)
#    0.000    2.000    2.500    2.250    0.000    4.000 
#    0.000    2.500    0.000    4.500    0.000    0.000 
#    0.000    0.000    0.000    0.000    0.000    0.000 
#
# Total GULP energy -178628.965331 kJ/mol
# GULP energy per Si atom -5582.155167 kJ/mol
# Density = 1.731179 g / cm^3
# Si number density = 17.351278 Si / 1000 Ang^3
#
#
#
# Elastic Constant Matrix: (Units=GPa)
#
#
# Indices 1 2 3 4 5 6 
#
# 1 157.3623 57.1594 74.8353 0.0000 0.0000 0.0000
# 2 57.1594 40.2522 45.0028 0.0000 0.0000 0.0000
# 3 74.8353 45.0028 102.1034 0.0000 0.0000 0.0000
# 4 0.0000 0.0000 0.0000 22.6104 0.0000 0.0000
# 5 0.0000 0.0000 0.0000 0.0000 29.2100 0.0000
# 6 0.0000 0.0000 0.0000 0.0000 0.0000 35.9971
#
#
#
# Elastic Compliance Matrix: (Units=1/GPa)
#
#
# Indices 1 2 3 4 5 6 
#
# 1 0.013534 -0.016025 -0.002856 0.000000 0.000000 0.000000
# 2 -0.016025 0.067954 -0.018206 0.000000 0.000000 0.000000
# 3 -0.002856 -0.018206 0.019912 0.000000 0.000000 0.000000
# 4 0.000000 0.000000 0.000000 0.044227 0.000000 0.000000
# 5 0.000000 0.000000 0.000000 0.000000 0.034235 0.000000
# 6 0.000000 0.000000 0.000000 0.000000 0.000000 0.027780
#
#
# Mechanical properties :
#
#
# Convention : Reuss Voigt Hill
#
# Bulk Modulus (GPa) = 36.73056 72.63477 54.68267
# Shear Modulus (GPa) = 17.18846 25.74486 21.46666
#
# Velocity S-wave (km/s) = 3.15082 3.85612 3.52117
# Velocity P-wave (km/s) = 5.86955 7.85992 6.93650
#
# Compressibility (1/GPa) = 0.02722528
#
# Stress axis : x y z
#
# Youngs Moduli (GPa) = 73.88746 14.71574 50.22140
#
# Poissons Ratio (x) = 0.23583 0.14345
# Poissons Ratio (y) = 1.18408 0.91432
# Poissons Ratio (z) = 0.21104 0.26791
#
# Static dielectric constant tensor:
#      x y z
#    x 1.593990 0.000000 0.000000 
#    y 0.000000 1.578660 0.000000 
#    z 0.000000 0.000000 1.564960 
# 
# From -- ./inp_files/21337.got.cif
#   From: 2010.05.17/outbox.cif.g08.bks.cpg/sg38_11_cif.got.tgz:21337.got - 2010.06.03 18:07:57.
