data_PCOD9357555
_publ_section_title
;
Structure prediction by ZEFSAII (Michael W. Deem and Ramdas Pophale) SiO2 
 PCOD9357555
Probable space group: A M M 2
;
_chemical_formula_sum "Si O2"
_cell_formula_units_Z 48
_cell_length_a 8.929822
_cell_length_b 24.308165
_cell_length_c 14.014844
_cell_angle_alpha 90.000000
_cell_angle_beta 90.000000
_cell_angle_gamma 90.000000
_cell_volume 3042.168364
_symmetry_space_group_name_H-M "A M M 2"
_symmetry_group_IT_number 38
_symmetry_cell_setting 'orthorhombic'
loop_
_space_group_symop_operation_xyz
x,y,z
-x,-y,z
-x,y,z
x,-y,z
x,1/2+y,1/2+z
-x,1/2-y,1/2+z
-x,1/2+y,1/2+z
x,1/2-y,1/2+z
loop_
_atom_site_type_symbol
_atom_site_label
_atom_site_fract_x
_atom_site_fract_y
_atom_site_fract_z
Si Si1 0.820584 0.437350 0.576350
Si Si2 0.178963 0.336616 0.259399
Si Si3 0.820336 0.169782 0.189257
Si Si4 0.321832 0.773420 0.586911
Si Si5 0.321195 0.063908 0.869697
Si Si6 0.821503 0.728013 0.882258
O O1 0.783915 0.500000 0.605092
O O2 0.783042 0.391205 0.653989
O O3 0.739301 0.425438 0.476540
O O4 0.000000 0.434637 0.559925
O O5 0.250940 0.317340 0.160066
O O6 0.244713 0.393166 0.298900
O O7 0.211918 0.287723 0.335649
O O8 0.000000 0.339482 0.249658
O O9 0.738354 0.214419 0.123605
O O10 0.785227 0.184389 0.298735
O O11 0.000000 0.178151 0.178244
O O12 0.500000 0.775242 0.592607
O O13 0.266021 0.781392 0.479353
O O14 0.500000 0.070535 0.867616
O O15 0.285596 0.000000 0.847503
O O16 0.000000 0.726053 0.900997
#
# Coordination Sequence:
#
# PCOD9357555 Si02
#       6
#     8   8   8   8   8   8
#     4   9  17  30  49  72  97 127 163 199 235 278
#     4  10  20  34  52  71  94 126 162 198 235 279
#     4   9  18  32  49  69  95 127 160 196 237 280
#     4  11  21  31  47  71  97 124 155 194 240 288
#     4  10  20  32  47  71 102 130 156 192 238 284
#     4   9  18  32  48  67  93 125 158 194 237 281
#
# _framework density 15.778219
#
# number of rings (size 3 to 8) (size 9 to 14) (size 15 to 20)
#    0.000    2.333    0.000    4.500    0.000    9.000 
#    0.000    0.000    0.000    1.000    0.000    2.333 
#    0.000    0.000    0.000    0.000    0.000    0.000 
#
# Total GULP energy -133897.918847 kJ/mol
# GULP energy per Si atom -5579.079952 kJ/mol
# Density = 1.574231 g / cm^3
# Si number density = 15.778219 Si / 1000 Ang^3
#
#
#
# Elastic Constant Matrix: (Units=GPa)
#
#
# Indices 1 2 3 4 5 6 
#
# 1 60.8115 57.6454 68.1959 0.0000 0.0000 0.0000
# 2 57.6454 111.4807 86.2646 0.0000 0.0000 0.0000
# 3 68.1959 86.2646 134.7210 0.0000 0.0000 0.0000
# 4 0.0000 0.0000 0.0000 22.8417 0.0000 0.0000
# 5 0.0000 0.0000 0.0000 0.0000 -39.3679 0.0000
# 6 0.0000 0.0000 0.0000 0.0000 0.0000 21.2146
#
#
#
# Elastic Compliance Matrix: (Units=1/GPa)
#
#
# Indices 1 2 3 4 5 6 
#
# 1 0.043828 -0.010892 -0.015211 0.000000 0.000000 0.000000
# 2 -0.010892 0.020487 -0.007604 0.000000 0.000000 0.000000
# 3 -0.015211 -0.007604 0.019992 0.000000 0.000000 0.000000
# 4 0.000000 0.000000 0.000000 0.043780 0.000000 0.000000
# 5 0.000000 0.000000 0.000000 0.000000 -0.025401 0.000000
# 6 0.000000 0.000000 0.000000 0.000000 0.000000 0.047137
#
#
# Mechanical properties :
#
#
# Convention : Reuss Voigt Hill
#
# Bulk Modulus (GPa) = 59.20412 81.24724 70.22568
# Shear Modulus (GPa) = 22.43486 7.26482 14.84984
#
# Velocity S-wave (km/s) = 3.77488 2.14810 3.07116
# Velocity P-wave (km/s) = 7.52355 7.59984 7.56179
#
# Compressibility (1/GPa) = 0.01689072
#
# Stress axis : x y z
#
# Youngs Moduli (GPa) = 22.81670 48.81175 50.02054
#
# Poissons Ratio (x) = 0.53168 0.76086
# Poissons Ratio (y) = 0.24853 0.38038
# Poissons Ratio (z) = 0.34706 0.37118
#
# Static dielectric constant tensor:
#      x y z
#    x 1.524410 0.000000 0.000000 
#    y 0.000000 1.524710 0.000000 
#    z 0.000000 0.000000 1.502680 
# 
# From -- ./inp_files/8116.got.cif
#   From: 2010.05.17/outbox.cif.g08.bks.cpg/sg38_5_cif.got.tgz:8116.got - 2010.06.03 18:07:57.
