data_PCOD9357885
_publ_section_title
;
Structure prediction by ZEFSAII (Michael W. Deem and Ramdas Pophale) SiO2 
 PCOD9357885
Probable space group: A M M 2
;
_chemical_formula_sum "Si O2"
_cell_formula_units_Z 48
_cell_length_a 7.526324
_cell_length_b 8.330790
_cell_length_c 34.847791
_cell_angle_alpha 90.000000
_cell_angle_beta 90.000000
_cell_angle_gamma 90.000000
_cell_volume 2184.964327
_symmetry_space_group_name_H-M "A M M 2"
_symmetry_group_IT_number 38
_symmetry_cell_setting 'orthorhombic'
loop_
_space_group_symop_operation_xyz
x,y,z
-x,-y,z
-x,y,z
x,-y,z
x,1/2+y,1/2+z
-x,1/2-y,1/2+z
-x,1/2+y,1/2+z
x,1/2-y,1/2+z
loop_
_atom_site_type_symbol
_atom_site_label
_atom_site_fract_x
_atom_site_fract_y
_atom_site_fract_z
Si Si1 0.215110 0.323510 0.181560
Si Si2 0.717664 0.686755 0.935531
Si Si3 0.717604 0.500000 0.298627
Si Si4 0.708833 0.674100 0.759176
Si Si5 0.209301 0.323763 0.603881
Si Si6 0.292213 0.309102 0.021334
Si Si7 0.283685 0.000000 0.887682
O O1 0.278960 0.500000 0.193192
O O2 0.273774 0.198177 0.213498
O O3 0.277733 0.286310 0.138376
O O4 0.000000 0.325684 0.182149
O O5 0.500000 0.683608 0.935724
O O6 0.770586 0.500000 0.926941
O O7 0.773082 0.833184 0.908100
O O8 0.778351 0.729763 0.978957
O O9 0.500000 0.500000 0.296171
O O10 0.781869 0.335728 0.278651
O O11 0.766801 0.500000 0.343235
O O12 0.500000 0.670362 0.768854
O O13 0.784484 0.500000 0.770273
O O14 0.289115 0.500000 0.607233
O O15 0.223025 0.266346 0.560294
O O16 0.000000 0.334740 0.611536
O O17 0.500000 0.268309 0.020395
O O18 0.272689 0.500000 0.025143
O O19 0.500000 0.000000 0.889579
#
# Coordination Sequence:
#
# PCOD9357885 Si02
#       7
#     8   8   4   8   8   8   4
#     4  10  20  35  55  75  97 131 174 215 257 304
#     4   8  15  27  43  68 100 131 167 208 247 297
#     4   9  18  32  47  73 107 135 171 213 253 309
#     4  10  20  34  53  76 105 139 169 206 258 308
#     4  10  21  34  48  71 101 131 168 213 255 301
#     4   9  18  32  49  71  99 131 169 211 254 298
#     4   9  16  26  46  71  99 137 169 201 255 303
#
# _framework density 21.968323999999999
#
# number of rings (size 3 to 8) (size 9 to 14) (size 15 to 20)
#    0.000    2.667    0.833    2.000    1.167    3.667 
#    0.000    3.333    0.000    0.000    0.000    2.333 
#    0.000    2.667    0.000    0.000    0.000    0.000 
#
# Total GULP energy -133850.945362 kJ/mol
# GULP energy per Si atom -5577.122723 kJ/mol
# Density = 2.191832 g / cm^3
# Si number density = 21.968324 Si / 1000 Ang^3
#
#
#
# Elastic Constant Matrix: (Units=GPa)
#
#
# Indices 1 2 3 4 5 6 
#
# 1 53.8030 2.8011 -2.0112 0.0000 0.0000 0.0000
# 2 2.8011 178.3665 86.8110 0.0000 0.0000 0.0000
# 3 -2.0112 86.8110 132.2271 0.0000 0.0000 0.0000
# 4 0.0000 0.0000 0.0000 16.2027 0.0000 0.0000
# 5 0.0000 0.0000 0.0000 0.0000 26.8413 0.0000
# 6 0.0000 0.0000 0.0000 0.0000 0.0000 3.9362
#
#
#
# Elastic Compliance Matrix: (Units=1/GPa)
#
#
# Indices 1 2 3 4 5 6 
#
# 1 0.018645 -0.000633 0.000699 0.000000 0.000000 0.000000
# 2 -0.000633 0.008261 -0.005433 0.000000 0.000000 0.000000
# 3 0.000699 -0.005433 0.011140 0.000000 0.000000 0.000000
# 4 0.000000 0.000000 0.000000 0.061718 0.000000 0.000000
# 5 0.000000 0.000000 0.000000 0.000000 0.037256 0.000000
# 6 0.000000 0.000000 0.000000 0.000000 0.000000 0.254050
#
#
# Mechanical properties :
#
#
# Convention : Reuss Voigt Hill
#
# Bulk Modulus (GPa) = 36.61307 59.95538 48.28422
# Shear Modulus (GPa) = 12.16817 27.84910 20.00863
#
# Velocity S-wave (km/s) = 2.35605 3.56433 3.02121
# Velocity P-wave (km/s) = 4.90956 6.65509 5.84782
#
# Compressibility (1/GPa) = 0.02731265
#
# Stress axis : x y z
#
# Youngs Moduli (GPa) = 53.63245 121.05662 89.76432
#
# Poissons Ratio (x) = 0.07665 -0.06277
# Poissons Ratio (y) = 0.03396 0.48769
# Poissons Ratio (z) = -0.03750 0.65770
#
# Static dielectric constant tensor:
#      x y z
#    x 1.824520 0.000000 0.000000 
#    y 0.000000 1.818860 0.000000 
#    z 0.000000 0.000000 1.777680 
# 
# From -- ./inp_files/24334.got.cif
#   From: 2010.05.17/outbox.cif.g08.bks.cpg/sg38_13_cif.got.tgz:24334.got - 2010.06.03 18:07:57.
