data_PCOD9357312
_publ_section_title
;
Structure prediction by ZEFSAII (Michael W. Deem and Ramdas Pophale) SiO2 
 PCOD9357312
Probable space group: A M M 2
;
_chemical_formula_sum "Si O2"
_cell_formula_units_Z 40
_cell_length_a 18.987204
_cell_length_b 7.699952
_cell_length_c 14.548837
_cell_angle_alpha 90.000000
_cell_angle_beta 90.000000
_cell_angle_gamma 90.000000
_cell_volume 2127.048108
_symmetry_space_group_name_H-M "A M M 2"
_symmetry_group_IT_number 38
_symmetry_cell_setting 'orthorhombic'
loop_
_space_group_symop_operation_xyz
x,y,z
-x,-y,z
-x,y,z
x,-y,z
x,1/2+y,1/2+z
-x,1/2-y,1/2+z
-x,1/2+y,1/2+z
x,1/2-y,1/2+z
loop_
_atom_site_type_symbol
_atom_site_label
_atom_site_fract_x
_atom_site_fract_y
_atom_site_fract_z
Si Si1 0.915402 0.500000 0.472570
Si Si2 0.422563 0.207199 0.696250
Si Si3 0.691920 0.211230 0.838031
Si Si4 0.577649 0.709064 0.482957
Si Si5 0.146420 0.189123 0.351751
Si Si6 0.084520 0.500000 0.688065
O O1 0.886729 0.664472 0.415524
O O2 0.893418 0.500000 0.580822
O O3 0.000000 0.500000 0.471123
O O4 0.500000 0.276271 0.724186
O O5 0.355196 0.270685 0.751750
O O6 0.414897 0.241134 0.588717
O O7 0.424914 0.000000 0.712090
O O8 0.770512 0.280557 0.840557
O O9 0.696967 0.000000 0.837853
O O10 0.643781 0.267860 0.923857
O O11 0.500000 0.770869 0.451495
O O12 0.576466 0.500000 0.475943
O O13 0.134108 0.000000 0.395919
O O14 0.113046 0.162489 0.249496
O O15 0.000000 0.500000 0.691068
#
# Coordination Sequence:
#
# PCOD9357312 Si02
#       6
#     4   8   8   8   8   4
#     4  11  22  44  73  95 130 171 201 253 317 366
#     4   9  18  32  51  75 107 152 202 251 303 359
#     4  10  19  35  54  79 117 158 200 246 312 363
#     4   9  18  32  51  75 106 150 201 252 304 357
#     4  10  23  41  63  96 132 163 210 258 306 376
#     4   9  22  44  67  97 128 161 207 253 301 374
#
# _framework density 18.805403999999999
#
# number of rings (size 3 to 8) (size 9 to 14) (size 15 to 20)
#    0.600    1.800    1.000    1.200    0.000    5.600 
#    1.800    2.000    0.000    6.000    0.000    0.000 
#    0.000    0.000    0.000    0.000    0.000    0.000 
#
# Total GULP energy -111437.124353 kJ/mol
# GULP energy per Si atom -5571.856218 kJ/mol
# Density = 1.876260 g / cm^3
# Si number density = 18.805404 Si / 1000 Ang^3
#
#
#
# Elastic Constant Matrix: (Units=GPa)
#
#
# Indices 1 2 3 4 5 6 
#
# 1 138.5412 36.3687 74.2218 0.0000 0.0000 0.0000
# 2 36.3687 84.1781 41.7542 0.0000 0.0000 0.0000
# 3 74.2218 41.7542 131.7142 0.0000 0.0000 0.0000
# 4 0.0000 0.0000 0.0000 22.4527 0.0000 0.0000
# 5 0.0000 0.0000 0.0000 0.0000 10.5230 0.0000
# 6 0.0000 0.0000 0.0000 0.0000 0.0000 17.1747
#
#
#
# Elastic Compliance Matrix: (Units=1/GPa)
#
#
# Indices 1 2 3 4 5 6 
#
# 1 0.010594 -0.001917 -0.005362 0.000000 0.000000 0.000000
# 2 -0.001917 0.014443 -0.003498 0.000000 0.000000 0.000000
# 3 -0.005362 -0.003498 0.011723 0.000000 0.000000 0.000000
# 4 0.000000 0.000000 0.000000 0.044538 0.000000 0.000000
# 5 0.000000 0.000000 0.000000 0.000000 0.095030 0.000000
# 6 0.000000 0.000000 0.000000 0.000000 0.000000 0.058225
#
#
# Mechanical properties :
#
#
# Convention : Reuss Voigt Hill
#
# Bulk Modulus (GPa) = 65.76868 73.23588 69.50228
# Shear Modulus (GPa) = 19.14419 23.50267 21.32343
#
# Velocity S-wave (km/s) = 3.19410 3.53906 3.37100
# Velocity P-wave (km/s) = 6.97511 7.46516 7.22429
#
# Compressibility (1/GPa) = 0.01520481
#
# Stress axis : x y z
#
# Youngs Moduli (GPa) = 94.39286 69.23717 85.30521
#
# Poissons Ratio (x) = 0.13276 0.45740
# Poissons Ratio (y) = 0.18099 0.29840
# Poissons Ratio (z) = 0.50613 0.24220
#
# Static dielectric constant tensor:
#      x y z
#    x 1.634850 0.000000 0.000000 
#    y 0.000000 1.699720 0.000000 
#    z 0.000000 0.000000 1.646800 
# 
# From -- ./inp_files/10708.got.cif
#   From: 2010.05.17/outbox.cif.g08.bks.cpg/sg38_6_cif.got.tgz:10708.got - 2010.06.03 18:07:57.
