data_PCOD9357092
_publ_section_title
;
Structure prediction by ZEFSAII (Michael W. Deem and Ramdas Pophale) SiO2 
 PCOD9357092
Probable space group: A M M 2
;
_chemical_formula_sum "Si O2"
_cell_formula_units_Z 48
_cell_length_a 7.749356
_cell_length_b 31.593405
_cell_length_c 9.296720
_cell_angle_alpha 90.000000
_cell_angle_beta 90.000000
_cell_angle_gamma 90.000000
_cell_volume 2276.102409
_symmetry_space_group_name_H-M "A M M 2"
_symmetry_group_IT_number 38
_symmetry_cell_setting 'orthorhombic'
loop_
_space_group_symop_operation_xyz
x,y,z
-x,-y,z
-x,y,z
x,-y,z
x,1/2+y,1/2+z
-x,1/2-y,1/2+z
-x,1/2+y,1/2+z
x,1/2-y,1/2+z
loop_
_atom_site_type_symbol
_atom_site_label
_atom_site_fract_x
_atom_site_fract_y
_atom_site_fract_z
Si Si1 0.789683 0.952630 0.917060
Si Si2 0.788338 0.369982 0.248168
Si Si3 0.789447 0.047541 0.249523
Si Si4 0.208812 0.370147 0.919539
Si Si5 0.196169 0.707101 0.443431
Si Si6 0.694351 0.283982 0.764717
O O1 0.733216 0.914746 0.814920
O O2 0.000000 0.952598 0.915077
O O3 0.733954 0.000000 0.874987
O O4 0.738781 0.945252 0.083178
O O5 0.730847 0.331812 0.350932
O O6 0.000000 0.368999 0.247270
O O7 0.731888 0.364871 0.083784
O O8 0.730493 0.085754 0.349828
O O9 0.000000 0.047615 0.252138
O O10 0.734648 0.000000 0.291614
O O11 0.262225 0.330333 0.823990
O O12 0.000000 0.371242 0.921178
O O13 0.287256 0.716379 0.593407
O O14 0.194426 0.748189 0.342402
O O15 0.000000 0.695562 0.483815
O O16 0.500000 0.273335 0.805920
#
# Coordination Sequence:
#
# PCOD9357092 Si02
#       6
#     8   8   8   8   8   8
#     4   8  13  23  40  67 106 144 174 213 270 326
#     4   9  18  30  49  78 107 139 180 223 266 320
#     4   8  14  25  45  75 109 144 184 231 279 327
#     4  10  19  33  54  80 111 147 187 228 276 336
#     4  11  22  39  61  82 108 145 188 229 275 334
#     4  12  25  40  58  83 113 143 181 230 284 337
#
# _framework density 21.088681999999999
#
# number of rings (size 3 to 8) (size 9 to 14) (size 15 to 20)
#    0.000    2.333    0.000    5.000    0.000    4.667 
#    0.000    4.167    0.000    0.500    0.000    0.000 
#    0.000    4.667    0.000    0.000    0.000    0.000 
#
# Total GULP energy -134060.643812 kJ/mol
# GULP energy per Si atom -5585.860159 kJ/mol
# Density = 2.104068 g / cm^3
# Si number density = 21.088682 Si / 1000 Ang^3
#
#
#
# Elastic Constant Matrix: (Units=GPa)
#
#
# Indices 1 2 3 4 5 6 
#
# 1 37.5886 -3.8108 0.8164 0.0000 0.0000 0.0000
# 2 -3.8108 138.8965 81.2495 0.0000 0.0000 0.0000
# 3 0.8164 81.2495 135.0785 0.0000 0.0000 0.0000
# 4 0.0000 0.0000 0.0000 40.0737 0.0000 0.0000
# 5 0.0000 0.0000 0.0000 0.0000 1.0523 0.0000
# 6 0.0000 0.0000 0.0000 0.0000 0.0000 -25.2024
#
#
#
# Elastic Compliance Matrix: (Units=1/GPa)
#
#
# Indices 1 2 3 4 5 6 
#
# 1 0.026754 0.001278 -0.000931 0.000000 0.000000 0.000000
# 2 0.001278 0.011169 -0.006726 0.000000 0.000000 0.000000
# 3 -0.000931 -0.006726 0.011454 0.000000 0.000000 0.000000
# 4 0.000000 0.000000 0.000000 0.024954 0.000000 0.000000
# 5 0.000000 0.000000 0.000000 0.000000 0.950305 0.000000
# 6 0.000000 0.000000 0.000000 0.000000 0.000000 -0.039679
#
#
# Mechanical properties :
#
#
# Convention : Reuss Voigt Hill
#
# Bulk Modulus (GPa) = 27.30689 52.00818 39.65753
# Shear Modulus (GPa) = 4.95088 18.73864 11.84476
#
# Velocity S-wave (km/s) = 1.53387 2.98411 2.37252
# Velocity P-wave (km/s) = 4.01419 6.04884 5.13333
#
# Compressibility (1/GPa) = 0.03662080
#
# Stress axis : x y z
#
# Youngs Moduli (GPa) = 37.37806 89.53270 87.30302
#
# Poissons Ratio (x) = -0.11446 0.08125
# Poissons Ratio (y) = -0.04779 0.58719
# Poissons Ratio (z) = 0.03479 0.60219
#
# Static dielectric constant tensor:
#      x y z
#    x 1.783700 0.000000 0.000000 
#    y 0.000000 1.731170 0.000000 
#    z 0.000000 0.000000 1.705880 
# 
# From -- ./inp_files/3787.got.cif
#   From: 2010.05.17/outbox.cif.g08.bks.cpg/sg38_2_cif.got.tgz:3787.got - 2010.06.03 18:07:57.
