data_PCOD9357344
_publ_section_title
;
Structure prediction by ZEFSAII (Michael W. Deem and Ramdas Pophale) SiO2 
 PCOD9357344
Probable space group: A M M 2
;
_chemical_formula_sum "Si O2"
_cell_formula_units_Z 48
_cell_length_a 7.631135
_cell_length_b 31.958735
_cell_length_c 9.360283
_cell_angle_alpha 90.000000
_cell_angle_beta 90.000000
_cell_angle_gamma 90.000000
_cell_volume 2282.799121
_symmetry_space_group_name_H-M "A M M 2"
_symmetry_group_IT_number 38
_symmetry_cell_setting 'orthorhombic'
loop_
_space_group_symop_operation_xyz
x,y,z
-x,-y,z
-x,y,z
x,-y,z
x,1/2+y,1/2+z
-x,1/2-y,1/2+z
-x,1/2+y,1/2+z
x,1/2-y,1/2+z
loop_
_atom_site_type_symbol
_atom_site_label
_atom_site_fract_x
_atom_site_fract_y
_atom_site_fract_z
Si Si1 0.788416 0.873272 0.859570
Si Si2 0.292634 0.871713 0.526153
Si Si3 0.794496 0.287986 0.860354
Si Si4 0.211209 0.453195 0.532486
Si Si5 0.290174 0.546788 0.864882
Si Si6 0.784474 0.792055 0.036323
O O1 0.739654 0.869510 0.694555
O O2 0.000000 0.873680 0.866686
O O3 0.723697 0.916339 0.930724
O O4 0.728661 0.833448 0.951481
O O5 0.500000 0.871213 0.500750
O O6 0.220628 0.831232 0.445299
O O7 0.221383 0.915117 0.460191
O O8 0.722716 0.291754 0.700094
O O9 0.000000 0.278621 0.842574
O O10 0.723872 0.249383 0.952973
O O11 0.276105 0.500000 0.497508
O O12 0.255316 0.444583 0.697872
O O13 0.000000 0.453979 0.522096
O O14 0.500000 0.545121 0.884350
O O15 0.220961 0.500000 0.897184
O O16 0.000000 0.792428 0.038087
#
# Coordination Sequence:
#
# PCOD9357344 Si02
#       6
#     8   8   8   8   8   8
#     4  10  20  35  54  77 107 141 175 211 255 308
#     4  11  23  36  51  76 107 138 176 218 258 302
#     4  10  19  35  58  80 103 133 171 213 259 309
#     4   9  18  33  55  83 109 132 167 217 266 309
#     4   9  19  36  55  74 101 139 178 213 254 310
#     4   9  18  33  57  83 103 132 175 214 250 308
#
# _framework density 21.026817000000001
#
# number of rings (size 3 to 8) (size 9 to 14) (size 15 to 20)
#    0.000    2.333    0.000    2.500    0.000    6.667 
#    0.000    4.167    0.000    0.000    0.000    0.000 
#    0.000    0.000    0.000    0.000    0.000    0.000 
#
# Total GULP energy -134056.191906 kJ/mol
# GULP energy per Si atom -5585.674663 kJ/mol
# Density = 2.097896 g / cm^3
# Si number density = 21.026817 Si / 1000 Ang^3
#
#
#
# Elastic Constant Matrix: (Units=GPa)
#
#
# Indices 1 2 3 4 5 6 
#
# 1 35.1722 -8.7871 -16.0935 0.0000 0.0000 0.0000
# 2 -8.7871 168.6564 111.7668 0.0000 0.0000 0.0000
# 3 -16.0935 111.7668 163.5640 0.0000 0.0000 0.0000
# 4 0.0000 0.0000 0.0000 37.5312 0.0000 0.0000
# 5 0.0000 0.0000 0.0000 0.0000 46.6450 0.0000
# 6 0.0000 0.0000 0.0000 0.0000 0.0000 9.4548
#
#
#
# Elastic Compliance Matrix: (Units=1/GPa)
#
#
# Indices 1 2 3 4 5 6 
#
# 1 0.029819 -0.000714 0.003422 0.000000 0.000000 0.000000
# 2 -0.000714 0.010853 -0.007487 0.000000 0.000000 0.000000
# 3 0.003422 -0.007487 0.011566 0.000000 0.000000 0.000000
# 4 0.000000 0.000000 0.000000 0.026645 0.000000 0.000000
# 5 0.000000 0.000000 0.000000 0.000000 0.021439 0.000000
# 6 0.000000 0.000000 0.000000 0.000000 0.000000 0.105767
#
#
# Mechanical properties :
#
#
# Convention : Reuss Voigt Hill
#
# Bulk Modulus (GPa) = 23.42963 60.12944 41.77954
# Shear Modulus (GPa) = 21.75119 37.42661 29.58890
#
# Velocity S-wave (km/s) = 3.21978 4.22352 3.75533
# Velocity P-wave (km/s) = 4.99895 7.24174 6.22223
#
# Compressibility (1/GPa) = 0.04268099
#
# Stress axis : x y z
#
# Youngs Moduli (GPa) = 33.53575 92.13830 86.45877
#
# Poissons Ratio (x) = 0.06579 -0.29585
# Poissons Ratio (y) = 0.02395 0.64728
# Poissons Ratio (z) = -0.11476 0.68980
#
# Static dielectric constant tensor:
#      x y z
#    x 1.783570 0.000000 0.000000 
#    y 0.000000 1.754410 0.000000 
#    z 0.000000 0.000000 1.700820 
# 
# From -- ./inp_files/3745.got.cif
#   From: 2010.05.17/outbox.cif.g08.bks.cpg/sg38_2_cif.got.tgz:3745.got - 2010.06.03 18:07:57.
