data_PCOD9357067
_publ_section_title
;
Structure prediction by ZEFSAII (Michael W. Deem and Ramdas Pophale) SiO2 
 PCOD9357067
Probable space group: A M M 2
;
_chemical_formula_sum "Si O2"
_cell_formula_units_Z 48
_cell_length_a 7.787933
_cell_length_b 8.993720
_cell_length_c 35.377685
_cell_angle_alpha 90.000000
_cell_angle_beta 90.000000
_cell_angle_gamma 90.000000
_cell_volume 2477.941105
_symmetry_space_group_name_H-M "A M M 2"
_symmetry_group_IT_number 38
_symmetry_cell_setting 'orthorhombic'
loop_
_space_group_symop_operation_xyz
x,y,z
-x,-y,z
-x,y,z
x,-y,z
x,1/2+y,1/2+z
-x,1/2-y,1/2+z
-x,1/2+y,1/2+z
x,1/2-y,1/2+z
loop_
_atom_site_type_symbol
_atom_site_label
_atom_site_fract_x
_atom_site_fract_y
_atom_site_fract_z
Si Si1 0.796156 0.170281 0.179850
Si Si2 0.296531 0.322563 0.948279
Si Si3 0.000000 0.321862 0.398447
Si Si4 0.688916 0.680700 0.761817
Si Si5 0.291194 0.668962 0.526758
Si Si6 0.292444 0.169327 0.602363
Si Si7 0.000000 0.819116 0.315766
O O1 0.717479 0.231713 0.218699
O O2 0.758183 0.261244 0.142305
O O3 0.000000 0.165550 0.186018
O O4 0.734748 0.000000 0.174191
O O5 0.500000 0.288074 0.942173
O O6 0.276103 0.500000 0.945001
O O7 0.168719 0.240332 0.919847
O O8 0.249374 0.269031 0.990590
O O9 0.000000 0.257495 0.356171
O O10 0.000000 0.500000 0.398858
O O11 0.500000 0.723519 0.774943
O O12 0.698099 0.500000 0.759707
O O13 0.835496 0.725358 0.790791
O O14 0.500000 0.665720 0.528482
O O15 0.231262 0.500000 0.521469
O O16 0.230236 0.736259 0.566435
O O17 0.500000 0.168633 0.600864
O O18 0.232274 0.000000 0.599319
O O19 0.000000 0.000000 0.320142
#
# Coordination Sequence:
#
# PCOD9357067 Si02
#       7
#     8   8   4   8   8   8   4
#     4  10  19  33  53  79 111 147 191 244 293 342
#     4  10  21  40  66  93 122 158 201 250 302 357
#     4  12  26  42  62  91 126 163 198 240 297 362
#     4   9  17  32  58  87 113 145 186 237 295 349
#     4   9  17  32  56  84 115 152 194 243 296 349
#     4  10  20  33  50  76 111 152 198 243 287 341
#     4  10  20  38  60  85 116 147 190 242 289 352
#
# _framework density 19.370920999999999
#
# number of rings (size 3 to 8) (size 9 to 14) (size 15 to 20)
#    0.000    2.167    0.833    2.750    0.000    5.667 
#    1.500    2.500    0.000    1.000    0.000    0.000 
#    0.000    0.000    0.000    0.000    0.000    0.000 
#
# Total GULP energy -134017.471472 kJ/mol
# GULP energy per Si atom -5584.061311 kJ/mol
# Density = 1.932683 g / cm^3
# Si number density = 19.370921 Si / 1000 Ang^3
#
#
#
# Elastic Constant Matrix: (Units=GPa)
#
#
# Indices 1 2 3 4 5 6 
#
# 1 98.7593 40.5664 71.2894 0.0000 0.0000 0.0000
# 2 40.5664 89.1103 57.0124 0.0000 0.0000 0.0000
# 3 71.2894 57.0124 168.0588 0.0000 0.0000 0.0000
# 4 0.0000 0.0000 0.0000 32.0506 0.0000 0.0000
# 5 0.0000 0.0000 0.0000 0.0000 31.4162 0.0000
# 6 0.0000 0.0000 0.0000 0.0000 0.0000 16.6748
#
#
#
# Elastic Compliance Matrix: (Units=1/GPa)
#
#
# Indices 1 2 3 4 5 6 
#
# 1 0.015463 -0.003631 -0.005327 0.000000 0.000000 0.000000
# 2 -0.003631 0.015185 -0.003611 0.000000 0.000000 0.000000
# 3 -0.005327 -0.003611 0.009435 0.000000 0.000000 0.000000
# 4 0.000000 0.000000 0.000000 0.031201 0.000000 0.000000
# 5 0.000000 0.000000 0.000000 0.000000 0.031831 0.000000
# 6 0.000000 0.000000 0.000000 0.000000 0.000000 0.059971
#
#
# Mechanical properties :
#
#
# Convention : Reuss Voigt Hill
#
# Bulk Modulus (GPa) = 66.91534 77.07386 71.99460
# Shear Modulus (GPa) = 25.87913 28.49900 27.18906
#
# Velocity S-wave (km/s) = 3.65907 3.83982 3.75053
# Velocity P-wave (km/s) = 7.24368 7.71581 7.48347
#
# Compressibility (1/GPa) = 0.01494426
#
# Stress axis : x y z
#
# Youngs Moduli (GPa) = 64.67221 65.85257 105.98482
#
# Poissons Ratio (x) = 0.23909 0.56463
# Poissons Ratio (y) = 0.23480 0.38276
# Poissons Ratio (z) = 0.34454 0.23782
#
# Static dielectric constant tensor:
#      x y z
#    x 1.696670 0.000000 0.000000 
#    y 0.000000 1.661400 0.000000 
#    z 0.000000 0.000000 1.638980 
# 
# From -- ./inp_files/24399.got.cif
#   From: 2010.05.17/outbox.cif.g08.bks.cpg/sg38_13_cif.got.tgz:24399.got - 2010.06.03 18:07:57.
