data_PCOD9357645
_publ_section_title
;
Structure prediction by ZEFSAII (Michael W. Deem and Ramdas Pophale) SiO2 
 PCOD9357645
Probable space group: A M M 2
;
_chemical_formula_sum "Si O2"
_cell_formula_units_Z 56
_cell_length_a 7.737435
_cell_length_b 13.998648
_cell_length_c 33.509342
_cell_angle_alpha 90.000000
_cell_angle_beta 90.000000
_cell_angle_gamma 90.000000
_cell_volume 3629.518437
_symmetry_space_group_name_H-M "A M M 2"
_symmetry_group_IT_number 38
_symmetry_cell_setting 'orthorhombic'
loop_
_space_group_symop_operation_xyz
x,y,z
-x,-y,z
-x,y,z
x,-y,z
x,1/2+y,1/2+z
-x,1/2-y,1/2+z
-x,1/2+y,1/2+z
x,1/2-y,1/2+z
loop_
_atom_site_type_symbol
_atom_site_label
_atom_site_fract_x
_atom_site_fract_y
_atom_site_fract_z
Si Si1 0.289875 0.892457 0.564550
Si Si2 0.500000 0.116141 0.794084
Si Si3 0.807589 0.883804 0.850838
Si Si4 0.500000 0.884260 0.701124
Si Si5 0.798178 0.297582 0.147214
Si Si6 0.792404 0.393338 0.602650
Si Si7 0.292494 0.706428 0.520222
Si Si8 0.709526 0.110802 0.939422
O O1 0.500000 0.888187 0.567564
O O2 0.217329 0.862706 0.607564
O O3 0.232385 0.811433 0.533486
O O4 0.241043 0.000000 0.553976
O O5 0.333821 0.148787 0.819164
O O6 0.500000 0.142101 0.747813
O O7 0.500000 0.000000 0.794852
O O8 0.770790 0.853312 0.896309
O O9 0.000000 0.856282 0.838935
O O10 0.798046 0.000000 0.851914
O O11 0.668888 0.841202 0.679535
O O12 0.500000 0.000000 0.697123
O O13 0.737337 0.192433 0.132007
O O14 0.000000 0.293848 0.159469
O O15 0.726431 0.500000 0.611223
O O16 0.748449 0.362712 0.557411
O O17 0.000000 0.395023 0.605359
O O18 0.500000 0.709882 0.517116
O O19 0.227368 0.668455 0.477934
O O20 0.500000 0.112212 0.938673
O O21 0.762604 0.000000 0.943838
#
# Coordination Sequence:
#
# PCOD9357645 Si02
#       8
#     8   4   8   4   8   8   8   8
#     4   9  16  28  44  60  86 123 158 193 228 260
#     4   9  18  32  46  62  87 113 141 180 218 261
#     4   9  16  27  44  63  84 114 146 173 212 266
#     4  11  22  34  49  68  91 119 152 190 231 269
#     4  10  20  33  48  68  92 119 155 192 228 273
#     4   9  18  31  45  63  92 125 153 188 230 268
#     4   9  17  26  39  63  89 118 158 191 220 259
#     4   9  15  24  38  57  86 118 146 180 217 256
#
# _framework density 15.429043999999999
#
# number of rings (size 3 to 8) (size 9 to 14) (size 15 to 20)
#    0.000    2.714    1.429    0.857    1.000    3.143 
#    0.000    2.857    0.000    0.000    0.000    0.000 
#    0.000    2.286    0.000    0.714    0.000    0.286 
#
# Total GULP energy -156031.913992 kJ/mol
# GULP energy per Si atom -5572.568357 kJ/mol
# Density = 1.539393 g / cm^3
# Si number density = 15.429044 Si / 1000 Ang^3
#
#
#
# Elastic Constant Matrix: (Units=GPa)
#
#
# Indices 1 2 3 4 5 6 
#
# 1 70.7468 25.9708 56.6874 0.0000 0.0000 0.0000
# 2 25.9708 85.5003 48.2551 0.0000 0.0000 0.0000
# 3 56.6874 48.2551 132.7603 0.0000 0.0000 0.0000
# 4 0.0000 0.0000 0.0000 18.9172 0.0000 0.0000
# 5 0.0000 0.0000 0.0000 0.0000 -5.0670 0.0000
# 6 0.0000 0.0000 0.0000 0.0000 0.0000 12.1479
#
#
#
# Elastic Compliance Matrix: (Units=1/GPa)
#
#
# Indices 1 2 3 4 5 6 
#
# 1 0.021683 -0.001712 -0.008636 0.000000 0.000000 0.000000
# 2 -0.001712 0.014850 -0.004666 0.000000 0.000000 0.000000
# 3 -0.008636 -0.004666 0.012916 0.000000 0.000000 0.000000
# 4 0.000000 0.000000 0.000000 0.052862 0.000000 0.000000
# 5 0.000000 0.000000 0.000000 0.000000 -0.197355 0.000000
# 6 0.000000 0.000000 0.000000 0.000000 0.000000 0.082319
#
#
# Mechanical properties :
#
#
# Convention : Reuss Voigt Hill
#
# Bulk Modulus (GPa) = 51.49477 61.20377 56.34927
# Shear Modulus (GPa) = 210.27737 15.73922 113.00830
#
# Velocity S-wave (km/s) = 11.68685 3.19737 8.56755
# Velocity P-wave (km/s) = 14.68189 7.30650 11.59618
#
# Compressibility (1/GPa) = 0.01941945
#
# Stress axis : x y z
#
# Youngs Moduli (GPa) = 46.11807 67.34196 77.42269
#
# Poissons Ratio (x) = 0.11530 0.66865
# Poissons Ratio (y) = 0.07896 0.36128
# Poissons Ratio (z) = 0.39829 0.31424
#
# Static dielectric constant tensor:
#      x y z
#    x 1.552030 0.000000 0.000000 
#    y 0.000000 1.517930 0.000000 
#    z 0.000000 0.000000 1.492180 
# 
# From -- ./inp_files/24669.got.cif
#   From: 2010.05.17/outbox.cif.g08.bks.cpg/sg38_13_cif.got.tgz:24669.got - 2010.06.03 18:07:57.
