data_PCOD9357760
_publ_section_title
;
Structure prediction by ZEFSAII (Michael W. Deem and Ramdas Pophale) SiO2 
 PCOD9357760
Probable space group: A M M 2
;
_chemical_formula_sum "Si O2"
_cell_formula_units_Z 56
_cell_length_a 8.746254
_cell_length_b 20.701796
_cell_length_c 15.735805
_cell_angle_alpha 90.000000
_cell_angle_beta 90.000000
_cell_angle_gamma 90.000000
_cell_volume 2849.174674
_symmetry_space_group_name_H-M "A M M 2"
_symmetry_group_IT_number 38
_symmetry_cell_setting 'orthorhombic'
loop_
_space_group_symop_operation_xyz
x,y,z
-x,-y,z
-x,y,z
x,-y,z
x,1/2+y,1/2+z
-x,1/2-y,1/2+z
-x,1/2+y,1/2+z
x,1/2-y,1/2+z
loop_
_atom_site_type_symbol
_atom_site_label
_atom_site_fract_x
_atom_site_fract_y
_atom_site_fract_z
Si Si1 0.676588 0.378816 0.151330
Si Si2 0.816727 0.425171 0.976456
Si Si3 0.322708 0.925078 0.967056
Si Si4 0.832596 0.925619 0.803037
Si Si5 0.818833 0.251058 0.237213
Si Si6 0.320295 0.197028 0.078543
Si Si7 0.316082 0.290235 0.918268
O O1 0.500000 0.370377 0.127987
O O2 0.703197 0.423040 0.232616
O O3 0.749142 0.313754 0.189708
O O4 0.767260 0.409310 0.073147
O O5 0.770679 0.500000 0.956174
O O6 0.742856 0.364304 0.926860
O O7 0.000000 0.421739 0.968422
O O8 0.500000 0.924035 0.938678
O O9 0.308056 0.875060 0.042656
O O10 0.286356 0.000000 0.987588
O O11 0.222191 0.895822 0.890744
O O12 0.000000 0.902049 0.774004
O O13 0.849056 0.000000 0.824505
O O14 0.772406 0.199348 0.165853
O O15 0.746931 0.239050 0.329962
O O16 0.000000 0.254805 0.246017
O O17 0.500000 0.210801 0.095608
O O18 0.272436 0.248078 0.003201
O O19 0.500000 0.289279 0.915498
#
# Coordination Sequence:
#
# PCOD9357760 Si02
#       7
#     8   8   8   8   8   8   8
#     4  12  23  37  58  87 121 159 207 260 316 382
#     4  11  24  42  64  92 129 170 215 270 330 393
#     4   9  18  34  57  85 119 159 201 248 306 370
#     4  10  20  33  51  80 118 156 195 241 298 366
#     4  12  25  40  63  91 123 162 209 264 323 384
#     4  10  21  39  62  90 122 159 206 260 314 375
#     4  11  23  41  66  94 128 169 216 269 321 384
#
# _framework density 19.654813000000001
#
# number of rings (size 3 to 8) (size 9 to 14) (size 15 to 20)
#    0.000    1.286    1.429    5.143    0.000    6.000 
#    0.000    0.714    0.000    2.571    0.000    0.000 
#    0.000    0.000    0.000    0.000    0.000    0.000 
#
# Total GULP energy -156124.296463 kJ/mol
# GULP energy per Si atom -5575.867731 kJ/mol
# Density = 1.961008 g / cm^3
# Si number density = 19.654813 Si / 1000 Ang^3
#
#
#
# Elastic Constant Matrix: (Units=GPa)
#
#
# Indices 1 2 3 4 5 6 
#
# 1 68.3014 25.2784 28.3951 0.0000 0.0000 0.0000
# 2 25.2784 95.3979 22.8599 0.0000 0.0000 0.0000
# 3 28.3951 22.8599 80.5879 0.0000 0.0000 0.0000
# 4 0.0000 0.0000 0.0000 27.7232 0.0000 0.0000
# 5 0.0000 0.0000 0.0000 0.0000 31.8009 0.0000
# 6 0.0000 0.0000 0.0000 0.0000 0.0000 27.2809
#
#
#
# Elastic Compliance Matrix: (Units=1/GPa)
#
#
# Indices 1 2 3 4 5 6 
#
# 1 0.018195 -0.003525 -0.005411 0.000000 0.000000 0.000000
# 2 -0.003525 0.011930 -0.002142 0.000000 0.000000 0.000000
# 3 -0.005411 -0.002142 0.014923 0.000000 0.000000 0.000000
# 4 0.000000 0.000000 0.000000 0.036071 0.000000 0.000000
# 5 0.000000 0.000000 0.000000 0.000000 0.031446 0.000000
# 6 0.000000 0.000000 0.000000 0.000000 0.000000 0.036656
#
#
# Mechanical properties :
#
#
# Convention : Reuss Voigt Hill
#
# Bulk Modulus (GPa) = 43.68354 44.15043 43.91698
# Shear Modulus (GPa) = 27.93192 28.54457 28.23824
#
# Velocity S-wave (km/s) = 3.77387 3.81503 3.79451
# Velocity P-wave (km/s) = 6.42363 6.47438 6.44906
#
# Compressibility (1/GPa) = 0.02289192
#
# Stress axis : x y z
#
# Youngs Moduli (GPa) = 54.95996 83.82464 67.01025
#
# Poissons Ratio (x) = 0.29545 0.36261
# Poissons Ratio (y) = 0.19371 0.14354
# Poissons Ratio (z) = 0.29740 0.17956
#
# Static dielectric constant tensor:
#      x y z
#    x 1.731420 0.000000 0.000000 
#    y 0.000000 1.682530 0.000000 
#    z 0.000000 0.000000 1.695170 
# 
# From -- ./inp_files/12383.got.cif
#   From: 2010.05.17/outbox.cif.g08.bks.cpg/sg38_7_cif.got.tgz:12383.got - 2010.06.03 18:07:57.
