data_PCOD9357130
_publ_section_title
;
Structure prediction by ZEFSAII (Michael W. Deem and Ramdas Pophale) SiO2 
 PCOD9357130
Probable space group: A M M 2
;
_chemical_formula_sum "Si O2"
_cell_formula_units_Z 64
_cell_length_a 19.871542
_cell_length_b 19.771149
_cell_length_c 8.747311
_cell_angle_alpha 90.000000
_cell_angle_beta 90.000000
_cell_angle_gamma 90.000000
_cell_volume 3436.671692
_symmetry_space_group_name_H-M "A M M 2"
_symmetry_group_IT_number 38
_symmetry_cell_setting 'orthorhombic'
loop_
_space_group_symop_operation_xyz
x,y,z
-x,-y,z
-x,y,z
x,-y,z
x,1/2+y,1/2+z
-x,1/2-y,1/2+z
-x,1/2+y,1/2+z
x,1/2-y,1/2+z
loop_
_atom_site_type_symbol
_atom_site_label
_atom_site_fract_x
_atom_site_fract_y
_atom_site_fract_z
Si Si1 0.674159 0.923864 0.144250
Si Si2 0.349556 0.214139 0.978298
Si Si3 0.186724 0.923340 0.316514
Si Si4 0.576266 0.304939 0.174084
Si Si5 0.223150 0.687989 0.043866
Si Si6 0.135368 0.783781 0.828413
Si Si7 0.578344 0.078303 0.434459
Si Si8 0.077669 0.165608 0.135064
O O1 0.750656 0.924700 0.200817
O O2 0.626534 0.909460 0.290655
O O3 0.656939 0.000000 0.087758
O O4 0.667758 0.860755 0.032921
O O5 0.369169 0.209152 0.803096
O O6 0.291905 0.269289 0.020044
O O7 0.415986 0.241580 0.061886
O O8 0.217214 0.884865 0.464399
O O9 0.126887 0.883394 0.231172
O O10 0.166772 0.000000 0.353427
O O11 0.500000 0.310996 0.232247
O O12 0.591779 0.371343 0.073775
O O13 0.173053 0.731581 0.938703
O O14 0.192484 0.686217 0.214660
O O15 0.087551 0.739297 0.717279
O O16 0.098935 0.830400 0.955216
O O17 0.500000 0.088327 0.389918
O O18 0.586936 0.000000 0.479972
O O19 0.000000 0.145905 0.146962
#
# Coordination Sequence:
#
# PCOD9357130 Si02
#       8
#     8   8   8   8   8   8   8   8
#     4  10  21  37  57  81 108 140 181 228 279 336
#     4  12  22  35  56  79 107 143 184 231 284 335
#     4  10  21  37  56  79 110 147 184 225 273 328
#     4  11  23  35  51  77 109 144 183 230 279 333
#     4  10  19  34  56  82 109 142 184 230 277 325
#     4   9  18  32  54  83 111 136 176 229 274 318
#     4   9  19  37  58  79 108 148 190 233 285 340
#     4  10  19  33  55  82 112 144 178 219 271 329
#
# _framework density 18.622668999999998
#
# number of rings (size 3 to 8) (size 9 to 14) (size 15 to 20)
#    0.000    1.875    0.000    6.000    0.000    2.750 
#    0.000    1.250    0.000    5.250    0.000    0.000 
#    0.000    0.000    0.000    0.000    0.000    0.000 
#
# Total GULP energy -178332.965965 kJ/mol
# GULP energy per Si atom -5572.905186 kJ/mol
# Density = 1.858028 g / cm^3
# Si number density = 18.622669 Si / 1000 Ang^3
#
#
#
# Elastic Constant Matrix: (Units=GPa)
#
#
# Indices 1 2 3 4 5 6 
#
# 1 100.2400 40.0160 43.0565 0.0000 0.0000 0.0000
# 2 40.0160 97.5141 46.7963 0.0000 0.0000 0.0000
# 3 43.0565 46.7963 93.4957 0.0000 0.0000 0.0000
# 4 0.0000 0.0000 0.0000 22.4352 0.0000 0.0000
# 5 0.0000 0.0000 0.0000 0.0000 24.4674 0.0000
# 6 0.0000 0.0000 0.0000 0.0000 0.0000 21.8861
#
#
#
# Elastic Compliance Matrix: (Units=1/GPa)
#
#
# Indices 1 2 3 4 5 6 
#
# 1 0.013191 -0.003287 -0.004429 0.000000 0.000000 0.000000
# 2 -0.003287 0.014316 -0.005652 0.000000 0.000000 0.000000
# 3 -0.004429 -0.005652 0.015564 0.000000 0.000000 0.000000
# 4 0.000000 0.000000 0.000000 0.044573 0.000000 0.000000
# 5 0.000000 0.000000 0.000000 0.000000 0.040871 0.000000
# 6 0.000000 0.000000 0.000000 0.000000 0.000000 0.045691
#
#
# Mechanical properties :
#
#
# Convention : Reuss Voigt Hill
#
# Bulk Modulus (GPa) = 61.21944 61.22082 61.22013
# Shear Modulus (GPa) = 24.22632 24.51648 24.37140
#
# Velocity S-wave (km/s) = 3.61072 3.63228 3.62151
# Velocity P-wave (km/s) = 7.09423 7.10894 7.10158
#
# Compressibility (1/GPa) = 0.01633468
#
# Stress axis : x y z
#
# Youngs Moduli (GPa) = 75.80969 69.85144 64.25041
#
# Poissons Ratio (x) = 0.22964 0.28458
# Poissons Ratio (y) = 0.24922 0.36311
# Poissons Ratio (z) = 0.33578 0.39477
#
# Static dielectric constant tensor:
#      x y z
#    x 1.669080 0.000000 0.000000 
#    y 0.000000 1.666860 0.000000 
#    z 0.000000 0.000000 1.667890 
# 
# From -- ./inp_files/6496.got.cif
#   From: 2010.05.17/outbox.cif.g08.bks.cpg/sg38_4_cif.got.tgz:6496.got - 2010.06.03 18:07:57.
