data_PCOD9357820
_publ_section_title
;
Structure prediction by ZEFSAII (Michael W. Deem and Ramdas Pophale) SiO2 
 PCOD9357820
Probable space group: A M M 2
;
_chemical_formula_sum "Si O2"
_cell_formula_units_Z 64
_cell_length_a 9.135384
_cell_length_b 32.391041
_cell_length_c 11.890738
_cell_angle_alpha 90.000000
_cell_angle_beta 90.000000
_cell_angle_gamma 90.000000
_cell_volume 3518.524044
_symmetry_space_group_name_H-M "A M M 2"
_symmetry_group_IT_number 38
_symmetry_cell_setting 'orthorhombic'
loop_
_space_group_symop_operation_xyz
x,y,z
-x,-y,z
-x,y,z
x,-y,z
x,1/2+y,1/2+z
-x,1/2-y,1/2+z
-x,1/2+y,1/2+z
x,1/2-y,1/2+z
loop_
_atom_site_type_symbol
_atom_site_label
_atom_site_fract_x
_atom_site_fract_y
_atom_site_fract_z
Si Si1 0.671682 0.722228 0.925940
Si Si2 0.174778 0.548007 0.395853
Si Si3 0.832221 0.902726 0.476729
Si Si4 0.824668 0.873762 0.040259
Si Si5 0.324847 0.141922 0.278841
Si Si6 0.672490 0.183231 0.855194
Si Si7 0.666482 0.450438 0.165146
Si Si8 0.833394 0.818874 0.622472
O O1 0.500000 0.716498 0.954906
O O2 0.707559 0.686991 0.833713
O O3 0.691318 0.768075 0.879940
O O4 0.766222 0.714484 0.037197
O O5 0.212850 0.500000 0.419511
O O6 0.208081 0.579863 0.495514
O O7 0.255444 0.561887 0.281686
O O8 0.000000 0.549729 0.375344
O O9 0.741566 0.891323 0.365767
O O10 0.754700 0.935595 0.556764
O O11 0.834265 0.861114 0.551638
O O12 0.000000 0.913777 0.449991
O O13 0.749323 0.863839 0.158458
O O14 0.000000 0.869479 0.048953
O O15 0.760983 0.843111 0.946166
O O16 0.500000 0.137995 0.270588
O O17 0.500000 0.173527 0.862167
O O18 0.734937 0.175370 0.731589
O O19 0.500000 0.434607 0.161676
O O20 0.663302 0.500000 0.166030
O O21 0.000000 0.808726 0.654714
#
# Coordination Sequence:
#
# PCOD9357820 Si02
#       8
#     8   8   8   8   8   8   8   8
#     4   9  21  39  57  77 105 145 188 227 274 335
#     4   9  19  37  59  82 113 152 190 231 283 342
#     4  10  20  36  57  80 109 145 184 226 276 338
#     4  11  23  38  57  85 115 147 192 241 287 342
#     4  10  21  39  60  80 108 149 192 236 284 337
#     4  11  23  37  56  81 112 148 186 229 278 338
#     4  10  20  33  54  86 118 145 181 232 284 334
#     4  10  21  36  55  81 108 137 178 228 278 325
#
# _framework density 18.189446
#
# number of rings (size 3 to 8) (size 9 to 14) (size 15 to 20)
#    0.000    2.000    0.000    3.000    1.750    7.750 
#    0.000    0.625    0.000    2.250    0.000    0.000 
#    0.000    0.000    0.000    0.000    0.000    0.000 
#
# Total GULP energy -178696.153625 kJ/mol
# GULP energy per Si atom -5584.254801 kJ/mol
# Density = 1.814805 g / cm^3
# Si number density = 18.189446 Si / 1000 Ang^3
#
#
#
# Elastic Constant Matrix: (Units=GPa)
#
#
# Indices 1 2 3 4 5 6 
#
# 1 95.0117 42.5870 67.7623 0.0000 0.0000 0.0000
# 2 42.5870 50.1098 37.8609 0.0000 0.0000 0.0000
# 3 67.7623 37.8609 133.9135 0.0000 0.0000 0.0000
# 4 0.0000 0.0000 0.0000 12.7209 0.0000 0.0000
# 5 0.0000 0.0000 0.0000 0.0000 39.6010 0.0000
# 6 0.0000 0.0000 0.0000 0.0000 0.0000 25.3313
#
#
#
# Elastic Compliance Matrix: (Units=1/GPa)
#
#
# Indices 1 2 3 4 5 6 
#
# 1 0.021371 -0.012706 -0.007222 0.000000 0.000000 0.000000
# 2 -0.012706 0.032932 -0.002881 0.000000 0.000000 0.000000
# 3 -0.007222 -0.002881 0.011936 0.000000 0.000000 0.000000
# 4 0.000000 0.000000 0.000000 0.078611 0.000000 0.000000
# 5 0.000000 0.000000 0.000000 0.000000 0.025252 0.000000
# 6 0.000000 0.000000 0.000000 0.000000 0.000000 0.039477
#
#
# Mechanical properties :
#
#
# Convention : Reuss Voigt Hill
#
# Bulk Modulus (GPa) = 48.49418 63.93949 56.21684
# Shear Modulus (GPa) = 19.07894 24.25230 21.66562
#
# Velocity S-wave (km/s) = 3.24219 3.65542 3.45499
# Velocity P-wave (km/s) = 6.38234 7.28316 6.84758
#
# Compressibility (1/GPa) = 0.02062103
#
# Stress axis : x y z
#
# Youngs Moduli (GPa) = 46.79325 30.36594 83.77799
#
# Poissons Ratio (x) = 0.38583 0.60500
# Poissons Ratio (y) = 0.59456 0.24138
# Poissons Ratio (z) = 0.33792 0.08749
#
# Static dielectric constant tensor:
#      x y z
#    x 1.623320 0.000000 0.000000 
#    y 0.000000 1.633600 0.000000 
#    z 0.000000 0.000000 1.585250 
# 
# From -- ./inp_files/8549.got.cif
#   From: 2010.05.17/outbox.cif.g08.bks.cpg/sg38_5_cif.got.tgz:8549.got - 2010.06.03 18:07:57.
