data_PCOD9357717
_publ_section_title
;
Structure prediction by ZEFSAII (Michael W. Deem and Ramdas Pophale) SiO2 
 PCOD9357717
Probable space group: A M M 2
;
_chemical_formula_sum "Si O2"
_cell_formula_units_Z 58
_cell_length_a 7.431979
_cell_length_b 22.504815
_cell_length_c 15.165607
_cell_angle_alpha 90.000000
_cell_angle_beta 90.000000
_cell_angle_gamma 90.000000
_cell_volume 2536.528338
_symmetry_space_group_name_H-M "A M M 2"
_symmetry_group_IT_number 38
_symmetry_cell_setting 'orthorhombic'
loop_
_space_group_symop_operation_xyz
x,y,z
-x,-y,z
-x,y,z
x,-y,z
x,1/2+y,1/2+z
-x,1/2-y,1/2+z
-x,1/2+y,1/2+z
x,1/2-y,1/2+z
loop_
_atom_site_type_symbol
_atom_site_label
_atom_site_fract_x
_atom_site_fract_y
_atom_site_fract_z
Si Si1 0.716327 0.762191 0.282150
Si Si2 0.706633 0.270560 0.092550
Si Si3 0.000000 0.500000 0.737782
Si Si4 0.779310 0.068272 0.854228
Si Si5 0.790252 0.318570 0.452804
Si Si6 0.298395 0.877140 0.485973
Si Si7 0.282624 0.902685 0.296572
Si Si8 0.204099 0.429611 0.163812
O O1 0.500000 0.759259 0.280729
O O2 0.785567 0.735011 0.189786
O O3 0.772883 0.725354 0.368296
O O4 0.759250 0.832477 0.283192
O O5 0.500000 0.290750 0.105305
O O6 0.791142 0.317457 0.023911
O O7 0.704392 0.209460 0.039378
O O8 0.158995 0.447559 0.742748
O O9 0.720791 0.116870 0.924366
O O10 0.719161 0.090907 0.757311
O O11 0.000000 0.068298 0.851045
O O12 0.724170 0.000000 0.869623
O O13 0.000000 0.324528 0.472736
O O14 0.500000 0.859405 0.456991
O O15 0.229075 0.910973 0.400615
O O16 0.301882 0.916314 0.573476
O O17 0.500000 0.912285 0.284025
O O18 0.195170 0.500000 0.174988
O O19 0.000000 0.406994 0.154258
#
# Coordination Sequence:
#
# PCOD9357717 Si02
#       8
#     8   8   2   8   8   8   8   8
#     4  10  21  40  64  86 121 162 202 260 316 373
#     4  10  21  38  60  84 114 159 200 243 312 374
#     4  12  26  40  68  86 116 168 214 268 308 386
#     4   8  16  33  52  76 114 155 189 234 300 360
#     4  11  21  33  59  92 119 153 198 252 306 368
#     4  10  20  33  50  78 116 150 191 243 299 369
#     4  10  23  41  61  89 123 164 209 261 322 374
#     4   9  18  30  49  74 105 145 189 229 280 356
#
# _framework density 22.865897
#
# number of rings (size 3 to 8) (size 9 to 14) (size 15 to 20)
#    0.000    2.207    1.379    2.276    2.897    1.379 
#    0.000    0.690    1.517    3.310    0.000    0.000 
#    0.000    0.000    0.000    0.000    0.000    0.000 
#
# Total GULP energy -161540.486122 kJ/mol
# GULP energy per Si atom -5570.361590 kJ/mol
# Density = 2.281385 g / cm^3
# Si number density = 22.865897 Si / 1000 Ang^3
#
#
#
# Elastic Constant Matrix: (Units=GPa)
#
#
# Indices 1 2 3 4 5 6 
#
# 1 91.0240 9.1078 -8.2615 0.0000 0.0000 0.0000
# 2 9.1078 80.7795 -1.7955 0.0000 0.0000 0.0000
# 3 -8.2615 -1.7955 50.7013 0.0000 0.0000 0.0000
# 4 0.0000 0.0000 0.0000 30.2577 0.0000 0.0000
# 5 0.0000 0.0000 0.0000 0.0000 67.9494 0.0000
# 6 0.0000 0.0000 0.0000 0.0000 0.0000 8.6485
#
#
#
# Elastic Compliance Matrix: (Units=1/GPa)
#
#
# Indices 1 2 3 4 5 6 
#
# 1 0.011272 -0.001231 0.001793 0.000000 0.000000 0.000000
# 2 -0.001231 0.012524 0.000243 0.000000 0.000000 0.000000
# 3 0.001793 0.000243 0.020024 0.000000 0.000000 0.000000
# 4 0.000000 0.000000 0.000000 0.033049 0.000000 0.000000
# 5 0.000000 0.000000 0.000000 0.000000 0.014717 0.000000
# 6 0.000000 0.000000 0.000000 0.000000 0.000000 0.115627
#
#
# Mechanical properties :
#
#
# Convention : Reuss Voigt Hill
#
# Bulk Modulus (GPa) = 22.01203 24.51183 23.26193
# Shear Modulus (GPa) = 22.65038 36.26803 29.45920
#
# Velocity S-wave (km/s) = 3.15075 3.98693 3.59325
# Velocity P-wave (km/s) = 4.78370 5.65131 5.23551
#
# Compressibility (1/GPa) = 0.04542970
#
# Stress axis : x y z
#
# Youngs Moduli (GPa) = 88.71514 79.84936 49.93968
#
# Poissons Ratio (x) = 0.09830 -0.08955
# Poissons Ratio (y) = 0.10921 -0.01213
# Poissons Ratio (z) = -0.15908 -0.01940
#
# Static dielectric constant tensor:
#      x y z
#    x 1.867780 0.000000 0.000000 
#    y 0.000000 1.896560 0.000000 
#    z 0.000000 0.000000 1.875160 
# 
# From -- ./inp_files/12639.got.cif
#   From: 2010.05.17/outbox.cif.g08.bks.cpg/sg38_7_cif.got.tgz:12639.got - 2010.06.03 18:07:57.
