data_PCOD9357892
_publ_section_title
;
Structure prediction by ZEFSAII (Michael W. Deem and Ramdas Pophale) SiO2 
 PCOD9357892
Probable space group: A M M 2
;
_chemical_formula_sum "Si O2"
_cell_formula_units_Z 64
_cell_length_a 25.732281
_cell_length_b 8.100397
_cell_length_c 15.165137
_cell_angle_alpha 90.000000
_cell_angle_beta 90.000000
_cell_angle_gamma 90.000000
_cell_volume 3161.046813
_symmetry_space_group_name_H-M "A M M 2"
_symmetry_group_IT_number 38
_symmetry_cell_setting 'orthorhombic'
loop_
_space_group_symop_operation_xyz
x,y,z
-x,-y,z
-x,y,z
x,-y,z
x,1/2+y,1/2+z
-x,1/2-y,1/2+z
-x,1/2+y,1/2+z
x,1/2-y,1/2+z
loop_
_atom_site_type_symbol
_atom_site_label
_atom_site_fract_x
_atom_site_fract_y
_atom_site_fract_z
Si Si1 0.058267 0.798487 0.648170
Si Si2 0.255145 0.698574 0.498011
Si Si3 0.058480 0.699485 0.351657
Si Si4 0.668735 0.195089 0.847036
Si Si5 0.555389 0.303304 0.640719
Si Si6 0.332255 0.698346 0.645375
Si Si7 0.443791 0.304754 0.854533
Si Si8 0.863430 0.804526 0.501010
O O1 0.066304 0.750900 0.749834
O O2 0.102774 0.737094 0.583092
O O3 0.000000 0.745997 0.621017
O O4 0.058379 0.000000 0.645892
O O5 0.259344 0.500000 0.497142
O O6 0.287882 0.760914 0.413949
O O7 0.285079 0.759459 0.585481
O O8 0.194790 0.739487 0.495943
O O9 0.059598 0.500000 0.354819
O O10 0.102660 0.766420 0.414844
O O11 0.000000 0.752673 0.378340
O O12 0.675263 0.500000 0.338640
O O13 0.673633 0.266617 0.748870
O O14 0.610407 0.226533 0.883448
O O15 0.500000 0.232686 0.609115
O O16 0.554721 0.500000 0.621639
O O17 0.611397 0.235220 0.612993
O O18 0.555725 0.287837 0.747575
O O19 0.334797 0.500000 0.636577
O O20 0.500000 0.238955 0.886173
O O21 0.441893 0.500000 0.873115
O O22 0.859790 0.000000 0.511863
#
# Coordination Sequence:
#
# PCOD9357892 Si02
#       8
#     8   8   8   8   8   8   8   8
#     4   8  16  33  56  81 109 139 169 205 256 314
#     4  10  23  40  53  71 105 145 184 222 263 317
#     4   9  18  35  59  84 112 146 176 204 252 318
#     4  10  20  34  53  77 105 136 171 220 275 318
#     4   7  10  20  43  72  94 116 155 203 249 302
#     4   9  18  35  56  74  98 137 179 217 261 318
#     4   8  14  27  49  75 102 134 170 208 258 323
#     4  11  22  35  55  81 108 140 180 226 266 300
#
# _framework density 20.246456999999999
#
# number of rings (size 3 to 8) (size 9 to 14) (size 15 to 20)
#    0.000    3.000    0.000    3.375    0.000    3.500 
#    0.000    5.625    0.000    3.750    0.000    0.000 
#    0.000    0.000    0.000    0.000    0.000    0.000 
#
# Total GULP energy -178416.470179 kJ/mol
# GULP energy per Si atom -5575.514693 kJ/mol
# Density = 2.020038 g / cm^3
# Si number density = 20.246457 Si / 1000 Ang^3
#
#
#
# Elastic Constant Matrix: (Units=GPa)
#
#
# Indices 1 2 3 4 5 6 
#
# 1 216.1964 11.7956 92.3473 0.0000 0.0000 0.0000
# 2 11.7956 10.7366 3.6309 0.0000 0.0000 0.0000
# 3 92.3473 3.6309 89.2807 0.0000 0.0000 0.0000
# 4 0.0000 0.0000 0.0000 14.8580 0.0000 0.0000
# 5 0.0000 0.0000 0.0000 0.0000 -66.2019 0.0000
# 6 0.0000 0.0000 0.0000 0.0000 0.0000 7.2535
#
#
#
# Elastic Compliance Matrix: (Units=1/GPa)
#
#
# Indices 1 2 3 4 5 6 
#
# 1 0.008728 -0.006627 -0.008758 0.000000 0.000000 0.000000
# 2 -0.006627 0.099470 0.002809 0.000000 0.000000 0.000000
# 3 -0.008758 0.002809 0.020146 0.000000 0.000000 0.000000
# 4 0.000000 0.000000 0.000000 0.067304 0.000000 0.000000
# 5 0.000000 0.000000 0.000000 0.000000 -0.015105 0.000000
# 6 0.000000 0.000000 0.000000 0.000000 0.000000 0.137865
#
#
# Mechanical properties :
#
#
# Convention : Reuss Voigt Hill
#
# Bulk Modulus (GPa) = 9.69074 59.08461 34.38767
# Shear Modulus (GPa) = 13.22903 5.07789 9.15346
#
# Velocity S-wave (km/s) = 2.55894 1.58540 2.12858
# Velocity P-wave (km/s) = 3.67800 5.70941 4.80235
#
# Compressibility (1/GPa) = 0.10319132
#
# Stress axis : x y z
#
# Youngs Moduli (GPa) = 114.57253 10.05331 49.63867
#
# Poissons Ratio (x) = 0.06662 0.43475
# Poissons Ratio (y) = 0.75928 -0.13945
# Poissons Ratio (z) = 1.00347 -0.02824
#
# Static dielectric constant tensor:
#      x y z
#    x 1.736440 0.000000 0.000000 
#    y 0.000000 1.710380 0.000000 
#    z 0.000000 0.000000 1.732160 
# 
# From -- ./inp_files/15836.got.cif
#   From: 2010.05.17/outbox.cif.g08.bks.cpg/sg38_8_cif.got.tgz:15836.got - 2010.06.03 18:07:57.
