data_PCOD9357482
_publ_section_title
;
Structure prediction by ZEFSAII (Michael W. Deem and Ramdas Pophale) SiO2 
 PCOD9357482
Probable space group: A M M 2
;
_chemical_formula_sum "Si O2"
_cell_formula_units_Z 48
_cell_length_a 7.557210
_cell_length_b 24.674909
_cell_length_c 14.355839
_cell_angle_alpha 90.000000
_cell_angle_beta 90.000000
_cell_angle_gamma 90.000000
_cell_volume 2676.983099
_symmetry_space_group_name_H-M "A M M 2"
_symmetry_group_IT_number 38
_symmetry_cell_setting 'orthorhombic'
loop_
_space_group_symop_operation_xyz
x,y,z
-x,-y,z
-x,y,z
x,-y,z
x,1/2+y,1/2+z
-x,1/2-y,1/2+z
-x,1/2+y,1/2+z
x,1/2-y,1/2+z
loop_
_atom_site_type_symbol
_atom_site_label
_atom_site_fract_x
_atom_site_fract_y
_atom_site_fract_z
Si Si1 0.788107 0.165901 0.647240
Si Si2 0.215961 0.775253 0.465361
Si Si3 0.783782 0.772577 0.255317
Si Si4 0.783880 0.833279 0.072707
Si Si5 0.207655 0.060664 0.972952
Si Si6 0.709776 0.939328 0.761133
O O1 0.725151 0.181703 0.543657
O O2 0.726737 0.213462 0.717462
O O3 0.747323 0.106955 0.686440
O O4 0.000000 0.170483 0.644882
O O5 0.277093 0.783492 0.359996
O O6 0.266951 0.716053 0.504367
O O7 0.000000 0.776346 0.463572
O O8 0.730081 0.815763 0.176580
O O9 0.000000 0.772333 0.256659
O O10 0.000000 0.834362 0.071669
O O11 0.717966 0.890644 0.034747
O O12 0.218861 0.075246 0.863556
O O13 0.000000 0.057094 0.995937
O O14 0.283908 0.000000 0.984099
O O15 0.500000 0.942293 0.771355
O O16 0.775780 0.000000 0.737197
#
# Coordination Sequence:
#
# PCOD9357482 Si02
#       6
#     8   8   8   8   8   8
#     4   9  16  26  43  64  82 105 138 170 198 234
#     4   8  13  21  36  60  85 107 133 165 201 238
#     4   8  13  22  39  63  88 111 134 163 200 240
#     4   8  13  21  36  60  86 109 134 165 200 236
#     4   9  16  26  42  63  84 107 137 170 199 232
#     4  10  20  31  42  58  81 108 134 163 206 252
#
# _framework density 17.930631999999999
#
# number of rings (size 3 to 8) (size 9 to 14) (size 15 to 20)
#    0.000    3.333    0.000    3.500    0.000    3.667 
#    0.000    0.000    0.000   10.000    0.000    4.667 
#    0.000    2.667    0.000    0.000    0.000    0.000 
#
# Total GULP energy -133721.160392 kJ/mol
# GULP energy per Si atom -5571.715016 kJ/mol
# Density = 1.788982 g / cm^3
# Si number density = 17.930632 Si / 1000 Ang^3
#
#
#
# Elastic Constant Matrix: (Units=GPa)
#
#
# Indices 1 2 3 4 5 6 
#
# 1 39.5897 4.0831 3.1087 0.0000 0.0000 0.0000
# 2 4.0831 136.8634 102.4766 0.0000 0.0000 0.0000
# 3 3.1087 102.4766 166.1242 0.0000 0.0000 0.0000
# 4 0.0000 0.0000 0.0000 26.0356 0.0000 0.0000
# 5 0.0000 0.0000 0.0000 0.0000 -23.8978 0.0000
# 6 0.0000 0.0000 0.0000 0.0000 0.0000 -29.3371
#
#
#
# Elastic Compliance Matrix: (Units=1/GPa)
#
#
# Indices 1 2 3 4 5 6 
#
# 1 0.025337 -0.000745 -0.000015 0.000000 0.000000 0.000000
# 2 -0.000745 0.013600 -0.008375 0.000000 0.000000 0.000000
# 3 -0.000015 -0.008375 0.011186 0.000000 0.000000 0.000000
# 4 0.000000 0.000000 0.000000 0.038409 0.000000 0.000000
# 5 0.000000 0.000000 0.000000 0.000000 -0.041845 0.000000
# 6 0.000000 0.000000 0.000000 0.000000 0.000000 -0.034087
#
#
# Mechanical properties :
#
#
# Convention : Reuss Voigt Hill
#
# Bulk Modulus (GPa) = 31.39377 62.43490 46.91433
# Shear Modulus (GPa) = 120.51518 10.08739 65.30128
#
# Velocity S-wave (km/s) = 8.20718 2.37445 6.04135
# Velocity P-wave (km/s) = 10.36132 6.51254 8.65361
#
# Compressibility (1/GPa) = 0.03185345
#
# Stress axis : x y z
#
# Youngs Moduli (GPa) = 39.46782 73.53027 89.39460
#
# Poissons Ratio (x) = 0.05478 0.00130
# Poissons Ratio (y) = 0.02940 0.74871
# Poissons Ratio (z) = 0.00058 0.61584
#
# Static dielectric constant tensor:
#      x y z
#    x 1.664540 0.000000 0.000000 
#    y 0.000000 1.641100 0.000000 
#    z 0.000000 0.000000 1.604070 
# 
# From -- ./inp_files/12242.got.cif
#   From: 2010.05.17/outbox.cif.g08.bks.cpg/sg38_7_cif.got.tgz:12242.got - 2010.06.03 18:07:57.
