data_PCOD9357560
_publ_section_title
;
Structure prediction by ZEFSAII (Michael W. Deem and Ramdas Pophale) SiO2 
 PCOD9357560
Probable space group: A M M 2
;
_chemical_formula_sum "Si O2"
_cell_formula_units_Z 64
_cell_length_a 21.470836
_cell_length_b 7.536896
_cell_length_c 19.432374
_cell_angle_alpha 90.000000
_cell_angle_beta 90.000000
_cell_angle_gamma 90.000000
_cell_volume 3144.613957
_symmetry_space_group_name_H-M "A M M 2"
_symmetry_group_IT_number 38
_symmetry_cell_setting 'orthorhombic'
loop_
_space_group_symop_operation_xyz
x,y,z
-x,-y,z
-x,y,z
x,-y,z
x,1/2+y,1/2+z
-x,1/2-y,1/2+z
-x,1/2+y,1/2+z
x,1/2-y,1/2+z
loop_
_atom_site_type_symbol
_atom_site_label
_atom_site_fract_x
_atom_site_fract_y
_atom_site_fract_z
Si Si1 0.567285 0.712516 0.509540
Si Si2 0.822072 0.289797 0.747992
Si Si3 0.299025 0.715359 0.159220
Si Si4 0.070866 0.285514 0.490845
Si Si5 0.189794 0.791692 0.401139
Si Si6 0.070835 0.716593 0.647882
Si Si7 0.295770 0.710294 0.001690
Si Si8 0.566944 0.294124 0.170801
O O1 0.500000 0.765898 0.478626
O O2 0.567468 0.500000 0.515061
O O3 0.633025 0.764734 0.476769
O O4 0.568250 0.787860 0.587271
O O5 0.834517 0.500000 0.755208
O O6 0.758957 0.266960 0.705309
O O7 0.815139 0.214684 0.824611
O O8 0.878912 0.217656 0.702336
O O9 0.302508 0.500000 0.157091
O O10 0.365425 0.781018 0.189173
O O11 0.291233 0.779899 0.080228
O O12 0.071356 0.500000 0.489897
O O13 0.123923 0.222520 0.439610
O O14 0.085143 0.228694 0.569367
O O15 0.000000 0.228929 0.474271
O O16 0.243961 0.715452 0.450176
O O17 0.205078 0.000000 0.392795
O O18 0.072098 0.500000 0.647492
O O19 0.000000 0.769348 0.663995
O O20 0.284803 0.500000 0.007467
O O21 0.500000 0.214319 0.191679
O O22 0.565973 0.500000 0.192245
#
# Coordination Sequence:
#
# PCOD9357560 Si02
#       8
#     8   8   8   8   8   8   8   8
#     4   9  16  25  41  69  98 119 149 197 245 285
#     4  10  20  32  48  70  95 124 156 192 234 277
#     4   9  17  29  47  69  92 122 158 194 231 274
#     4   9  18  33  53  75  97 123 156 192 232 281
#     4  10  21  34  48  70  98 127 161 198 234 277
#     4   8  15  30  51  72  93 119 153 189 225 272
#     4   9  18  32  48  67  94 128 163 196 234 284
#     4   8  14  26  44  66  93 124 156 190 233 284
#
# _framework density 20.352259
#
# number of rings (size 3 to 8) (size 9 to 14) (size 15 to 20)
#    0.000    3.000    0.000    2.625    0.000    4.500 
#    0.000    1.250    0.000    1.875    0.000    3.500 
#    0.000    0.000    0.000    0.000    0.000    0.000 
#
# Total GULP energy -178342.593355 kJ/mol
# GULP energy per Si atom -5573.206042 kJ/mol
# Density = 2.030594 g / cm^3
# Si number density = 20.352259 Si / 1000 Ang^3
#
#
#
# Elastic Constant Matrix: (Units=GPa)
#
#
# Indices 1 2 3 4 5 6 
#
# 1 165.7174 -17.1010 98.7789 0.0000 0.0000 0.0000
# 2 -17.1010 45.4316 -1.0809 0.0000 0.0000 0.0000
# 3 98.7789 -1.0809 103.9337 0.0000 0.0000 0.0000
# 4 0.0000 0.0000 0.0000 49.3125 0.0000 0.0000
# 5 0.0000 0.0000 0.0000 0.0000 -10.0656 0.0000
# 6 0.0000 0.0000 0.0000 0.0000 0.0000 20.1742
#
#
#
# Elastic Compliance Matrix: (Units=1/GPa)
#
#
# Indices 1 2 3 4 5 6 
#
# 1 0.015117 0.005350 -0.014312 0.000000 0.000000 0.000000
# 2 0.005350 0.023910 -0.004836 0.000000 0.000000 0.000000
# 3 -0.014312 -0.004836 0.023173 0.000000 0.000000 0.000000
# 4 0.000000 0.000000 0.000000 0.020279 0.000000 0.000000
# 5 0.000000 0.000000 0.000000 0.000000 -0.099348 0.000000
# 6 0.000000 0.000000 0.000000 0.000000 0.000000 0.049568
#
#
# Mechanical properties :
#
#
# Convention : Reuss Voigt Hill
#
# Bulk Modulus (GPa) = 28.89790 52.91965 40.90877
# Shear Modulus (GPa) = 69.60834 27.51659 48.56246
#
# Velocity S-wave (km/s) = 5.85457 3.68097 4.89007
# Velocity P-wave (km/s) = 7.74152 6.64261 7.21302
#
# Compressibility (1/GPa) = 0.03460459
#
# Stress axis : x y z
#
# Youngs Moduli (GPa) = 66.14924 41.82383 43.15305
#
# Poissons Ratio (x) = -0.22375 0.61760
# Poissons Ratio (y) = -0.35389 0.20868
# Poissons Ratio (z) = 0.94672 0.20225
#
# Static dielectric constant tensor:
#      x y z
#    x 1.752470 0.000000 0.000000 
#    y 0.000000 1.731340 0.000000 
#    z 0.000000 0.000000 1.691250 
# 
# From -- ./inp_files/18997.got.cif
#   From: 2010.05.17/outbox.cif.g08.bks.cpg/sg38_10_cif.got.tgz:18997.got - 2010.06.03 18:07:57.
