data_PCOD9357091
_publ_section_title
;
Structure prediction by ZEFSAII (Michael W. Deem and Ramdas Pophale) SiO2 
 PCOD9357091
Probable space group: A M M 2
;
_chemical_formula_sum "Si O2"
_cell_formula_units_Z 64
_cell_length_a 19.092797
_cell_length_b 17.627815
_cell_length_c 9.278034
_cell_angle_alpha 90.000000
_cell_angle_beta 90.000000
_cell_angle_gamma 90.000000
_cell_volume 3122.654957
_symmetry_space_group_name_H-M "A M M 2"
_symmetry_group_IT_number 38
_symmetry_cell_setting 'orthorhombic'
loop_
_space_group_symop_operation_xyz
x,y,z
-x,-y,z
-x,y,z
x,-y,z
x,1/2+y,1/2+z
-x,1/2-y,1/2+z
-x,1/2+y,1/2+z
x,1/2-y,1/2+z
loop_
_atom_site_type_symbol
_atom_site_label
_atom_site_fract_x
_atom_site_fract_y
_atom_site_fract_z
Si Si1 0.624358 0.080572 0.070210
Si Si2 0.225458 0.320954 0.197414
Si Si3 0.652008 0.789779 0.249225
Si Si4 0.317933 0.087954 0.498565
Si Si5 0.417671 0.128871 0.760920
Si Si6 0.076839 0.772584 0.778110
Si Si7 0.077895 0.357596 0.577579
Si Si8 0.223184 0.917138 0.978096
O O1 0.605066 0.159603 0.141966
O O2 0.599192 0.000000 0.132229
O O3 0.603503 0.083589 0.903855
O O4 0.709253 0.082267 0.079944
O O5 0.275308 0.246596 0.185720
O O6 0.248891 0.381991 0.080396
O O7 0.143274 0.306374 0.196187
O O8 0.237756 0.354628 0.357054
O O9 0.667594 0.849149 0.376561
O O10 0.608958 0.714697 0.287839
O O11 0.377260 0.097214 0.621789
O O12 0.313801 0.000000 0.452437
O O13 0.500000 0.125982 0.739281
O O14 0.080031 0.685013 0.730681
O O15 0.081531 0.795603 0.945949
O O16 0.000000 0.800023 0.729038
O O17 0.148462 0.404654 0.553250
O O18 0.000000 0.393576 0.562955
O O19 0.221552 0.000000 0.905814
#
# Coordination Sequence:
#
# PCOD9357091 Si02
#       8
#     8   8   8   8   8   8   8   8
#     4  11  22  39  59  85 117 151 187 229 283 340
#     4  10  20  33  59  82 113 148 197 234 284 334
#     4  11  23  37  61  89 116 149 187 239 285 330
#     4  11  23  39  59  88 119 151 188 235 288 338
#     4  11  24  42  65  87 112 150 194 229 272 339
#     4   9  18  31  50  78 109 141 187 237 282 328
#     4   9  18  31  49  77 108 144 183 230 281 332
#     4  10  19  33  54  80 111 146 186 234 279 332
#
# _framework density 20.495380000000001
#
# number of rings (size 3 to 8) (size 9 to 14) (size 15 to 20)
#    0.000    1.750    2.500    3.375    3.500    3.250 
#    0.000    0.000    0.000    3.375    0.000    0.000 
#    0.000    0.000    0.000    0.000    0.000    0.000 
#
# Total GULP energy -178358.273650 kJ/mol
# GULP energy per Si atom -5573.696052 kJ/mol
# Density = 2.044873 g / cm^3
# Si number density = 20.495380 Si / 1000 Ang^3
#
#
#
# Elastic Constant Matrix: (Units=GPa)
#
#
# Indices 1 2 3 4 5 6 
#
# 1 59.0860 6.4919 0.4082 0.0000 0.0000 0.0000
# 2 6.4919 122.0760 15.2537 0.0000 0.0000 0.0000
# 3 0.4082 15.2537 38.6368 0.0000 0.0000 0.0000
# 4 0.0000 0.0000 0.0000 18.8721 0.0000 0.0000
# 5 0.0000 0.0000 0.0000 0.0000 4.4057 0.0000
# 6 0.0000 0.0000 0.0000 0.0000 0.0000 -2.8391
#
#
#
# Elastic Compliance Matrix: (Units=1/GPa)
#
#
# Indices 1 2 3 4 5 6 
#
# 1 0.017025 -0.000929 0.000187 0.000000 0.000000 0.000000
# 2 -0.000929 0.008667 -0.003412 0.000000 0.000000 0.000000
# 3 0.000187 -0.003412 0.027227 0.000000 0.000000 0.000000
# 4 0.000000 0.000000 0.000000 0.052988 0.000000 0.000000
# 5 0.000000 0.000000 0.000000 0.000000 0.226978 0.000000
# 6 0.000000 0.000000 0.000000 0.000000 0.000000 -0.352221
#
#
# Mechanical properties :
#
#
# Convention : Reuss Voigt Hill
#
# Bulk Modulus (GPa) = 22.41562 29.34517 25.88040
# Shear Modulus (GPa) = 1300.76935 17.26407 659.01671
#
# Velocity S-wave (km/s) = 25.21988 2.90546 17.95110
# Velocity P-wave (km/s) = 29.30900 5.06010 21.03119
#
# Compressibility (1/GPa) = 0.04461174
#
# Stress axis : x y z
#
# Youngs Moduli (GPa) = 58.73635 115.37552 36.72808
#
# Poissons Ratio (x) = 0.10715 -0.00686
# Poissons Ratio (y) = 0.05455 0.12532
# Poissons Ratio (z) = -0.01097 0.39367
#
# Static dielectric constant tensor:
#      x y z
#    x 1.756460 0.000000 0.000000 
#    y 0.000000 1.762650 0.000000 
#    z 0.000000 0.000000 1.767830 
# 
# From -- ./inp_files/6811.got.cif
#   From: 2010.05.17/outbox.cif.g08.bks.cpg/sg38_4_cif.got.tgz:6811.got - 2010.06.03 18:07:57.
