data_PCOD9357991
_publ_section_title
;
Structure prediction by ZEFSAII (Michael W. Deem and Ramdas Pophale) SiO2 
 PCOD9357991
Probable space group: A M M 2
;
_chemical_formula_sum "Si O2"
_cell_formula_units_Z 32
_cell_length_a 7.967127
_cell_length_b 8.008676
_cell_length_c 24.681865
_cell_angle_alpha 90.000000
_cell_angle_beta 90.000000
_cell_angle_gamma 90.000000
_cell_volume 1574.854504
_symmetry_space_group_name_H-M "A M M 2"
_symmetry_group_IT_number 38
_symmetry_cell_setting 'orthorhombic'
loop_
_space_group_symop_operation_xyz
x,y,z
-x,-y,z
-x,y,z
x,-y,z
x,1/2+y,1/2+z
-x,1/2-y,1/2+z
-x,1/2+y,1/2+z
x,1/2-y,1/2+z
loop_
_atom_site_type_symbol
_atom_site_label
_atom_site_fract_x
_atom_site_fract_y
_atom_site_fract_z
Si Si1 0.199839 0.000000 0.095400
Si Si2 0.206894 0.000000 0.971402
Si Si3 0.702335 0.809216 0.669743
Si Si4 0.801505 0.819766 0.405752
Si Si5 0.699139 0.300656 0.290859
O O1 0.252395 0.832941 0.127216
O O2 0.000000 0.000000 0.093125
O O3 0.262176 0.000000 0.033594
O O4 0.266641 0.163701 0.939328
O O5 0.000000 0.000000 0.970223
O O6 0.500000 0.816883 0.672840
O O7 0.761592 0.759743 0.730393
O O8 0.760342 0.000000 0.657726
O O9 0.780328 0.788318 0.341832
O O10 0.000000 0.824756 0.417063
O O11 0.727998 0.000000 0.420208
O O12 0.500000 0.265587 0.292930
O O13 0.722032 0.500000 0.297308
#
# Coordination Sequence:
#
# PCOD9357991 Si02
#       5
#     4   4   8   8   8
#     4  11  23  37  59  87 113 149 198 241 280 333
#     4   9  20  39  55  75 113 153 184 227 282 329
#     4   9  20  39  59  81 114 155 190 228 286 344
#     4  10  20  34  55  81 108 143 183 223 275 334
#     4   9  18  34  56  81 111 145 180 222 276 333
#
# _framework density 20.319337999999998
#
# number of rings (size 3 to 8) (size 9 to 14) (size 15 to 20)
#    0.000    2.500    1.250    1.875    1.750    3.000 
#    0.000    7.500    0.000    0.000    0.000    0.000 
#    0.000    0.000    0.000    0.000    0.000    0.000 
#
# Total GULP energy -89282.905961 kJ/mol
# GULP energy per Si atom -5580.181623 kJ/mol
# Density = 2.027309 g / cm^3
# Si number density = 20.319338 Si / 1000 Ang^3
#
#
#
# Elastic Constant Matrix: (Units=GPa)
#
#
# Indices 1 2 3 4 5 6 
#
# 1 13.6088 16.3312 1.6343 0.0000 0.0000 0.0000
# 2 16.3312 156.5804 122.4257 0.0000 0.0000 0.0000
# 3 1.6343 122.4257 153.5953 0.0000 0.0000 0.0000
# 4 0.0000 0.0000 0.0000 8.1898 0.0000 0.0000
# 5 0.0000 0.0000 0.0000 0.0000 33.4207 0.0000
# 6 0.0000 0.0000 0.0000 0.0000 0.0000 13.6669
#
#
#
# Elastic Compliance Matrix: (Units=1/GPa)
#
#
# Indices 1 2 3 4 5 6 
#
# 1 0.102425 -0.026090 0.019706 0.000000 0.000000 0.000000
# 2 -0.026090 0.023595 -0.018529 0.000000 0.000000 0.000000
# 3 0.019706 -0.018529 0.021070 0.000000 0.000000 0.000000
# 4 0.000000 0.000000 0.000000 0.122103 0.000000 0.000000
# 5 0.000000 0.000000 0.000000 0.000000 0.029922 0.000000
# 6 0.000000 0.000000 0.000000 0.000000 0.000000 0.073169
#
#
# Mechanical properties :
#
#
# Convention : Reuss Voigt Hill
#
# Bulk Modulus (GPa) = 10.28138 67.17407 38.72772
# Shear Modulus (GPa) = 11.00027 23.28170 17.14098
#
# Velocity S-wave (km/s) = 2.32926 3.38862 2.90760
# Velocity P-wave (km/s) = 3.50782 6.95998 5.51118
#
# Compressibility (1/GPa) = 0.09726321
#
# Stress axis : x y z
#
# Youngs Moduli (GPa) = 9.76320 42.38117 47.46042
#
# Poissons Ratio (x) = 1.10574 -0.93526
# Poissons Ratio (y) = 0.25473 0.87942
# Poissons Ratio (z) = -0.19239 0.78530
#
# Static dielectric constant tensor:
#      x y z
#    x 1.730910 0.000000 0.000000 
#    y 0.000000 1.752460 0.000000 
#    z 0.000000 0.000000 1.701920 
# 
# From -- ./inp_files/21625.got.cif
#   From: 2010.05.17/outbox.cif.g08.bks.cpg/sg38_11_cif.got.tgz:21625.got - 2010.06.03 18:07:57.
