data_PCOD9357203
_publ_section_title
;
Structure prediction by ZEFSAII (Michael W. Deem and Ramdas Pophale) SiO2 
 PCOD9357203
Probable space group: A M M 2
;
_chemical_formula_sum "Si O2"
_cell_formula_units_Z 40
_cell_length_a 12.694488
_cell_length_b 12.809270
_cell_length_c 12.616924
_cell_angle_alpha 90.000000
_cell_angle_beta 90.000000
_cell_angle_gamma 90.000000
_cell_volume 2051.601729
_symmetry_space_group_name_H-M "A M M 2"
_symmetry_group_IT_number 38
_symmetry_cell_setting 'orthorhombic'
loop_
_space_group_symop_operation_xyz
x,y,z
-x,-y,z
-x,y,z
x,-y,z
x,1/2+y,1/2+z
-x,1/2-y,1/2+z
-x,1/2+y,1/2+z
x,1/2-y,1/2+z
loop_
_atom_site_type_symbol
_atom_site_label
_atom_site_fract_x
_atom_site_fract_y
_atom_site_fract_z
Si Si1 0.298421 0.381216 0.098110
Si Si2 0.379872 0.662784 0.877593
Si Si3 0.620128 0.337214 0.639773
Si Si4 0.701576 0.381216 0.419255
Si Si5 0.882340 0.374837 0.258683
O O1 0.324749 0.500000 0.129704
O O2 0.375706 0.289016 0.134140
O O3 0.188628 0.351469 0.155243
O O4 0.303937 0.375805 0.970737
O O5 0.500000 0.628932 0.899270
O O6 0.351268 0.630668 0.758683
O O7 0.375708 0.789014 0.883227
O O8 0.500000 0.371065 0.618096
O O9 0.696062 0.375804 0.546628
O O10 0.675247 0.500000 0.387663
O O11 0.811368 0.351469 0.362120
O O12 0.892203 0.500000 0.258683
O O13 0.000000 0.329748 0.258685
#
# Coordination Sequence:
#
# PCOD9357203 Si02
#       5
#     8   8   8   8   8
#     4  10  19  34  55  76 103 139 177 216 260 313
#     4  10  21  35  51  76 113 143 171 216 259 308
#     4  10  21  35  51  76 113 143 171 216 259 308
#     4  10  19  34  55  76 103 139 177 216 260 313
#     4   9  18  34  57  81 102 131 175 227 273 307
#
# _framework density 19.496960999999999
#
# number of rings (size 3 to 8) (size 9 to 14) (size 15 to 20)
#    0.000    2.200    2.000    2.400    0.000    4.000 
#    0.000    8.000    0.000    0.000    0.000    5.600 
#    0.000    0.000    0.000    0.000    0.000    0.000 
#
# Total GULP energy -111389.563453 kJ/mol
# GULP energy per Si atom -5569.478173 kJ/mol
# Density = 1.945258 g / cm^3
# Si number density = 19.496961 Si / 1000 Ang^3
#
#
#
# Elastic Constant Matrix: (Units=GPa)
#
#
# Indices 1 2 3 4 5 6 
#
# 1 117.1032 12.3507 79.3829 0.0000 0.0000 0.0000
# 2 12.3507 85.4393 3.0511 0.0000 0.0000 0.0000
# 3 79.3829 3.0511 197.3865 0.0000 0.0000 0.0000
# 4 0.0000 0.0000 0.0000 12.7225 0.0000 0.0000
# 5 0.0000 0.0000 0.0000 0.0000 14.9858 0.0000
# 6 0.0000 0.0000 0.0000 0.0000 0.0000 16.7248
#
#
#
# Elastic Compliance Matrix: (Units=1/GPa)
#
#
# Indices 1 2 3 4 5 6 
#
# 1 0.011943 -0.001556 -0.004779 0.000000 0.000000 0.000000
# 2 -0.001556 0.011913 0.000442 0.000000 0.000000 0.000000
# 3 -0.004779 0.000442 0.006981 0.000000 0.000000 0.000000
# 4 0.000000 0.000000 0.000000 0.078601 0.000000 0.000000
# 5 0.000000 0.000000 0.000000 0.000000 0.066730 0.000000
# 6 0.000000 0.000000 0.000000 0.000000 0.000000 0.059791
#
#
# Mechanical properties :
#
#
# Convention : Reuss Voigt Hill
#
# Bulk Modulus (GPa) = 52.49014 65.49982 58.99498
# Shear Modulus (GPa) = 19.67750 29.22958 24.45354
#
# Velocity S-wave (km/s) = 3.18033 3.87613 3.54534
# Velocity P-wave (km/s) = 6.36134 7.32805 6.86174
#
# Compressibility (1/GPa) = 0.01905120
#
# Stress axis : x y z
#
# Youngs Moduli (GPa) = 83.72872 83.93950 143.23717
#
# Poissons Ratio (x) = 0.13059 0.68456
# Poissons Ratio (y) = 0.13026 -0.06325
# Poissons Ratio (z) = 0.40016 -0.03706
#
# Static dielectric constant tensor:
#      x y z
#    x 1.667930 0.000000 0.000000 
#    y 0.000000 1.738780 0.000000 
#    z 0.000000 0.000000 1.745720 
# 
# From -- ./inp_files/13586.got.cif
#   From: 2010.05.17/outbox.cif.g08.bks.cpg/sg38_7_cif.got.tgz:13586.got - 2010.06.03 18:07:57.
