data_PCOD9357292
_publ_section_title
;
Structure prediction by ZEFSAII (Michael W. Deem and Ramdas Pophale) SiO2 
 PCOD9357292
Probable space group: A M M 2
;
_chemical_formula_sum "Si O2"
_cell_formula_units_Z 64
_cell_length_a 24.495421
_cell_length_b 8.225200
_cell_length_c 15.857616
_cell_angle_alpha 90.000000
_cell_angle_beta 90.000000
_cell_angle_gamma 90.000000
_cell_volume 3194.988298
_symmetry_space_group_name_H-M "A M M 2"
_symmetry_group_IT_number 38
_symmetry_cell_setting 'orthorhombic'
loop_
_space_group_symop_operation_xyz
x,y,z
-x,-y,z
-x,y,z
x,-y,z
x,1/2+y,1/2+z
-x,1/2-y,1/2+z
-x,1/2+y,1/2+z
x,1/2-y,1/2+z
loop_
_atom_site_type_symbol
_atom_site_label
_atom_site_fract_x
_atom_site_fract_y
_atom_site_fract_z
Si Si1 0.641978 0.305060 0.594670
Si Si2 0.864068 0.697424 0.825886
Si Si3 0.368049 0.696990 0.401883
Si Si4 0.244706 0.693413 0.400514
Si Si5 0.437458 0.697028 0.243706
Si Si6 0.763755 0.688329 0.089246
Si Si7 0.877812 0.689099 0.642595
Si Si8 0.061534 0.193540 0.479399
O O1 0.644972 0.500000 0.592424
O O2 0.626165 0.248516 0.499333
O O3 0.599215 0.251449 0.665057
O O4 0.702686 0.239884 0.614180
O O5 0.861604 0.500000 0.826768
O O6 0.802751 0.762009 0.836417
O O7 0.889428 0.748333 0.736928
O O8 0.899849 0.757010 0.904643
O O9 0.372072 0.500000 0.403686
O O10 0.306164 0.737462 0.373896
O O11 0.410502 0.755048 0.331751
O O12 0.244115 0.500000 0.417277
O O13 0.232953 0.783677 0.488454
O O14 0.500000 0.751721 0.235815
O O15 0.437156 0.500000 0.245057
O O16 0.772502 0.500000 0.109372
O O17 0.812983 0.789432 0.128673
O O18 0.892002 0.500000 0.636753
O O19 0.909734 0.777181 0.568476
O O20 0.000000 0.259802 0.477409
O O21 0.058263 0.000000 0.466408
#
# Coordination Sequence:
#
# PCOD9357292 Si02
#       8
#     8   8   8   8   8   8   8   8
#     4  10  21  38  59  86 117 152 196 247 299 350
#     4  10  22  38  58  87 121 157 195 240 298 356
#     4   8  18  36  56  81 113 152 193 234 288 348
#     4  10  19  34  58  87 120 154 196 245 294 354
#     4  10  21  38  59  84 115 154 199 241 287 354
#     4  11  21  36  59  86 121 160 197 240 304 362
#     4  11  23  38  59  91 123 155 201 248 296 351
#     4  10  22  42  64  85 116 160 203 244 294 355
#
# _framework density 20.031372000000001
#
# number of rings (size 3 to 8) (size 9 to 14) (size 15 to 20)
#    0.000    2.000    1.250    3.000    1.750    2.500 
#    0.000    5.625    0.000    0.000    0.000    0.000 
#    0.000    0.000    0.000    0.000    0.000    0.000 
#
# Total GULP energy -178702.655743 kJ/mol
# GULP energy per Si atom -5584.457992 kJ/mol
# Density = 1.998578 g / cm^3
# Si number density = 20.031372 Si / 1000 Ang^3
#
#
#
# Elastic Constant Matrix: (Units=GPa)
#
#
# Indices 1 2 3 4 5 6 
#
# 1 75.6040 -6.7958 27.2378 0.0000 0.0000 0.0000
# 2 -6.7958 17.3847 -5.2434 0.0000 0.0000 0.0000
# 3 27.2378 -5.2434 70.0435 0.0000 0.0000 0.0000
# 4 0.0000 0.0000 0.0000 19.7216 0.0000 0.0000
# 5 0.0000 0.0000 0.0000 0.0000 -4.2437 0.0000
# 6 0.0000 0.0000 0.0000 0.0000 0.0000 17.7924
#
#
#
# Elastic Compliance Matrix: (Units=1/GPa)
#
#
# Indices 1 2 3 4 5 6 
#
# 1 0.015703 0.004396 -0.005778 0.000000 0.000000 0.000000
# 2 0.004396 0.060081 0.002788 0.000000 0.000000 0.000000
# 3 -0.005778 0.002788 0.016732 0.000000 0.000000 0.000000
# 4 0.000000 0.000000 0.000000 0.050706 0.000000 0.000000
# 5 0.000000 0.000000 0.000000 0.000000 -0.235646 0.000000
# 6 0.000000 0.000000 0.000000 0.000000 0.000000 0.056204
#
#
# Mechanical properties :
#
#
# Convention : Reuss Voigt Hill
#
# Bulk Modulus (GPa) = 10.48988 21.49217 15.99103
# Shear Modulus (GPa) = -689.10800 16.50963 -336.29918
#
# Velocity S-wave (km/s) = -18.56775 2.87398 -12.97115
# Velocity P-wave (km/s) = 21.31745 4.66536 14.70830
#
# Compressibility (1/GPa) = 0.09532999
#
# Stress axis : x y z
#
# Youngs Moduli (GPa) = 63.68039 16.64417 59.76481
#
# Poissons Ratio (x) = -0.07317 0.34529
# Poissons Ratio (y) = -0.27994 -0.16663
# Poissons Ratio (z) = 0.36791 -0.04641
#
# Static dielectric constant tensor:
#      x y z
#    x 1.688980 0.000000 0.000000 
#    y 0.000000 1.702000 0.000000 
#    z 0.000000 0.000000 1.711310 
# 
# From -- ./inp_files/15827.got.cif
#   From: 2010.05.17/outbox.cif.g08.bks.cpg/sg38_8_cif.got.tgz:15827.got - 2010.06.03 18:07:57.
