data_PCOD9357403
_publ_section_title
;
Structure prediction by ZEFSAII (Michael W. Deem and Ramdas Pophale) SiO2 
 PCOD9357403
Probable space group: A M M 2
;
_chemical_formula_sum "Si O2"
_cell_formula_units_Z 58
_cell_length_a 7.549096
_cell_length_b 18.266936
_cell_length_c 17.593413
_cell_angle_alpha 90.000000
_cell_angle_beta 90.000000
_cell_angle_gamma 90.000000
_cell_volume 2426.111482
_symmetry_space_group_name_H-M "A M M 2"
_symmetry_group_IT_number 38
_symmetry_cell_setting 'orthorhombic'
loop_
_space_group_symop_operation_xyz
x,y,z
-x,-y,z
-x,y,z
x,-y,z
x,1/2+y,1/2+z
-x,1/2-y,1/2+z
-x,1/2+y,1/2+z
x,1/2-y,1/2+z
loop_
_atom_site_type_symbol
_atom_site_label
_atom_site_fract_x
_atom_site_fract_y
_atom_site_fract_z
Si Si1 0.207062 0.579600 0.793630
Si Si2 0.215198 0.583443 0.521691
Si Si3 0.297573 0.628653 0.957652
Si Si4 0.291374 0.348543 0.122323
Si Si5 0.212842 0.182089 0.165347
Si Si6 0.293035 0.111080 0.785749
Si Si7 0.786290 0.210596 0.907908
Si Si8 0.000000 0.000000 0.836199
O O1 0.285398 0.500000 0.774798
O O2 0.214973 0.591619 0.883866
O O3 0.278872 0.647699 0.744818
O O4 0.000000 0.576582 0.772596
O O5 0.278965 0.500000 0.513111
O O6 0.254395 0.619791 0.602826
O O7 0.275768 0.643075 0.460402
O O8 0.000000 0.579789 0.514286
O O9 0.500000 0.602697 0.960369
O O10 0.291875 0.714885 0.939145
O O11 0.215679 0.624145 0.042030
O O12 0.500000 0.363737 0.118604
O O13 0.275470 0.261348 0.136729
O O14 0.227989 0.387799 0.198762
O O15 0.000000 0.191044 0.168335
O O16 0.500000 0.089710 0.789205
O O17 0.273160 0.191063 0.822981
O O18 0.155928 0.062239 0.831684
O O19 0.000000 0.217224 0.911106
#
# Coordination Sequence:
#
# PCOD9357403 Si02
#       8
#     8   8   8   8   8   8   8   2
#     4  10  22  40  62  93 127 161 208 267 331 400
#     4   9  18  31  54  89 128 166 208 261 318 385
#     4  11  23  41  63  90 128 172 217 271 329 390
#     4  10  23  42  62  89 125 166 218 273 329 390
#     4  10  19  35  63  91 122 163 207 261 323 392
#     4  11  25  45  68  96 132 174 220 278 335 393
#     4  11  21  37  64  97 130 170 222 267 322 397
#     4  12  26  48  68  98 128 172 226 276 332 414
#
# _framework density 23.906569000000001
#
# number of rings (size 3 to 8) (size 9 to 14) (size 15 to 20)
#    0.000    1.655    2.069    2.276    1.931    5.241 
#    1.241    0.000    0.000    2.897    0.000    0.000 
#    0.000    0.000    0.000    0.000    0.000    0.000 
#
# Total GULP energy -161823.261842 kJ/mol
# GULP energy per Si atom -5580.112477 kJ/mol
# Density = 2.385216 g / cm^3
# Si number density = 23.906569 Si / 1000 Ang^3
#
#
#
# Elastic Constant Matrix: (Units=GPa)
#
#
# Indices 1 2 3 4 5 6 
#
# 1 83.8789 -3.1806 -1.1762 0.0000 0.0000 0.0000
# 2 -3.1806 49.1344 -16.1160 0.0000 0.0000 0.0000
# 3 -1.1762 -16.1160 97.9271 0.0000 0.0000 0.0000
# 4 0.0000 0.0000 0.0000 -13.8346 0.0000 0.0000
# 5 0.0000 0.0000 0.0000 0.0000 29.3626 0.0000
# 6 0.0000 0.0000 0.0000 0.0000 0.0000 -383.2188
#
#
#
# Elastic Compliance Matrix: (Units=1/GPa)
#
#
# Indices 1 2 3 4 5 6 
#
# 1 0.011959 0.000868 0.000287 0.000000 0.000000 0.000000
# 2 0.000868 0.021577 0.003561 0.000000 0.000000 0.000000
# 3 0.000287 0.003561 0.010801 0.000000 0.000000 0.000000
# 4 0.000000 0.000000 0.000000 -0.072282 0.000000 0.000000
# 5 0.000000 0.000000 0.000000 0.000000 0.034057 0.000000
# 6 0.000000 0.000000 0.000000 0.000000 0.000000 -0.002609
#
#
# Mechanical properties :
#
#
# Convention : Reuss Voigt Hill
#
# Bulk Modulus (GPa) = 18.59819 21.11051 19.85435
# Shear Modulus (GPa) = 416.91718 -56.77728 180.06995
#
# Velocity S-wave (km/s) = 13.22017 -4.87865 8.68826
# Velocity P-wave (km/s) = 15.51860 4.78387 10.43891
#
# Compressibility (1/GPa) = 0.05376868
#
# Stress axis : x y z
#
# Youngs Moduli (GPa) = 83.61985 46.34636 92.58213
#
# Poissons Ratio (x) = -0.04023 -0.02653
# Poissons Ratio (y) = -0.07259 -0.32972
# Poissons Ratio (z) = -0.02396 -0.16506
#
# Static dielectric constant tensor:
#      x y z
#    x 1.831810 0.000000 0.000000 
#    y 0.000000 1.921130 0.000000 
#    z 0.000000 0.000000 1.981390 
# 
# From -- ./inp_files/16983.got.cif
#   From: 2010.05.17/outbox.cif.g08.bks.cpg/sg38_9_cif.got.tgz:16983.got - 2010.06.03 18:07:57.
