data_PCOD9357802
_publ_section_title
;
Structure prediction by ZEFSAII (Michael W. Deem and Ramdas Pophale) SiO2 
 PCOD9357802
Probable space group: A M M 2
;
_chemical_formula_sum "Si O2"
_cell_formula_units_Z 64
_cell_length_a 8.826803
_cell_length_b 28.856618
_cell_length_c 12.883512
_cell_angle_alpha 90.000000
_cell_angle_beta 90.000000
_cell_angle_gamma 90.000000
_cell_volume 3281.581016
_symmetry_space_group_name_H-M "A M M 2"
_symmetry_group_IT_number 38
_symmetry_cell_setting 'orthorhombic'
loop_
_space_group_symop_operation_xyz
x,y,z
-x,-y,z
-x,y,z
x,-y,z
x,1/2+y,1/2+z
-x,1/2-y,1/2+z
-x,1/2+y,1/2+z
x,1/2-y,1/2+z
loop_
_atom_site_type_symbol
_atom_site_label
_atom_site_fract_x
_atom_site_fract_y
_atom_site_fract_z
Si Si1 0.327946 0.929429 0.449960
Si Si2 0.816605 0.122738 0.072502
Si Si3 0.681012 0.209128 0.174662
Si Si4 0.821380 0.194030 0.618597
Si Si5 0.682779 0.905670 0.673959
Si Si6 0.672222 0.819738 0.407552
Si Si7 0.183058 0.553689 0.384609
Si Si8 0.818812 0.950674 0.238504
O O1 0.500000 0.946968 0.442629
O O2 0.273305 0.933147 0.568303
O O3 0.332976 0.874619 0.426331
O O4 0.228257 0.948990 0.357846
O O5 0.747775 0.173513 0.089604
O O6 0.762545 0.092211 0.171220
O O7 0.000000 0.126617 0.073617
O O8 0.774803 0.091616 0.972542
O O9 0.500000 0.210585 0.163889
O O10 0.749521 0.260174 0.167138
O O11 0.717734 0.190634 0.290231
O O12 0.746324 0.146597 0.661053
O O13 0.783209 0.198234 0.496152
O O14 0.000000 0.191811 0.635905
O O15 0.500000 0.903612 0.675329
O O16 0.745555 0.930222 0.776017
O O17 0.500000 0.801764 0.424519
O O18 0.225112 0.500000 0.408869
O O19 0.000000 0.554762 0.377182
O O20 0.000000 0.949312 0.231471
O O21 0.766895 0.000000 0.193504
#
# Coordination Sequence:
#
# PCOD9357802 Si02
#       8
#     8   8   8   8   8   8   8   8
#     4   9  18  35  56  80 109 144 186 234 290 348
#     4  10  21  38  59  85 119 157 201 252 304 359
#     4  11  22  38  61  87 119 158 202 249 304 367
#     4  11  23  38  60  90 120 155 201 251 307 367
#     4  10  22  41  62  85 119 159 203 253 308 364
#     4   9  19  37  58  80 112 151 189 236 295 353
#     4  10  22  41  64  89 122 166 213 262 314 369
#     4  10  20  33  53  83 116 149 186 231 287 349
#
# _framework density 19.502794999999999
#
# number of rings (size 3 to 8) (size 9 to 14) (size 15 to 20)
#    0.000    2.000    1.250    3.000    0.000    7.500 
#    0.000    2.500    0.000    2.250    0.000    0.000 
#    0.000    0.000    0.000    0.000    0.000    0.000 
#
# Total GULP energy -178550.857780 kJ/mol
# GULP energy per Si atom -5579.714306 kJ/mol
# Density = 1.945841 g / cm^3
# Si number density = 19.502795 Si / 1000 Ang^3
#
#
#
# Elastic Constant Matrix: (Units=GPa)
#
#
# Indices 1 2 3 4 5 6 
#
# 1 28.8066 13.0606 18.4303 0.0000 0.0000 0.0000
# 2 13.0606 61.5701 16.0909 0.0000 0.0000 0.0000
# 3 18.4303 16.0909 89.0415 0.0000 0.0000 0.0000
# 4 0.0000 0.0000 0.0000 14.3331 0.0000 0.0000
# 5 0.0000 0.0000 0.0000 0.0000 30.4383 0.0000
# 6 0.0000 0.0000 0.0000 0.0000 0.0000 51.0371
#
#
#
# Elastic Compliance Matrix: (Units=1/GPa)
#
#
# Indices 1 2 3 4 5 6 
#
# 1 0.042775 -0.007095 -0.007572 0.000000 0.000000 0.000000
# 2 -0.007095 0.018224 -0.001825 0.000000 0.000000 0.000000
# 3 -0.007572 -0.001825 0.013128 0.000000 0.000000 0.000000
# 4 0.000000 0.000000 0.000000 0.069769 0.000000 0.000000
# 5 0.000000 0.000000 0.000000 0.000000 0.032853 0.000000
# 6 0.000000 0.000000 0.000000 0.000000 0.000000 0.019594
#
#
# Mechanical properties :
#
#
# Convention : Reuss Voigt Hill
#
# Bulk Modulus (GPa) = 24.30494 30.50908 27.40701
# Shear Modulus (GPa) = 20.57277 27.95079 24.26178
#
# Velocity S-wave (km/s) = 3.25139 3.78983 3.53089
# Velocity P-wave (km/s) = 5.15604 5.90151 5.54132
#
# Compressibility (1/GPa) = 0.04114390
#
# Stress axis : x y z
#
# Youngs Moduli (GPa) = 23.37794 54.87408 76.17480
#
# Poissons Ratio (x) = 0.38933 0.57678
# Poissons Ratio (y) = 0.16587 0.13899
# Poissons Ratio (z) = 0.17701 0.10013
#
# Static dielectric constant tensor:
#      x y z
#    x 1.660110 0.000000 0.000000 
#    y 0.000000 1.695610 0.000000 
#    z 0.000000 0.000000 1.683910 
# 
# From -- ./inp_files/8601.got.cif
#   From: 2010.05.17/outbox.cif.g08.bks.cpg/sg38_5_cif.got.tgz:8601.got - 2010.06.03 18:07:57.
