data_PCOD9358575
_publ_section_title
;
Structure prediction by ZEFSAII (Michael W. Deem and Ramdas Pophale) SiO2 
 PCOD9358575
Probable space group: A M M 2
;
_chemical_formula_sum "Si O2"
_cell_formula_units_Z 20
_cell_length_a 10.710398
_cell_length_b 13.184668
_cell_length_c 4.945992
_cell_angle_alpha 90.000000
_cell_angle_beta 90.000000
_cell_angle_gamma 90.000000
_cell_volume 698.438575
_symmetry_space_group_name_H-M "A M M 2"
_symmetry_group_IT_number 38
_symmetry_cell_setting 'orthorhombic'
loop_
_space_group_symop_operation_xyz
x,y,z
-x,-y,z
-x,y,z
x,-y,z
x,1/2+y,1/2+z
-x,1/2-y,1/2+z
-x,1/2+y,1/2+z
x,1/2-y,1/2+z
loop_
_atom_site_type_symbol
_atom_site_label
_atom_site_fract_x
_atom_site_fract_y
_atom_site_fract_z
Si Si1 0.352153 0.803391 0.548500
Si Si2 0.867211 0.500000 0.836201
Si Si3 0.359777 0.500000 0.423246
Si Si4 0.000000 0.177986 0.590703
O O1 0.500000 0.787608 0.494055
O O2 0.299643 0.782612 0.250400
O O3 0.350356 0.904959 0.722696
O O4 0.747607 0.500000 0.648395
O O5 0.886626 0.600434 0.021575
O O6 0.000000 0.500000 0.670239
O O7 0.500000 0.500000 0.549645
O O8 0.000000 0.227955 0.883020
#
# Coordination Sequence:
#
# PCOD9358575 Si02
#       4
#     8   4   4   4
#     4   9  19  35  55  82 117 158 201 244 299 364
#     4   8  22  38  62  96 122 162 220 252 310 390
#     4  10  20  38  62  92 130 166 204 262 316 370
#     4   9  20  41  66  90 124 165 208 265 316 364
#
# _framework density 28.635303
#
# number of rings (size 3 to 8) (size 9 to 14) (size 15 to 20)
#    1.200    1.600    0.000    0.000    0.000    8.000 
#    0.000   12.000    0.000    0.000    0.000    0.000 
#    0.000    0.000    0.000    0.000    0.000    0.000 
#
# Total GULP energy -56014.259400 kJ/mol
# GULP energy per Si atom -5601.425940 kJ/mol
# Density = 2.857013 g / cm^3
# Si number density = 28.635303 Si / 1000 Ang^3
#
#
#
# Elastic Constant Matrix: (Units=GPa)
#
#
# Indices 1 2 3 4 5 6 
#
# 1 177.8089 -7.9314 13.8206 0.0000 0.0000 0.0000
# 2 -7.9314 165.4818 25.8925 0.0000 0.0000 0.0000
# 3 13.8206 25.8925 146.0211 0.0000 0.0000 0.0000
# 4 0.0000 0.0000 0.0000 29.0288 0.0000 0.0000
# 5 0.0000 0.0000 0.0000 0.0000 46.5089 0.0000
# 6 0.0000 0.0000 0.0000 0.0000 0.0000 25.9637
#
#
#
# Elastic Compliance Matrix: (Units=1/GPa)
#
#
# Indices 1 2 3 4 5 6 
#
# 1 0.005687 0.000367 -0.000603 0.000000 0.000000 0.000000
# 2 0.000367 0.006239 -0.001141 0.000000 0.000000 0.000000
# 3 -0.000603 -0.001141 0.007108 0.000000 0.000000 0.000000
# 4 0.000000 0.000000 0.000000 0.034449 0.000000 0.000000
# 5 0.000000 0.000000 0.000000 0.000000 0.021501 0.000000
# 6 0.000000 0.000000 0.000000 0.000000 0.000000 0.038515
#
#
# Mechanical properties :
#
#
# Convention : Reuss Voigt Hill
#
# Bulk Modulus (GPa) = 61.42774 61.43057 61.42915
# Shear Modulus (GPa) = 41.09122 50.80230 45.94676
#
# Velocity S-wave (km/s) = 3.79223 4.21659 4.01003
# Velocity P-wave (km/s) = 6.37754 6.72350 6.55280
#
# Compressibility (1/GPa) = 0.01627929
#
# Stress axis : x y z
#
# Youngs Moduli (GPa) = 175.83085 160.27988 140.69125
#
# Poissons Ratio (x) = -0.05882 0.08489
# Poissons Ratio (y) = -0.06453 0.16054
# Poissons Ratio (z) = 0.10609 0.18289
#
# Static dielectric constant tensor:
#      x y z
#    x 2.489420 0.000000 0.000000 
#    y 0.000000 2.377810 0.000000 
#    z 0.000000 0.000000 2.102310 
# 
# From -- ./inp_files/545.got.cif
#   From: 2010.05.17/outbox.cif.g08.bks.cpg/sg38_1_cif.got.tgz:545.got - 2010.06.03 18:07:57.
