data_PCOD9358922
_publ_section_title
;
Structure prediction by ZEFSAII (Michael W. Deem and Ramdas Pophale) SiO2 
 PCOD9358922
Probable space group: A M M 2
;
_chemical_formula_sum "Si O2"
_cell_formula_units_Z 48
_cell_length_a 8.257863
_cell_length_b 31.532243
_cell_length_c 9.428441
_cell_angle_alpha 90.000000
_cell_angle_beta 90.000000
_cell_angle_gamma 90.000000
_cell_volume 2455.061784
_symmetry_space_group_name_H-M "A M M 2"
_symmetry_group_IT_number 38
_symmetry_cell_setting 'orthorhombic'
loop_
_space_group_symop_operation_xyz
x,y,z
-x,-y,z
-x,y,z
x,-y,z
x,1/2+y,1/2+z
-x,1/2-y,1/2+z
-x,1/2+y,1/2+z
x,1/2-y,1/2+z
loop_
_atom_site_type_symbol
_atom_site_label
_atom_site_fract_x
_atom_site_fract_y
_atom_site_fract_z
Si Si1 0.303822 0.209250 0.030900
Si Si2 0.693829 0.048324 0.701264
Si Si3 0.804071 0.372562 0.705705
Si Si4 0.694642 0.208822 0.706208
Si Si5 0.804125 0.951917 0.021687
Si Si6 0.807222 0.371629 0.029121
O O1 0.500000 0.210060 0.028635
O O2 0.250290 0.167193 0.112470
O O3 0.246419 0.250786 0.116096
O O4 0.245433 0.209434 0.868241
O O5 0.500000 0.049677 0.692524
O O6 0.744642 0.058064 0.863032
O O7 0.765250 0.083083 0.596630
O O8 0.748181 0.000000 0.670743
O O9 0.748764 0.416149 0.631289
O O10 0.000000 0.373352 0.708245
O O11 0.745901 0.368627 0.867515
O O12 0.500000 0.211858 0.712214
O O13 0.737586 0.165604 0.626553
O O14 0.000000 0.951624 0.019636
O O15 0.751251 0.000000 0.056763
O O16 0.000000 0.366736 0.026815
#
# Coordination Sequence:
#
# PCOD9358922 Si02
#       6
#     8   8   8   8   8   8
#     4  10  21  37  59  83 108 142 181 223 273 326
#     4  10  21  37  57  82 111 143 181 225 272 323
#     4  10  22  37  54  80 112 145 183 226 271 321
#     4  10  21  38  59  83 110 142 182 225 271 324
#     4   9  18  35  58  81 107 142 183 227 275 325
#     4  11  23  37  55  81 112 147 184 223 270 321
#
# _framework density 19.551442000000002
#
# number of rings (size 3 to 8) (size 9 to 14) (size 15 to 20)
#    0.000    2.000    0.000    3.000    0.000    9.000 
#    0.000    1.667    0.000    2.000    0.000    0.000 
#    0.000    0.000    0.000    0.000    0.000    0.000 
#
# Total GULP energy -134084.759998 kJ/mol
# GULP energy per Si atom -5586.865000 kJ/mol
# Density = 1.950694 g / cm^3
# Si number density = 19.551442 Si / 1000 Ang^3
#
#
#
# Elastic Constant Matrix: (Units=GPa)
#
#
# Indices 1 2 3 4 5 6 
#
# 1 1.9309 2.4539 10.1824 0.0000 0.0000 0.0000
# 2 2.4539 130.9843 111.1504 0.0000 0.0000 0.0000
# 3 10.1824 111.1504 194.7385 0.0000 0.0000 0.0000
# 4 0.0000 0.0000 0.0000 43.2143 0.0000 0.0000
# 5 0.0000 0.0000 0.0000 0.0000 22.0598 0.0000
# 6 0.0000 0.0000 0.0000 0.0000 0.0000 28.7009
#
#
#
# Elastic Compliance Matrix: (Units=1/GPa)
#
#
# Indices 1 2 3 4 5 6 
#
# 1 0.811991 0.040368 -0.065498 0.000000 0.000000 0.000000
# 2 0.040368 0.016812 -0.011707 0.000000 0.000000 0.000000
# 3 -0.065498 -0.011707 0.015242 0.000000 0.000000 0.000000
# 4 0.000000 0.000000 0.000000 0.023141 0.000000 0.000000
# 5 0.000000 0.000000 0.000000 0.000000 0.045331 0.000000
# 6 0.000000 0.000000 0.000000 0.000000 0.000000 0.034842
#
#
# Mechanical properties :
#
#
# Convention : Reuss Voigt Hill
#
# Bulk Modulus (GPa) = 1.29807 63.91411 32.60609
# Shear Modulus (GPa) = 3.91291 32.38612 18.14952
#
# Velocity S-wave (km/s) = 1.41622 4.07437 3.05010
# Velocity P-wave (km/s) = 1.82746 7.40913 5.39606
#
# Compressibility (1/GPa) = 0.77037248
#
# Stress axis : x y z
#
# Youngs Moduli (GPa) = 1.23154 59.48064 65.61025
#
# Poissons Ratio (x) = -2.40110 4.29731
# Poissons Ratio (y) = -0.04971 0.76807
# Poissons Ratio (z) = 0.08066 0.69631
#
# Static dielectric constant tensor:
#      x y z
#    x 1.688330 0.000000 0.000000 
#    y 0.000000 1.659910 0.000000 
#    z 0.000000 0.000000 1.665450 
# 
# From -- ./inp_files/3733.got.cif
#   From: 2010.05.17/outbox.cif.g08.bks.cpg/sg38_2_cif.got.tgz:3733.got - 2010.06.03 18:07:57.
