data_PCOD9358773
_publ_section_title
;
Structure prediction by ZEFSAII (Michael W. Deem and Ramdas Pophale) SiO2 
 PCOD9358773
Probable space group: A M M 2
;
_chemical_formula_sum "Si O2"
_cell_formula_units_Z 56
_cell_length_a 10.037530
_cell_length_b 17.603577
_cell_length_c 16.250568
_cell_angle_alpha 90.000000
_cell_angle_beta 90.000000
_cell_angle_gamma 90.000000
_cell_volume 2871.417388
_symmetry_space_group_name_H-M "A M M 2"
_symmetry_group_IT_number 38
_symmetry_cell_setting 'orthorhombic'
loop_
_space_group_symop_operation_xyz
x,y,z
-x,-y,z
-x,y,z
x,-y,z
x,1/2+y,1/2+z
-x,1/2-y,1/2+z
-x,1/2+y,1/2+z
x,1/2-y,1/2+z
loop_
_atom_site_type_symbol
_atom_site_label
_atom_site_fract_x
_atom_site_fract_y
_atom_site_fract_z
Si Si1 0.849538 0.000000 0.357301
Si Si2 0.848097 0.500000 0.655495
Si Si3 0.646580 0.624740 0.852998
Si Si4 0.155054 0.911987 0.801673
Si Si5 0.654529 0.200935 0.897812
Si Si6 0.656504 0.773181 0.569427
Si Si7 0.157075 0.912215 0.603409
Si Si8 0.649152 0.128905 0.159119
O O1 0.854792 0.000000 0.256455
O O2 0.765563 0.073006 0.384843
O O3 0.000000 0.000000 0.387654
O O4 0.763914 0.573388 0.627606
O O5 0.000000 0.500000 0.626215
O O6 0.500000 0.605733 0.888159
O O7 0.669399 0.713588 0.863887
O O8 0.640241 0.610748 0.755569
O O9 0.250007 0.856542 0.851707
O O10 0.172762 0.905645 0.702887
O O11 0.000000 0.895021 0.818931
O O12 0.180388 0.000000 0.823294
O O13 0.500000 0.178307 0.887438
O O14 0.681678 0.215202 0.994107
O O15 0.500000 0.794888 0.566751
O O16 0.749014 0.846733 0.566929
O O17 0.679041 0.718073 0.647274
O O18 0.000000 0.899931 0.584889
O O19 0.189767 0.000000 0.581293
O O20 0.500000 0.115145 0.123915
#
# Coordination Sequence:
#
# PCOD9358773 Si02
#       8
#     4   4   8   8   8   8   8   8
#     4   9  17  29  47  73  99 123 162 211 252 297
#     4   9  17  29  47  73  99 123 162 211 252 297
#     4   9  17  31  51  72  98 135 174 212 258 309
#     4   9  19  37  60  84 110 143 185 232 280 329
#     4  10  21  36  53  79 112 144 180 222 271 327
#     4  10  21  36  53  79 112 144 180 222 271 327
#     4   9  19  37  60  84 110 143 185 232 280 329
#     4   9  17  31  51  72  98 135 174 212 258 309
#
# _framework density 19.502562000000001
#
# number of rings (size 3 to 8) (size 9 to 14) (size 15 to 20)
#    0.000    2.714    0.000    2.143    0.000    5.714 
#    2.571    4.286    0.000    0.000    0.000    0.000 
#    0.000    0.000    0.000    0.000    0.000    0.000 
#
# Total GULP energy -156146.211825 kJ/mol
# GULP energy per Si atom -5576.650422 kJ/mol
# Density = 1.945817 g / cm^3
# Si number density = 19.502562 Si / 1000 Ang^3
#
#
#
# Elastic Constant Matrix: (Units=GPa)
#
#
# Indices 1 2 3 4 5 6 
#
# 1 113.0946 68.2680 29.7115 0.0000 0.0000 0.0000
# 2 68.2680 73.1967 21.1052 0.0000 0.0000 0.0000
# 3 29.7115 21.1052 27.1766 0.0000 0.0000 0.0000
# 4 0.0000 0.0000 0.0000 20.4100 0.0000 0.0000
# 5 0.0000 0.0000 0.0000 0.0000 16.0496 0.0000
# 6 0.0000 0.0000 0.0000 0.0000 0.0000 42.1527
#
#
#
# Elastic Compliance Matrix: (Units=1/GPa)
#
#
# Indices 1 2 3 4 5 6 
#
# 1 0.022393 -0.017816 -0.010647 0.000000 0.000000 0.000000
# 2 -0.017816 0.031777 -0.005201 0.000000 0.000000 0.000000
# 3 -0.010647 -0.005201 0.052475 0.000000 0.000000 0.000000
# 4 0.000000 0.000000 0.000000 0.048996 0.000000 0.000000
# 5 0.000000 0.000000 0.000000 0.000000 0.062307 0.000000
# 6 0.000000 0.000000 0.000000 0.000000 0.000000 0.023723
#
#
# Mechanical properties :
#
#
# Convention : Reuss Voigt Hill
#
# Bulk Modulus (GPa) = 25.43253 50.18193 37.80723
# Shear Modulus (GPa) = 15.52294 22.01468 18.76881
#
# Velocity S-wave (km/s) = 2.82431 3.36342 3.10558
# Velocity P-wave (km/s) = 4.86873 6.39299 5.68220
#
# Compressibility (1/GPa) = 0.03931972
#
# Stress axis : x y z
#
# Youngs Moduli (GPa) = 44.65595 31.46881 19.05679
#
# Poissons Ratio (x) = 0.56064 0.20289
# Poissons Ratio (y) = 0.79558 0.09911
# Poissons Ratio (z) = 0.47543 0.16366
#
# Static dielectric constant tensor:
#      x y z
#    x 1.673830 0.000000 0.000000 
#    y 0.000000 1.665840 0.000000 
#    z 0.000000 0.000000 1.767550 
# 
# From -- ./inp_files/19878.got.cif
#   From: 2010.05.17/outbox.cif.g08.bks.cpg/sg38_10_cif.got.tgz:19878.got - 2010.06.03 18:07:57.
