data_PCOD9358511
_publ_section_title
;
Structure prediction by ZEFSAII (Michael W. Deem and Ramdas Pophale) SiO2 
 PCOD9358511
Probable space group: A M M 2
;
_chemical_formula_sum "Si O2"
_cell_formula_units_Z 56
_cell_length_a 7.848294
_cell_length_b 15.983946
_cell_length_c 20.405240
_cell_angle_alpha 90.000000
_cell_angle_beta 90.000000
_cell_angle_gamma 90.000000
_cell_volume 2559.770174
_symmetry_space_group_name_H-M "A M M 2"
_symmetry_group_IT_number 38
_symmetry_cell_setting 'orthorhombic'
loop_
_space_group_symop_operation_xyz
x,y,z
-x,-y,z
-x,y,z
x,-y,z
x,1/2+y,1/2+z
-x,1/2-y,1/2+z
-x,1/2+y,1/2+z
x,1/2-y,1/2+z
loop_
_atom_site_type_symbol
_atom_site_label
_atom_site_fract_x
_atom_site_fract_y
_atom_site_fract_z
Si Si1 0.198538 0.087844 0.921710
Si Si2 0.295995 0.595333 0.188765
Si Si3 0.201179 0.227668 0.412819
Si Si4 0.694568 0.248086 0.274238
Si Si5 0.197445 0.410529 0.706157
Si Si6 0.795266 0.181979 0.553033
Si Si7 0.702366 0.875876 0.065204
O O1 0.277965 0.178092 0.907298
O O2 0.000000 0.089226 0.901352
O O3 0.273865 0.000000 0.896716
O O4 0.212449 0.089230 0.999924
O O5 0.500000 0.593881 0.197464
O O6 0.231718 0.500000 0.199439
O O7 0.230402 0.667844 0.239417
O O8 0.265788 0.623972 0.113046
O O9 0.222728 0.203277 0.337760
O O10 0.262166 0.173961 0.475725
O O11 0.000000 0.237830 0.425746
O O12 0.500000 0.266722 0.290607
O O13 0.701510 0.172741 0.223052
O O14 0.259791 0.500000 0.733219
O O15 0.212513 0.413756 0.628399
O O16 0.000000 0.399920 0.724805
O O17 0.735927 0.276367 0.567246
O O18 0.000000 0.176436 0.555072
O O19 0.500000 0.891851 0.063582
#
# Coordination Sequence:
#
# PCOD9358511 Si02
#       7
#     8   8   8   8   8   8   8
#     4   9  18  33  52  77 111 150 193 237 283 342
#     4  10  22  40  62  91 127 164 203 255 316 369
#     4   9  20  37  57  81 114 157 200 249 304 358
#     4  11  23  39  60  88 121 160 201 248 304 368
#     4  11  23  38  58  83 113 150 190 238 294 350
#     4  10  20  37  61  87 115 154 204 250 296 353
#     4  11  20  31  52  83 117 149 182 229 289 347
#
# _framework density 21.876965999999999
#
# number of rings (size 3 to 8) (size 9 to 14) (size 15 to 20)
#    0.000    1.857    1.429    3.857    0.000    7.429 
#    0.000    0.714    0.000    0.857    0.000    0.000 
#    0.000    0.000    0.000    0.000    0.000    0.000 
#
# Total GULP energy -155914.326069 kJ/mol
# GULP energy per Si atom -5568.368788 kJ/mol
# Density = 2.182717 g / cm^3
# Si number density = 21.876966 Si / 1000 Ang^3
#
#
#
# Elastic Constant Matrix: (Units=GPa)
#
#
# Indices 1 2 3 4 5 6 
#
# 1 41.4763 11.0103 -0.4903 0.0000 0.0000 0.0000
# 2 11.0103 78.2672 2.9595 0.0000 0.0000 0.0000
# 3 -0.4903 2.9595 72.6701 0.0000 0.0000 0.0000
# 4 0.0000 0.0000 0.0000 13.0357 0.0000 0.0000
# 5 0.0000 0.0000 0.0000 0.0000 -123.1772 0.0000
# 6 0.0000 0.0000 0.0000 0.0000 0.0000 -192.5377
#
#
#
# Elastic Compliance Matrix: (Units=1/GPa)
#
#
# Indices 1 2 3 4 5 6 
#
# 1 0.025053 -0.003536 0.000313 0.000000 0.000000 0.000000
# 2 -0.003536 0.013296 -0.000565 0.000000 0.000000 0.000000
# 3 0.000313 -0.000565 0.013786 0.000000 0.000000 0.000000
# 4 0.000000 0.000000 0.000000 0.076712 0.000000 0.000000
# 5 0.000000 0.000000 0.000000 0.000000 -0.008118 0.000000
# 6 0.000000 0.000000 0.000000 0.000000 0.000000 -0.005194
#
#
# Mechanical properties :
#
#
# Convention : Reuss Voigt Hill
#
# Bulk Modulus (GPa) = 22.44304 24.37473 23.40889
# Shear Modulus (GPa) = 36.24153 -48.60688 -6.18268
#
# Velocity S-wave (km/s) = 4.07456 -4.71874 -1.68293
# Velocity P-wave (km/s) = 5.69360 4.30381 2.63574
#
# Compressibility (1/GPa) = 0.04455725
#
# Stress axis : x y z
#
# Youngs Moduli (GPa) = 39.91614 75.21308 72.53760
#
# Poissons Ratio (x) = 0.26596 -0.02271
# Poissons Ratio (y) = 0.14115 0.04101
# Poissons Ratio (z) = -0.01250 0.04252
#
# Static dielectric constant tensor:
#      x y z
#    x 2.183750 0.000000 0.000000 
#    y 0.000000 1.953200 0.000000 
#    z 0.000000 0.000000 1.858360 
# 
# From -- ./inp_files/19825.got.cif
#   From: 2010.05.17/outbox.cif.g08.bks.cpg/sg38_10_cif.got.tgz:19825.got - 2010.06.03 18:07:57.
