data_PCOD9358904
_publ_section_title
;
Structure prediction by ZEFSAII (Michael W. Deem and Ramdas Pophale) SiO2 
 PCOD9358904
Probable space group: A M M 2
;
_chemical_formula_sum "Si O2"
_cell_formula_units_Z 48
_cell_length_a 9.625639
_cell_length_b 7.831532
_cell_length_c 31.911388
_cell_angle_alpha 90.000000
_cell_angle_beta 90.000000
_cell_angle_gamma 90.000000
_cell_volume 2405.592112
_symmetry_space_group_name_H-M "A M M 2"
_symmetry_group_IT_number 38
_symmetry_cell_setting 'orthorhombic'
loop_
_space_group_symop_operation_xyz
x,y,z
-x,-y,z
-x,y,z
x,-y,z
x,1/2+y,1/2+z
-x,1/2-y,1/2+z
-x,1/2+y,1/2+z
x,1/2-y,1/2+z
loop_
_atom_site_type_symbol
_atom_site_label
_atom_site_fract_x
_atom_site_fract_y
_atom_site_fract_z
Si Si1 0.659291 0.705224 0.833910
Si Si2 0.342234 0.202301 0.989861
Si Si3 0.157067 0.296300 0.910669
Si Si4 0.160033 0.793651 0.569290
Si Si5 0.839877 0.208391 0.663335
Si Si6 0.341246 0.793972 0.741118
O O1 0.500000 0.770128 0.837810
O O2 0.652809 0.500000 0.837717
O O3 0.758035 0.772220 0.870651
O O4 0.711666 0.745889 0.787228
O O5 0.500000 0.271978 0.988966
O O6 0.247054 0.269898 0.952307
O O7 0.350519 0.000000 0.984316
O O8 0.265189 0.237220 0.033595
O O9 0.145632 0.500000 0.904800
O O10 0.000000 0.227802 0.914392
O O11 0.201072 0.737643 0.616311
O O12 0.000000 0.737634 0.561291
O O13 0.157923 0.000000 0.569145
O O14 0.746850 0.269412 0.701738
O O15 0.000000 0.257395 0.669578
O O16 0.835085 0.000000 0.663436
O O17 0.500000 0.732030 0.738318
O O18 0.343076 0.000000 0.739123
#
# Coordination Sequence:
#
# PCOD9358904 Si02
#       6
#     8   8   8   8   8   8
#     4   9  18  33  51  71  99 134 167 202 249 300
#     4  11  24  38  52  75 106 136 167 206 253 305
#     4  10  21  37  57  79 101 129 169 213 254 301
#     4   9  18  34  56  79 102 132 172 214 254 299
#     4   8  15  29  49  73 100 129 163 204 247 292
#     4   9  17  29  47  72 100 130 166 206 245 288
#
# _framework density 19.953506000000001
#
# number of rings (size 3 to 8) (size 9 to 14) (size 15 to 20)
#    0.000    2.667    0.000    2.500    0.000    6.667 
#    0.000    4.167    0.000    3.000    0.000    0.000 
#    0.000    0.000    0.000    0.000    0.000    0.000 
#
# Total GULP energy -133906.655253 kJ/mol
# GULP energy per Si atom -5579.443969 kJ/mol
# Density = 1.990809 g / cm^3
# Si number density = 19.953506 Si / 1000 Ang^3
#
#
#
# Elastic Constant Matrix: (Units=GPa)
#
#
# Indices 1 2 3 4 5 6 
#
# 1 135.1165 5.5126 119.4825 0.0000 0.0000 0.0000
# 2 5.5126 21.4976 -2.8025 0.0000 0.0000 0.0000
# 3 119.4825 -2.8025 194.1544 0.0000 0.0000 0.0000
# 4 0.0000 0.0000 0.0000 23.9970 0.0000 0.0000
# 5 0.0000 0.0000 0.0000 0.0000 42.3463 0.0000
# 6 0.0000 0.0000 0.0000 0.0000 0.0000 11.5020
#
#
#
# Elastic Compliance Matrix: (Units=1/GPa)
#
#
# Indices 1 2 3 4 5 6 
#
# 1 0.016907 -0.005703 -0.010487 0.000000 0.000000 0.000000
# 2 -0.005703 0.048528 0.004210 0.000000 0.000000 0.000000
# 3 -0.010487 0.004210 0.011665 0.000000 0.000000 0.000000
# 4 0.000000 0.000000 0.000000 0.041672 0.000000 0.000000
# 5 0.000000 0.000000 0.000000 0.000000 0.023615 0.000000
# 6 0.000000 0.000000 0.000000 0.000000 0.000000 0.086942
#
#
# Mechanical properties :
#
#
# Convention : Reuss Voigt Hill
#
# Bulk Modulus (GPa) = 18.81798 66.12817 42.47308
# Shear Modulus (GPa) = 18.45006 30.80746 24.62876
#
# Velocity S-wave (km/s) = 3.04411 3.93359 3.51708
# Velocity P-wave (km/s) = 4.66978 7.33784 6.15023
#
# Compressibility (1/GPa) = 0.05314067
#
# Stress axis : x y z
#
# Youngs Moduli (GPa) = 59.14597 20.60668 85.72619
#
# Poissons Ratio (x) = 0.11751 0.89902
# Poissons Ratio (y) = 0.33729 -0.36090
# Poissons Ratio (z) = 0.62027 -0.08675
#
# Static dielectric constant tensor:
#      x y z
#    x 1.703260 0.000000 0.000000 
#    y 0.000000 1.738880 0.000000 
#    z 0.000000 0.000000 1.684550 
# 
# From -- ./inp_files/24294.got.cif
#   From: 2010.05.17/outbox.cif.g08.bks.cpg/sg38_13_cif.got.tgz:24294.got - 2010.06.03 18:07:57.
