data_PCOD9358715
_publ_section_title
;
Structure prediction by ZEFSAII (Michael W. Deem and Ramdas Pophale) SiO2 
 PCOD9358715
Probable space group: A M M 2
;
_chemical_formula_sum "Si O2"
_cell_formula_units_Z 48
_cell_length_a 19.391425
_cell_length_b 8.715198
_cell_length_c 15.448848
_cell_angle_alpha 90.000000
_cell_angle_beta 90.000000
_cell_angle_gamma 90.000000
_cell_volume 2610.856986
_symmetry_space_group_name_H-M "A M M 2"
_symmetry_group_IT_number 38
_symmetry_cell_setting 'orthorhombic'
loop_
_space_group_symop_operation_xyz
x,y,z
-x,-y,z
-x,y,z
x,-y,z
x,1/2+y,1/2+z
-x,1/2-y,1/2+z
-x,1/2+y,1/2+z
x,1/2-y,1/2+z
loop_
_atom_site_type_symbol
_atom_site_label
_atom_site_fract_x
_atom_site_fract_y
_atom_site_fract_z
Si Si1 0.421465 0.184872 0.369840
Si Si2 0.683666 0.814567 0.519423
Si Si3 0.166022 0.683041 0.535862
Si Si4 0.080546 0.316235 0.879776
Si Si5 0.826546 0.315595 0.226518
Si Si6 0.667707 0.316286 0.218478
O O1 0.500000 0.240292 0.378493
O O2 0.371944 0.234546 0.448491
O O3 0.386746 0.238322 0.281008
O O4 0.422723 0.000000 0.371770
O O5 0.757966 0.738117 0.505938
O O6 0.659861 0.777408 0.617122
O O7 0.692496 0.000000 0.515242
O O8 0.163723 0.500000 0.538975
O O9 0.111181 0.746641 0.467736
O O10 0.155332 0.751357 0.631703
O O11 0.087594 0.500000 0.882144
O O12 0.124461 0.250805 0.800004
O O13 0.000000 0.277831 0.870133
O O14 0.830491 0.500000 0.224821
O O15 0.746336 0.273238 0.243483
O O16 0.661617 0.500000 0.226755
#
# Coordination Sequence:
#
# PCOD9358715 Si02
#       6
#     8   8   8   8   8   8
#     4  10  21  35  52  77 109 145 182 222 273 330
#     4   9  19  37  58  78 106 144 185 228 274 327
#     4  11  22  37  60  87 114 146 187 232 279 333
#     4  11  24  40  58  83 116 152 188 228 277 331
#     4  10  21  39  62  86 112 144 187 235 282 333
#     4   9  19  35  56  81 105 136 179 225 273 324
#
# _framework density 18.384768000000001
#
# number of rings (size 3 to 8) (size 9 to 14) (size 15 to 20)
#    0.000    2.000    0.000    4.500    0.000    9.667 
#    0.000    1.667    0.000    0.000    0.000    0.000 
#    0.000    0.000    0.000    0.000    0.000    0.000 
#
# Total GULP energy -134079.032285 kJ/mol
# GULP energy per Si atom -5586.626345 kJ/mol
# Density = 1.834292 g / cm^3
# Si number density = 18.384768 Si / 1000 Ang^3
#
#
#
# Elastic Constant Matrix: (Units=GPa)
#
#
# Indices 1 2 3 4 5 6 
#
# 1 55.1577 21.4131 26.8171 0.0000 0.0000 0.0000
# 2 21.4131 37.5762 11.3570 0.0000 0.0000 0.0000
# 3 26.8171 11.3570 42.1304 0.0000 0.0000 0.0000
# 4 0.0000 0.0000 0.0000 33.2640 0.0000 0.0000
# 5 0.0000 0.0000 0.0000 0.0000 -7.3957 0.0000
# 6 0.0000 0.0000 0.0000 0.0000 0.0000 28.4080
#
#
#
# Elastic Compliance Matrix: (Units=1/GPa)
#
#
# Indices 1 2 3 4 5 6 
#
# 1 0.030999 -0.012739 -0.016298 0.000000 0.000000 0.000000
# 2 -0.012739 0.034208 -0.001113 0.000000 0.000000 0.000000
# 3 -0.016298 -0.001113 0.034410 0.000000 0.000000 0.000000
# 4 0.000000 0.000000 0.000000 0.030063 0.000000 0.000000
# 5 0.000000 0.000000 0.000000 0.000000 -0.135214 0.000000
# 6 0.000000 0.000000 0.000000 0.000000 0.000000 0.035201
#
#
# Mechanical properties :
#
#
# Convention : Reuss Voigt Hill
#
# Bulk Modulus (GPa) = 25.43358 28.22652 26.83005
# Shear Modulus (GPa) = 48.50971 15.87374 32.19173
#
# Velocity S-wave (km/s) = 5.14229 2.94159 4.18903
# Velocity P-wave (km/s) = 7.00868 5.18881 6.16625
#
# Compressibility (1/GPa) = 0.03931809
#
# Stress axis : x y z
#
# Youngs Moduli (GPa) = 32.25894 29.23254 29.06167
#
# Poissons Ratio (x) = 0.37240 0.47364
# Poissons Ratio (y) = 0.41096 0.03233
# Poissons Ratio (z) = 0.52574 0.03252
#
# Static dielectric constant tensor:
#      x y z
#    x 1.614210 0.000000 0.000000 
#    y 0.000000 1.621060 0.000000 
#    z 0.000000 0.000000 1.611390 
# 
# From -- ./inp_files/14968.got.cif
#   From: 2010.05.17/outbox.cif.g08.bks.cpg/sg38_8_cif.got.tgz:14968.got - 2010.06.03 18:07:57.
