data_PCOD9358984
_publ_section_title
;
Structure prediction by ZEFSAII (Michael W. Deem and Ramdas Pophale) SiO2 
 PCOD9358984
Probable space group: A M M 2
;
_chemical_formula_sum "Si O2"
_cell_formula_units_Z 48
_cell_length_a 7.947014
_cell_length_b 34.748723
_cell_length_c 9.188077
_cell_angle_alpha 90.000000
_cell_angle_beta 90.000000
_cell_angle_gamma 90.000000
_cell_volume 2537.274491
_symmetry_space_group_name_H-M "A M M 2"
_symmetry_group_IT_number 38
_symmetry_cell_setting 'orthorhombic'
loop_
_space_group_symop_operation_xyz
x,y,z
-x,-y,z
-x,y,z
x,-y,z
x,1/2+y,1/2+z
-x,1/2-y,1/2+z
-x,1/2+y,1/2+z
x,1/2-y,1/2+z
loop_
_atom_site_type_symbol
_atom_site_label
_atom_site_fract_x
_atom_site_fract_y
_atom_site_fract_z
Si Si1 0.500000 0.207817 0.321391
Si Si2 0.809269 0.654602 0.175239
Si Si3 0.500000 0.709670 0.171885
Si Si4 0.704237 0.923417 0.831129
Si Si5 0.301472 0.921845 0.168050
Si Si6 0.704004 0.500000 0.159667
Si Si7 0.811922 0.346233 0.828031
Si Si8 0.198226 0.000000 0.323372
O O1 0.500000 0.248736 0.243972
O O2 0.500000 0.213175 0.496361
O O3 0.334635 0.183011 0.282606
O O4 0.665645 0.685295 0.214641
O O5 0.776462 0.614856 0.258363
O O6 0.000000 0.668089 0.203583
O O7 0.793328 0.647293 0.001682
O O8 0.500000 0.921400 0.823302
O O9 0.757816 0.961599 0.744707
O O10 0.752014 0.925825 0.000344
O O11 0.500000 0.912963 0.170309
O O12 0.210190 0.886682 0.247106
O O13 0.273023 0.961720 0.251330
O O14 0.500000 0.500000 0.156494
O O15 0.767043 0.500000 0.995157
O O16 0.000000 0.330974 0.801443
O O17 0.000000 0.000000 0.297076
#
# Coordination Sequence:
#
# PCOD9358984 Si02
#       8
#     4   8   4   8   8   4   8   4
#     4  10  22  40  62  89 118 159 188 244 293 348
#     4  10  21  38  62  88 118 157 198 242 291 350
#     4  10  22  40  62  87 122 151 198 236 293 354
#     4  10  21  37  59  87 118 152 198 248 295 350
#     4  11  22  38  60  86 117 156 198 245 299 347
#     4  10  21  38  60  82 112 158 203 245 293 347
#     4  10  21  39  62  90 119 155 201 240 289 355
#     4  12  25  38  54  82 118 158 203 248 292 346
#
# _framework density 18.917936999999998
#
# number of rings (size 3 to 8) (size 9 to 14) (size 15 to 20)
#    0.000    1.667    1.667    2.750    0.000    8.000 
#    0.000    0.833    0.000    0.000    0.000    0.000 
#    0.000    0.000    0.000    0.000    0.000    0.000 
#
# Total GULP energy -134131.771181 kJ/mol
# GULP energy per Si atom -5588.823799 kJ/mol
# Density = 1.887488 g / cm^3
# Si number density = 18.917937 Si / 1000 Ang^3
#
#
#
# Elastic Constant Matrix: (Units=GPa)
#
#
# Indices 1 2 3 4 5 6 
#
# 1 108.2528 66.1854 49.8974 0.0000 0.0000 0.0000
# 2 66.1854 155.0769 63.3991 0.0000 0.0000 0.0000
# 3 49.8974 63.3991 73.9882 0.0000 0.0000 0.0000
# 4 0.0000 0.0000 0.0000 38.4706 0.0000 0.0000
# 5 0.0000 0.0000 0.0000 0.0000 14.3007 0.0000
# 6 0.0000 0.0000 0.0000 0.0000 0.0000 -0.3680
#
#
#
# Elastic Compliance Matrix: (Units=1/GPa)
#
#
# Indices 1 2 3 4 5 6 
#
# 1 0.014461 -0.003363 -0.006871 0.000000 0.000000 0.000000
# 2 -0.003363 0.010707 -0.006907 0.000000 0.000000 0.000000
# 3 -0.006871 -0.006907 0.024068 0.000000 0.000000 0.000000
# 4 0.000000 0.000000 0.000000 0.025994 0.000000 0.000000
# 5 0.000000 0.000000 0.000000 0.000000 0.069926 0.000000
# 6 0.000000 0.000000 0.000000 0.000000 0.000000 -2.717686
#
#
# Mechanical properties :
#
#
# Convention : Reuss Voigt Hill
#
# Bulk Modulus (GPa) = 66.86882 77.36462 72.11672
# Shear Modulus (GPa) = -1.97374 21.00307 9.51466
#
# Velocity S-wave (km/s) = -1.02254 3.33561 2.24507
# Velocity P-wave (km/s) = 5.83347 7.47119 6.70254
#
# Compressibility (1/GPa) = 0.01495465
#
# Stress axis : x y z
#
# Youngs Moduli (GPa) = 69.15379 93.39331 41.54918
#
# Poissons Ratio (x) = 0.31406 0.28547
# Poissons Ratio (y) = 0.23254 0.28699
# Poissons Ratio (z) = 0.47513 0.64508
#
# Static dielectric constant tensor:
#      x y z
#    x 1.681180 0.000000 0.000000 
#    y 0.000000 1.605940 0.000000 
#    z 0.000000 0.000000 1.632050 
# 
# From -- ./inp_files/3893.got.cif
#   From: 2010.05.17/outbox.cif.g08.bks.cpg/sg38_2_cif.got.tgz:3893.got - 2010.06.03 18:07:57.
