data_PCOD9358865
_publ_section_title
;
Structure prediction by ZEFSAII (Michael W. Deem and Ramdas Pophale) SiO2 
 PCOD9358865
Probable space group: A M M 2
;
_chemical_formula_sum "Si O2"
_cell_formula_units_Z 52
_cell_length_a 18.202130
_cell_length_b 10.557181
_cell_length_c 15.175858
_cell_angle_alpha 90.000000
_cell_angle_beta 90.000000
_cell_angle_gamma 90.000000
_cell_volume 2916.241148
_symmetry_space_group_name_H-M "A M M 2"
_symmetry_group_IT_number 38
_symmetry_cell_setting 'orthorhombic'
loop_
_space_group_symop_operation_xyz
x,y,z
-x,-y,z
-x,y,z
x,-y,z
x,1/2+y,1/2+z
-x,1/2-y,1/2+z
-x,1/2+y,1/2+z
x,1/2-y,1/2+z
loop_
_atom_site_type_symbol
_atom_site_label
_atom_site_fract_x
_atom_site_fract_y
_atom_site_fract_z
Si Si1 0.234715 0.645454 0.424490
Si Si2 0.329203 0.000000 0.309942
Si Si3 0.917501 0.849164 0.193675
Si Si4 0.921343 0.348806 0.481995
Si Si5 0.759547 0.753995 0.246023
Si Si6 0.664340 0.744062 0.071499
Si Si7 0.585977 0.500000 0.633429
Si Si8 0.587830 0.500000 0.997957
O O1 0.236750 0.500000 0.457069
O O2 0.152451 0.698897 0.437696
O O3 0.252000 0.650917 0.321672
O O4 0.288522 0.726683 0.484412
O O5 0.278618 0.120965 0.287390
O O6 0.393118 0.000000 0.236481
O O7 0.366333 0.000000 0.405879
O O8 0.845961 0.779541 0.230499
O O9 0.000000 0.808632 0.222243
O O10 0.910805 0.000000 0.211375
O O11 0.915173 0.834325 0.087385
O O12 0.923433 0.500000 0.464855
O O13 0.000000 0.294448 0.453288
O O14 0.719190 0.723807 0.154184
O O15 0.620481 0.872799 0.092823
O O16 0.612805 0.624620 0.051956
O O17 0.500000 0.500000 0.619631
O O18 0.500000 0.500000 0.982872
#
# Coordination Sequence:
#
# PCOD9358865 Si02
#       8
#     8   4   8   8   8   8   4   4
#     4  11  21  35  57  86 115 154 199 244 287 344
#     4  10  21  36  61  86 110 145 200 237 286 350
#     4   9  16  28  52  84 116 154 201 248 290 334
#     4   8  15  28  49  77 110 149 196 245 287 331
#     4  11  21  35  58  86 120 154 196 246 288 347
#     4  11  23  39  63  87 118 152 195 236 295 363
#     4  10  21  40  63  87 112 148 188 238 288 349
#     4  12  25  44  63  89 122 155 188 245 317 377
#
# _framework density 17.831171999999999
#
# number of rings (size 3 to 8) (size 9 to 14) (size 15 to 20)
#    0.000    1.846    4.615    1.615    1.077    0.615 
#    0.000    0.000    0.000    0.923    0.000    1.077 
#    0.000    0.000    0.000    0.000    0.000    0.000 
#
# Total GULP energy -144928.622332 kJ/mol
# GULP energy per Si atom -5574.177782 kJ/mol
# Density = 1.779059 g / cm^3
# Si number density = 17.831172 Si / 1000 Ang^3
#
#
#
# Elastic Constant Matrix: (Units=GPa)
#
#
# Indices 1 2 3 4 5 6 
#
# 1 127.0640 29.1252 43.0308 0.0000 0.0000 0.0000
# 2 29.1252 61.4000 22.3584 0.0000 0.0000 0.0000
# 3 43.0308 22.3584 80.4869 0.0000 0.0000 0.0000
# 4 0.0000 0.0000 0.0000 22.7700 0.0000 0.0000
# 5 0.0000 0.0000 0.0000 0.0000 11.7403 0.0000
# 6 0.0000 0.0000 0.0000 0.0000 0.0000 19.0808
#
#
#
# Elastic Compliance Matrix: (Units=1/GPa)
#
#
# Indices 1 2 3 4 5 6 
#
# 1 0.010130 -0.003152 -0.004540 0.000000 0.000000 0.000000
# 2 -0.003152 0.019100 -0.003621 0.000000 0.000000 0.000000
# 3 -0.004540 -0.003621 0.015858 0.000000 0.000000 0.000000
# 4 0.000000 0.000000 0.000000 0.043917 0.000000 0.000000
# 5 0.000000 0.000000 0.000000 0.000000 0.085177 0.000000
# 6 0.000000 0.000000 0.000000 0.000000 0.000000 0.052409
#
#
# Mechanical properties :
#
#
# Convention : Reuss Voigt Hill
#
# Bulk Modulus (GPa) = 44.51959 50.88663 47.70311
# Shear Modulus (GPa) = 19.47768 22.34731 20.91250
#
# Velocity S-wave (km/s) = 3.30864 3.54400 3.42834
# Velocity P-wave (km/s) = 6.29425 6.73398 6.51783
#
# Compressibility (1/GPa) = 0.02246202
#
# Stress axis : x y z
#
# Youngs Moduli (GPa) = 98.71553 52.35542 63.06133
#
# Poissons Ratio (x) = 0.16502 0.28632
# Poissons Ratio (y) = 0.31114 0.22833
# Poissons Ratio (z) = 0.44820 0.18956
#
# Static dielectric constant tensor:
#      x y z
#    x 1.624100 0.000000 0.000000 
#    y 0.000000 1.621570 0.000000 
#    z 0.000000 0.000000 1.605770 
# 
# From -- ./inp_files/15208.got.cif
#   From: 2010.05.17/outbox.cif.g08.bks.cpg/sg38_8_cif.got.tgz:15208.got - 2010.06.03 18:07:57.
