data_PCOD9358876
_publ_section_title
;
Structure prediction by ZEFSAII (Michael W. Deem and Ramdas Pophale) SiO2 
 PCOD9358876
Probable space group: A M M 2
;
_chemical_formula_sum "Si O2"
_cell_formula_units_Z 40
_cell_length_a 7.747885
_cell_length_b 22.285478
_cell_length_c 13.590654
_cell_angle_alpha 90.000000
_cell_angle_beta 90.000000
_cell_angle_gamma 90.000000
_cell_volume 2346.634632
_symmetry_space_group_name_H-M "A M M 2"
_symmetry_group_IT_number 38
_symmetry_cell_setting 'orthorhombic'
loop_
_space_group_symop_operation_xyz
x,y,z
-x,-y,z
-x,y,z
x,-y,z
x,1/2+y,1/2+z
-x,1/2-y,1/2+z
-x,1/2+y,1/2+z
x,1/2-y,1/2+z
loop_
_atom_site_type_symbol
_atom_site_label
_atom_site_fract_x
_atom_site_fract_y
_atom_site_fract_z
Si Si1 0.800579 0.655144 0.885750
Si Si2 0.701240 0.720528 0.076632
Si Si3 0.500000 0.070379 0.316939
Si Si4 0.200902 0.847531 0.996295
Si Si5 0.207501 0.783305 0.796148
Si Si6 0.500000 0.070654 0.081179
O O1 0.668801 0.602923 0.859941
O O2 0.744734 0.715384 0.826831
O O3 0.000000 0.641538 0.861781
O O4 0.786585 0.675080 0.999621
O O5 0.500000 0.725329 0.050902
O O6 0.783159 0.786220 0.059864
O O7 0.720481 0.701896 0.189534
O O8 0.500000 0.077891 0.199047
O O9 0.500000 0.000000 0.339579
O O10 0.331460 0.896328 0.038147
O O11 0.000000 0.866129 0.996046
O O12 0.254904 0.826870 0.886140
O O13 0.000000 0.784296 0.790952
O O14 0.500000 0.000000 0.058343
#
# Coordination Sequence:
#
# PCOD9358876 Si02
#       6
#     8   8   4   8   8   4
#     4  10  21  37  55  79 114 145 175 219 268 319
#     4  11  19  30  56  87 114 141 173 216 270 328
#     4  11  24  39  55  79 105 139 189 226 262 313
#     4  10  21  37  55  80 114 145 176 218 267 321
#     4   9  19  32  53  85 113 141 176 211 265 332
#     4  11  24  39  57  79 105 141 185 228 264 309
#
# _framework density 17.045687999999998
#
# number of rings (size 3 to 8) (size 9 to 14) (size 15 to 20)
#    0.000    1.800    2.000    4.200    2.800    3.200 
#    0.000    2.000    0.000    2.400    0.000    2.800 
#    0.000    0.000    0.000    0.000    0.000    0.000 
#
# Total GULP energy -111674.507641 kJ/mol
# GULP energy per Si atom -5583.725382 kJ/mol
# Density = 1.700689 g / cm^3
# Si number density = 17.045688 Si / 1000 Ang^3
#
#
#
# Elastic Constant Matrix: (Units=GPa)
#
#
# Indices 1 2 3 4 5 6 
#
# 1 103.0714 70.0517 33.4622 0.0000 0.0000 0.0000
# 2 70.0517 119.0090 52.5970 0.0000 0.0000 0.0000
# 3 33.4622 52.5970 91.5229 0.0000 0.0000 0.0000
# 4 0.0000 0.0000 0.0000 15.9183 0.0000 0.0000
# 5 0.0000 0.0000 0.0000 0.0000 26.0802 0.0000
# 6 0.0000 0.0000 0.0000 0.0000 0.0000 5.3174
#
#
#
# Elastic Compliance Matrix: (Units=1/GPa)
#
#
# Indices 1 2 3 4 5 6 
#
# 1 0.016196 -0.009271 -0.000594 0.000000 0.000000 0.000000
# 2 -0.009271 0.016570 -0.006133 0.000000 0.000000 0.000000
# 3 -0.000594 -0.006133 0.014668 0.000000 0.000000 0.000000
# 4 0.000000 0.000000 0.000000 0.062821 0.000000 0.000000
# 5 0.000000 0.000000 0.000000 0.000000 0.038343 0.000000
# 6 0.000000 0.000000 0.000000 0.000000 0.000000 0.188062
#
#
# Mechanical properties :
#
#
# Convention : Reuss Voigt Hill
#
# Bulk Modulus (GPa) = 64.77223 69.53612 67.15418
# Shear Modulus (GPa) = 13.37608 19.96267 16.66937
#
# Velocity S-wave (km/s) = 2.80432 3.42589 3.13057
# Velocity P-wave (km/s) = 6.96903 7.51874 7.24910
#
# Compressibility (1/GPa) = 0.01543872
#
# Stress axis : x y z
#
# Youngs Moduli (GPa) = 61.74548 60.34870 68.17598
#
# Poissons Ratio (x) = 0.55948 0.04047
# Poissons Ratio (y) = 0.57243 0.41814
# Poissons Ratio (z) = 0.03665 0.37013
#
# Static dielectric constant tensor:
#      x y z
#    x 1.589720 0.000000 0.000000 
#    y 0.000000 1.536260 0.000000 
#    z 0.000000 0.000000 1.592510 
# 
# From -- ./inp_files/7961.got.cif
#   From: 2010.05.17/outbox.cif.g08.bks.cpg/sg38_4_cif.got.tgz:7961.got - 2010.06.03 18:07:57.
