data_PCOD9358254
_publ_section_title
;
Structure prediction by ZEFSAII (Michael W. Deem and Ramdas Pophale) SiO2 
 PCOD9358254
Probable space group: A M M 2
;
_chemical_formula_sum "Si O2"
_cell_formula_units_Z 40
_cell_length_a 11.947676
_cell_length_b 7.856304
_cell_length_c 21.036978
_cell_angle_alpha 90.000000
_cell_angle_beta 90.000000
_cell_angle_gamma 90.000000
_cell_volume 1974.626994
_symmetry_space_group_name_H-M "A M M 2"
_symmetry_group_IT_number 38
_symmetry_cell_setting 'orthorhombic'
loop_
_space_group_symop_operation_xyz
x,y,z
-x,-y,z
-x,y,z
x,-y,z
x,1/2+y,1/2+z
-x,1/2-y,1/2+z
-x,1/2+y,1/2+z
x,1/2-y,1/2+z
loop_
_atom_site_type_symbol
_atom_site_label
_atom_site_fract_x
_atom_site_fract_y
_atom_site_fract_z
Si Si1 0.870870 0.295478 0.581050
Si Si2 0.739497 0.704994 0.456579
Si Si3 0.500000 0.203570 0.756410
Si Si4 0.739044 0.705944 0.208639
Si Si5 0.500000 0.799529 0.405780
Si Si6 0.872405 0.208235 0.832778
O O1 0.878153 0.500000 0.575330
O O2 0.801144 0.231129 0.519960
O O3 0.799666 0.257195 0.643961
O O4 0.000000 0.231849 0.583891
O O5 0.747459 0.500000 0.457831
O O6 0.610326 0.747115 0.444581
O O7 0.805430 0.766600 0.394382
O O8 0.613060 0.268541 0.722854
O O9 0.500000 0.230639 0.832939
O O10 0.500000 0.000000 0.748340
O O11 0.735874 0.500000 0.209563
O O12 0.813138 0.763628 0.268352
O O13 0.500000 0.000000 0.398960
O O14 0.000000 0.263302 0.835183
O O15 0.870950 0.000000 0.833157
#
# Coordination Sequence:
#
# PCOD9358254 Si02
#       6
#     8   8   4   8   4   8
#     4  10  22  39  59  86 120 155 191 237 290 342
#     4  10  20  38  61  82 113 156 197 233 280 345
#     4  10  20  39  62  85 113 153 201 239 278 342
#     4  10  20  35  59  86 115 153 195 239 286 338
#     4  12  24  37  58  89 121 147 185 245 302 340
#     4   9  16  29  55  86 108 139 195 245 277 326
#
# _framework density 20.256990999999999
#
# number of rings (size 3 to 8) (size 9 to 14) (size 15 to 20)
#    0.000    2.000    2.000    2.100    0.000    6.000 
#    0.000    2.000    0.000    1.800    0.000    0.000 
#    0.000    0.000    0.000    0.000    0.000    0.000 
#
# Total GULP energy -111674.231069 kJ/mol
# GULP energy per Si atom -5583.711553 kJ/mol
# Density = 2.021089 g / cm^3
# Si number density = 20.256991 Si / 1000 Ang^3
#
#
#
# Elastic Constant Matrix: (Units=GPa)
#
#
# Indices 1 2 3 4 5 6 
#
# 1 236.0711 9.3107 130.7803 0.0000 0.0000 0.0000
# 2 9.3107 20.3974 3.4552 0.0000 0.0000 0.0000
# 3 130.7803 3.4552 202.7817 0.0000 0.0000 0.0000
# 4 0.0000 0.0000 0.0000 26.1170 0.0000 0.0000
# 5 0.0000 0.0000 0.0000 0.0000 184.9096 0.0000
# 6 0.0000 0.0000 0.0000 0.0000 0.0000 6.8312
#
#
#
# Elastic Compliance Matrix: (Units=1/GPa)
#
#
# Indices 1 2 3 4 5 6 
#
# 1 0.006700 -0.002333 -0.004281 0.000000 0.000000 0.000000
# 2 -0.002333 0.049980 0.000653 0.000000 0.000000 0.000000
# 3 -0.004281 0.000653 0.007681 0.000000 0.000000 0.000000
# 4 0.000000 0.000000 0.000000 0.038289 0.000000 0.000000
# 5 0.000000 0.000000 0.000000 0.000000 0.005408 0.000000
# 6 0.000000 0.000000 0.000000 0.000000 0.000000 0.146387
#
#
# Mechanical properties :
#
#
# Convention : Reuss Voigt Hill
#
# Bulk Modulus (GPa) = 19.06977 82.92697 50.99837
# Shear Modulus (GPa) = 17.61508 64.61848 41.11678
#
# Velocity S-wave (km/s) = 2.95206 5.65408 4.51017
# Velocity P-wave (km/s) = 4.58846 9.14610 7.23550
#
# Compressibility (1/GPa) = 0.05243901
#
# Stress axis : x y z
#
# Youngs Moduli (GPa) = 149.26046 20.00793 130.18633
#
# Poissons Ratio (x) = 0.04668 0.55734
# Poissons Ratio (y) = 0.34822 -0.08501
# Poissons Ratio (z) = 0.63900 -0.01307
#
# Static dielectric constant tensor:
#      x y z
#    x 1.705590 0.000000 0.000000 
#    y 0.000000 1.743390 0.000000 
#    z 0.000000 0.000000 1.685030 
# 
# From -- ./inp_files/20484.got.cif
#   From: 2010.05.17/outbox.cif.g08.bks.cpg/sg38_11_cif.got.tgz:20484.got - 2010.06.03 18:07:57.
