data_PCOD9358062
_publ_section_title
;
Structure prediction by ZEFSAII (Michael W. Deem and Ramdas Pophale) SiO2 
 PCOD9358062
Probable space group: A M M 2
;
_chemical_formula_sum "Si O2"
_cell_formula_units_Z 64
_cell_length_a 14.314626
_cell_length_b 8.796501
_cell_length_c 26.747532
_cell_angle_alpha 90.000000
_cell_angle_beta 90.000000
_cell_angle_gamma 90.000000
_cell_volume 3368.012369
_symmetry_space_group_name_H-M "A M M 2"
_symmetry_group_IT_number 38
_symmetry_cell_setting 'orthorhombic'
loop_
_space_group_symop_operation_xyz
x,y,z
-x,-y,z
-x,y,z
x,-y,z
x,1/2+y,1/2+z
-x,1/2-y,1/2+z
-x,1/2+y,1/2+z
x,1/2-y,1/2+z
loop_
_atom_site_type_symbol
_atom_site_label
_atom_site_fract_x
_atom_site_fract_y
_atom_site_fract_z
Si Si1 0.886492 0.173757 0.165540
Si Si2 0.612304 0.179699 0.605691
Si Si3 0.291748 0.316967 0.508886
Si Si4 0.108650 0.319592 0.270044
Si Si5 0.714017 0.320029 0.812413
Si Si6 0.612254 0.681163 0.217030
Si Si7 0.893942 0.185501 0.054734
Si Si8 0.391407 0.684071 0.407379
O O1 0.863019 0.273759 0.213408
O O2 0.860861 0.232575 0.110485
O O3 0.000000 0.167349 0.163674
O O4 0.852972 0.000000 0.172554
O O5 0.500000 0.195727 0.603713
O O6 0.656313 0.264182 0.558924
O O7 0.642016 0.232547 0.661294
O O8 0.633320 0.000000 0.602249
O O9 0.293246 0.500000 0.507808
O O10 0.183846 0.268016 0.515010
O O11 0.342649 0.263381 0.458777
O O12 0.115921 0.500000 0.275743
O O13 0.179903 0.237783 0.306844
O O14 0.000000 0.275108 0.276849
O O15 0.711386 0.500000 0.816121
O O16 0.661612 0.266159 0.762090
O O17 0.662696 0.246738 0.859639
O O18 0.500000 0.700066 0.220583
O O19 0.630964 0.500000 0.221103
O O20 0.000000 0.237354 0.045584
O O21 0.896512 0.000000 0.056474
O O22 0.500000 0.729826 0.406454
O O23 0.388381 0.500000 0.406005
#
# Coordination Sequence:
#
# PCOD9358062 Si02
#       8
#     8   8   8   8   8   8   8   8
#     4   8  14  27  48  75 111 152 188 225 271 321
#     4   9  19  35  54  79 113 149 181 222 284 350
#     4  10  20  34  57  86 113 146 194 240 281 332
#     4  10  21  37  57  82 114 152 193 233 278 340
#     4  12  25  38  58  85 112 145 191 244 294 343
#     4   9  19  37  58  81 114 152 186 228 288 354
#     4   8  15  29  50  79 116 152 185 225 274 327
#     4  10  22  41  61  81 111 150 191 242 299 350
#
# _framework density 19.002305
#
# number of rings (size 3 to 8) (size 9 to 14) (size 15 to 20)
#    0.000    2.500    0.000    3.750    1.750    4.500 
#    0.000    1.875    0.000    2.625    0.000    0.000 
#    0.000    0.000    0.000    0.000    0.000    0.000 
#
# Total GULP energy -178620.086497 kJ/mol
# GULP energy per Si atom -5581.877703 kJ/mol
# Density = 1.895906 g / cm^3
# Si number density = 19.002305 Si / 1000 Ang^3
#
#
#
# Elastic Constant Matrix: (Units=GPa)
#
#
# Indices 1 2 3 4 5 6 
#
# 1 112.1230 30.2792 84.7247 0.0000 0.0000 0.0000
# 2 30.2792 21.9189 30.3797 0.0000 0.0000 0.0000
# 3 84.7247 30.3797 143.2683 0.0000 0.0000 0.0000
# 4 0.0000 0.0000 0.0000 27.5202 0.0000 0.0000
# 5 0.0000 0.0000 0.0000 0.0000 35.8540 0.0000
# 6 0.0000 0.0000 0.0000 0.0000 0.0000 20.0035
#
#
#
# Elastic Compliance Matrix: (Units=1/GPa)
#
#
# Indices 1 2 3 4 5 6 
#
# 1 0.019149 -0.015235 -0.008094 0.000000 0.000000 0.000000
# 2 -0.015235 0.076733 -0.007262 0.000000 0.000000 0.000000
# 3 -0.008094 -0.007262 0.013306 0.000000 0.000000 0.000000
# 4 0.000000 0.000000 0.000000 0.036337 0.000000 0.000000
# 5 0.000000 0.000000 0.000000 0.000000 0.027891 0.000000
# 6 0.000000 0.000000 0.000000 0.000000 0.000000 0.049991
#
#
# Mechanical properties :
#
#
# Convention : Reuss Voigt Hill
#
# Bulk Modulus (GPa) = 20.82994 63.11972 41.97483
# Shear Modulus (GPa) = 16.63399 25.47066 21.05232
#
# Velocity S-wave (km/s) = 2.96187 3.66512 3.33210
# Velocity P-wave (km/s) = 4.76261 7.15540 6.07792
#
# Compressibility (1/GPa) = 0.04800783
#
# Stress axis : x y z
#
# Youngs Moduli (GPa) = 52.22248 13.03220 75.15414
#
# Poissons Ratio (x) = 0.19854 0.60826
# Poissons Ratio (y) = 0.79561 0.54573
# Poissons Ratio (z) = 0.42267 0.09463
#
# Static dielectric constant tensor:
#      x y z
#    x 1.695460 0.000000 0.000000 
#    y 0.000000 1.640900 0.000000 
#    z 0.000000 0.000000 1.640720 
# 
# From -- ./inp_files/22990.got.cif
#   From: 2010.05.17/outbox.cif.g08.bks.cpg/sg38_12_cif.got.tgz:22990.got - 2010.06.03 18:07:57.
