data_PCOD9358284
_publ_section_title
;
Structure prediction by ZEFSAII (Michael W. Deem and Ramdas Pophale) SiO2 
 PCOD9358284
Probable space group: A M M 2
;
_chemical_formula_sum "Si O2"
_cell_formula_units_Z 64
_cell_length_a 14.811927
_cell_length_b 12.524422
_cell_length_c 19.076073
_cell_angle_alpha 90.000000
_cell_angle_beta 90.000000
_cell_angle_gamma 90.000000
_cell_volume 3538.818028
_symmetry_space_group_name_H-M "A M M 2"
_symmetry_group_IT_number 38
_symmetry_cell_setting 'orthorhombic'
loop_
_space_group_symop_operation_xyz
x,y,z
-x,-y,z
-x,y,z
x,-y,z
x,1/2+y,1/2+z
-x,1/2-y,1/2+z
-x,1/2+y,1/2+z
x,1/2-y,1/2+z
loop_
_atom_site_type_symbol
_atom_site_label
_atom_site_fract_x
_atom_site_fract_y
_atom_site_fract_z
Si Si1 0.606510 0.243836 0.089690
Si Si2 0.606772 0.879486 0.232497
Si Si3 0.100626 0.302084 0.651542
Si Si4 0.903277 0.122525 0.998237
Si Si5 0.703963 0.128606 0.961973
Si Si6 0.247220 0.377877 0.163553
Si Si7 0.892955 0.377240 0.806501
Si Si8 0.269018 0.719273 0.314550
O O1 0.500000 0.266697 0.084218
O O2 0.620640 0.158381 0.152569
O O3 0.664163 0.343382 0.119466
O O4 0.643776 0.192665 0.017996
O O5 0.500000 0.872655 0.246144
O O6 0.661429 0.805874 0.284784
O O7 0.637782 0.000000 0.240066
O O8 0.101239 0.373174 0.582405
O O9 0.171348 0.207491 0.642408
O O10 0.118545 0.367858 0.721990
O O11 0.000000 0.256040 0.659117
O O12 0.000000 0.173087 0.977686
O O13 0.905616 0.000000 0.974195
O O14 0.807694 0.164976 0.974090
O O15 0.689688 0.159362 0.881178
O O16 0.695935 0.000000 0.972762
O O17 0.223901 0.500000 0.149861
O O18 0.256293 0.358642 0.247548
O O19 0.872630 0.500000 0.828148
O O20 0.823445 0.285424 0.831771
O O21 0.000000 0.357241 0.821546
#
# Coordination Sequence:
#
# PCOD9358284 Si02
#       8
#     8   8   8   8   8   8   8   8
#     4  10  21  38  59  83 105 133 177 230 278 322
#     4   9  18  35  59  83 105 132 171 220 271 319
#     4   9  16  29  52  82 110 137 175 226 271 311
#     4   9  17  30  51  79 108 137 171 215 268 319
#     4  11  22  36  55  81 111 143 176 218 272 324
#     4  10  20  36  55  78 109 146 183 218 262 320
#     4   9  17  30  51  79 110 144 182 223 266 310
#     4  10  21  34  52  80 112 147 176 217 258 322
#
# _framework density 18.085134
#
# number of rings (size 3 to 8) (size 9 to 14) (size 15 to 20)
#    0.000    2.375    1.250    1.500    0.000    3.750 
#    0.000    1.250    0.000    4.500    0.000    0.000 
#    0.000    0.000    0.000    0.000    0.000    0.000 
#
# Total GULP energy -178222.643896 kJ/mol
# GULP energy per Si atom -5569.457622 kJ/mol
# Density = 1.804397 g / cm^3
# Si number density = 18.085134 Si / 1000 Ang^3
#
#
#
# Elastic Constant Matrix: (Units=GPa)
#
#
# Indices 1 2 3 4 5 6 
#
# 1 71.5206 24.3337 23.6911 0.0000 0.0000 0.0000
# 2 24.3337 58.4421 6.0629 0.0000 0.0000 0.0000
# 3 23.6911 6.0629 62.3306 0.0000 0.0000 0.0000
# 4 0.0000 0.0000 0.0000 8.8046 0.0000 0.0000
# 5 0.0000 0.0000 0.0000 0.0000 15.1257 0.0000
# 6 0.0000 0.0000 0.0000 0.0000 0.0000 6.4973
#
#
#
# Elastic Compliance Matrix: (Units=1/GPa)
#
#
# Indices 1 2 3 4 5 6 
#
# 1 0.018475 -0.007035 -0.006338 0.000000 0.000000 0.000000
# 2 -0.007035 0.019964 0.000732 0.000000 0.000000 0.000000
# 3 -0.006338 0.000732 0.018381 0.000000 0.000000 0.000000
# 4 0.000000 0.000000 0.000000 0.113577 0.000000 0.000000
# 5 0.000000 0.000000 0.000000 0.000000 0.066112 0.000000
# 6 0.000000 0.000000 0.000000 0.000000 0.000000 0.153909
#
#
# Mechanical properties :
#
#
# Convention : Reuss Voigt Hill
#
# Bulk Modulus (GPa) = 31.70704 33.38544 32.54624
# Shear Modulus (GPa) = 11.73122 15.29924 13.51523
#
# Velocity S-wave (km/s) = 2.54966 2.91169 2.73667
# Velocity P-wave (km/s) = 5.12229 5.45932 5.29348
#
# Compressibility (1/GPa) = 0.03153873
#
# Stress axis : x y z
#
# Youngs Moduli (GPa) = 54.12748 50.08972 54.40338
#
# Poissons Ratio (x) = 0.35238 0.34480
# Poissons Ratio (y) = 0.38078 -0.03982
# Poissons Ratio (z) = 0.34305 -0.03667
#
# Static dielectric constant tensor:
#      x y z
#    x 1.666090 0.000000 0.000000 
#    y 0.000000 1.600010 0.000000 
#    z 0.000000 0.000000 1.619100 
# 
# From -- ./inp_files/18451.got.cif
#   From: 2010.05.17/outbox.cif.g08.bks.cpg/sg38_10_cif.got.tgz:18451.got - 2010.06.03 18:07:57.
