data_PCOD9358021
_publ_section_title
;
Structure prediction by ZEFSAII (Michael W. Deem and Ramdas Pophale) SiO2 
 PCOD9358021
Probable space group: A M M 2
;
_chemical_formula_sum "Si O2"
_cell_formula_units_Z 56
_cell_length_a 8.939496
_cell_length_b 14.391389
_cell_length_c 23.375549
_cell_angle_alpha 90.000000
_cell_angle_beta 90.000000
_cell_angle_gamma 90.000000
_cell_volume 3007.305623
_symmetry_space_group_name_H-M "A M M 2"
_symmetry_group_IT_number 38
_symmetry_cell_setting 'orthorhombic'
loop_
_space_group_symop_operation_xyz
x,y,z
-x,-y,z
-x,y,z
x,-y,z
x,1/2+y,1/2+z
-x,1/2-y,1/2+z
-x,1/2+y,1/2+z
x,1/2-y,1/2+z
loop_
_atom_site_type_symbol
_atom_site_label
_atom_site_fract_x
_atom_site_fract_y
_atom_site_fract_z
Si Si1 0.822311 0.891823 0.454460
Si Si2 0.820993 0.390929 0.302733
Si Si3 0.320810 0.893702 0.138716
Si Si4 0.174710 0.888812 0.015992
Si Si5 0.677837 0.714613 0.409851
Si Si6 0.327112 0.610806 0.074417
Si Si7 0.320714 0.292091 0.194163
O O1 0.738908 0.819592 0.413875
O O2 0.773907 0.868475 0.519623
O O3 0.000000 0.882305 0.448487
O O4 0.781415 0.000000 0.444823
O O5 0.780028 0.500000 0.302239
O O6 0.746831 0.339716 0.356373
O O7 0.764495 0.342076 0.245035
O O8 0.000000 0.384404 0.307215
O O9 0.500000 0.888382 0.128925
O O10 0.284015 0.816645 0.185922
O O11 0.283699 0.000000 0.154346
O O12 0.239919 0.870857 0.079030
O O13 0.265870 0.836304 0.967340
O O14 0.000000 0.862852 0.012900
O O15 0.186059 0.000000 0.006501
O O16 0.500000 0.713892 0.406940
O O17 0.500000 0.635957 0.060774
O O18 0.321405 0.500000 0.084067
O O19 0.285015 0.661048 0.132985
O O20 0.500000 0.301793 0.203012
#
# Coordination Sequence:
#
# PCOD9358021 Si02
#       7
#     8   8   8   8   8   8   8
#     4  10  21  37  58  85 117 150 185 229 279 329
#     4  11  25  43  61  82 109 141 181 232 285 336
#     4   9  18  33  54  83 118 152 187 227 272 326
#     4  10  20  34  55  85 119 151 185 230 283 336
#     4  12  24  38  59  83 110 148 190 231 277 332
#     4   9  17  30  51  81 115 148 185 230 277 328
#     4  10  20  35  56  81 110 148 190 230 275 327
#
# _framework density 18.621320000000001
#
# number of rings (size 3 to 8) (size 9 to 14) (size 15 to 20)
#    0.000    1.857    0.000    4.286    0.000    7.429 
#    0.000    2.143    0.000    2.571    0.000    0.000 
#    0.000    0.000    0.000    0.000    0.000    0.000 
#
# Total GULP energy -156469.807337 kJ/mol
# GULP energy per Si atom -5588.207405 kJ/mol
# Density = 1.857894 g / cm^3
# Si number density = 18.621320 Si / 1000 Ang^3
#
#
#
# Elastic Constant Matrix: (Units=GPa)
#
#
# Indices 1 2 3 4 5 6 
#
# 1 85.0835 75.6751 59.7154 0.0000 0.0000 0.0000
# 2 75.6751 134.4997 93.6318 0.0000 0.0000 0.0000
# 3 59.7154 93.6318 86.8752 0.0000 0.0000 0.0000
# 4 0.0000 0.0000 0.0000 33.8898 0.0000 0.0000
# 5 0.0000 0.0000 0.0000 0.0000 39.6175 0.0000
# 6 0.0000 0.0000 0.0000 0.0000 0.0000 26.9558
#
#
#
# Elastic Compliance Matrix: (Units=1/GPa)
#
#
# Indices 1 2 3 4 5 6 
#
# 1 0.024860 -0.008376 -0.008061 0.000000 0.000000 0.000000
# 2 -0.008376 0.032596 -0.029374 0.000000 0.000000 0.000000
# 3 -0.008061 -0.029374 0.048710 0.000000 0.000000 0.000000
# 4 0.000000 0.000000 0.000000 0.029507 0.000000 0.000000
# 5 0.000000 0.000000 0.000000 0.000000 0.025241 0.000000
# 6 0.000000 0.000000 0.000000 0.000000 0.000000 0.037098
#
#
# Mechanical properties :
#
#
# Convention : Reuss Voigt Hill
#
# Bulk Modulus (GPa) = 68.75199 84.94478 76.84839
# Shear Modulus (GPa) = 16.97884 25.25503 21.11694
#
# Velocity S-wave (km/s) = 3.02287 3.68672 3.37117
# Velocity P-wave (km/s) = 7.01320 7.98990 7.51743
#
# Compressibility (1/GPa) = 0.01454503
#
# Stress axis : x y z
#
# Youngs Moduli (GPa) = 40.22458 30.67832 20.52948
#
# Poissons Ratio (x) = 0.25695 0.16549
# Poissons Ratio (y) = 0.33691 0.60304
# Poissons Ratio (z) = 0.32425 0.90115
#
# Static dielectric constant tensor:
#      x y z
#    x 1.626100 0.000000 0.000000 
#    y 0.000000 1.674920 0.000000 
#    z 0.000000 0.000000 1.598430 
# 
# From -- ./inp_files/19787.got.cif
#   From: 2010.05.17/outbox.cif.g08.bks.cpg/sg38_10_cif.got.tgz:19787.got - 2010.06.03 18:07:57.
