data_PCOD9358783
_publ_section_title
;
Structure prediction by ZEFSAII (Michael W. Deem and Ramdas Pophale) SiO2 
 PCOD9358783
Probable space group: A M M 2
;
_chemical_formula_sum "Si O2"
_cell_formula_units_Z 64
_cell_length_a 19.859653
_cell_length_b 8.923722
_cell_length_c 20.739507
_cell_angle_alpha 90.000000
_cell_angle_beta 90.000000
_cell_angle_gamma 90.000000
_cell_volume 3675.497374
_symmetry_space_group_name_H-M "A M M 2"
_symmetry_group_IT_number 38
_symmetry_cell_setting 'orthorhombic'
loop_
_space_group_symop_operation_xyz
x,y,z
-x,-y,z
-x,y,z
x,-y,z
x,1/2+y,1/2+z
-x,1/2-y,1/2+z
-x,1/2+y,1/2+z
x,1/2-y,1/2+z
loop_
_atom_site_type_symbol
_atom_site_label
_atom_site_fract_x
_atom_site_fract_y
_atom_site_fract_z
Si Si1 0.578910 0.677898 0.431760
Si Si2 0.921137 0.179120 0.435636
Si Si3 0.579405 0.678683 0.069111
Si Si4 0.172765 0.820399 0.315977
Si Si5 0.079625 0.178233 0.072785
Si Si6 0.330383 0.678138 0.822900
Si Si7 0.176215 0.321246 0.178445
Si Si8 0.676697 0.179620 0.174418
O O1 0.500000 0.710724 0.418943
O O2 0.585949 0.500000 0.440667
O O3 0.597633 0.760563 0.498196
O O4 0.624121 0.733788 0.373014
O O5 0.875250 0.221636 0.375038
O O6 0.902626 0.263543 0.501305
O O7 0.000000 0.208578 0.422055
O O8 0.913611 0.000000 0.445864
O O9 0.500000 0.711743 0.079023
O O10 0.588573 0.500000 0.071556
O O11 0.624348 0.757264 0.123046
O O12 0.250957 0.790475 0.332481
O O13 0.156483 0.736628 0.249678
O O14 0.166779 0.000000 0.304941
O O15 0.123998 0.260631 0.125955
O O16 0.000000 0.209515 0.082230
O O17 0.089746 0.000000 0.077064
O O18 0.340683 0.500000 0.831923
O O19 0.345096 0.714535 0.748055
O O20 0.179463 0.500000 0.177182
O O21 0.249997 0.252437 0.164676
O O22 0.682680 0.000000 0.169393
#
# Coordination Sequence:
#
# PCOD9358783 Si02
#       8
#     8   8   8   8   8   8   8   8
#     4  10  21  36  54  77 106 140 179 223 267 314
#     4   9  18  34  56  80 107 140 178 221 268 318
#     4  10  21  37  57  81 110 143 180 223 269 318
#     4   9  19  36  55  78 109 142 177 217 264 319
#     4  10  21  37  56  78 108 145 183 224 269 319
#     4   9  19  35  54  76 105 140 176 218 266 317
#     4  11  22  36  56  81 110 142 179 225 271 318
#     4  10  21  38  58  80 109 143 180 222 268 322
#
# _framework density 17.412609
#
# number of rings (size 3 to 8) (size 9 to 14) (size 15 to 20)
#    0.000    2.250    0.000    3.375    0.000    7.250 
#    0.000    7.500    0.000    0.000    0.000    0.000 
#    0.000    0.000    0.000    0.000    0.000    0.000 
#
# Total GULP energy -178658.013598 kJ/mol
# GULP energy per Si atom -5583.062925 kJ/mol
# Density = 1.737298 g / cm^3
# Si number density = 17.412609 Si / 1000 Ang^3
#
#
#
# Elastic Constant Matrix: (Units=GPa)
#
#
# Indices 1 2 3 4 5 6 
#
# 1 81.0786 66.2516 106.1312 0.0000 0.0000 0.0000
# 2 66.2516 84.9193 90.6913 0.0000 0.0000 0.0000
# 3 106.1312 90.6913 167.9174 0.0000 0.0000 0.0000
# 4 0.0000 0.0000 0.0000 38.5017 0.0000 0.0000
# 5 0.0000 0.0000 0.0000 0.0000 42.1848 0.0000
# 6 0.0000 0.0000 0.0000 0.0000 0.0000 28.0087
#
#
#
# Elastic Compliance Matrix: (Units=1/GPa)
#
#
# Indices 1 2 3 4 5 6 
#
# 1 0.084893 -0.021096 -0.042262 0.000000 0.000000 0.000000
# 2 -0.021096 0.033069 -0.004526 0.000000 0.000000 0.000000
# 3 -0.042262 -0.004526 0.035111 0.000000 0.000000 0.000000
# 4 0.000000 0.000000 0.000000 0.025973 0.000000 0.000000
# 5 0.000000 0.000000 0.000000 0.000000 0.023705 0.000000
# 6 0.000000 0.000000 0.000000 0.000000 0.000000 0.035703
#
#
# Mechanical properties :
#
#
# Convention : Reuss Voigt Hill
#
# Bulk Modulus (GPa) = 57.79199 95.56262 76.67730
# Shear Modulus (GPa) = 13.15818 26.46179 19.80998
#
# Velocity S-wave (km/s) = 2.75193 3.90255 3.37661
# Velocity P-wave (km/s) = 6.58477 8.67796 7.70280
#
# Compressibility (1/GPa) = 0.01730344
#
# Stress axis : x y z
#
# Youngs Moduli (GPa) = 11.77955 30.24005 28.48076
#
# Poissons Ratio (x) = 0.63796 1.20365
# Poissons Ratio (y) = 0.24851 0.12891
# Poissons Ratio (z) = 0.49783 0.13688
#
# Static dielectric constant tensor:
#      x y z
#    x 1.572810 0.000000 0.000000 
#    y 0.000000 1.580940 0.000000 
#    z 0.000000 0.000000 1.561230 
# 
# From -- ./inp_files/18873.got.cif
#   From: 2010.05.17/outbox.cif.g08.bks.cpg/sg38_10_cif.got.tgz:18873.got - 2010.06.03 18:07:57.
