data_PCOD9358255
_publ_section_title
;
Structure prediction by ZEFSAII (Michael W. Deem and Ramdas Pophale) SiO2 
 PCOD9358255
Probable space group: A M M 2
;
_chemical_formula_sum "Si O2"
_cell_formula_units_Z 64
_cell_length_a 14.217479
_cell_length_b 8.834599
_cell_length_c 26.708369
_cell_angle_alpha 90.000000
_cell_angle_beta 90.000000
_cell_angle_gamma 90.000000
_cell_volume 3354.724072
_symmetry_space_group_name_H-M "A M M 2"
_symmetry_group_IT_number 38
_symmetry_cell_setting 'orthorhombic'
loop_
_space_group_symop_operation_xyz
x,y,z
-x,-y,z
-x,y,z
x,-y,z
x,1/2+y,1/2+z
-x,1/2-y,1/2+z
-x,1/2+y,1/2+z
x,1/2-y,1/2+z
loop_
_atom_site_type_symbol
_atom_site_label
_atom_site_fract_x
_atom_site_fract_y
_atom_site_fract_z
Si Si1 0.892129 0.318197 0.216460
Si Si2 0.287198 0.179472 0.471410
Si Si3 0.386038 0.178127 0.876058
Si Si4 0.390226 0.818624 0.067270
Si Si5 0.608926 0.316010 0.265834
Si Si6 0.885583 0.672685 0.821748
Si Si7 0.109583 0.680400 0.427034
Si Si8 0.710831 0.317518 0.163471
O O1 0.889445 0.500000 0.223044
O O2 0.859083 0.246262 0.268893
O O3 0.820426 0.280097 0.172163
O O4 0.000000 0.273154 0.206931
O O5 0.342151 0.230109 0.421346
O O6 0.339401 0.251377 0.518727
O O7 0.181483 0.241766 0.464838
O O8 0.286264 0.000000 0.475842
O O9 0.500000 0.186384 0.877297
O O10 0.355692 0.233125 0.820638
O O11 0.360953 0.000000 0.881750
O O12 0.500000 0.772490 0.068342
O O13 0.337970 0.759920 0.116735
O O14 0.386456 0.000000 0.065149
O O15 0.500000 0.270774 0.261371
O O16 0.611660 0.500000 0.267620
O O17 0.662153 0.270500 0.215787
O O18 0.852367 0.500000 0.826330
O O19 0.861400 0.767983 0.870971
O O20 0.000000 0.670292 0.820852
O O21 0.116629 0.500000 0.430596
O O22 0.000000 0.723563 0.434455
O O23 0.701482 0.500000 0.158528
#
# Coordination Sequence:
#
# PCOD9358255 Si02
#       8
#     8   8   8   8   8   8   8   8
#     4   9  18  32  51  81 121 162 203 241 284 345
#     4  12  25  39  60  89 118 152 196 247 300 353
#     4   9  18  34  56  83 118 158 196 238 291 356
#     4  11  25  45  66  87 113 149 195 250 307 363
#     4   8  15  29  51  80 112 146 186 234 291 353
#     4   9  17  30  50  79 117 158 198 242 289 336
#     4  10  21  38  60  85 117 158 201 243 290 350
#     4  10  20  35  59  87 114 152 200 247 297 353
#
# _framework density 19.077575
#
# number of rings (size 3 to 8) (size 9 to 14) (size 15 to 20)
#    0.000    2.250    0.000    3.750    1.750    6.000 
#    0.000    1.250    0.000    3.000    0.000    0.000 
#    0.000    0.000    0.000    0.000    0.000    0.000 
#
# Total GULP energy -178708.835572 kJ/mol
# GULP energy per Si atom -5584.651112 kJ/mol
# Density = 1.903415 g / cm^3
# Si number density = 19.077575 Si / 1000 Ang^3
#
#
#
# Elastic Constant Matrix: (Units=GPa)
#
#
# Indices 1 2 3 4 5 6 
#
# 1 121.4016 48.8721 87.7076 0.0000 0.0000 0.0000
# 2 48.8721 58.7703 51.5800 0.0000 0.0000 0.0000
# 3 87.7076 51.5800 151.6434 0.0000 0.0000 0.0000
# 4 0.0000 0.0000 0.0000 32.0794 0.0000 0.0000
# 5 0.0000 0.0000 0.0000 0.0000 36.5025 0.0000
# 6 0.0000 0.0000 0.0000 0.0000 0.0000 21.9157
#
#
#
# Elastic Compliance Matrix: (Units=1/GPa)
#
#
# Indices 1 2 3 4 5 6 
#
# 1 0.016160 -0.007463 -0.006808 0.000000 0.000000 0.000000
# 2 -0.007463 0.027703 -0.005106 0.000000 0.000000 0.000000
# 3 -0.006808 -0.005106 0.012269 0.000000 0.000000 0.000000
# 4 0.000000 0.000000 0.000000 0.031173 0.000000 0.000000
# 5 0.000000 0.000000 0.000000 0.000000 0.027395 0.000000
# 6 0.000000 0.000000 0.000000 0.000000 0.000000 0.045629
#
#
# Mechanical properties :
#
#
# Convention : Reuss Voigt Hill
#
# Bulk Modulus (GPa) = 57.54776 78.68164 68.11470
# Shear Modulus (GPa) = 24.40476 27.67655 26.04066
#
# Velocity S-wave (km/s) = 3.58052 3.81299 3.69858
# Velocity P-wave (km/s) = 6.87926 7.79216 7.34989
#
# Compressibility (1/GPa) = 0.01737687
#
# Stress axis : x y z
#
# Youngs Moduli (GPa) = 61.88039 36.09675 81.50579
#
# Poissons Ratio (x) = 0.26940 0.55491
# Poissons Ratio (y) = 0.46183 0.41620
# Poissons Ratio (z) = 0.42130 0.18433
#
# Static dielectric constant tensor:
#      x y z
#    x 1.706820 0.000000 0.000000 
#    y 0.000000 1.645880 0.000000 
#    z 0.000000 0.000000 1.629140 
# 
# From -- ./inp_files/22967.got.cif
#   From: 2010.05.17/outbox.cif.g08.bks.cpg/sg38_12_cif.got.tgz:22967.got - 2010.06.03 18:07:57.
