data_PCOD9358652
_publ_section_title
;
Structure prediction by ZEFSAII (Michael W. Deem and Ramdas Pophale) SiO2 
 PCOD9358652
Probable space group: A M M 2
;
_chemical_formula_sum "Si O2"
_cell_formula_units_Z 40
_cell_length_a 9.433241
_cell_length_b 7.536681
_cell_length_c 29.892479
_cell_angle_alpha 90.000000
_cell_angle_beta 90.000000
_cell_angle_gamma 90.000000
_cell_volume 2125.215606
_symmetry_space_group_name_H-M "A M M 2"
_symmetry_group_IT_number 38
_symmetry_cell_setting 'orthorhombic'
loop_
_space_group_symop_operation_xyz
x,y,z
-x,-y,z
-x,y,z
x,-y,z
x,1/2+y,1/2+z
-x,1/2-y,1/2+z
-x,1/2+y,1/2+z
x,1/2-y,1/2+z
loop_
_atom_site_type_symbol
_atom_site_label
_atom_site_fract_x
_atom_site_fract_y
_atom_site_fract_z
Si Si1 0.341107 0.712743 0.258440
Si Si2 0.170567 0.500000 0.918169
Si Si3 0.158758 0.211670 0.171768
Si Si4 0.667295 0.291210 0.585637
Si Si5 0.669233 0.287853 0.360130
Si Si6 0.668543 0.500000 0.011334
O O1 0.500000 0.780371 0.248726
O O2 0.349096 0.500000 0.260560
O O3 0.236844 0.757613 0.218515
O O4 0.300164 0.767716 0.308651
O O5 0.236098 0.329056 0.892802
O O6 0.000000 0.500000 0.917395
O O7 0.233901 0.500000 0.968042
O O8 0.247067 0.274630 0.128898
O O9 0.000000 0.284304 0.172387
O O10 0.150960 0.000000 0.166358
O O11 0.500000 0.275419 0.595707
O O12 0.697347 0.500000 0.577464
O O13 0.696076 0.171072 0.542558
O O14 0.500000 0.257808 0.367519
O O15 0.693405 0.500000 0.364798
O O16 0.500000 0.500000 0.999376
#
# Coordination Sequence:
#
# PCOD9358652 Si02
#       6
#     8   4   8   8   8   4
#     4   9  19  35  56  82 110 146 194 241 285 334
#     4  12  26  40  60  92 126 158 194 242 309 378
#     4  10  21  34  50  79 118 155 188 225 282 351
#     4   9  19  37  59  82 110 146 192 245 292 334
#     4   9  20  41  65  87 115 155 205 255 297 345
#     4  10  22  40  62  86 110 146 202 252 291 348
#
# _framework density 18.821618000000001
#
# number of rings (size 3 to 8) (size 9 to 14) (size 15 to 20)
#    0.000    2.400    0.000    2.700    2.800    4.400 
#    0.000    4.000    0.000    0.000    0.000    0.000 
#    0.000    0.000    0.000    0.000    0.000    0.000 
#
# Total GULP energy -111625.626046 kJ/mol
# GULP energy per Si atom -5581.281302 kJ/mol
# Density = 1.877878 g / cm^3
# Si number density = 18.821618 Si / 1000 Ang^3
#
#
#
# Elastic Constant Matrix: (Units=GPa)
#
#
# Indices 1 2 3 4 5 6 
#
# 1 126.0826 59.5153 124.2866 0.0000 0.0000 0.0000
# 2 59.5153 83.4353 59.8656 0.0000 0.0000 0.0000
# 3 124.2866 59.8656 169.6975 0.0000 0.0000 0.0000
# 4 0.0000 0.0000 0.0000 30.3855 0.0000 0.0000
# 5 0.0000 0.0000 0.0000 0.0000 -29.2387 0.0000
# 6 0.0000 0.0000 0.0000 0.0000 0.0000 2.8863
#
#
#
# Elastic Compliance Matrix: (Units=1/GPa)
#
#
# Indices 1 2 3 4 5 6 
#
# 1 0.032139 -0.008082 -0.020688 0.000000 0.000000 0.000000
# 2 -0.008082 0.018079 -0.000459 0.000000 0.000000 0.000000
# 3 -0.020688 -0.000459 0.021206 0.000000 0.000000 0.000000
# 4 0.000000 0.000000 0.000000 0.032910 0.000000 0.000000
# 5 0.000000 0.000000 0.000000 0.000000 -0.034201 0.000000
# 6 0.000000 0.000000 0.000000 0.000000 0.000000 0.346469
#
#
# Mechanical properties :
#
#
# Convention : Reuss Voigt Hill
#
# Bulk Modulus (GPa) = 77.11111 96.28336 86.69724
# Shear Modulus (GPa) = 10.43009 9.84314 10.13661
#
# Velocity S-wave (km/s) = 2.35660 2.28933 2.32321
# Velocity P-wave (km/s) = 6.96155 7.63249 7.30472
#
# Compressibility (1/GPa) = 0.01296830
#
# Stress axis : x y z
#
# Youngs Moduli (GPa) = 31.11475 55.31158 47.15540
#
# Poissons Ratio (x) = 0.44700 0.97554
# Poissons Ratio (y) = 0.25146 0.02165
# Poissons Ratio (z) = 0.64369 0.02539
#
# Static dielectric constant tensor:
#      x y z
#    x 1.652160 0.000000 0.000000 
#    y 0.000000 1.677610 0.000000 
#    z 0.000000 0.000000 1.628460 
# 
# From -- ./inp_files/23242.got.cif
#   From: 2010.05.17/outbox.cif.g08.bks.cpg/sg38_12_cif.got.tgz:23242.got - 2010.06.03 18:07:57.
