data_PCOD9358992
_publ_section_title
;
Structure prediction by ZEFSAII (Michael W. Deem and Ramdas Pophale) SiO2 
 PCOD9358992
Probable space group: A M M 2
;
_chemical_formula_sum "Si O2"
_cell_formula_units_Z 64
_cell_length_a 8.828709
_cell_length_b 24.456848
_cell_length_c 15.802197
_cell_angle_alpha 90.000000
_cell_angle_beta 90.000000
_cell_angle_gamma 90.000000
_cell_volume 3412.048207
_symmetry_space_group_name_H-M "A M M 2"
_symmetry_group_IT_number 38
_symmetry_cell_setting 'orthorhombic'
loop_
_space_group_symop_operation_xyz
x,y,z
-x,-y,z
-x,y,z
x,-y,z
x,1/2+y,1/2+z
-x,1/2-y,1/2+z
-x,1/2+y,1/2+z
x,1/2-y,1/2+z
loop_
_atom_site_type_symbol
_atom_site_label
_atom_site_fract_x
_atom_site_fract_y
_atom_site_fract_z
Si Si1 0.178658 0.247924 0.467310
Si Si2 0.315452 0.562580 0.568859
Si Si3 0.317372 0.362296 0.411851
Si Si4 0.821342 0.252076 0.170408
Si Si5 0.818696 0.936425 0.568859
Si Si6 0.680751 0.132927 0.720783
Si Si7 0.319249 0.132927 0.416936
Si Si8 0.682628 0.362296 0.725868
O O1 0.243820 0.303458 0.428517
O O2 0.199189 0.249966 0.568859
O O3 0.263334 0.194674 0.432887
O O4 0.000000 0.243210 0.449557
O O5 0.500000 0.561539 0.568859
O O6 0.262891 0.500000 0.568860
O O7 0.268950 0.595988 0.485373
O O8 0.268949 0.595989 0.652344
O O9 0.500000 0.356182 0.416947
O O10 0.280535 0.382173 0.317430
O O11 0.736667 0.305327 0.204832
O O12 0.756179 0.196542 0.209201
O O13 0.000000 0.256789 0.188162
O O14 0.756162 0.905750 0.651381
O O15 0.756163 0.905750 0.486337
O O16 0.000000 0.932558 0.568860
O O17 0.774257 0.000000 0.568859
O O18 0.500000 0.130705 0.710746
O O19 0.500000 0.130704 0.426972
O O20 0.280534 0.117827 0.320288
O O21 0.500000 0.356182 0.720772
#
# Coordination Sequence:
#
# PCOD9358992 Si02
#       8
#     8   8   8   8   8   8   8   8
#     4  11  22  36  58  87 120 158 195 238 292 352
#     4   9  18  35  59  84 113 150 190 235 284 337
#     4  10  21  37  60  89 119 153 195 241 292 351
#     4  11  22  36  58  87 120 158 195 238 292 352
#     4  11  25  44  63  84 115 158 202 243 294 355
#     4  11  23  38  61  91 119 152 194 245 298 348
#     4  11  23  38  61  91 119 152 194 245 298 348
#     4  10  21  37  60  89 119 153 195 241 292 351
#
# _framework density 18.757062000000001
#
# number of rings (size 3 to 8) (size 9 to 14) (size 15 to 20)
#    0.000    1.500    2.500    2.625    0.000    8.000 
#    0.000    2.500    0.000    1.500    0.000    0.000 
#    0.000    0.000    0.000    0.000    0.000    0.000 
#
# Total GULP energy -178871.773137 kJ/mol
# GULP energy per Si atom -5589.742911 kJ/mol
# Density = 1.871437 g / cm^3
# Si number density = 18.757062 Si / 1000 Ang^3
#
#
#
# Elastic Constant Matrix: (Units=GPa)
#
#
# Indices 1 2 3 4 5 6 
#
# 1 35.0368 37.6861 54.9859 0.0000 0.0000 0.0000
# 2 37.6861 161.9738 95.6253 0.0000 0.0000 0.0000
# 3 54.9859 95.6253 172.8223 0.0000 0.0000 0.0000
# 4 0.0000 0.0000 0.0000 -3.4313 0.0000 0.0000
# 5 0.0000 0.0000 0.0000 0.0000 17.2344 0.0000
# 6 0.0000 0.0000 0.0000 0.0000 0.0000 27.0788
#
#
#
# Elastic Compliance Matrix: (Units=1/GPa)
#
#
# Indices 1 2 3 4 5 6 
#
# 1 0.058621 -0.003903 -0.016492 0.000000 0.000000 0.000000
# 2 -0.003903 0.009429 -0.003975 0.000000 0.000000 0.000000
# 3 -0.016492 -0.003975 0.013233 0.000000 0.000000 0.000000
# 4 0.000000 0.000000 0.000000 -0.291435 0.000000 0.000000
# 5 0.000000 0.000000 0.000000 0.000000 0.058024 0.000000
# 6 0.000000 0.000000 0.000000 0.000000 0.000000 0.036929
#
#
# Mechanical properties :
#
#
# Convention : Reuss Voigt Hill
#
# Bulk Modulus (GPa) = 30.72853 82.93641 56.83247
# Shear Modulus (GPa) = -89.90919 20.27874 -34.81522
#
# Velocity S-wave (km/s) = -6.93091 3.29161 -4.31294
# Velocity P-wave (km/s) = 6.90160 7.66540 2.35863
#
# Compressibility (1/GPa) = 0.03254304
#
# Stress axis : x y z
#
# Youngs Moduli (GPa) = 17.05871 106.05690 75.56906
#
# Poissons Ratio (x) = 0.41395 1.24625
# Poissons Ratio (y) = 0.06658 0.30041
# Poissons Ratio (z) = 0.28132 0.42161
#
# Static dielectric constant tensor:
#      x y z
#    x 1.627080 0.000000 0.000000 
#    y 0.000000 1.604640 0.000000 
#    z 0.000000 0.000000 1.656370 
# 
# From -- ./inp_files/12793.got.cif
#   From: 2010.05.17/outbox.cif.g08.bks.cpg/sg38_7_cif.got.tgz:12793.got - 2010.06.03 18:07:57.
