data_PCOD9358108
_publ_section_title
;
Structure prediction by ZEFSAII (Michael W. Deem and Ramdas Pophale) SiO2 
 PCOD9358108
Probable space group: A M M 2
;
_chemical_formula_sum "Si O2"
_cell_formula_units_Z 48
_cell_length_a 15.959985
_cell_length_b 8.799590
_cell_length_c 18.950650
_cell_angle_alpha 90.000000
_cell_angle_beta 90.000000
_cell_angle_gamma 90.000000
_cell_volume 2661.454384
_symmetry_space_group_name_H-M "A M M 2"
_symmetry_group_IT_number 38
_symmetry_cell_setting 'orthorhombic'
loop_
_space_group_symop_operation_xyz
x,y,z
-x,-y,z
-x,y,z
x,-y,z
x,1/2+y,1/2+z
-x,1/2-y,1/2+z
-x,1/2+y,1/2+z
x,1/2-y,1/2+z
loop_
_atom_site_type_symbol
_atom_site_label
_atom_site_fract_x
_atom_site_fract_y
_atom_site_fract_z
Si Si1 0.307440 0.317674 0.832790
Si Si2 0.773910 0.179182 0.697151
Si Si3 0.500000 0.183293 0.350134
Si Si4 0.654210 0.170701 0.093498
Si Si5 0.784424 0.671280 0.465643
Si Si6 0.500000 0.681076 0.016075
Si Si7 0.097433 0.315750 0.584220
O O1 0.309160 0.500000 0.830802
O O2 0.246217 0.254785 0.772105
O O3 0.406119 0.265404 0.824706
O O4 0.264873 0.264434 0.906228
O O5 0.690975 0.221358 0.652898
O O6 0.848788 0.248371 0.649249
O O7 0.785582 0.000000 0.704246
O O8 0.500000 0.219547 0.433453
O O9 0.500000 0.000000 0.341180
O O10 0.577357 0.246298 0.055462
O O11 0.637189 0.000000 0.120879
O O12 0.722877 0.158515 0.032320
O O13 0.801206 0.500000 0.438271
O O14 0.866227 0.733467 0.507134
O O15 0.500000 0.500000 0.021268
O O16 0.105992 0.500000 0.586257
O O17 0.000000 0.276849 0.590926
#
# Coordination Sequence:
#
# PCOD9358108 Si02
#       7
#     8   8   4   8   8   4   8
#     4  11  21  37  57  80 114 157 197 237 285 339
#     4  11  23  38  56  82 115 151 190 238 289 341
#     4   9  20  34  53  80 111 149 195 240 282 325
#     4  10  20  35  54  78 108 147 190 232 282 337
#     4   9  18  33  55  83 111 141 182 230 281 336
#     4  11  19  32  53  82 111 143 193 244 286 329
#     4   9  19  39  65  89 114 146 185 232 288 350
#
# _framework density 18.035253000000001
#
# number of rings (size 3 to 8) (size 9 to 14) (size 15 to 20)
#    0.000    2.000    1.667    3.750    0.000    3.667 
#    0.000    5.000    0.000    3.000    0.000    0.000 
#    0.000    0.000    0.000    0.000    0.000    0.000 
#
# Total GULP energy -133654.605475 kJ/mol
# GULP energy per Si atom -5568.941895 kJ/mol
# Density = 1.799420 g / cm^3
# Si number density = 18.035253 Si / 1000 Ang^3
#
#
#
# Elastic Constant Matrix: (Units=GPa)
#
#
# Indices 1 2 3 4 5 6 
#
# 1 110.8652 32.7014 35.0174 0.0000 0.0000 0.0000
# 2 32.7014 60.6468 24.6485 0.0000 0.0000 0.0000
# 3 35.0174 24.6485 73.8000 0.0000 0.0000 0.0000
# 4 0.0000 0.0000 0.0000 26.9900 0.0000 0.0000
# 5 0.0000 0.0000 0.0000 0.0000 -174.2263 0.0000
# 6 0.0000 0.0000 0.0000 0.0000 0.0000 23.3362
#
#
#
# Elastic Compliance Matrix: (Units=1/GPa)
#
#
# Indices 1 2 3 4 5 6 
#
# 1 0.011651 -0.004669 -0.003969 0.000000 0.000000 0.000000
# 2 -0.004669 0.020950 -0.004782 0.000000 0.000000 0.000000
# 3 -0.003969 -0.004782 0.017030 0.000000 0.000000 0.000000
# 4 0.000000 0.000000 0.000000 0.037051 0.000000 0.000000
# 5 0.000000 0.000000 0.000000 0.000000 -0.005740 0.000000
# 6 0.000000 0.000000 0.000000 0.000000 0.000000 0.042852
#
#
# Mechanical properties :
#
#
# Convention : Reuss Voigt Hill
#
# Bulk Modulus (GPa) = 43.87512 47.78296 45.82904
# Shear Modulus (GPa) = 31.59950 -14.58372 8.50789
#
# Velocity S-wave (km/s) = 4.19035 -2.84671 2.17431
# Velocity P-wave (km/s) = 6.91319 3.96821 5.63644
#
# Compressibility (1/GPa) = 0.02279196
#
# Stress axis : x y z
#
# Youngs Moduli (GPa) = 85.83135 47.73277 58.71906
#
# Poissons Ratio (x) = 0.22287 0.23304
# Poissons Ratio (y) = 0.40077 0.28077
# Poissons Ratio (z) = 0.34064 0.22824
#
# Static dielectric constant tensor:
#      x y z
#    x 1.934030 0.000000 0.000000 
#    y 0.000000 1.621130 0.000000 
#    z 0.000000 0.000000 1.621910 
# 
# From -- ./inp_files/18195.got.cif
#   From: 2010.05.17/outbox.cif.g08.bks.cpg/sg38_10_cif.got.tgz:18195.got - 2010.06.03 18:07:57.
