data_PCOD9358190
_publ_section_title
;
Structure prediction by ZEFSAII (Michael W. Deem and Ramdas Pophale) SiO2 
 PCOD9358190
Probable space group: A M M 2
;
_chemical_formula_sum "Si O2"
_cell_formula_units_Z 64
_cell_length_a 18.836085
_cell_length_b 8.700328
_cell_length_c 21.608192
_cell_angle_alpha 90.000000
_cell_angle_beta 90.000000
_cell_angle_gamma 90.000000
_cell_volume 3541.153049
_symmetry_space_group_name_H-M "A M M 2"
_symmetry_group_IT_number 38
_symmetry_cell_setting 'orthorhombic'
loop_
_space_group_symop_operation_xyz
x,y,z
-x,-y,z
-x,y,z
x,-y,z
x,1/2+y,1/2+z
-x,1/2-y,1/2+z
-x,1/2+y,1/2+z
x,1/2-y,1/2+z
loop_
_atom_site_type_symbol
_atom_site_label
_atom_site_fract_x
_atom_site_fract_y
_atom_site_fract_z
Si Si1 0.086093 0.178892 0.522920
Si Si2 0.586335 0.322441 0.528157
Si Si3 0.917287 0.814810 0.153451
Si Si4 0.325856 0.184627 0.776012
Si Si5 0.416824 0.186584 0.163590
Si Si6 0.916446 0.816567 0.892247
Si Si7 0.582089 0.687971 0.393740
Si Si8 0.832077 0.684494 0.775890
O O1 0.110192 0.249843 0.588092
O O2 0.109344 0.262071 0.459969
O O3 0.000000 0.192821 0.523863
O O4 0.104401 0.000000 0.519813
O O5 0.500000 0.325443 0.527675
O O6 0.610532 0.500000 0.528400
O O7 0.606081 0.256650 0.594978
O O8 0.606576 0.254934 0.461600
O O9 0.872960 0.765560 0.213313
O O10 0.000000 0.768505 0.161196
O O11 0.915572 0.000000 0.149953
O O12 0.369092 0.244619 0.717038
O O13 0.367923 0.235106 0.837787
O O14 0.246890 0.249740 0.775927
O O15 0.324029 0.000000 0.775416
O O16 0.500000 0.225934 0.172837
O O17 0.412400 0.000000 0.163893
O O18 0.873692 0.741519 0.836364
O O19 0.000000 0.774356 0.886742
O O20 0.910846 0.000000 0.888620
O O21 0.500000 0.733846 0.383218
O O22 0.582082 0.500000 0.396268
O O23 0.830167 0.500000 0.776045
#
# Coordination Sequence:
#
# PCOD9358190 Si02
#       8
#     8   8   8   8   8   8   8   8
#     4   9  17  30  52  82 111 136 165 206 257 312
#     4   7  11  23  46  74  98 120 155 204 250 295
#     4   9  18  34  56  79 101 129 170 219 267 315
#     4  11  22  34  49  72 104 139 173 213 261 311
#     4   9  17  31  53  78 101 128 165 209 257 311
#     4  10  20  35  57  83 109 137 172 215 260 309
#     4   8  14  27  49  75  99 126 165 210 253 299
#     4  11  23  38  54  73 103 143 183 222 265 314
#
# _framework density 18.073208000000001
#
# number of rings (size 3 to 8) (size 9 to 14) (size 15 to 20)
#    0.000    2.750    0.000    3.750    0.000    4.500 
#    0.000    2.500    0.000    7.500    0.000    3.500 
#    0.000    0.000    0.000    0.000    0.000    0.000 
#
# Total GULP energy -178369.010713 kJ/mol
# GULP energy per Si atom -5574.031585 kJ/mol
# Density = 1.803207 g / cm^3
# Si number density = 18.073208 Si / 1000 Ang^3
#
#
#
# Elastic Constant Matrix: (Units=GPa)
#
#
# Indices 1 2 3 4 5 6 
#
# 1 81.9604 31.0985 91.9700 0.0000 0.0000 0.0000
# 2 31.0985 27.0837 48.3165 0.0000 0.0000 0.0000
# 3 91.9700 48.3165 222.4452 0.0000 0.0000 0.0000
# 4 0.0000 0.0000 0.0000 31.5364 0.0000 0.0000
# 5 0.0000 0.0000 0.0000 0.0000 -0.2093 0.0000
# 6 0.0000 0.0000 0.0000 0.0000 0.0000 18.5054
#
#
#
# Elastic Compliance Matrix: (Units=1/GPa)
#
#
# Indices 1 2 3 4 5 6 
#
# 1 0.027413 -0.018379 -0.007342 0.000000 0.000000 0.000000
# 2 -0.018379 0.072603 -0.008171 0.000000 0.000000 0.000000
# 3 -0.007342 -0.008171 0.009306 0.000000 0.000000 0.000000
# 4 0.000000 0.000000 0.000000 0.031709 0.000000 0.000000
# 5 0.000000 0.000000 0.000000 0.000000 -4.776867 0.000000
# 6 0.000000 0.000000 0.000000 0.000000 0.000000 0.054038
#
#
# Mechanical properties :
#
#
# Convention : Reuss Voigt Hill
#
# Bulk Modulus (GPa) = 24.07440 74.91772 49.49606
# Shear Modulus (GPa) = -1.11107 20.64011 9.76452
#
# Velocity S-wave (km/s) = -0.78492 3.38306 2.32691
# Velocity P-wave (km/s) = 3.53948 7.53674 5.88772
#
# Compressibility (1/GPa) = 0.04153790
#
# Stress axis : x y z
#
# Youngs Moduli (GPa) = 36.47879 13.77361 107.45953
#
# Poissons Ratio (x) = 0.25314 0.78897
# Poissons Ratio (y) = 0.67044 0.87805
# Poissons Ratio (z) = 0.26783 0.11254
#
# Static dielectric constant tensor:
#      x y z
#    x 1.587140 0.000000 0.000000 
#    y 0.000000 1.616300 0.000000 
#    z 0.000000 0.000000 1.639070 
# 
# From -- ./inp_files/21397.got.cif
#   From: 2010.05.17/outbox.cif.g08.bks.cpg/sg38_11_cif.got.tgz:21397.got - 2010.06.03 18:07:57.
