data_PCOD9358265
_publ_section_title
;
Structure prediction by ZEFSAII (Michael W. Deem and Ramdas Pophale) SiO2 
 PCOD9358265
Probable space group: A M M 2
;
_chemical_formula_sum "Si O2"
_cell_formula_units_Z 40
_cell_length_a 14.488030
_cell_length_b 8.844088
_cell_length_c 15.830363
_cell_angle_alpha 90.000000
_cell_angle_beta 90.000000
_cell_angle_gamma 90.000000
_cell_volume 2028.398429
_symmetry_space_group_name_H-M "A M M 2"
_symmetry_group_IT_number 38
_symmetry_cell_setting 'orthorhombic'
loop_
_space_group_symop_operation_xyz
x,y,z
-x,-y,z
-x,y,z
x,-y,z
x,1/2+y,1/2+z
-x,1/2-y,1/2+z
-x,1/2+y,1/2+z
x,1/2-y,1/2+z
loop_
_atom_site_type_symbol
_atom_site_label
_atom_site_fract_x
_atom_site_fract_y
_atom_site_fract_z
Si Si1 0.709972 0.320852 0.816540
Si Si2 0.103341 0.679647 0.572890
Si Si3 0.894718 0.320372 0.257922
Si Si4 0.295602 0.179989 0.991907
Si Si5 0.389898 0.677651 0.155093
O O1 0.702908 0.500000 0.810570
O O2 0.816090 0.268198 0.807220
O O3 0.656131 0.245446 0.738825
O O4 0.674574 0.261683 0.906432
O O5 0.109863 0.500000 0.593575
O O6 0.113588 0.772248 0.659602
O O7 0.187719 0.714214 0.511423
O O8 0.000000 0.706814 0.538774
O O9 0.880193 0.500000 0.266821
O O10 0.000000 0.285526 0.283954
O O11 0.350961 0.237269 0.073204
O O12 0.305245 0.000000 0.982441
O O13 0.500000 0.693339 0.159345
O O14 0.366613 0.500000 0.148902
#
# Coordination Sequence:
#
# PCOD9358265 Si02
#       5
#     8   8   8   8   8
#     4  12  25  41  64  94 129 170 212 259 311 370
#     4   9  18  34  58  89 125 165 207 250 303 368
#     4  10  20  35  59  90 126 168 212 258 308 366
#     4  11  23  40  65  96 129 168 208 255 311 372
#     4  11  25  46  70  94 123 160 205 262 323 381
#
# _framework density 19.719992000000001
#
# number of rings (size 3 to 8) (size 9 to 14) (size 15 to 20)
#    0.000    1.400    2.000    3.600    0.000    5.200 
#    0.000    2.000    0.000    0.000    0.000    0.000 
#    0.000    0.000    0.000    0.000    0.000    0.000 
#
# Total GULP energy -111835.537518 kJ/mol
# GULP energy per Si atom -5591.776876 kJ/mol
# Density = 1.967511 g / cm^3
# Si number density = 19.719992 Si / 1000 Ang^3
#
#
#
# Elastic Constant Matrix: (Units=GPa)
#
#
# Indices 1 2 3 4 5 6 
#
# 1 59.0238 32.7915 27.2691 0.0000 0.0000 0.0000
# 2 32.7915 56.2062 13.7911 0.0000 0.0000 0.0000
# 3 27.2691 13.7911 93.6895 0.0000 0.0000 0.0000
# 4 0.0000 0.0000 0.0000 33.3617 0.0000 0.0000
# 5 0.0000 0.0000 0.0000 0.0000 -6.0912 0.0000
# 6 0.0000 0.0000 0.0000 0.0000 0.0000 28.3540
#
#
#
# Elastic Compliance Matrix: (Units=1/GPa)
#
#
# Indices 1 2 3 4 5 6 
#
# 1 0.027932 -0.014837 -0.005946 0.000000 0.000000 0.000000
# 2 -0.014837 0.026340 0.000441 0.000000 0.000000 0.000000
# 3 -0.005946 0.000441 0.012339 0.000000 0.000000 0.000000
# 4 0.000000 0.000000 0.000000 0.029974 0.000000 0.000000
# 5 0.000000 0.000000 0.000000 0.000000 -0.164172 0.000000
# 6 0.000000 0.000000 0.000000 0.000000 0.000000 0.035268
#
#
# Mechanical properties :
#
#
# Convention : Reuss Voigt Hill
#
# Bulk Modulus (GPa) = 38.56904 39.62476 39.09690
# Shear Modulus (GPa) = 293.98028 20.12942 157.05485
#
# Velocity S-wave (km/s) = 12.22297 3.19840 8.93394
# Velocity P-wave (km/s) = 14.79196 5.81180 11.23786
#
# Compressibility (1/GPa) = 0.02592753
#
# Stress axis : x y z
#
# Youngs Moduli (GPa) = 35.80076 37.96563 81.04253
#
# Poissons Ratio (x) = 0.56330 0.48187
# Poissons Ratio (y) = 0.53118 -0.03577
# Poissons Ratio (z) = 0.21287 -0.01675
#
# Static dielectric constant tensor:
#      x y z
#    x 1.701760 0.000000 0.000000 
#    y 0.000000 1.655180 0.000000 
#    z 0.000000 0.000000 1.672120 
# 
# From -- ./inp_files/14264.got.cif
#   From: 2010.05.17/outbox.cif.g08.bks.cpg/sg38_8_cif.got.tgz:14264.got - 2010.06.03 18:07:57.
