data_PCOD9358768
_publ_section_title
;
Structure prediction by ZEFSAII (Michael W. Deem and Ramdas Pophale) SiO2 
 PCOD9358768
Probable space group: A M M 2
;
_chemical_formula_sum "Si O2"
_cell_formula_units_Z 56
_cell_length_a 21.112915
_cell_length_b 8.085647
_cell_length_c 15.922673
_cell_angle_alpha 90.000000
_cell_angle_beta 90.000000
_cell_angle_gamma 90.000000
_cell_volume 2718.184631
_symmetry_space_group_name_H-M "A M M 2"
_symmetry_group_IT_number 38
_symmetry_cell_setting 'orthorhombic'
loop_
_space_group_symop_operation_xyz
x,y,z
-x,-y,z
-x,y,z
x,-y,z
x,1/2+y,1/2+z
-x,1/2-y,1/2+z
-x,1/2+y,1/2+z
x,1/2-y,1/2+z
loop_
_atom_site_type_symbol
_atom_site_label
_atom_site_fract_x
_atom_site_fract_y
_atom_site_fract_z
Si Si1 0.072281 0.300398 0.441060
Si Si2 0.567644 0.308988 0.341294
Si Si3 0.841586 0.200897 0.787807
Si Si4 0.299985 0.310883 0.590046
Si Si5 0.432206 0.308482 0.024840
Si Si6 0.161772 0.302950 0.092599
Si Si7 0.297606 0.798326 0.778667
O O1 0.071092 0.500000 0.435931
O O2 0.108338 0.239574 0.356853
O O3 0.110549 0.256435 0.525344
O O4 0.000000 0.240334 0.444402
O O5 0.500000 0.233534 0.312600
O O6 0.567213 0.500000 0.313120
O O7 0.566911 0.300692 0.441643
O O8 0.636109 0.240258 0.317177
O O9 0.848330 0.257251 0.689917
O O10 0.770160 0.240388 0.819713
O O11 0.845982 0.000000 0.784916
O O12 0.306411 0.500000 0.563407
O O13 0.365709 0.221896 0.568738
O O14 0.232024 0.245404 0.559711
O O15 0.294271 0.287213 0.689129
O O16 0.500000 0.278799 0.071054
O O17 0.432980 0.500000 0.998585
O O18 0.159724 0.500000 0.097024
O O19 0.299268 0.000000 0.769817
#
# Coordination Sequence:
#
# PCOD9358768 Si02
#       7
#     8   8   8   8   8   8   8
#     4  10  21  37  59  89 120 154 196 237 285 349
#     4   9  18  32  51  77 108 144 186 231 281 337
#     4   8  17  35  57  80 112 153 195 233 279 344
#     4  11  22  36  56  81 110 146 189 236 289 344
#     4  10  21  36  53  76 109 147 188 236 287 337
#     4  10  21  39  61  87 118 154 196 243 293 348
#     4   9  18  34  54  77 107 145 189 232 280 340
#
# _framework density 20.601986
#
# number of rings (size 3 to 8) (size 9 to 14) (size 15 to 20)
#    0.000    2.429    0.000    3.000    2.000    2.857 
#    0.000    6.429    0.000    0.000    0.000    0.000 
#    0.000    0.000    0.000    0.000    0.000    0.000 
#
# Total GULP energy -155930.800307 kJ/mol
# GULP energy per Si atom -5568.957154 kJ/mol
# Density = 2.055510 g / cm^3
# Si number density = 20.601986 Si / 1000 Ang^3
#
#
#
# Elastic Constant Matrix: (Units=GPa)
#
#
# Indices 1 2 3 4 5 6 
#
# 1 226.2018 23.5337 79.8406 0.0000 0.0000 0.0000
# 2 23.5337 25.8479 3.6847 0.0000 0.0000 0.0000
# 3 79.8406 3.6847 69.2825 0.0000 0.0000 0.0000
# 4 0.0000 0.0000 0.0000 20.8031 0.0000 0.0000
# 5 0.0000 0.0000 0.0000 0.0000 71.0218 0.0000
# 6 0.0000 0.0000 0.0000 0.0000 0.0000 8.3927
#
#
#
# Elastic Compliance Matrix: (Units=1/GPa)
#
#
# Indices 1 2 3 4 5 6 
#
# 1 0.008355 -0.006282 -0.009294 0.000000 0.000000 0.000000
# 2 -0.006282 0.043707 0.004915 0.000000 0.000000 0.000000
# 3 -0.009294 0.004915 0.024883 0.000000 0.000000 0.000000
# 4 0.000000 0.000000 0.000000 0.048070 0.000000 0.000000
# 5 0.000000 0.000000 0.000000 0.000000 0.014080 0.000000
# 6 0.000000 0.000000 0.000000 0.000000 0.000000 0.119151
#
#
# Mechanical properties :
#
#
# Convention : Reuss Voigt Hill
#
# Bulk Modulus (GPa) = 17.97854 59.49447 38.73651
# Shear Modulus (GPa) = 16.77246 34.32840 25.55043
#
# Velocity S-wave (km/s) = 2.85637 4.08642 3.52546
# Velocity P-wave (km/s) = 4.42990 7.15583 5.95104
#
# Compressibility (1/GPa) = 0.05562186
#
# Stress axis : x y z
#
# Youngs Moduli (GPa) = 119.69192 22.87981 40.18888
#
# Poissons Ratio (x) = 0.14373 0.37351
# Poissons Ratio (y) = 0.75189 -0.19752
# Poissons Ratio (z) = 1.11240 -0.11245
#
# Static dielectric constant tensor:
#      x y z
#    x 1.822270 0.000000 0.000000 
#    y 0.000000 1.734450 0.000000 
#    z 0.000000 0.000000 1.727990 
# 
# From -- ./inp_files/15469.got.cif
#   From: 2010.05.17/outbox.cif.g08.bks.cpg/sg38_8_cif.got.tgz:15469.got - 2010.06.03 18:07:57.
