data_PCOD9358134
_publ_section_title
;
Structure prediction by ZEFSAII (Michael W. Deem and Ramdas Pophale) SiO2 
 PCOD9358134
Probable space group: A M M 2
;
_chemical_formula_sum "Si O2"
_cell_formula_units_Z 56
_cell_length_a 22.623941
_cell_length_b 8.428417
_cell_length_c 15.415660
_cell_angle_alpha 90.000000
_cell_angle_beta 90.000000
_cell_angle_gamma 90.000000
_cell_volume 2939.519849
_symmetry_space_group_name_H-M "A M M 2"
_symmetry_group_IT_number 38
_symmetry_cell_setting 'orthorhombic'
loop_
_space_group_symop_operation_xyz
x,y,z
-x,-y,z
-x,y,z
x,-y,z
x,1/2+y,1/2+z
-x,1/2-y,1/2+z
-x,1/2+y,1/2+z
x,1/2-y,1/2+z
loop_
_atom_site_type_symbol
_atom_site_label
_atom_site_fract_x
_atom_site_fract_y
_atom_site_fract_z
Si Si1 0.847700 0.192080 0.479300
Si Si2 0.372897 0.689262 0.627631
Si Si3 0.500000 0.181387 0.621982
Si Si4 0.714099 0.691789 0.475723
Si Si5 0.932881 0.691494 0.826008
Si Si6 0.067121 0.808502 0.632521
Si Si7 0.500000 0.682253 0.333344
Si Si8 0.371679 0.192492 0.823488
O O1 0.780869 0.249911 0.478807
O O2 0.884723 0.246032 0.395260
O O3 0.884633 0.246094 0.563390
O O4 0.847506 0.000000 0.479345
O O5 0.370242 0.500000 0.632729
O O6 0.438802 0.736431 0.596856
O O7 0.324191 0.745385 0.558772
O O8 0.362897 0.756342 0.724182
O O9 0.500000 0.180053 0.727806
O O10 0.500000 0.000000 0.592586
O O11 0.714113 0.500000 0.476120
O O12 0.679606 0.743394 0.388724
O O13 0.932649 0.500000 0.826114
O O14 0.920240 0.750131 0.729290
O O15 0.000000 0.742092 0.849142
O O16 0.000000 0.757777 0.609409
O O17 0.067308 0.000000 0.632280
O O18 0.500000 0.500000 0.365080
O O19 0.436224 0.753196 0.355825
O O20 0.374762 0.000000 0.824148
#
# Coordination Sequence:
#
# PCOD9358134 Si02
#       8
#     8   8   4   8   8   8   4   8
#     4  10  21  36  54  75 104 142 178 214 258 310
#     4  10  20  35  55  80 107 135 172 222 269 307
#     4   9  17  32  55  81 106 136 172 213 265 321
#     4  10  23  38  52  75 108 145 182 216 257 311
#     4   9  18  34  56  81 106 133 169 215 266 314
#     4   9  18  34  56  81 106 134 172 216 262 314
#     4   7  12  26  51  75  92 118 162 207 247 295
#     4   9  18  35  56  76 101 137 175 213 262 318
#
# _framework density 19.050730000000001
#
# number of rings (size 3 to 8) (size 9 to 14) (size 15 to 20)
#    0.000    2.714    0.000    1.929    0.000    6.286 
#    0.000    7.857    0.000    4.286    0.000    0.000 
#    0.000    0.000    0.000    0.000    0.000    0.000 
#
# Total GULP energy -156185.338968 kJ/mol
# GULP energy per Si atom -5578.047820 kJ/mol
# Density = 1.900737 g / cm^3
# Si number density = 19.050730 Si / 1000 Ang^3
#
#
#
# Elastic Constant Matrix: (Units=GPa)
#
#
# Indices 1 2 3 4 5 6 
#
# 1 209.0758 23.7114 123.6256 0.0000 0.0000 0.0000
# 2 23.7114 10.9956 18.4192 0.0000 0.0000 0.0000
# 3 123.6256 18.4192 122.4131 0.0000 0.0000 0.0000
# 4 0.0000 0.0000 0.0000 23.4433 0.0000 0.0000
# 5 0.0000 0.0000 0.0000 0.0000 -7.3706 0.0000
# 6 0.0000 0.0000 0.0000 0.0000 0.0000 31.1139
#
#
#
# Elastic Compliance Matrix: (Units=1/GPa)
#
#
# Indices 1 2 3 4 5 6 
#
# 1 0.012338 -0.007666 -0.011307 0.000000 0.000000 0.000000
# 2 -0.007666 0.126357 -0.011271 0.000000 0.000000 0.000000
# 3 -0.011307 -0.011271 0.021284 0.000000 0.000000 0.000000
# 4 0.000000 0.000000 0.000000 0.042656 0.000000 0.000000
# 5 0.000000 0.000000 0.000000 0.000000 -0.135674 0.000000
# 6 0.000000 0.000000 0.000000 0.000000 0.000000 0.032140
#
#
# Mechanical properties :
#
#
# Convention : Reuss Voigt Hill
#
# Bulk Modulus (GPa) = 10.05109 74.88855 42.46982
# Shear Modulus (GPa) = 25.94016 21.21921 23.57968
#
# Velocity S-wave (km/s) = 3.69404 3.34102 3.52196
# Velocity P-wave (km/s) = 4.84582 7.36741 6.23541
#
# Compressibility (1/GPa) = 0.09949167
#
# Stress axis : x y z
#
# Youngs Moduli (GPa) = 81.05100 7.91409 46.98447
#
# Poissons Ratio (x) = 0.06067 0.53124
# Poissons Ratio (y) = 0.62132 0.52956
# Poissons Ratio (z) = 0.91642 0.08920
#
# Static dielectric constant tensor:
#      x y z
#    x 1.655740 0.000000 0.000000 
#    y 0.000000 1.664670 0.000000 
#    z 0.000000 0.000000 1.653900 
# 
# From -- ./inp_files/15589.got.cif
#   From: 2010.05.17/outbox.cif.g08.bks.cpg/sg38_8_cif.got.tgz:15589.got - 2010.06.03 18:07:57.
