data_PCOD9358466
_publ_section_title
;
Structure prediction by ZEFSAII (Michael W. Deem and Ramdas Pophale) SiO2 
 PCOD9358466
Probable space group: A M M 2
;
_chemical_formula_sum "Si O2"
_cell_formula_units_Z 58
_cell_length_a 14.949074
_cell_length_b 23.801865
_cell_length_c 7.481312
_cell_angle_alpha 90.000000
_cell_angle_beta 90.000000
_cell_angle_gamma 90.000000
_cell_volume 2661.969323
_symmetry_space_group_name_H-M "A M M 2"
_symmetry_group_IT_number 38
_symmetry_cell_setting 'orthorhombic'
loop_
_space_group_symop_operation_xyz
x,y,z
-x,-y,z
-x,y,z
x,-y,z
x,1/2+y,1/2+z
-x,1/2-y,1/2+z
-x,1/2+y,1/2+z
x,1/2-y,1/2+z
loop_
_atom_site_type_symbol
_atom_site_label
_atom_site_fract_x
_atom_site_fract_y
_atom_site_fract_z
Si Si1 0.330188 0.419175 0.015180
Si Si2 0.102999 0.204017 0.891048
Si Si3 0.500000 0.000000 0.561516
Si Si4 0.101095 0.174162 0.309731
Si Si5 0.767061 0.106005 0.842235
Si Si6 0.603574 0.321961 0.476467
Si Si7 0.603586 0.695596 0.898624
Si Si8 0.804320 0.061521 0.230078
O O1 0.421095 0.451270 0.056407
O O2 0.256800 0.429812 0.168503
O O3 0.345102 0.351994 0.006033
O O4 0.292971 0.437778 0.822500
O O5 0.140089 0.267652 0.885515
O O6 0.164171 0.156850 0.800035
O O7 0.000000 0.205407 0.822014
O O8 0.099448 0.186115 0.097368
O O9 0.149144 0.114754 0.324282
O O10 0.000000 0.169214 0.378089
O O11 0.672908 0.133330 0.903501
O O12 0.800720 0.073140 0.017842
O O13 0.500000 0.331137 0.421584
O O14 0.606647 0.321395 0.691278
O O15 0.633383 0.259680 0.417238
O O16 0.500000 0.695630 0.958572
O O17 0.844924 0.000000 0.261563
#
# Coordination Sequence:
#
# PCOD9358466 Si02
#       8
#     8   8   2   8   8   8   8   8
#     4  12  25  43  64  90 120 170 218 278 327 378
#     4   9  20  39  63 100 135 165 209 266 338 403
#     4  12  28  48  66  88 126 170 236 280 332 388
#     4   9  20  39  67  99 133 171 211 265 336 401
#     4  11  25  40  67  95 127 172 220 272 335 395
#     4  10  21  35  57  93 125 165 203 261 327 394
#     4  10  20  37  58  84 126 158 205 262 326 392
#     4  11  25  44  62  92 131 172 225 269 318 396
#
# _framework density 21.788381000000001
#
# number of rings (size 3 to 8) (size 9 to 14) (size 15 to 20)
#    0.000    1.655    2.759    0.828    5.793    2.483 
#    0.000    0.690    0.000    0.000    0.000    0.000 
#    0.000    0.000    0.000    0.000    0.000    0.000 
#
# Total GULP energy -161754.638860 kJ/mol
# GULP energy per Si atom -5577.746168 kJ/mol
# Density = 2.173879 g / cm^3
# Si number density = 21.788381 Si / 1000 Ang^3
#
#
#
# Elastic Constant Matrix: (Units=GPa)
#
#
# Indices 1 2 3 4 5 6 
#
# 1 70.2099 42.4673 7.0865 0.0000 0.0000 0.0000
# 2 42.4673 130.5043 7.3827 0.0000 0.0000 0.0000
# 3 7.0865 7.3827 52.3054 0.0000 0.0000 0.0000
# 4 0.0000 0.0000 0.0000 8.6758 0.0000 0.0000
# 5 0.0000 0.0000 0.0000 0.0000 14.8646 0.0000
# 6 0.0000 0.0000 0.0000 0.0000 0.0000 20.1551
#
#
#
# Elastic Compliance Matrix: (Units=1/GPa)
#
#
# Indices 1 2 3 4 5 6 
#
# 1 0.017867 -0.005723 -0.001613 0.000000 0.000000 0.000000
# 2 -0.005723 0.009557 -0.000574 0.000000 0.000000 0.000000
# 3 -0.001613 -0.000574 0.019418 0.000000 0.000000 0.000000
# 4 0.000000 0.000000 0.000000 0.115263 0.000000 0.000000
# 5 0.000000 0.000000 0.000000 0.000000 0.067274 0.000000
# 6 0.000000 0.000000 0.000000 0.000000 0.000000 0.049615
#
#
# Mechanical properties :
#
#
# Convention : Reuss Voigt Hill
#
# Bulk Modulus (GPa) = 32.23349 40.76584 36.49966
# Shear Modulus (GPa) = 16.38512 21.81132 19.09822
#
# Velocity S-wave (km/s) = 2.74526 3.16737 2.96384
# Velocity P-wave (km/s) = 4.98744 5.66806 5.33861
#
# Compressibility (1/GPa) = 0.03102364
#
# Stress axis : x y z
#
# Youngs Moduli (GPa) = 55.96774 104.63156 51.49868
#
# Poissons Ratio (x) = 0.59880 0.08307
# Poissons Ratio (y) = 0.32030 0.02954
# Poissons Ratio (z) = 0.09027 0.06002
#
# Static dielectric constant tensor:
#      x y z
#    x 1.807500 0.000000 0.000000 
#    y 0.000000 1.811240 0.000000 
#    z 0.000000 0.000000 1.842030 
# 
# From -- ./inp_files/5873.got.cif
#   From: 2010.05.17/outbox.cif.g08.bks.cpg/sg38_3_cif.got.tgz:5873.got - 2010.06.03 18:07:57.
