data_PCOD9358080
_publ_section_title
;
Structure prediction by ZEFSAII (Michael W. Deem and Ramdas Pophale) SiO2 
 PCOD9358080
Probable space group: A M M 2
;
_chemical_formula_sum "Si O2"
_cell_formula_units_Z 64
_cell_length_a 16.484321
_cell_length_b 31.708597
_cell_length_c 5.494719
_cell_angle_alpha 90.000000
_cell_angle_beta 90.000000
_cell_angle_gamma 90.000000
_cell_volume 2872.060452
_symmetry_space_group_name_H-M "A M M 2"
_symmetry_group_IT_number 38
_symmetry_cell_setting 'orthorhombic'
loop_
_space_group_symop_operation_xyz
x,y,z
-x,-y,z
-x,y,z
x,-y,z
x,1/2+y,1/2+z
-x,1/2-y,1/2+z
-x,1/2+y,1/2+z
x,1/2-y,1/2+z
loop_
_atom_site_type_symbol
_atom_site_label
_atom_site_fract_x
_atom_site_fract_y
_atom_site_fract_z
Si Si1 0.403797 0.128357 0.991810
Si Si2 0.865744 0.774082 0.123822
Si Si3 0.322120 0.347578 0.973352
Si Si4 0.911049 0.866397 0.977859
Si Si5 0.303277 0.953197 0.004981
Si Si6 0.201510 0.909513 0.616541
Si Si7 0.684946 0.255823 0.101305
Si Si8 0.874768 0.952917 0.241076
O O1 0.500000 0.129756 0.989117
O O2 0.371640 0.138275 0.717413
O O3 0.369116 0.082126 0.062513
O O4 0.370640 0.156234 0.219330
O O5 0.891500 0.750395 0.871449
O O6 0.893934 0.822773 0.119524
O O7 0.767123 0.771547 0.111460
O O8 0.250062 0.380604 0.928098
O O9 0.286698 0.303424 0.059198
O O10 0.837832 0.875162 0.794366
O O11 0.000000 0.861582 0.861397
O O12 0.911655 0.911100 0.121606
O O13 0.266427 0.939343 0.745709
O O14 0.337652 0.000000 0.005010
O O15 0.220559 0.953910 0.163770
O O16 0.130792 0.939951 0.522744
O O17 0.638503 0.245017 0.854860
O O18 0.906792 0.000000 0.196037
#
# Coordination Sequence:
#
# PCOD9358080 Si02
#       8
#     8   8   8   8   8   8   8   8
#     4  11  23  40  63  96 136 178 215 265 339 406
#     4  10  23  41  65  96 133 170 217 277 337 411
#     4  11  22  39  66  96 127 175 223 272 320 395
#     4  11  26  42  62  95 139 181 222 285 360 419
#     4   9  19  36  59  92 127 163 218 276 329 391
#     4  10  20  37  65  91 125 174 230 280 332 392
#     4  10  20  34  61  94 121 153 212 272 318 376
#     4  10  21  39  65  94 126 172 234 290 333 393
#
# _framework density 22.283652
#
# number of rings (size 3 to 8) (size 9 to 14) (size 15 to 20)
#    0.000    1.750    1.250    3.000    5.250    2.000 
#    0.000    0.000    0.000    9.000    0.000    0.000 
#    0.000    0.000    0.000    0.000    0.000    0.000 
#
# Total GULP energy -178308.157929 kJ/mol
# GULP energy per Si atom -5572.129935 kJ/mol
# Density = 2.223293 g / cm^3
# Si number density = 22.283652 Si / 1000 Ang^3
#
#
#
# Elastic Constant Matrix: (Units=GPa)
#
#
# Indices 1 2 3 4 5 6 
#
# 1 59.8492 22.8991 10.8264 0.0000 0.0000 0.0000
# 2 22.8991 129.2418 32.0094 0.0000 0.0000 0.0000
# 3 10.8264 32.0094 118.3014 0.0000 0.0000 0.0000
# 4 0.0000 0.0000 0.0000 18.7241 0.0000 0.0000
# 5 0.0000 0.0000 0.0000 0.0000 353.4352 0.0000
# 6 0.0000 0.0000 0.0000 0.0000 0.0000 3.3726
#
#
#
# Elastic Compliance Matrix: (Units=1/GPa)
#
#
# Indices 1 2 3 4 5 6 
#
# 1 0.018001 -0.002981 -0.000841 0.000000 0.000000 0.000000
# 2 -0.002981 0.008787 -0.002105 0.000000 0.000000 0.000000
# 3 -0.000841 -0.002105 0.009099 0.000000 0.000000 0.000000
# 4 0.000000 0.000000 0.000000 0.053407 0.000000 0.000000
# 5 0.000000 0.000000 0.000000 0.000000 0.002829 0.000000
# 6 0.000000 0.000000 0.000000 0.000000 0.000000 0.296511
#
#
# Mechanical properties :
#
#
# Convention : Reuss Voigt Hill
#
# Bulk Modulus (GPa) = 41.60715 48.76247 45.18481
# Shear Modulus (GPa) = 12.23989 91.21686 51.72838
#
# Velocity S-wave (km/s) = 2.34621 6.40494 4.82328
# Velocity P-wave (km/s) = 5.10409 8.75373 7.16518
#
# Compressibility (1/GPa) = 0.02403433
#
# Stress axis : x y z
#
# Youngs Moduli (GPa) = 55.55113 113.80540 109.89732
#
# Poissons Ratio (x) = 0.33929 0.09240
# Poissons Ratio (y) = 0.16561 0.23130
# Poissons Ratio (z) = 0.04670 0.23953
#
# Static dielectric constant tensor:
#      x y z
#    x 1.676400 0.000000 0.000000 
#    y 0.000000 1.846680 0.000000 
#    z 0.000000 0.000000 1.987530 
# 
# From -- ./inp_files/1735.got.cif
#   From: 2010.05.17/outbox.cif.g08.bks.cpg/sg38_1_cif.got.tgz:1735.got - 2010.06.03 18:07:57.
