data_PCOD9358602
_publ_section_title
;
Structure prediction by ZEFSAII (Michael W. Deem and Ramdas Pophale) SiO2 
 PCOD9358602
Probable space group: A M M 2
;
_chemical_formula_sum "Si O2"
_cell_formula_units_Z 56
_cell_length_a 21.419423
_cell_length_b 7.695541
_cell_length_c 16.053712
_cell_angle_alpha 90.000000
_cell_angle_beta 90.000000
_cell_angle_gamma 90.000000
_cell_volume 2646.198333
_symmetry_space_group_name_H-M "A M M 2"
_symmetry_group_IT_number 38
_symmetry_cell_setting 'orthorhombic'
loop_
_space_group_symop_operation_xyz
x,y,z
-x,-y,z
-x,y,z
x,-y,z
x,1/2+y,1/2+z
-x,1/2-y,1/2+z
-x,1/2+y,1/2+z
x,1/2-y,1/2+z
loop_
_atom_site_type_symbol
_atom_site_label
_atom_site_fract_x
_atom_site_fract_y
_atom_site_fract_z
Si Si1 0.629741 0.703799 0.465090
Si Si2 0.500000 0.290337 0.734709
Si Si3 0.072182 0.789884 0.487109
Si Si4 0.500000 0.287287 0.540403
Si Si5 0.296670 0.700313 0.123764
Si Si6 0.844319 0.204009 0.145117
Si Si7 0.637215 0.203087 0.786691
Si Si8 0.927989 0.287912 0.798925
O O1 0.618121 0.500000 0.449044
O O2 0.563239 0.775246 0.496484
O O3 0.679143 0.716100 0.538993
O O4 0.652539 0.779264 0.377257
O O5 0.500000 0.500000 0.739798
O O6 0.500000 0.238428 0.637465
O O7 0.562933 0.220268 0.775761
O O8 0.115270 0.724990 0.561364
O O9 0.090357 0.735179 0.392988
O O10 0.000000 0.736753 0.500323
O O11 0.073893 0.000000 0.488617
O O12 0.500000 0.500000 0.539567
O O13 0.316596 0.500000 0.116800
O O14 0.222804 0.710309 0.134477
O O15 0.330017 0.780583 0.205098
O O16 0.883303 0.271787 0.224660
O O17 0.833054 0.000000 0.158859
O O18 0.655975 0.000000 0.786262
O O19 0.927896 0.500000 0.797617
O O20 0.000000 0.234321 0.784771
#
# Coordination Sequence:
#
# PCOD9358602 Si02
#       8
#     8   4   8   4   8   8   8   8
#     4  10  20  39  62  83 110 146 185 224 279 339
#     4  11  20  33  59  90 115 143 182 228 275 334
#     4   9  18  35  59  86 116 147 180 226 281 329
#     4   9  17  31  57  86 111 139 174 222 271 326
#     4  11  24  40  55  79 113 148 188 235 281 327
#     4  11  22  36  57  82 111 150 191 229 272 327
#     4  10  22  39  60  83 111 147 185 232 285 333
#     4   8  16  33  57  84 113 145 181 221 270 328
#
# _framework density 21.162434999999999
#
# number of rings (size 3 to 8) (size 9 to 14) (size 15 to 20)
#    0.000    2.143    1.429    2.786    0.000    4.286 
#    0.000    4.643    0.000    1.714    0.000    0.000 
#    0.000    0.000    0.000    0.000    0.000    0.000 
#
# Total GULP energy -156376.698112 kJ/mol
# GULP energy per Si atom -5584.882075 kJ/mol
# Density = 2.111427 g / cm^3
# Si number density = 21.162435 Si / 1000 Ang^3
#
#
#
# Elastic Constant Matrix: (Units=GPa)
#
#
# Indices 1 2 3 4 5 6 
#
# 1 85.8367 -16.2404 60.1645 0.0000 0.0000 0.0000
# 2 -16.2404 35.5890 -5.6079 0.0000 0.0000 0.0000
# 3 60.1645 -5.6079 173.6345 0.0000 0.0000 0.0000
# 4 0.0000 0.0000 0.0000 12.5227 0.0000 0.0000
# 5 0.0000 0.0000 0.0000 0.0000 -8.9635 0.0000
# 6 0.0000 0.0000 0.0000 0.0000 0.0000 -45.5280
#
#
#
# Elastic Compliance Matrix: (Units=1/GPa)
#
#
# Indices 1 2 3 4 5 6 
#
# 1 0.016887 0.006819 -0.005631 0.000000 0.000000 0.000000
# 2 0.006819 0.030996 -0.001362 0.000000 0.000000 0.000000
# 3 -0.005631 -0.001362 0.007666 0.000000 0.000000 0.000000
# 4 0.000000 0.000000 0.000000 0.079855 0.000000 0.000000
# 5 0.000000 0.000000 0.000000 0.000000 -0.111564 0.000000
# 6 0.000000 0.000000 0.000000 0.000000 0.000000 -0.021965
#
#
# Mechanical properties :
#
#
# Convention : Reuss Voigt Hill
#
# Bulk Modulus (GPa) = 18.11554 41.29918 29.70736
# Shear Modulus (GPa) = 242.43170 8.72252 125.57711
#
# Velocity S-wave (km/s) = 10.71477 2.03240 7.71158
# Velocity P-wave (km/s) = 12.71432 5.00652 9.66227
#
# Compressibility (1/GPa) = 0.05520121
#
# Stress axis : x y z
#
# Youngs Moduli (GPa) = 59.21660 32.26261 130.43834
#
# Poissons Ratio (x) = -0.21999 0.73452
# Poissons Ratio (y) = -0.40379 0.17761
# Poissons Ratio (z) = 0.33346 0.04393
#
# Static dielectric constant tensor:
#      x y z
#    x 1.713410 0.000000 0.000000 
#    y 0.000000 1.790630 0.000000 
#    z 0.000000 0.000000 1.783470 
# 
# From -- ./inp_files/15580.got.cif
#   From: 2010.05.17/outbox.cif.g08.bks.cpg/sg38_8_cif.got.tgz:15580.got - 2010.06.03 18:07:57.
