data_PCOD9358831
_publ_section_title
;
Structure prediction by ZEFSAII (Michael W. Deem and Ramdas Pophale) SiO2 
 PCOD9358831
Probable space group: A M M 2
;
_chemical_formula_sum "Si O2"
_cell_formula_units_Z 64
_cell_length_a 14.553348
_cell_length_b 9.326865
_cell_length_c 25.051751
_cell_angle_alpha 90.000000
_cell_angle_beta 90.000000
_cell_angle_gamma 90.000000
_cell_volume 3400.452334
_symmetry_space_group_name_H-M "A M M 2"
_symmetry_group_IT_number 38
_symmetry_cell_setting 'orthorhombic'
loop_
_space_group_symop_operation_xyz
x,y,z
-x,-y,z
-x,y,z
x,-y,z
x,1/2+y,1/2+z
-x,1/2-y,1/2+z
-x,1/2+y,1/2+z
x,1/2-y,1/2+z
loop_
_atom_site_type_symbol
_atom_site_label
_atom_site_fract_x
_atom_site_fract_y
_atom_site_fract_z
Si Si1 0.889495 0.667031 0.598620
Si Si2 0.755659 0.172071 0.522434
Si Si3 0.611847 0.336915 0.714808
Si Si4 0.260196 0.829571 0.397835
Si Si5 0.111905 0.663735 0.205163
Si Si6 0.610374 0.166572 0.819804
Si Si7 0.608968 0.328288 0.594014
Si Si8 0.891995 0.169165 0.311437
O O1 0.862169 0.500000 0.598074
O O2 0.841940 0.753713 0.551180
O O3 0.861459 0.741218 0.654328
O O4 0.000000 0.673979 0.594683
O O5 0.751702 0.207057 0.459722
O O6 0.667797 0.238263 0.552534
O O7 0.759272 0.000000 0.528446
O O8 0.500000 0.340624 0.714648
O O9 0.644103 0.500000 0.723746
O O10 0.639748 0.238171 0.763822
O O11 0.637085 0.290920 0.654975
O O12 0.341652 0.746531 0.368574
O O13 0.169191 0.799354 0.362997
O O14 0.277776 0.000000 0.394460
O O15 0.144568 0.500000 0.200910
O O16 0.138113 0.738116 0.260606
O O17 0.000000 0.660759 0.204996
O O18 0.500000 0.179597 0.823545
O O19 0.634732 0.000000 0.820028
O O20 0.500000 0.302144 0.588254
O O21 0.623287 0.500000 0.587722
O O22 0.000000 0.195918 0.321458
O O23 0.882220 0.000000 0.298522
#
# Coordination Sequence:
#
# PCOD9358831 Si02
#       8
#     8   8   8   8   8   8   8   8
#     4  10  21  38  60  84 111 146 185 224 271 329
#     4  11  24  39  56  81 111 145 189 236 278 323
#     4   8  15  31  56  83 109 139 176 217 266 328
#     4  10  23  40  56  77 106 145 190 228 267 321
#     4   9  17  31  54  85 116 142 173 218 272 327
#     4  10  21  36  56  83 112 142 177 222 275 323
#     4   9  19  37  60  84 112 148 186 225 274 331
#     4   9  18  35  58  81 107 141 180 222 269 324
#
# _framework density 18.821024999999999
#
# number of rings (size 3 to 8) (size 9 to 14) (size 15 to 20)
#    0.000    2.500    0.000    2.250    0.000    7.250 
#    0.000    6.250    0.000    1.500    0.000    0.000 
#    0.000    0.000    0.000    0.000    0.000    0.000 
#
# Total GULP energy -178710.123029 kJ/mol
# GULP energy per Si atom -5584.691345 kJ/mol
# Density = 1.877819 g / cm^3
# Si number density = 18.821025 Si / 1000 Ang^3
#
#
#
# Elastic Constant Matrix: (Units=GPa)
#
#
# Indices 1 2 3 4 5 6 
#
# 1 65.8181 46.9625 51.8630 0.0000 0.0000 0.0000
# 2 46.9625 97.2760 106.4307 0.0000 0.0000 0.0000
# 3 51.8630 106.4307 194.5729 0.0000 0.0000 0.0000
# 4 0.0000 0.0000 0.0000 8.4607 0.0000 0.0000
# 5 0.0000 0.0000 0.0000 0.0000 32.1942 0.0000
# 6 0.0000 0.0000 0.0000 0.0000 0.0000 23.9236
#
#
#
# Elastic Compliance Matrix: (Units=1/GPa)
#
#
# Indices 1 2 3 4 5 6 
#
# 1 0.023179 -0.011034 -0.000143 0.000000 0.000000 0.000000
# 2 -0.011034 0.030855 -0.013937 0.000000 0.000000 0.000000
# 3 -0.000143 -0.013937 0.012801 0.000000 0.000000 0.000000
# 4 0.000000 0.000000 0.000000 0.118193 0.000000 0.000000
# 5 0.000000 0.000000 0.000000 0.000000 0.031061 0.000000
# 6 0.000000 0.000000 0.000000 0.000000 0.000000 0.041800
#
#
# Mechanical properties :
#
#
# Convention : Reuss Voigt Hill
#
# Bulk Modulus (GPa) = 60.21151 85.35326 72.78238
# Shear Modulus (GPa) = 15.94124 23.07642 19.50883
#
# Velocity S-wave (km/s) = 2.91347 3.50537 3.22303
# Velocity P-wave (km/s) = 6.58626 7.86332 7.25295
#
# Compressibility (1/GPa) = 0.01660812
#
# Stress axis : x y z
#
# Youngs Moduli (GPa) = 43.14275 32.40949 78.12057
#
# Poissons Ratio (x) = 0.35761 0.01114
# Poissons Ratio (y) = 0.47604 1.08873
# Poissons Ratio (z) = 0.00615 0.45168
#
# Static dielectric constant tensor:
#      x y z
#    x 1.681760 0.000000 0.000000 
#    y 0.000000 1.632890 0.000000 
#    z 0.000000 0.000000 1.614330 
# 
# From -- ./inp_files/22909.got.cif
#   From: 2010.05.17/outbox.cif.g08.bks.cpg/sg38_12_cif.got.tgz:22909.got - 2010.06.03 18:07:57.
