data_PCOD9358056
_publ_section_title
;
Structure prediction by ZEFSAII (Michael W. Deem and Ramdas Pophale) SiO2 
 PCOD9358056
Probable space group: A M M 2
;
_chemical_formula_sum "Si O2"
_cell_formula_units_Z 40
_cell_length_a 8.486540
_cell_length_b 19.038265
_cell_length_c 10.153857
_cell_angle_alpha 90.000000
_cell_angle_beta 90.000000
_cell_angle_gamma 90.000000
_cell_volume 1640.548496
_symmetry_space_group_name_H-M "A M M 2"
_symmetry_group_IT_number 38
_symmetry_cell_setting 'orthorhombic'
loop_
_space_group_symop_operation_xyz
x,y,z
-x,-y,z
-x,y,z
x,-y,z
x,1/2+y,1/2+z
-x,1/2-y,1/2+z
-x,1/2+y,1/2+z
x,1/2-y,1/2+z
loop_
_atom_site_type_symbol
_atom_site_label
_atom_site_fract_x
_atom_site_fract_y
_atom_site_fract_z
Si Si1 0.180771 0.417063 0.248020
Si Si2 0.673696 0.714647 0.357072
Si Si3 0.000000 0.272023 0.971892
Si Si4 0.668922 0.847669 0.200235
Si Si5 0.000000 0.170283 0.188584
Si Si6 0.675362 0.081982 0.484909
O O1 0.218266 0.500000 0.256284
O O2 0.297495 0.366153 0.323617
O O3 0.198392 0.395932 0.093380
O O4 0.000000 0.406780 0.289183
O O5 0.500000 0.726294 0.417859
O O6 0.829242 0.738256 0.434425
O O7 0.671029 0.763953 0.226993
O O8 0.000000 0.328943 0.849154
O O9 0.000000 0.250043 0.128481
O O10 0.500000 0.869522 0.142356
O O11 0.838602 0.866561 0.142215
O O12 0.672124 0.878217 0.348306
O O13 0.500000 0.089607 0.545322
O O14 0.700293 0.000000 0.456035
#
# Coordination Sequence:
#
# PCOD9358056 Si02
#       6
#     8   8   4   8   4   8
#     4  10  20  34  56  90 128 163 208 264 317 373
#     4  10  20  36  57  82 120 162 201 249 306 368
#     4  10  22  40  57  90 121 157 209 253 309 372
#     4   9  20  36  55  85 120 160 205 250 304 367
#     4  10  22  38  61  86 123 163 201 257 313 366
#     4   9  18  34  57  88 126 165 209 260 315 374
#
# _framework density 24.382086999999999
#
# number of rings (size 3 to 8) (size 9 to 14) (size 15 to 20)
#    0.000    2.400    1.000    0.600    1.400    8.400 
#    0.000    8.000    0.000    2.400    0.000    2.800 
#    0.000    0.000    0.000    0.000    0.000    0.000 
#
# Total GULP energy -111420.927864 kJ/mol
# GULP energy per Si atom -5571.046393 kJ/mol
# Density = 2.432659 g / cm^3
# Si number density = 24.382087 Si / 1000 Ang^3
#
#
#
# Elastic Constant Matrix: (Units=GPa)
#
#
# Indices 1 2 3 4 5 6 
#
# 1 218.4903 16.2326 13.1947 0.0000 0.0000 0.0000
# 2 16.2326 53.9010 -11.8903 0.0000 0.0000 0.0000
# 3 13.1947 -11.8903 28.5152 0.0000 0.0000 0.0000
# 4 0.0000 0.0000 0.0000 24.5069 0.0000 0.0000
# 5 0.0000 0.0000 0.0000 0.0000 5.3939 0.0000
# 6 0.0000 0.0000 0.0000 0.0000 0.0000 25.1533
#
#
#
# Elastic Compliance Matrix: (Units=1/GPa)
#
#
# Indices 1 2 3 4 5 6 
#
# 1 0.004933 -0.002190 -0.003196 0.000000 0.000000 0.000000
# 2 -0.002190 0.021405 0.009939 0.000000 0.000000 0.000000
# 3 -0.003196 0.009939 0.040692 0.000000 0.000000 0.000000
# 4 0.000000 0.000000 0.000000 0.040805 0.000000 0.000000
# 5 0.000000 0.000000 0.000000 0.000000 0.185396 0.000000
# 6 0.000000 0.000000 0.000000 0.000000 0.000000 0.039756
#
#
# Mechanical properties :
#
#
# Convention : Reuss Voigt Hill
#
# Bulk Modulus (GPa) = 13.13462 37.33117 25.23290
# Shear Modulus (GPa) = 14.31600 29.90211 22.10905
#
# Velocity S-wave (km/s) = 2.42575 3.50579 3.01454
# Velocity P-wave (km/s) = 3.63928 5.63308 4.74215
#
# Compressibility (1/GPa) = 0.07613466
#
# Stress axis : x y z
#
# Youngs Moduli (GPa) = 202.73297 46.71880 24.57477
#
# Poissons Ratio (x) = 0.10234 0.07854
# Poissons Ratio (y) = 0.44408 -0.24425
# Poissons Ratio (z) = 0.64790 -0.46433
#
# Static dielectric constant tensor:
#      x y z
#    x 1.984450 0.000000 0.000000 
#    y 0.000000 1.936290 0.000000 
#    z 0.000000 0.000000 1.977240 
# 
# From -- ./inp_files/7967.got.cif
#   From: 2010.05.17/outbox.cif.g08.bks.cpg/sg38_4_cif.got.tgz:7967.got - 2010.06.03 18:07:57.
