data_PCOD9358873
_publ_section_title
;
Structure prediction by ZEFSAII (Michael W. Deem and Ramdas Pophale) SiO2 
 PCOD9358873
Probable space group: A M M 2
;
_chemical_formula_sum "Si O2"
_cell_formula_units_Z 64
_cell_length_a 9.211487
_cell_length_b 29.037617
_cell_length_c 12.898251
_cell_angle_alpha 90.000000
_cell_angle_beta 90.000000
_cell_angle_gamma 90.000000
_cell_volume 3450.019425
_symmetry_space_group_name_H-M "A M M 2"
_symmetry_group_IT_number 38
_symmetry_cell_setting 'orthorhombic'
loop_
_space_group_symop_operation_xyz
x,y,z
-x,-y,z
-x,y,z
x,-y,z
x,1/2+y,1/2+z
-x,1/2-y,1/2+z
-x,1/2+y,1/2+z
x,1/2-y,1/2+z
loop_
_atom_site_type_symbol
_atom_site_label
_atom_site_fract_x
_atom_site_fract_y
_atom_site_fract_z
Si Si1 0.828546 0.884714 0.773800
Si Si2 0.330155 0.555371 0.683063
Si Si3 0.327095 0.555148 0.447457
Si Si4 0.669911 0.747540 0.036749
Si Si5 0.159529 0.780985 0.850841
Si Si6 0.324098 0.640901 0.063033
Si Si7 0.825889 0.883021 0.348311
Si Si8 0.838856 0.800096 0.195447
O O1 0.760342 0.919299 0.857638
O O2 0.815277 0.833522 0.822030
O O3 0.743042 0.883084 0.664787
O O4 0.000000 0.893762 0.757177
O O5 0.500000 0.568400 0.697398
O O6 0.322751 0.500000 0.686374
O O7 0.286074 0.569554 0.565563
O O8 0.233448 0.577159 0.773039
O O9 0.500000 0.563979 0.436275
O O10 0.306155 0.500000 0.440439
O O11 0.500000 0.747326 0.050589
O O12 0.718801 0.695407 0.063994
O O13 0.734096 0.790079 0.101502
O O14 0.718162 0.758911 0.921180
O O15 0.153236 0.749537 0.749768
O O16 0.000000 0.776385 0.902761
O O17 0.500000 0.637687 0.062464
O O18 0.256442 0.620013 0.957748
O O19 0.794268 0.836722 0.281927
O O20 0.000000 0.885787 0.363991
O O21 0.000000 0.813750 0.159739
#
# Coordination Sequence:
#
# PCOD9358873 Si02
#       8
#     8   8   8   8   8   8   8   8
#     4  11  23  38  60  88 117 154 198 242 288 342
#     4   9  20  41  66  90 119 153 187 232 293 352
#     4   9  20  41  66  90 119 153 187 232 293 352
#     4  11  23  35  53  80 111 150 197 247 286 328
#     4  10  21  37  55  77 113 157 194 231 282 343
#     4  11  23  39  58  82 117 158 198 242 292 343
#     4  11  23  38  60  88 117 154 198 242 288 342
#     4  10  21  37  55  77 113 157 194 231 282 343
#
# _framework density 18.550619000000001
#
# number of rings (size 3 to 8) (size 9 to 14) (size 15 to 20)
#    0.000    1.750    2.500    2.250    1.750    4.500 
#    0.000    1.875    0.000    3.750    0.000    0.000 
#    0.000    0.000    0.000    0.000    0.000    0.000 
#
# Total GULP energy -178503.998994 kJ/mol
# GULP energy per Si atom -5578.249969 kJ/mol
# Density = 1.850840 g / cm^3
# Si number density = 18.550619 Si / 1000 Ang^3
#
#
#
# Elastic Constant Matrix: (Units=GPa)
#
#
# Indices 1 2 3 4 5 6 
#
# 1 54.5023 25.1601 50.5840 0.0000 0.0000 0.0000
# 2 25.1601 44.4471 26.0727 0.0000 0.0000 0.0000
# 3 50.5840 26.0727 98.3694 0.0000 0.0000 0.0000
# 4 0.0000 0.0000 0.0000 30.3820 0.0000 0.0000
# 5 0.0000 0.0000 0.0000 0.0000 17.5330 0.0000
# 6 0.0000 0.0000 0.0000 0.0000 0.0000 18.2484
#
#
#
# Elastic Compliance Matrix: (Units=1/GPa)
#
#
# Indices 1 2 3 4 5 6 
#
# 1 0.040305 -0.012620 -0.017381 0.000000 0.000000 0.000000
# 2 -0.012620 0.030592 -0.001619 0.000000 0.000000 0.000000
# 3 -0.017381 -0.001619 0.019533 0.000000 0.000000 0.000000
# 4 0.000000 0.000000 0.000000 0.032914 0.000000 0.000000
# 5 0.000000 0.000000 0.000000 0.000000 0.057035 0.000000
# 6 0.000000 0.000000 0.000000 0.000000 0.000000 0.054799
#
#
# Mechanical properties :
#
#
# Convention : Reuss Voigt Hill
#
# Bulk Modulus (GPa) = 36.77798 44.55028 40.66413
# Shear Modulus (GPa) = 16.26117 19.59947 17.93032
#
# Velocity S-wave (km/s) = 2.96393 3.25397 3.11233
# Velocity P-wave (km/s) = 5.61978 6.17944 5.90624
#
# Compressibility (1/GPa) = 0.02719018
#
# Stress axis : x y z
#
# Youngs Moduli (GPa) = 24.81094 32.68838 51.19653
#
# Poissons Ratio (x) = 0.41251 0.88984
# Poissons Ratio (y) = 0.31310 0.08289
# Poissons Ratio (z) = 0.43124 0.05292
#
# Static dielectric constant tensor:
#      x y z
#    x 1.705190 0.000000 0.000000 
#    y 0.000000 1.633210 0.000000 
#    z 0.000000 0.000000 1.637890 
# 
# From -- ./inp_files/8557.got.cif
#   From: 2010.05.17/outbox.cif.g08.bks.cpg/sg38_5_cif.got.tgz:8557.got - 2010.06.03 18:07:57.
