data_PCOD9358708
_publ_section_title
;
Structure prediction by ZEFSAII (Michael W. Deem and Ramdas Pophale) SiO2 
 PCOD9358708
Probable space group: A M M 2
;
_chemical_formula_sum "Si O2"
_cell_formula_units_Z 64
_cell_length_a 7.632175
_cell_length_b 25.226299
_cell_length_c 14.108955
_cell_angle_alpha 90.000000
_cell_angle_beta 90.000000
_cell_angle_gamma 90.000000
_cell_volume 2716.418673
_symmetry_space_group_name_H-M "A M M 2"
_symmetry_group_IT_number 38
_symmetry_cell_setting 'orthorhombic'
loop_
_space_group_symop_operation_xyz
x,y,z
-x,-y,z
-x,y,z
x,-y,z
x,1/2+y,1/2+z
-x,1/2-y,1/2+z
-x,1/2+y,1/2+z
x,1/2-y,1/2+z
loop_
_atom_site_type_symbol
_atom_site_label
_atom_site_fract_x
_atom_site_fract_y
_atom_site_fract_z
Si Si1 0.293186 0.776898 0.530050
Si Si2 0.800212 0.778915 0.312331
Si Si3 0.202243 0.057384 0.136909
Si Si4 0.795788 0.942779 0.731228
Si Si5 0.701887 0.397381 0.827139
Si Si6 0.711830 0.606726 0.043724
Si Si7 0.785385 0.165063 0.822128
Si Si8 0.210762 0.836547 0.043069
O O1 0.500000 0.718170 0.009949
O O2 0.200051 0.773653 0.427626
O O3 0.236314 0.833037 0.573489
O O4 0.264332 0.721198 0.581944
O O5 0.712300 0.835515 0.296071
O O6 0.723349 0.721961 0.282049
O O7 0.000000 0.783734 0.278288
O O8 0.204172 0.067529 0.249236
O O9 0.281463 0.110558 0.092133
O O10 0.000000 0.055623 0.104806
O O11 0.281671 0.000000 0.114642
O O12 0.784696 0.934373 0.618599
O O13 0.719814 0.888721 0.774188
O O14 0.000000 0.943598 0.759704
O O15 0.719132 0.000000 0.757718
O O16 0.500000 0.413653 0.828025
O O17 0.768717 0.400774 0.934916
O O18 0.500000 0.603230 0.045884
O O19 0.000000 0.166972 0.816221
O O20 0.737725 0.161936 0.932821
O O21 0.000000 0.837369 0.048746
#
# Coordination Sequence:
#
# PCOD9358708 Si02
#       8
#     8   8   8   8   8   8   8   8
#     4   9  17  31  52  80 110 138 172 214 263 320
#     4   9  16  30  54  81 108 138 172 213 262 317
#     4  10  22  38  55  78 106 138 182 229 269 317
#     4  10  21  35  52  76 103 134 176 219 255 298
#     4  10  21  37  56  78 106 140 175 216 270 327
#     4   9  20  37  54  74 103 138 172 209 259 315
#     4   8  16  32  53  78 107 136 167 207 258 311
#     4   9  18  34  56  80 107 141 176 214 264 318
#
# _framework density 23.560431000000001
#
# number of rings (size 3 to 8) (size 9 to 14) (size 15 to 20)
#    0.000    2.750    0.000    2.625    0.000    6.000 
#    0.000   11.875    0.000    0.000    0.000    1.750 
#    0.000    0.000    0.000    0.000    0.000    0.000 
#
# Total GULP energy -178642.783971 kJ/mol
# GULP energy per Si atom -5582.586999 kJ/mol
# Density = 2.350681 g / cm^3
# Si number density = 23.560431 Si / 1000 Ang^3
#
#
#
# Elastic Constant Matrix: (Units=GPa)
#
#
# Indices 1 2 3 4 5 6 
#
# 1 55.4149 -2.4217 -7.9273 0.0000 0.0000 0.0000
# 2 -2.4217 124.5345 25.5824 0.0000 0.0000 0.0000
# 3 -7.9273 25.5824 47.8690 0.0000 0.0000 0.0000
# 4 0.0000 0.0000 0.0000 19.0674 0.0000 0.0000
# 5 0.0000 0.0000 0.0000 0.0000 62.4232 0.0000
# 6 0.0000 0.0000 0.0000 0.0000 0.0000 43.6975
#
#
#
# Elastic Compliance Matrix: (Units=1/GPa)
#
#
# Indices 1 2 3 4 5 6 
#
# 1 0.018494 -0.000303 0.003224 0.000000 0.000000 0.000000
# 2 -0.000303 0.009025 -0.004873 0.000000 0.000000 0.000000
# 3 0.003224 -0.004873 0.024029 0.000000 0.000000 0.000000
# 4 0.000000 0.000000 0.000000 0.052446 0.000000 0.000000
# 5 0.000000 0.000000 0.000000 0.000000 0.016020 0.000000
# 6 0.000000 0.000000 0.000000 0.000000 0.000000 0.022885
#
#
# Mechanical properties :
#
#
# Convention : Reuss Voigt Hill
#
# Bulk Modulus (GPa) = 20.98891 28.69835 24.84363
# Shear Modulus (GPa) = 30.73475 39.20995 34.97235
#
# Velocity S-wave (km/s) = 3.61571 4.08392 3.85693
# Velocity P-wave (km/s) = 5.13411 5.86899 5.51381
#
# Compressibility (1/GPa) = 0.04764421
#
# Stress axis : x y z
#
# Youngs Moduli (GPa) = 54.07244 110.80176 41.61678
#
# Poissons Ratio (x) = 0.03355 -0.13419
# Poissons Ratio (y) = 0.01637 0.20281
# Poissons Ratio (z) = -0.17435 0.53998
#
# Static dielectric constant tensor:
#      x y z
#    x 1.867880 0.000000 0.000000 
#    y 0.000000 1.927650 0.000000 
#    z 0.000000 0.000000 1.897910 
# 
# From -- ./inp_files/12816.got.cif
#   From: 2010.05.17/outbox.cif.g08.bks.cpg/sg38_7_cif.got.tgz:12816.got - 2010.06.03 18:07:57.
