data_PCOD9358754
_publ_section_title
;
Structure prediction by ZEFSAII (Michael W. Deem and Ramdas Pophale) SiO2 
 PCOD9358754
Probable space group: A M M 2
;
_chemical_formula_sum "Si O2"
_cell_formula_units_Z 58
_cell_length_a 17.026037
_cell_length_b 17.718818
_cell_length_c 9.725637
_cell_angle_alpha 90.000000
_cell_angle_beta 90.000000
_cell_angle_gamma 90.000000
_cell_volume 2934.042336
_symmetry_space_group_name_H-M "A M M 2"
_symmetry_group_IT_number 38
_symmetry_cell_setting 'orthorhombic'
loop_
_space_group_symop_operation_xyz
x,y,z
-x,-y,z
-x,y,z
x,-y,z
x,1/2+y,1/2+z
-x,1/2-y,1/2+z
-x,1/2+y,1/2+z
x,1/2-y,1/2+z
loop_
_atom_site_type_symbol
_atom_site_label
_atom_site_fract_x
_atom_site_fract_y
_atom_site_fract_z
Si Si1 0.000000 0.000000 0.431080
Si Si2 0.243351 0.081741 0.782398
Si Si3 0.756621 0.694981 0.044387
Si Si4 0.413015 0.796934 0.420121
Si Si5 0.794171 0.130191 0.079484
Si Si6 0.152790 0.082578 0.349955
Si Si7 0.415335 0.122467 0.867321
Si Si8 0.621731 0.412973 0.679019
O O1 0.930048 0.064832 0.420715
O O2 0.223873 0.149804 0.682361
O O3 0.337339 0.085621 0.807048
O O4 0.222575 0.000000 0.722807
O O5 0.203390 0.092167 0.930513
O O6 0.662615 0.694419 0.017530
O O7 0.798153 0.647944 0.923387
O O8 0.785519 0.780580 0.055103
O O9 0.500000 0.802604 0.485576
O O10 0.406955 0.712882 0.357201
O O11 0.406572 0.857574 0.298217
O O12 0.858412 0.105536 0.190319
O O13 0.713466 0.102753 0.151126
O O14 0.194596 0.000000 0.354915
O O15 0.500000 0.099007 0.809742
O O16 0.415023 0.104694 0.030274
O O17 0.607687 0.500000 0.714154
#
# Coordination Sequence:
#
# PCOD9358754 Si02
#       8
#     2   8   8   8   8   8   8   8
#     4   8  24  44  76 106 122 160 206 242 332 384
#     4  11  23  35  53  89 124 153 211 254 313 369
#     4  12  22  38  62  93 127 172 210 256 315 373
#     4  11  23  36  54  82 121 167 223 273 312 356
#     4  11  20  37  65  93 120 162 213 258 304 376
#     4  10  21  43  72  95 126 163 206 249 311 398
#     4  10  21  36  53  73 114 165 209 270 322 361
#     4  11  21  36  57  84 112 156 222 277 322 358
#
# _framework density 19.767949000000002
#
# number of rings (size 3 to 8) (size 9 to 14) (size 15 to 20)
#    0.414    0.828    4.138    4.966    0.000    3.034 
#    0.000    0.690    0.000    1.655    0.000    0.000 
#    0.000    0.000    0.000    0.000    0.000    0.000 
#
# Total GULP energy -161656.935411 kJ/mol
# GULP energy per Si atom -5574.377083 kJ/mol
# Density = 1.972296 g / cm^3
# Si number density = 19.767949 Si / 1000 Ang^3
#
#
#
# Elastic Constant Matrix: (Units=GPa)
#
#
# Indices 1 2 3 4 5 6 
#
# 1 36.2807 6.3688 -6.1731 0.0000 0.0000 0.0000
# 2 6.3688 145.1922 13.5606 0.0000 0.0000 0.0000
# 3 -6.1731 13.5606 44.1052 0.0000 0.0000 0.0000
# 4 0.0000 0.0000 0.0000 47.0090 0.0000 0.0000
# 5 0.0000 0.0000 0.0000 0.0000 3.0144 0.0000
# 6 0.0000 0.0000 0.0000 0.0000 0.0000 15.0751
#
#
#
# Elastic Compliance Matrix: (Units=1/GPa)
#
#
# Indices 1 2 3 4 5 6 
#
# 1 0.028627 -0.001678 0.004523 0.000000 0.000000 0.000000
# 2 -0.001678 0.007189 -0.002445 0.000000 0.000000 0.000000
# 3 0.004523 -0.002445 0.024058 0.000000 0.000000 0.000000
# 4 0.000000 0.000000 0.000000 0.021273 0.000000 0.000000
# 5 0.000000 0.000000 0.000000 0.000000 0.331739 0.000000
# 6 0.000000 0.000000 0.000000 0.000000 0.000000 0.066335
#
#
# Mechanical properties :
#
#
# Convention : Reuss Voigt Hill
#
# Bulk Modulus (GPa) = 16.48185 28.12119 22.30152
# Shear Modulus (GPa) = 10.02714 27.14115 18.58415
#
# Velocity S-wave (km/s) = 2.25465 3.70940 3.06946
# Velocity P-wave (km/s) = 3.89020 5.70988 4.88551
#
# Compressibility (1/GPa) = 0.06067281
#
# Stress axis : x y z
#
# Youngs Moduli (GPa) = 34.93210 139.09320 41.56629
#
# Poissons Ratio (x) = 0.23342 -0.18799
# Poissons Ratio (y) = 0.05862 0.10164
# Poissons Ratio (z) = -0.15799 0.34013
#
# Static dielectric constant tensor:
#      x y z
#    x 1.698220 0.000000 0.000000 
#    y 0.000000 1.688950 0.000000 
#    z 0.000000 0.000000 1.724570 
# 
# From -- ./inp_files/6388.got.cif
#   From: 2010.05.17/outbox.cif.g08.bks.cpg/sg38_4_cif.got.tgz:6388.got - 2010.06.03 18:07:57.
