data_PCOD9358949
_publ_section_title
;
Structure prediction by ZEFSAII (Michael W. Deem and Ramdas Pophale) SiO2 
 PCOD9358949
Probable space group: A M M 2
;
_chemical_formula_sum "Si O2"
_cell_formula_units_Z 58
_cell_length_a 7.316838
_cell_length_b 27.092142
_cell_length_c 13.370529
_cell_angle_alpha 90.000000
_cell_angle_beta 90.000000
_cell_angle_gamma 90.000000
_cell_volume 2650.424107
_symmetry_space_group_name_H-M "A M M 2"
_symmetry_group_IT_number 38
_symmetry_cell_setting 'orthorhombic'
loop_
_space_group_symop_operation_xyz
x,y,z
-x,-y,z
-x,y,z
x,-y,z
x,1/2+y,1/2+z
-x,1/2-y,1/2+z
-x,1/2+y,1/2+z
x,1/2-y,1/2+z
loop_
_atom_site_type_symbol
_atom_site_label
_atom_site_fract_x
_atom_site_fract_y
_atom_site_fract_z
Si Si1 0.287229 0.445202 0.066030
Si Si2 0.500000 0.500000 0.354810
Si Si3 0.209065 0.692300 0.344799
Si Si4 0.212393 0.203597 0.411533
Si Si5 0.280274 0.662008 0.126910
Si Si6 0.777990 0.902547 0.349251
Si Si7 0.777353 0.914257 0.915309
Si Si8 0.779072 0.555957 0.636895
O O1 0.500000 0.447673 0.095488
O O2 0.210144 0.500000 0.086374
O O3 0.212889 0.395035 0.116677
O O4 0.278231 0.433860 0.946818
O O5 0.661109 0.456674 0.361769
O O6 0.292452 0.743538 0.382620
O O7 0.213473 0.689004 0.225407
O O8 0.282756 0.639627 0.379003
O O9 0.000000 0.692058 0.382098
O O10 0.223298 0.191913 0.528804
O O11 0.287918 0.153626 0.362496
O O12 0.000000 0.205314 0.380320
O O13 0.500000 0.660179 0.128365
O O14 0.716459 0.923056 0.242805
O O15 0.000000 0.902842 0.351610
O O16 0.734763 0.917224 0.033912
O O17 0.000000 0.920568 0.902247
O O18 0.714951 0.500000 0.625293
O O19 0.000000 0.555357 0.642383
#
# Coordination Sequence:
#
# PCOD9358949 Si02
#       8
#     8   2   8   8   8   8   8   8
#     4   9  18  34  50  74 111 152 187 231 284 340
#     4  12  22  40  64  86 116 166 202 248 294 362
#     4  10  22  40  62  86 114 152 196 244 293 352
#     4   9  19  37  61  85 112 149 193 240 292 352
#     4  10  21  37  58  83 117 152 189 238 293 351
#     4   9  17  30  54  83 109 145 192 235 286 348
#     4  10  22  40  60  87 123 159 200 248 298 356
#     4   9  16  30  50  75 114 156 190 236 294 347
#
# _framework density 21.883292000000001
#
# number of rings (size 3 to 8) (size 9 to 14) (size 15 to 20)
#    0.000    2.483    0.690    1.034    0.966    3.034 
#    2.483    4.138    0.000    0.000    0.000    0.000 
#    0.000    0.000    0.000    0.000    0.000    0.000 
#
# Total GULP energy -161618.813971 kJ/mol
# GULP energy per Si atom -5573.062551 kJ/mol
# Density = 2.183348 g / cm^3
# Si number density = 21.883292 Si / 1000 Ang^3
#
#
#
# Elastic Constant Matrix: (Units=GPa)
#
#
# Indices 1 2 3 4 5 6 
#
# 1 98.7667 -8.1874 -20.6089 0.0000 0.0000 0.0000
# 2 -8.1874 105.3886 33.6386 0.0000 0.0000 0.0000
# 3 -20.6089 33.6386 53.4779 0.0000 0.0000 0.0000
# 4 0.0000 0.0000 0.0000 4.2021 0.0000 0.0000
# 5 0.0000 0.0000 0.0000 0.0000 14.6064 0.0000
# 6 0.0000 0.0000 0.0000 0.0000 0.0000 1.0776
#
#
#
# Elastic Compliance Matrix: (Units=1/GPa)
#
#
# Indices 1 2 3 4 5 6 
#
# 1 0.011043 -0.000626 0.004650 0.000000 0.000000 0.000000
# 2 -0.000626 0.011908 -0.007732 0.000000 0.000000 0.000000
# 3 0.004650 -0.007732 0.025354 0.000000 0.000000 0.000000
# 4 0.000000 0.000000 0.000000 0.237974 0.000000 0.000000
# 5 0.000000 0.000000 0.000000 0.000000 0.068463 0.000000
# 6 0.000000 0.000000 0.000000 0.000000 0.000000 0.927980
#
#
# Mechanical properties :
#
#
# Convention : Reuss Voigt Hill
#
# Bulk Modulus (GPa) = 24.45636 29.70198 27.07917
# Shear Modulus (GPa) = 3.83504 20.82994 12.33249
#
# Velocity S-wave (km/s) = 1.32525 3.08858 2.37651
# Velocity P-wave (km/s) = 3.67992 5.13044 4.46449
#
# Compressibility (1/GPa) = 0.04088916
#
# Stress axis : x y z
#
# Youngs Moduli (GPa) = 90.55381 83.97809 39.44080
#
# Poissons Ratio (x) = 0.05258 -0.18338
# Poissons Ratio (y) = 0.05670 0.30494
# Poissons Ratio (z) = -0.42104 0.64928
#
# Static dielectric constant tensor:
#      x y z
#    x 1.873180 0.000000 0.000000 
#    y 0.000000 1.794350 0.000000 
#    z 0.000000 0.000000 1.785350 
# 
# From -- ./inp_files/12697.got.cif
#   From: 2010.05.17/outbox.cif.g08.bks.cpg/sg38_7_cif.got.tgz:12697.got - 2010.06.03 18:07:57.
