data_PCOD9358415
_publ_section_title
;
Structure prediction by ZEFSAII (Michael W. Deem and Ramdas Pophale) SiO2 
 PCOD9358415
Probable space group: A M M 2
;
_chemical_formula_sum "Si O2"
_cell_formula_units_Z 64
_cell_length_a 24.052827
_cell_length_b 8.854540
_cell_length_c 15.708317
_cell_angle_alpha 90.000000
_cell_angle_beta 90.000000
_cell_angle_gamma 90.000000
_cell_volume 3345.505812
_symmetry_space_group_name_H-M "A M M 2"
_symmetry_group_IT_number 38
_symmetry_cell_setting 'orthorhombic'
loop_
_space_group_symop_operation_xyz
x,y,z
-x,-y,z
-x,y,z
x,-y,z
x,1/2+y,1/2+z
-x,1/2-y,1/2+z
-x,1/2+y,1/2+z
x,1/2-y,1/2+z
loop_
_atom_site_type_symbol
_atom_site_label
_atom_site_fract_x
_atom_site_fract_y
_atom_site_fract_z
Si Si1 0.738532 0.322035 0.765630
Si Si2 0.433688 0.823759 0.369167
Si Si3 0.741435 0.178107 0.470060
Si Si4 0.856110 0.817607 0.715420
Si Si5 0.376018 0.679666 0.207058
Si Si6 0.866796 0.681276 0.022479
Si Si7 0.063773 0.182157 0.870223
Si Si8 0.629010 0.179036 0.028581
O O1 0.732957 0.500000 0.746504
O O2 0.737530 0.304166 0.868115
O O3 0.796826 0.258922 0.732026
O O4 0.686975 0.232378 0.726512
O O5 0.500000 0.814290 0.376326
O O6 0.413157 0.750239 0.281645
O O7 0.404546 0.740555 0.447621
O O8 0.416791 0.000000 0.370249
O O9 0.803044 0.222295 0.499872
O O10 0.693000 0.272565 0.513864
O O11 0.733335 0.000000 0.490092
O O12 0.877192 0.779673 0.620858
O O13 0.898895 0.771465 0.789282
O O14 0.849060 0.000000 0.718889
O O15 0.379664 0.500000 0.208142
O O16 0.391806 0.743972 0.115021
O O17 0.871124 0.500000 0.013101
O O18 0.907758 0.757295 0.955621
O O19 0.000000 0.232931 0.862637
O O20 0.064088 0.000000 0.872131
O O21 0.624401 0.000000 0.034708
#
# Coordination Sequence:
#
# PCOD9358415 Si02
#       8
#     8   8   8   8   8   8   8   8
#     4  11  21  36  62  93 127 160 199 249 303 365
#     4  11  25  46  69  93 125 165 211 262 311 363
#     4  10  20  36  60  90 128 161 197 250 304 362
#     4  10  21  37  60  87 119 156 198 244 299 365
#     4  12  25  42  66  94 128 167 209 256 309 368
#     4  10  21  38  60  87 115 153 197 243 297 357
#     4  10  22  39  57  81 115 154 198 250 301 354
#     4  12  25  41  66  97 129 166 207 252 310 373
#
# _framework density 19.130143
#
# number of rings (size 3 to 8) (size 9 to 14) (size 15 to 20)
#    0.000    1.250    2.500    3.750    0.000    4.750 
#    0.000    1.250    0.000    0.000    0.000    0.000 
#    0.000    0.000    0.000    0.000    0.000    0.000 
#
# Total GULP energy -178997.850321 kJ/mol
# GULP energy per Si atom -5593.682823 kJ/mol
# Density = 1.908660 g / cm^3
# Si number density = 19.130143 Si / 1000 Ang^3
#
#
#
# Elastic Constant Matrix: (Units=GPa)
#
#
# Indices 1 2 3 4 5 6 
#
# 1 52.9926 9.4680 -1.7289 0.0000 0.0000 0.0000
# 2 9.4680 55.8979 5.7259 0.0000 0.0000 0.0000
# 3 -1.7289 5.7259 69.7845 0.0000 0.0000 0.0000
# 4 0.0000 0.0000 0.0000 29.0313 0.0000 0.0000
# 5 0.0000 0.0000 0.0000 0.0000 -4.6074 0.0000
# 6 0.0000 0.0000 0.0000 0.0000 0.0000 29.6616
#
#
#
# Elastic Compliance Matrix: (Units=1/GPa)
#
#
# Indices 1 2 3 4 5 6 
#
# 1 0.019499 -0.003381 0.000760 0.000000 0.000000 0.000000
# 2 -0.003381 0.018628 -0.001612 0.000000 0.000000 0.000000
# 3 0.000760 -0.001612 0.014481 0.000000 0.000000 0.000000
# 4 0.000000 0.000000 0.000000 0.034446 0.000000 0.000000
# 5 0.000000 0.000000 0.000000 0.000000 -0.217043 0.000000
# 6 0.000000 0.000000 0.000000 0.000000 0.000000 0.033714
#
#
# Mechanical properties :
#
#
# Convention : Reuss Voigt Hill
#
# Bulk Modulus (GPa) = 22.65360 22.84499 22.74929
# Shear Modulus (GPa) = -68.40291 21.83110 -23.28591
#
# Velocity S-wave (km/s) = -5.98617 3.38181 -3.49268
# Velocity P-wave (km/s) = 5.99262 5.21696 2.08504
#
# Compressibility (1/GPa) = 0.04414310
#
# Stress axis : x y z
#
# Youngs Moduli (GPa) = 51.28369 53.68397 69.05621
#
# Poissons Ratio (x) = 0.18149 -0.05252
# Poissons Ratio (y) = 0.17338 0.11133
# Poissons Ratio (z) = -0.03900 0.08655
#
# Static dielectric constant tensor:
#      x y z
#    x 1.639010 0.000000 0.000000 
#    y 0.000000 1.644570 0.000000 
#    z 0.000000 0.000000 1.655320 
# 
# From -- ./inp_files/15876.got.cif
#   From: 2010.05.17/outbox.cif.g08.bks.cpg/sg38_8_cif.got.tgz:15876.got - 2010.06.03 18:07:57.
