data_PCOD9358163
_publ_section_title
;
Structure prediction by ZEFSAII (Michael W. Deem and Ramdas Pophale) SiO2 
 PCOD9358163
Probable space group: A M M 2
;
_chemical_formula_sum "Si O2"
_cell_formula_units_Z 48
_cell_length_a 7.675265
_cell_length_b 9.354507
_cell_length_c 35.229672
_cell_angle_alpha 90.000000
_cell_angle_beta 90.000000
_cell_angle_gamma 90.000000
_cell_volume 2529.431270
_symmetry_space_group_name_H-M "A M M 2"
_symmetry_group_IT_number 38
_symmetry_cell_setting 'orthorhombic'
loop_
_space_group_symop_operation_xyz
x,y,z
-x,-y,z
-x,y,z
x,-y,z
x,1/2+y,1/2+z
-x,1/2-y,1/2+z
-x,1/2+y,1/2+z
x,1/2-y,1/2+z
loop_
_atom_site_type_symbol
_atom_site_label
_atom_site_fract_x
_atom_site_fract_y
_atom_site_fract_z
Si Si1 0.709538 0.662522 0.927830
Si Si2 0.000000 0.171380 0.643803
Si Si3 0.788486 0.335305 0.778681
Si Si4 0.705665 0.670164 0.503417
Si Si5 0.000000 0.329129 0.563975
Si Si6 0.300318 0.667531 0.202560
Si Si7 0.208793 0.661993 0.352240
O O1 0.500000 0.656659 0.929316
O O2 0.776125 0.500000 0.925783
O O3 0.756039 0.751945 0.890621
O O4 0.763933 0.743102 0.966215
O O5 0.000000 0.248845 0.603711
O O6 0.167469 0.209189 0.669439
O O7 0.000000 0.000000 0.638199
O O8 0.732130 0.500000 0.780533
O O9 0.728956 0.259775 0.740171
O O10 0.726261 0.247725 0.815454
O O11 0.000000 0.333861 0.778731
O O12 0.500000 0.698416 0.510686
O O13 0.723258 0.500000 0.495903
O O14 0.829817 0.705815 0.538662
O O15 0.000000 0.500000 0.570278
O O16 0.500000 0.680654 0.190103
O O17 0.266242 0.500000 0.211811
O O18 0.277267 0.500000 0.354020
O O19 0.000000 0.653402 0.348265
#
# Coordination Sequence:
#
# PCOD9358163 Si02
#       7
#     8   4   8   8   4   8   8
#     4  10  21  36  54  79 112 148 187 236 287 332
#     4  10  22  40  60  85 118 147 180 232 285 338
#     4  10  20  35  56  82 114 150 190 239 289 334
#     4   9  19  37  58  81 113 150 188 233 281 334
#     4  10  22  38  60  87 112 145 188 228 279 344
#     4  10  21  38  61  86 113 151 193 231 279 339
#     4  10  21  35  54  80 111 151 195 235 278 330
#
# _framework density 18.976597999999999
#
# number of rings (size 3 to 8) (size 9 to 14) (size 15 to 20)
#    0.000    2.167    0.833    1.500    1.167    5.667 
#    0.000    0.000    0.000    0.000    0.000    0.000 
#    0.000    0.000    0.000    0.000    0.000    0.000 
#
# Total GULP energy -134049.760960 kJ/mol
# GULP energy per Si atom -5585.406707 kJ/mol
# Density = 1.893341 g / cm^3
# Si number density = 18.976598 Si / 1000 Ang^3
#
#
#
# Elastic Constant Matrix: (Units=GPa)
#
#
# Indices 1 2 3 4 5 6 
#
# 1 72.0418 51.2306 62.0584 0.0000 0.0000 0.0000
# 2 51.2306 126.6465 111.8441 0.0000 0.0000 0.0000
# 3 62.0584 111.8441 206.6234 0.0000 0.0000 0.0000
# 4 0.0000 0.0000 0.0000 43.7365 0.0000 0.0000
# 5 0.0000 0.0000 0.0000 0.0000 -110.9994 0.0000
# 6 0.0000 0.0000 0.0000 0.0000 0.0000 17.8241
#
#
#
# Elastic Compliance Matrix: (Units=1/GPa)
#
#
# Indices 1 2 3 4 5 6 
#
# 1 0.020535 -0.005479 -0.003202 0.000000 0.000000 0.000000
# 2 -0.005479 0.016589 -0.007334 0.000000 0.000000 0.000000
# 3 -0.003202 -0.007334 0.009771 0.000000 0.000000 0.000000
# 4 0.000000 0.000000 0.000000 0.022864 0.000000 0.000000
# 5 0.000000 0.000000 0.000000 0.000000 -0.009009 0.000000
# 6 0.000000 0.000000 0.000000 0.000000 0.000000 0.056104
#
#
# Mechanical properties :
#
#
# Convention : Reuss Voigt Hill
#
# Bulk Modulus (GPa) = 67.26915 95.06423 81.16669
# Shear Modulus (GPa) = 32.50127 2.12416 17.31271
#
# Velocity S-wave (km/s) = 4.14297 1.05914 3.02374
# Velocity P-wave (km/s) = 7.64271 7.19027 7.41994
#
# Compressibility (1/GPa) = 0.01486566
#
# Stress axis : x y z
#
# Youngs Moduli (GPa) = 48.69642 60.27994 102.34157
#
# Poissons Ratio (x) = 0.33030 0.32767
# Poissons Ratio (y) = 0.26683 0.75057
# Poissons Ratio (z) = 0.15591 0.44209
#
# Static dielectric constant tensor:
#      x y z
#    x 1.700000 0.000000 0.000000 
#    y 0.000000 1.653880 0.000000 
#    z 0.000000 0.000000 1.599280 
# 
# From -- ./inp_files/24340.got.cif
#   From: 2010.05.17/outbox.cif.g08.bks.cpg/sg38_13_cif.got.tgz:24340.got - 2010.06.03 18:07:57.
