data_PCOD9358267
_publ_section_title
;
Structure prediction by ZEFSAII (Michael W. Deem and Ramdas Pophale) SiO2 
 PCOD9358267
Probable space group: A M M 2
;
_chemical_formula_sum "Si O2"
_cell_formula_units_Z 48
_cell_length_a 13.510729
_cell_length_b 17.256006
_cell_length_c 9.712545
_cell_angle_alpha 90.000000
_cell_angle_beta 90.000000
_cell_angle_gamma 90.000000
_cell_volume 2264.394597
_symmetry_space_group_name_H-M "A M M 2"
_symmetry_group_IT_number 38
_symmetry_cell_setting 'orthorhombic'
loop_
_space_group_symop_operation_xyz
x,y,z
-x,-y,z
-x,y,z
x,-y,z
x,1/2+y,1/2+z
-x,1/2-y,1/2+z
-x,1/2+y,1/2+z
x,1/2-y,1/2+z
loop_
_atom_site_type_symbol
_atom_site_label
_atom_site_fract_x
_atom_site_fract_y
_atom_site_fract_z
Si Si1 0.392348 0.407839 0.241410
Si Si2 0.283956 0.693524 0.797193
Si Si3 0.109243 0.194712 0.696801
Si Si4 0.317339 0.672863 0.506891
Si Si5 0.777991 0.590735 0.019351
Si Si6 0.888085 0.092208 0.963543
O O1 0.500000 0.375890 0.201027
O O2 0.396665 0.500000 0.236443
O O3 0.368668 0.383705 0.397541
O O4 0.305409 0.388326 0.134383
O O5 0.189325 0.743103 0.745016
O O6 0.352304 0.683715 0.663109
O O7 0.321803 0.746836 0.922760
O O8 0.258878 0.611983 0.867408
O O9 0.136401 0.152302 0.554853
O O10 0.110461 0.124857 0.807903
O O11 0.000000 0.228552 0.692820
O O12 0.205243 0.638462 0.524380
O O13 0.802989 0.500000 0.032568
O O14 0.000000 0.106522 0.019069
O O15 0.870716 0.000000 0.966776
#
# Coordination Sequence:
#
# PCOD9358267 Si02
#       6
#     8   8   8   8   8   8
#     4  10  21  40  66  92 121 162 206 251 312 378
#     4  11  22  39  60  89 122 159 211 251 307 368
#     4  10  20  35  60  86 119 164 205 247 300 367
#     4  11  20  37  60  83 120 158 203 252 302 367
#     4  11  22  40  63  92 128 163 206 261 310 366
#     4   9  17  30  52  82 111 147 196 243 292 352
#
# _framework density 21.19772
#
# number of rings (size 3 to 8) (size 9 to 14) (size 15 to 20)
#    0.000    1.667    5.000    1.000    0.000    3.667 
#    0.000    4.167    0.000    2.000    0.000    0.000 
#    0.000    0.000    0.000    0.000    0.000    0.000 
#
# Total GULP energy -133812.943762 kJ/mol
# GULP energy per Si atom -5575.539323 kJ/mol
# Density = 2.114947 g / cm^3
# Si number density = 21.197720 Si / 1000 Ang^3
#
#
#
# Elastic Constant Matrix: (Units=GPa)
#
#
# Indices 1 2 3 4 5 6 
#
# 1 27.8482 9.6839 -4.7636 0.0000 0.0000 0.0000
# 2 9.6839 47.4918 25.9199 0.0000 0.0000 0.0000
# 3 -4.7636 25.9199 99.2673 0.0000 0.0000 0.0000
# 4 0.0000 0.0000 0.0000 37.5322 0.0000 0.0000
# 5 0.0000 0.0000 0.0000 0.0000 -1.9373 0.0000
# 6 0.0000 0.0000 0.0000 0.0000 0.0000 11.1869
#
#
#
# Elastic Compliance Matrix: (Units=1/GPa)
#
#
# Indices 1 2 3 4 5 6 
#
# 1 0.040507 -0.010869 0.004782 0.000000 0.000000 0.000000
# 2 -0.010869 0.027472 -0.007695 0.000000 0.000000 0.000000
# 3 0.004782 -0.007695 0.012313 0.000000 0.000000 0.000000
# 4 0.000000 0.000000 0.000000 0.026644 0.000000 0.000000
# 5 0.000000 0.000000 0.000000 0.000000 -0.516186 0.000000
# 6 0.000000 0.000000 0.000000 0.000000 0.000000 0.089390
#
#
# Mechanical properties :
#
#
# Convention : Reuss Voigt Hill
#
# Bulk Modulus (GPa) = 18.96576 26.25419 22.60998
# Shear Modulus (GPa) = -18.20035 18.94084 0.37024
#
# Velocity S-wave (km/s) = -2.93337 2.99244 0.41838
# Velocity P-wave (km/s) = 1.58314 4.93476 3.30496
#
# Compressibility (1/GPa) = 0.05272659
#
# Stress axis : x y z
#
# Youngs Moduli (GPa) = 24.68731 36.40018 81.21796
#
# Poissons Ratio (x) = 0.39565 -0.38838
# Poissons Ratio (y) = 0.26834 0.62497
# Poissons Ratio (z) = -0.11805 0.28010
#
# Static dielectric constant tensor:
#      x y z
#    x 1.853290 0.000000 0.000000 
#    y 0.000000 1.769260 0.000000 
#    z 0.000000 0.000000 1.816130 
# 
# From -- ./inp_files/5471.got.cif
#   From: 2010.05.17/outbox.cif.g08.bks.cpg/sg38_3_cif.got.tgz:5471.got - 2010.06.03 18:07:57.
