data_PCOD9358048
_publ_section_title
;
Structure prediction by ZEFSAII (Michael W. Deem and Ramdas Pophale) SiO2 
 PCOD9358048
Probable space group: A M M 2
;
_chemical_formula_sum "Si O2"
_cell_formula_units_Z 64
_cell_length_a 19.730725
_cell_length_b 8.722645
_cell_length_c 20.871732
_cell_angle_alpha 90.000000
_cell_angle_beta 90.000000
_cell_angle_gamma 90.000000
_cell_volume 3592.110855
_symmetry_space_group_name_H-M "A M M 2"
_symmetry_group_IT_number 38
_symmetry_cell_setting 'orthorhombic'
loop_
_space_group_symop_operation_xyz
x,y,z
-x,-y,z
-x,y,z
x,-y,z
x,1/2+y,1/2+z
-x,1/2-y,1/2+z
-x,1/2+y,1/2+z
x,1/2-y,1/2+z
loop_
_atom_site_type_symbol
_atom_site_label
_atom_site_fract_x
_atom_site_fract_y
_atom_site_fract_z
Si Si1 0.789535 0.682004 0.416810
Si Si2 0.287869 0.682359 0.795171
Si Si3 0.791330 0.182693 0.163559
Si Si4 0.921760 0.682741 0.221997
Si Si5 0.283448 0.683794 0.040782
Si Si6 0.077489 0.183202 0.364748
Si Si7 0.422322 0.315608 0.244898
Si Si8 0.575436 0.813673 0.595294
O O1 0.794250 0.500000 0.418495
O O2 0.748823 0.735030 0.353731
O O3 0.750465 0.743145 0.478778
O O4 0.864724 0.752465 0.410696
O O5 0.283204 0.500000 0.804736
O O6 0.249907 0.720609 0.728556
O O7 0.365283 0.734448 0.786498
O O8 0.867842 0.236162 0.176514
O O9 0.758104 0.267558 0.103730
O O10 0.787999 0.000000 0.153918
O O11 0.911013 0.500000 0.221646
O O12 0.911920 0.744804 0.294264
O O13 0.000000 0.713805 0.204509
O O14 0.283086 0.500000 0.034595
O O15 0.361103 0.736425 0.052972
O O16 0.000000 0.218486 0.384369
O O17 0.084346 0.000000 0.359371
O O18 0.500000 0.279604 0.262765
O O19 0.413937 0.500000 0.248637
O O20 0.413640 0.270952 0.169907
O O21 0.500000 0.761572 0.575904
O O22 0.574795 0.000000 0.594330
#
# Coordination Sequence:
#
# PCOD9358048 Si02
#       8
#     8   8   8   8   8   8   8   8
#     4  12  25  40  59  83 118 156 197 241 289 347
#     4  11  22  36  57  85 117 151 193 239 286 340
#     4  11  22  36  57  85 118 151 190 238 286 339
#     4  10  20  34  56  87 118 150 191 237 289 345
#     4  11  22  38  61  85 117 154 194 239 291 351
#     4  10  20  36  59  86 115 147 188 237 289 346
#     4   9  17  32  56  86 117 149 190 239 292 346
#     4   8  15  30  55  85 112 143 185 230 280 341
#
# _framework density 17.816821999999998
#
# number of rings (size 3 to 8) (size 9 to 14) (size 15 to 20)
#    0.000    1.750    2.500    3.750    0.000    2.750 
#    0.000    1.250    0.000    7.500    0.000    0.000 
#    0.000    0.000    0.000    0.000    0.000    0.000 
#
# Total GULP energy -178704.505731 kJ/mol
# GULP energy per Si atom -5584.515804 kJ/mol
# Density = 1.777627 g / cm^3
# Si number density = 17.816822 Si / 1000 Ang^3
#
#
#
# Elastic Constant Matrix: (Units=GPa)
#
#
# Indices 1 2 3 4 5 6 
#
# 1 133.3693 31.4879 48.0864 0.0000 0.0000 0.0000
# 2 31.4879 45.0379 26.6289 0.0000 0.0000 0.0000
# 3 48.0864 26.6289 68.6055 0.0000 0.0000 0.0000
# 4 0.0000 0.0000 0.0000 28.3111 0.0000 0.0000
# 5 0.0000 0.0000 0.0000 0.0000 28.6884 0.0000
# 6 0.0000 0.0000 0.0000 0.0000 0.0000 24.6975
#
#
#
# Elastic Compliance Matrix: (Units=1/GPa)
#
#
# Indices 1 2 3 4 5 6 
#
# 1 0.010534 -0.003893 -0.005873 0.000000 0.000000 0.000000
# 2 -0.003893 0.030255 -0.009015 0.000000 0.000000 0.000000
# 3 -0.005873 -0.009015 0.022192 0.000000 0.000000 0.000000
# 4 0.000000 0.000000 0.000000 0.035322 0.000000 0.000000
# 5 0.000000 0.000000 0.000000 0.000000 0.034857 0.000000
# 6 0.000000 0.000000 0.000000 0.000000 0.000000 0.040490
#
#
# Mechanical properties :
#
#
# Convention : Reuss Voigt Hill
#
# Bulk Modulus (GPa) = 39.33875 51.04657 45.19266
# Shear Modulus (GPa) = 22.75990 25.72672 24.24331
#
# Velocity S-wave (km/s) = 3.57801 3.80407 3.69277
# Velocity P-wave (km/s) = 6.26075 6.92875 6.60320
#
# Compressibility (1/GPa) = 0.02542023
#
# Stress axis : x y z
#
# Youngs Moduli (GPa) = 94.92640 33.05214 45.06228
#
# Poissons Ratio (x) = 0.12866 0.26464
# Poissons Ratio (y) = 0.36953 0.40623
# Poissons Ratio (z) = 0.55748 0.29796
#
# Static dielectric constant tensor:
#      x y z
#    x 1.627530 0.000000 0.000000 
#    y 0.000000 1.596030 0.000000 
#    z 0.000000 0.000000 1.570930 
# 
# From -- ./inp_files/21364.got.cif
#   From: 2010.05.17/outbox.cif.g08.bks.cpg/sg38_11_cif.got.tgz:21364.got - 2010.06.03 18:07:57.
