data_PCOD9358264
_publ_section_title
;
Structure prediction by ZEFSAII (Michael W. Deem and Ramdas Pophale) SiO2 
 PCOD9358264
Probable space group: A M M 2
;
_chemical_formula_sum "Si O2"
_cell_formula_units_Z 64
_cell_length_a 24.327969
_cell_length_b 8.488999
_cell_length_c 15.651004
_cell_angle_alpha 90.000000
_cell_angle_beta 90.000000
_cell_angle_gamma 90.000000
_cell_volume 3232.246982
_symmetry_space_group_name_H-M "A M M 2"
_symmetry_group_IT_number 38
_symmetry_cell_setting 'orthorhombic'
loop_
_space_group_symop_operation_xyz
x,y,z
-x,-y,z
-x,y,z
x,-y,z
x,1/2+y,1/2+z
-x,1/2-y,1/2+z
-x,1/2+y,1/2+z
x,1/2-y,1/2+z
loop_
_atom_site_type_symbol
_atom_site_label
_atom_site_fract_x
_atom_site_fract_y
_atom_site_fract_z
Si Si1 0.174869 0.685630 0.104150
Si Si2 0.639990 0.811814 0.771851
Si Si3 0.938790 0.310689 0.185619
Si Si4 0.762153 0.816770 0.264866
Si Si5 0.562473 0.308301 0.117559
Si Si6 0.176137 0.817693 0.926236
Si Si7 0.564184 0.310120 0.921975
Si Si8 0.938234 0.312944 0.878048
O O1 0.174609 0.500000 0.085187
O O2 0.112356 0.734730 0.127143
O O3 0.210529 0.719410 0.187957
O O4 0.195957 0.775050 0.020854
O O5 0.698897 0.730334 0.775199
O O6 0.605567 0.757133 0.688712
O O7 0.603832 0.770427 0.854499
O O8 0.647643 0.000000 0.766507
O O9 0.934696 0.500000 0.200241
O O10 0.934092 0.226133 0.277086
O O11 0.000000 0.279016 0.150684
O O12 0.793956 0.780383 0.352587
O O13 0.767809 0.000000 0.244192
O O14 0.500000 0.256113 0.137222
O O15 0.561710 0.500000 0.118852
O O16 0.575942 0.262940 0.020187
O O17 0.111570 0.775847 0.922379
O O18 0.184673 0.000000 0.906992
O O19 0.500000 0.272794 0.904762
O O20 0.570043 0.500000 0.916125
O O21 0.932205 0.500000 0.891510
O O22 0.000000 0.266759 0.905151
#
# Coordination Sequence:
#
# PCOD9358264 Si02
#       8
#     8   8   8   8   8   8   8   8
#     4  11  23  41  65  92 122 159 200 248 307 372
#     4  11  22  37  60  88 119 156 202 252 302 361
#     4   9  18  34  59  89 121 156 193 239 297 362
#     4  12  26  45  64  85 119 161 208 261 311 363
#     4   8  16  33  58  87 120 158 195 233 285 351
#     4  12  25  42  64  90 120 159 205 254 307 366
#     4   9  18  35  59  88 123 161 200 242 293 355
#     4  10  20  35  59  90 123 158 197 244 302 365
#
# _framework density 19.800466
#
# number of rings (size 3 to 8) (size 9 to 14) (size 15 to 20)
#    0.000    1.750    1.250    4.500    0.000    3.500 
#    0.000    6.250    0.000    1.500    0.000    0.000 
#    0.000    0.000    0.000    0.000    0.000    0.000 
#
# Total GULP energy -178832.620720 kJ/mol
# GULP energy per Si atom -5588.519397 kJ/mol
# Density = 1.975540 g / cm^3
# Si number density = 19.800466 Si / 1000 Ang^3
#
#
#
# Elastic Constant Matrix: (Units=GPa)
#
#
# Indices 1 2 3 4 5 6 
#
# 1 83.1978 2.5874 37.8040 0.0000 0.0000 0.0000
# 2 2.5874 22.0190 -9.7079 0.0000 0.0000 0.0000
# 3 37.8040 -9.7079 75.7925 0.0000 0.0000 0.0000
# 4 0.0000 0.0000 0.0000 29.4886 0.0000 0.0000
# 5 0.0000 0.0000 0.0000 0.0000 -14.2888 0.0000
# 6 0.0000 0.0000 0.0000 0.0000 0.0000 22.7784
#
#
#
# Elastic Compliance Matrix: (Units=1/GPa)
#
#
# Indices 1 2 3 4 5 6 
#
# 1 0.016211 -0.005797 -0.008829 0.000000 0.000000 0.000000
# 2 -0.005797 0.050207 0.009322 0.000000 0.000000 0.000000
# 3 -0.008829 0.009322 0.018792 0.000000 0.000000 0.000000
# 4 0.000000 0.000000 0.000000 0.033911 0.000000 0.000000
# 5 0.000000 0.000000 0.000000 0.000000 -0.069985 0.000000
# 6 0.000000 0.000000 0.000000 0.000000 0.000000 0.043901
#
#
# Mechanical properties :
#
#
# Convention : Reuss Voigt Hill
#
# Bulk Modulus (GPa) = 13.40434 26.93069 20.16752
# Shear Modulus (GPa) = 38.90688 17.61737 28.26212
#
# Velocity S-wave (km/s) = 4.43758 2.98610 3.78212
# Velocity P-wave (km/s) = 5.74809 5.05169 5.41111
#
# Compressibility (1/GPa) = 0.07460268
#
# Stress axis : x y z
#
# Youngs Moduli (GPa) = 61.68487 19.91762 53.21553
#
# Poissons Ratio (x) = 0.11547 0.46982
# Poissons Ratio (y) = 0.35761 -0.49610
# Poissons Ratio (z) = 0.54459 -0.18568
#
# Static dielectric constant tensor:
#      x y z
#    x 1.692700 0.000000 0.000000 
#    y 0.000000 1.672050 0.000000 
#    z 0.000000 0.000000 1.686920 
# 
# From -- ./inp_files/15870.got.cif
#   From: 2010.05.17/outbox.cif.g08.bks.cpg/sg38_8_cif.got.tgz:15870.got - 2010.06.03 18:07:57.
