data_PCOD9358625
_publ_section_title
;
Structure prediction by ZEFSAII (Michael W. Deem and Ramdas Pophale) SiO2 
 PCOD9358625
Probable space group: A M M 2
;
_chemical_formula_sum "Si O2"
_cell_formula_units_Z 40
_cell_length_a 7.935734
_cell_length_b 12.663121
_cell_length_c 17.226912
_cell_angle_alpha 90.000000
_cell_angle_beta 90.000000
_cell_angle_gamma 90.000000
_cell_volume 1731.152368
_symmetry_space_group_name_H-M "A M M 2"
_symmetry_group_IT_number 38
_symmetry_cell_setting 'orthorhombic'
loop_
_space_group_symop_operation_xyz
x,y,z
-x,-y,z
-x,y,z
x,-y,z
x,1/2+y,1/2+z
-x,1/2-y,1/2+z
-x,1/2+y,1/2+z
x,1/2-y,1/2+z
loop_
_atom_site_type_symbol
_atom_site_label
_atom_site_fract_x
_atom_site_fract_y
_atom_site_fract_z
Si Si1 0.192457 0.615149 0.550480
Si Si2 0.300102 0.000000 0.813653
Si Si3 0.700290 0.885148 0.222330
Si Si4 0.706451 0.732396 0.355323
Si Si5 0.194917 0.500000 0.133218
Si Si6 0.688597 0.833202 0.506119
O O1 0.248848 0.500000 0.522773
O O2 0.198427 0.613355 0.643219
O O3 0.311063 0.710294 0.528585
O O4 0.000000 0.634201 0.525050
O O5 0.234626 0.889489 0.850693
O O6 0.500000 0.000000 0.827784
O O7 0.280563 0.000000 0.718651
O O8 0.500000 0.876332 0.204221
O O9 0.748766 0.787214 0.274478
O O10 0.722270 0.000000 0.261503
O O11 0.500000 0.731553 0.362014
O O12 0.769287 0.815052 0.421217
O O13 0.000000 0.500000 0.151849
O O14 0.232908 0.599433 0.075987
O O15 0.500000 0.875012 0.496802
#
# Coordination Sequence:
#
# PCOD9358625 Si02
#       6
#     8   4   8   8   4   8
#     4  10  21  37  57  85 123 161 198 243 298 364
#     4  10  20  40  66  94 125 162 209 260 311 370
#     4   9  17  32  56  83 111 149 198 247 297 356
#     4   9  20  35  59  90 120 151 197 256 307 356
#     4  12  26  44  64  92 129 170 213 258 313 382
#     4  11  23  39  63  91 122 161 207 258 309 363
#
# _framework density 23.105998
#
# number of rings (size 3 to 8) (size 9 to 14) (size 15 to 20)
#    0.000    2.000    0.000    3.300    2.800    2.800 
#    0.000    4.000    0.000    0.000    0.000    0.000 
#    0.000    0.000    0.000    0.000    0.000    0.000 
#
# Total GULP energy -111513.083702 kJ/mol
# GULP energy per Si atom -5575.654185 kJ/mol
# Density = 2.305341 g / cm^3
# Si number density = 23.105998 Si / 1000 Ang^3
#
#
#
# Elastic Constant Matrix: (Units=GPa)
#
#
# Indices 1 2 3 4 5 6 
#
# 1 34.4055 15.4775 -7.2036 0.0000 0.0000 0.0000
# 2 15.4775 83.0167 -1.0436 0.0000 0.0000 0.0000
# 3 -7.2036 -1.0436 56.8268 0.0000 0.0000 0.0000
# 4 0.0000 0.0000 0.0000 22.9423 0.0000 0.0000
# 5 0.0000 0.0000 0.0000 0.0000 -101.2990 0.0000
# 6 0.0000 0.0000 0.0000 0.0000 0.0000 9.3414
#
#
#
# Elastic Compliance Matrix: (Units=1/GPa)
#
#
# Indices 1 2 3 4 5 6 
#
# 1 0.032621 -0.006031 0.004024 0.000000 0.000000 0.000000
# 2 -0.006031 0.013164 -0.000523 0.000000 0.000000 0.000000
# 3 0.004024 -0.000523 0.018098 0.000000 0.000000 0.000000
# 4 0.000000 0.000000 0.000000 0.043588 0.000000 0.000000
# 5 0.000000 0.000000 0.000000 0.000000 -0.009872 0.000000
# 6 0.000000 0.000000 0.000000 0.000000 0.000000 0.107051
#
#
# Mechanical properties :
#
#
# Convention : Reuss Voigt Hill
#
# Bulk Modulus (GPa) = 17.00006 20.96771 18.98389
# Shear Modulus (GPa) = 21.80395 -2.66851 9.56772
#
# Velocity S-wave (km/s) = 3.07522 -1.07583 2.03710
# Velocity P-wave (km/s) = 4.47020 2.74792 3.71038
#
# Compressibility (1/GPa) = 0.05882331
#
# Stress axis : x y z
#
# Youngs Moduli (GPa) = 30.65517 75.96674 55.25505
#
# Poissons Ratio (x) = 0.45817 -0.22237
# Poissons Ratio (y) = 0.18489 0.02889
# Poissons Ratio (z) = -0.12337 0.03972
#
# Static dielectric constant tensor:
#      x y z
#    x 2.240600 0.000000 0.000000 
#    y 0.000000 1.927520 0.000000 
#    z 0.000000 0.000000 1.942230 
# 
# From -- ./inp_files/19484.got.cif
#   From: 2010.05.17/outbox.cif.g08.bks.cpg/sg38_10_cif.got.tgz:19484.got - 2010.06.03 18:07:57.
