data_PCOD9358028
_publ_section_title
;
Structure prediction by ZEFSAII (Michael W. Deem and Ramdas Pophale) SiO2 
 PCOD9358028
Probable space group: A M M 2
;
_chemical_formula_sum "Si O2"
_cell_formula_units_Z 48
_cell_length_a 7.837148
_cell_length_b 9.389221
_cell_length_c 35.651749
_cell_angle_alpha 90.000000
_cell_angle_beta 90.000000
_cell_angle_gamma 90.000000
_cell_volume 2623.423775
_symmetry_space_group_name_H-M "A M M 2"
_symmetry_group_IT_number 38
_symmetry_cell_setting 'orthorhombic'
loop_
_space_group_symop_operation_xyz
x,y,z
-x,-y,z
-x,y,z
x,-y,z
x,1/2+y,1/2+z
-x,1/2-y,1/2+z
-x,1/2+y,1/2+z
x,1/2-y,1/2+z
loop_
_atom_site_type_symbol
_atom_site_label
_atom_site_fract_x
_atom_site_fract_y
_atom_site_fract_z
Si Si1 0.705056 0.660659 0.939950
Si Si2 0.500000 0.327046 0.231243
Si Si3 0.196027 0.326813 0.596201
Si Si4 0.706883 0.334739 0.367707
Si Si5 0.794617 0.661938 0.513107
Si Si6 0.810319 0.673094 0.284865
Si Si7 0.500000 0.827413 0.151785
O O1 0.500000 0.655075 0.936566
O O2 0.771560 0.500000 0.940935
O O3 0.767352 0.745394 0.903362
O O4 0.744117 0.742481 0.978235
O O5 0.500000 0.500000 0.227116
O O6 0.335073 0.284511 0.255777
O O7 0.500000 0.250813 0.191402
O O8 0.192094 0.500000 0.594836
O O9 0.255851 0.283092 0.554407
O O10 0.332176 0.287108 0.627681
O O11 0.000000 0.279541 0.602911
O O12 0.500000 0.331769 0.366265
O O13 0.758152 0.500000 0.372300
O O14 0.771941 0.281059 0.327501
O O15 0.729740 0.500000 0.507973
O O16 0.000000 0.655118 0.514391
O O17 0.805186 0.500000 0.286051
O O18 0.000000 0.717664 0.273607
O O19 0.500000 0.000000 0.156229
#
# Coordination Sequence:
#
# PCOD9358028 Si02
#       7
#     8   4   8   8   8   8   4
#     4  10  21  33  46  72 109 145 174 206 256 312
#     4  10  20  36  54  77 108 133 161 208 257 306
#     4   8  16  32  53  78 105 131 169 218 257 297
#     4   9  16  30  51  72  96 131 176 222 258 292
#     4   9  18  33  53  75  98 130 176 225 262 296
#     4   9  17  31  54  79 101 131 171 213 257 302
#     4  10  20  34  56  81 102 135 169 200 257 314
#
# _framework density 18.296700000000001
#
# number of rings (size 3 to 8) (size 9 to 14) (size 15 to 20)
#    0.000    2.833    0.833    1.500    1.167    2.667 
#    0.000    3.333    0.000    2.000    0.000    0.000 
#    0.000    0.000    0.000    0.000    0.000    0.000 
#
# Total GULP energy -133811.853875 kJ/mol
# GULP energy per Si atom -5575.493911 kJ/mol
# Density = 1.825506 g / cm^3
# Si number density = 18.296700 Si / 1000 Ang^3
#
#
#
# Elastic Constant Matrix: (Units=GPa)
#
#
# Indices 1 2 3 4 5 6 
#
# 1 88.3065 29.2469 79.9409 0.0000 0.0000 0.0000
# 2 29.2469 51.1815 63.9989 0.0000 0.0000 0.0000
# 3 79.9409 63.9989 202.3792 0.0000 0.0000 0.0000
# 4 0.0000 0.0000 0.0000 28.5920 0.0000 0.0000
# 5 0.0000 0.0000 0.0000 0.0000 -35.3793 0.0000
# 6 0.0000 0.0000 0.0000 0.0000 0.0000 8.9838
#
#
#
# Elastic Compliance Matrix: (Units=1/GPa)
#
#
# Indices 1 2 3 4 5 6 
#
# 1 0.017787 -0.002280 -0.006305 0.000000 0.000000 0.000000
# 2 -0.002280 0.032610 -0.009412 0.000000 0.000000 0.000000
# 3 -0.006305 -0.009412 0.010408 0.000000 0.000000 0.000000
# 4 0.000000 0.000000 0.000000 0.034975 0.000000 0.000000
# 5 0.000000 0.000000 0.000000 0.000000 -0.028265 0.000000
# 6 0.000000 0.000000 0.000000 0.000000 0.000000 0.111312
#
#
# Mechanical properties :
#
#
# Convention : Reuss Voigt Hill
#
# Bulk Modulus (GPa) = 40.30427 76.47116 58.38771
# Shear Modulus (GPa) = 22.41246 11.68466 17.04856
#
# Velocity S-wave (km/s) = 3.50372 2.52984 3.05582
# Velocity P-wave (km/s) = 6.20033 7.10065 6.66571
#
# Compressibility (1/GPa) = 0.02481127
#
# Stress axis : x y z
#
# Youngs Moduli (GPa) = 56.22082 30.66560 96.08091
#
# Poissons Ratio (x) = 0.06993 0.60577
# Poissons Ratio (y) = 0.12820 0.90427
# Poissons Ratio (z) = 0.35446 0.28861
#
# Static dielectric constant tensor:
#      x y z
#    x 1.663430 0.000000 0.000000 
#    y 0.000000 1.620440 0.000000 
#    z 0.000000 0.000000 1.610480 
# 
# From -- ./inp_files/24314.got.cif
#   From: 2010.05.17/outbox.cif.g08.bks.cpg/sg38_13_cif.got.tgz:24314.got - 2010.06.03 18:07:57.
