data_PCOD9358792
_publ_section_title
;
Structure prediction by ZEFSAII (Michael W. Deem and Ramdas Pophale) SiO2 
 PCOD9358792
Probable space group: A M M 2
;
_chemical_formula_sum "Si O2"
_cell_formula_units_Z 56
_cell_length_a 19.937338
_cell_length_b 8.710504
_cell_length_c 16.387121
_cell_angle_alpha 90.000000
_cell_angle_beta 90.000000
_cell_angle_gamma 90.000000
_cell_volume 2845.857281
_symmetry_space_group_name_H-M "A M M 2"
_symmetry_group_IT_number 38
_symmetry_cell_setting 'orthorhombic'
loop_
_space_group_symop_operation_xyz
x,y,z
-x,-y,z
-x,y,z
x,-y,z
x,1/2+y,1/2+z
-x,1/2-y,1/2+z
-x,1/2+y,1/2+z
x,1/2-y,1/2+z
loop_
_atom_site_type_symbol
_atom_site_label
_atom_site_fract_x
_atom_site_fract_y
_atom_site_fract_z
Si Si1 0.652991 0.685027 0.713170
Si Si2 0.422569 0.687010 0.879020
Si Si3 0.656402 0.816174 0.542015
Si Si4 0.214490 0.316308 0.468368
Si Si5 0.074441 0.683403 0.224715
Si Si6 0.073804 0.815501 0.042928
Si Si7 0.789355 0.816731 0.292644
O O1 0.648339 0.500000 0.707476
O O2 0.613180 0.734559 0.794662
O O3 0.629115 0.756525 0.628333
O O4 0.731119 0.726086 0.728792
O O5 0.500000 0.734735 0.879944
O O6 0.420488 0.500000 0.879261
O O7 0.385069 0.736363 0.961941
O O8 0.731501 0.752325 0.530159
O O9 0.657484 0.000000 0.542234
O O10 0.218797 0.500000 0.469487
O O11 0.138279 0.271455 0.490561
O O12 0.230665 0.252169 0.379468
O O13 0.079149 0.500000 0.231259
O O14 0.077864 0.734416 0.130411
O O15 0.137498 0.757296 0.269093
O O16 0.000000 0.729974 0.255109
O O17 0.000000 0.781544 0.006942
O O18 0.077168 0.000000 0.055731
O O19 0.789981 0.000000 0.298310
#
# Coordination Sequence:
#
# PCOD9358792 Si02
#       7
#     8   8   8   8   8   8   8
#     4  10  21  39  61  88 120 158 200 244 296 356
#     4   9  19  39  64  88 121 162 198 238 295 358
#     4  11  22  38  61  91 122 158 201 247 297 355
#     4  11  22  36  57  84 115 153 196 247 301 354
#     4  10  21  36  54  79 111 148 193 244 296 353
#     4   9  19  36  55  76 106 146 191 240 295 353
#     4  11  22  37  57  82 114 152 198 248 299 355
#
# _framework density 19.677727000000001
#
# number of rings (size 3 to 8) (size 9 to 14) (size 15 to 20)
#    0.000    1.857    1.429    2.571    0.000    7.714 
#    0.000    1.429    0.000    3.000    0.000    0.000 
#    0.000    0.000    0.000    0.000    0.000    0.000 
#
# Total GULP energy -156351.283593 kJ/mol
# GULP energy per Si atom -5583.974414 kJ/mol
# Density = 1.963294 g / cm^3
# Si number density = 19.677727 Si / 1000 Ang^3
#
#
#
# Elastic Constant Matrix: (Units=GPa)
#
#
# Indices 1 2 3 4 5 6 
#
# 1 119.8879 28.7425 58.9875 0.0000 0.0000 0.0000
# 2 28.7425 20.6239 21.3097 0.0000 0.0000 0.0000
# 3 58.9875 21.3097 127.7475 0.0000 0.0000 0.0000
# 4 0.0000 0.0000 0.0000 27.8874 0.0000 0.0000
# 5 0.0000 0.0000 0.0000 0.0000 20.5427 0.0000
# 6 0.0000 0.0000 0.0000 0.0000 0.0000 12.6704
#
#
#
# Elastic Compliance Matrix: (Units=1/GPa)
#
#
# Indices 1 2 3 4 5 6 
#
# 1 0.013944 -0.015441 -0.003863 0.000000 0.000000 0.000000
# 2 -0.015441 0.075685 -0.005495 0.000000 0.000000 0.000000
# 3 -0.003863 -0.005495 0.010528 0.000000 0.000000 0.000000
# 4 0.000000 0.000000 0.000000 0.035859 0.000000 0.000000
# 5 0.000000 0.000000 0.000000 0.000000 0.048679 0.000000
# 6 0.000000 0.000000 0.000000 0.000000 0.000000 0.078924
#
#
# Mechanical properties :
#
#
# Convention : Reuss Voigt Hill
#
# Bulk Modulus (GPa) = 19.77899 54.03763 36.90831
# Shear Modulus (GPa) = 15.14830 22.83473 18.99152
#
# Velocity S-wave (km/s) = 2.77757 3.41021 3.11002
# Velocity P-wave (km/s) = 4.51219 6.55950 5.62969
#
# Compressibility (1/GPa) = 0.05055870
#
# Stress axis : x y z
#
# Youngs Moduli (GPa) = 71.71717 13.21263 94.98324
#
# Poissons Ratio (x) = 0.20402 0.36689
# Poissons Ratio (y) = 1.10742 0.52193
# Poissons Ratio (z) = 0.27702 0.07260
#
# Static dielectric constant tensor:
#      x y z
#    x 1.731320 0.000000 0.000000 
#    y 0.000000 1.662870 0.000000 
#    z 0.000000 0.000000 1.701720 
# 
# From -- ./inp_files/15437.got.cif
#   From: 2010.05.17/outbox.cif.g08.bks.cpg/sg38_8_cif.got.tgz:15437.got - 2010.06.03 18:07:57.
