data_PCOD9358770
_publ_section_title
;
Structure prediction by ZEFSAII (Michael W. Deem and Ramdas Pophale) SiO2 
 PCOD9358770
Probable space group: A M M 2
;
_chemical_formula_sum "Si O2"
_cell_formula_units_Z 64
_cell_length_a 21.001333
_cell_length_b 8.410923
_cell_length_c 19.097961
_cell_angle_alpha 90.000000
_cell_angle_beta 90.000000
_cell_angle_gamma 90.000000
_cell_volume 3373.475190
_symmetry_space_group_name_H-M "A M M 2"
_symmetry_group_IT_number 38
_symmetry_cell_setting 'orthorhombic'
loop_
_space_group_symop_operation_xyz
x,y,z
-x,-y,z
-x,y,z
x,-y,z
x,1/2+y,1/2+z
-x,1/2-y,1/2+z
-x,1/2+y,1/2+z
x,1/2-y,1/2+z
loop_
_atom_site_type_symbol
_atom_site_label
_atom_site_fract_x
_atom_site_fract_y
_atom_site_fract_z
Si Si1 0.188198 0.690061 0.350610
Si Si2 0.810094 0.309598 0.692511
Si Si3 0.072541 0.307791 0.598659
Si Si4 0.427989 0.693749 0.354206
Si Si5 0.571971 0.693752 0.193041
Si Si6 0.308872 0.809543 0.602430
Si Si7 0.926834 0.690450 0.942696
Si Si8 0.692026 0.307678 0.444105
O O1 0.191359 0.500000 0.346919
O O2 0.192824 0.756412 0.272580
O O3 0.123022 0.740408 0.388028
O O4 0.247334 0.745835 0.398530
O O5 0.808512 0.500000 0.689475
O O6 0.875544 0.255289 0.655115
O O7 0.750926 0.244027 0.648555
O O8 0.072958 0.500000 0.596475
O O9 0.089554 0.246288 0.521315
O O10 0.000000 0.256234 0.614365
O O11 0.500000 0.744698 0.372314
O O12 0.427825 0.500000 0.355039
O O13 0.414667 0.740838 0.273622
O O14 0.372926 0.747811 0.406391
O O15 0.500000 0.744613 0.175068
O O16 0.572237 0.500000 0.192307
O O17 0.626475 0.748702 0.140422
O O18 0.303772 0.747987 0.523623
O O19 0.310494 0.000000 0.601086
O O20 0.924460 0.500000 0.939978
O O21 0.000000 0.741060 0.929121
O O22 0.691957 0.500000 0.443710
#
# Coordination Sequence:
#
# PCOD9358770 Si02
#       8
#     8   8   8   8   8   8   8   8
#     4  11  23  38  57  80 108 144 185 228 272 322
#     4  11  23  38  57  81 110 143 179 225 278 327
#     4   9  19  37  59  81 107 141 179 218 264 320
#     4   8  14  28  52  77 101 135 178 220 264 318
#     4   8  15  30  52  77 105 139 180 224 270 320
#     4  11  22  35  54  80 109 143 183 225 270 324
#     4  10  21  37  58  84 113 144 179 221 268 319
#     4  10  21  36  53  77 109 142 179 224 272 321
#
# _framework density 18.971533999999998
#
# number of rings (size 3 to 8) (size 9 to 14) (size 15 to 20)
#    0.000    2.250    0.000    3.750    0.000    8.750 
#    0.000    1.250    0.000    1.125    0.000    3.500 
#    0.000    0.000    0.000    0.000    0.000    0.000 
#
# Total GULP energy -178682.133876 kJ/mol
# GULP energy per Si atom -5583.816684 kJ/mol
# Density = 1.892835 g / cm^3
# Si number density = 18.971534 Si / 1000 Ang^3
#
#
#
# Elastic Constant Matrix: (Units=GPa)
#
#
# Indices 1 2 3 4 5 6 
#
# 1 137.7193 18.5935 115.4866 0.0000 0.0000 0.0000
# 2 18.5935 12.4932 15.7925 0.0000 0.0000 0.0000
# 3 115.4866 15.7925 166.7705 0.0000 0.0000 0.0000
# 4 0.0000 0.0000 0.0000 29.3490 0.0000 0.0000
# 5 0.0000 0.0000 0.0000 0.0000 44.8845 0.0000
# 6 0.0000 0.0000 0.0000 0.0000 0.0000 -1.8606
#
#
#
# Elastic Compliance Matrix: (Units=1/GPa)
#
#
# Indices 1 2 3 4 5 6 
#
# 1 0.019079 -0.013284 -0.011954 0.000000 0.000000 0.000000
# 2 -0.013284 0.100177 -0.000287 0.000000 0.000000 0.000000
# 3 -0.011954 -0.000287 0.014301 0.000000 0.000000 0.000000
# 4 0.000000 0.000000 0.000000 0.034073 0.000000 0.000000
# 5 0.000000 0.000000 0.000000 0.000000 0.022279 0.000000
# 6 0.000000 0.000000 0.000000 0.000000 0.000000 -0.537456
#
#
# Mechanical properties :
#
#
# Convention : Reuss Voigt Hill
#
# Bulk Modulus (GPa) = 12.12019 68.52535 40.32277
# Shear Modulus (GPa) = -18.58781 25.61526 3.51373
#
# Velocity S-wave (km/s) = -3.13353 3.67849 1.36240
# Velocity P-wave (km/s) = 2.58641 7.36479 4.87600
#
# Compressibility (1/GPa) = 0.08250692
#
# Stress axis : x y z
#
# Youngs Moduli (GPa) = 52.41459 9.98231 69.92350
#
# Poissons Ratio (x) = 0.13260 0.83585
# Poissons Ratio (y) = 0.69627 0.02010
# Poissons Ratio (z) = 0.62655 0.00287
#
# Static dielectric constant tensor:
#      x y z
#    x 1.664500 0.000000 0.000000 
#    y 0.000000 1.661890 0.000000 
#    z 0.000000 0.000000 1.615600 
# 
# From -- ./inp_files/18964.got.cif
#   From: 2010.05.17/outbox.cif.g08.bks.cpg/sg38_10_cif.got.tgz:18964.got - 2010.06.03 18:07:57.
