data_PCOD9358776
_publ_section_title
;
Structure prediction by ZEFSAII (Michael W. Deem and Ramdas Pophale) SiO2 
 PCOD9358776
Probable space group: A M M 2
;
_chemical_formula_sum "Si O2"
_cell_formula_units_Z 56
_cell_length_a 7.553832
_cell_length_b 24.554780
_cell_length_c 14.332917
_cell_angle_alpha 90.000000
_cell_angle_beta 90.000000
_cell_angle_gamma 90.000000
_cell_volume 2658.507899
_symmetry_space_group_name_H-M "A M M 2"
_symmetry_group_IT_number 38
_symmetry_cell_setting 'orthorhombic'
loop_
_space_group_symop_operation_xyz
x,y,z
-x,-y,z
-x,y,z
x,-y,z
x,1/2+y,1/2+z
-x,1/2-y,1/2+z
-x,1/2+y,1/2+z
x,1/2-y,1/2+z
loop_
_atom_site_type_symbol
_atom_site_label
_atom_site_fract_x
_atom_site_fract_y
_atom_site_fract_z
Si Si1 0.710607 0.168222 0.697340
Si Si2 0.784212 0.437353 0.725799
Si Si3 0.213416 0.938572 0.014244
Si Si4 0.213496 0.561029 0.088401
Si Si5 0.291519 0.768423 0.518651
Si Si6 0.710497 0.668619 0.405001
Si Si7 0.785765 0.625774 0.905750
O O1 0.500000 0.177676 0.701110
O O2 0.735047 0.106113 0.663840
O O3 0.784422 0.206353 0.614364
O O4 0.783662 0.176297 0.800830
O O5 0.733786 0.500000 0.747408
O O6 0.726807 0.425037 0.620080
O O7 0.723882 0.396076 0.805795
O O8 0.000000 0.436312 0.726203
O O9 0.000000 0.939893 0.016246
O O10 0.274092 0.000000 0.991763
O O11 0.266039 0.892174 0.942588
O O12 0.278420 0.500000 0.105493
O O13 0.000000 0.559381 0.086631
O O14 0.271063 0.584179 0.987631
O O15 0.500000 0.760149 0.536004
O O16 0.215881 0.712439 0.478582
O O17 0.273601 0.814926 0.439529
O O18 0.500000 0.678645 0.399304
O O19 0.000000 0.626304 0.904761
#
# Coordination Sequence:
#
# PCOD9358776 Si02
#       7
#     8   8   8   8   8   8   8
#     4   9  19  35  51  69  96 128 161 197 240 290
#     4   8  14  27  48  73 101 131 160 193 239 291
#     4   9  19  35  53  74 100 128 159 197 240 285
#     4   9  17  29  47  73 102 130 162 200 239 279
#     4   9  19  35  51  69  97 129 160 198 242 286
#     4  10  21  36  54  73  94 126 163 197 239 289
#     4   9  16  28  49  75 100 128 163 200 237 281
#
# _framework density 21.064447999999999
#
# number of rings (size 3 to 8) (size 9 to 14) (size 15 to 20)
#    0.000    3.000    0.000    1.286    0.000    5.143 
#    0.000    5.000    0.000    2.143    0.000    0.000 
#    0.000    0.000    0.000    0.000    0.000    0.000 
#
# Total GULP energy -156207.861827 kJ/mol
# GULP energy per Si atom -5578.852208 kJ/mol
# Density = 2.101650 g / cm^3
# Si number density = 21.064448 Si / 1000 Ang^3
#
#
#
# Elastic Constant Matrix: (Units=GPa)
#
#
# Indices 1 2 3 4 5 6 
#
# 1 48.9203 -0.7079 2.1313 0.0000 0.0000 0.0000
# 2 -0.7079 122.0644 83.7170 0.0000 0.0000 0.0000
# 3 2.1313 83.7170 125.1348 0.0000 0.0000 0.0000
# 4 0.0000 0.0000 0.0000 13.3941 0.0000 0.0000
# 5 0.0000 0.0000 0.0000 0.0000 12.8277 0.0000
# 6 0.0000 0.0000 0.0000 0.0000 0.0000 18.9732
#
#
#
# Elastic Compliance Matrix: (Units=1/GPa)
#
#
# Indices 1 2 3 4 5 6 
#
# 1 0.020485 0.000662 -0.000792 0.000000 0.000000 0.000000
# 2 0.000662 0.015160 -0.010153 0.000000 0.000000 0.000000
# 3 -0.000792 -0.010153 0.014798 0.000000 0.000000 0.000000
# 4 0.000000 0.000000 0.000000 0.074660 0.000000 0.000000
# 5 0.000000 0.000000 0.000000 0.000000 0.077956 0.000000
# 6 0.000000 0.000000 0.000000 0.000000 0.000000 0.052706
#
#
# Mechanical properties :
#
#
# Convention : Reuss Voigt Hill
#
# Bulk Modulus (GPa) = 33.47129 51.82225 42.64677
# Shear Modulus (GPa) = 17.46478 23.10428 20.28453
#
# Velocity S-wave (km/s) = 2.88255 3.31545 3.10655
# Velocity P-wave (km/s) = 5.19647 6.26988 5.75824
#
# Compressibility (1/GPa) = 0.02987635
#
# Stress axis : x y z
#
# Youngs Moduli (GPa) = 48.81506 65.96335 67.57809
#
# Poissons Ratio (x) = -0.04365 0.05349
# Poissons Ratio (y) = -0.03230 0.68615
# Poissons Ratio (z) = 0.03864 0.66976
#
# Static dielectric constant tensor:
#      x y z
#    x 1.813300 0.000000 0.000000 
#    y 0.000000 1.730590 0.000000 
#    z 0.000000 0.000000 1.757840 
# 
# From -- ./inp_files/9378.got.cif
#   From: 2010.05.17/outbox.cif.g08.bks.cpg/sg38_5_cif.got.tgz:9378.got - 2010.06.03 18:07:57.
