data_PCOD9358298
_publ_section_title
;
Structure prediction by ZEFSAII (Michael W. Deem and Ramdas Pophale) SiO2 
 PCOD9358298
Probable space group: A M M 2
;
_chemical_formula_sum "Si O2"
_cell_formula_units_Z 64
_cell_length_a 24.692079
_cell_length_b 7.694992
_cell_length_c 16.067766
_cell_angle_alpha 90.000000
_cell_angle_beta 90.000000
_cell_angle_gamma 90.000000
_cell_volume 3052.961508
_symmetry_space_group_name_H-M "A M M 2"
_symmetry_group_IT_number 38
_symmetry_cell_setting 'orthorhombic'
loop_
_space_group_symop_operation_xyz
x,y,z
-x,-y,z
-x,y,z
x,-y,z
x,1/2+y,1/2+z
-x,1/2-y,1/2+z
-x,1/2+y,1/2+z
x,1/2-y,1/2+z
loop_
_atom_site_type_symbol
_atom_site_label
_atom_site_fract_x
_atom_site_fract_y
_atom_site_fract_z
Si Si1 0.245294 0.705664 0.003330
Si Si2 0.940869 0.208812 0.406184
Si Si3 0.629261 0.293036 0.508477
Si Si4 0.174439 0.290431 0.664219
Si Si5 0.438016 0.291075 0.351660
Si Si6 0.561967 0.791053 0.165273
Si Si7 0.940732 0.790829 0.102399
Si Si8 0.824489 0.713209 0.847280
O O1 0.247233 0.500000 0.993123
O O2 0.212523 0.743071 0.087541
O O3 0.306769 0.767041 0.008103
O O4 0.212566 0.775961 0.923302
O O5 0.935813 0.249140 0.504356
O O6 0.886562 0.270874 0.361751
O O7 0.000000 0.274906 0.378213
O O8 0.941748 0.000000 0.396699
O O9 0.620098 0.500000 0.508580
O O10 0.600201 0.224123 0.425210
O O11 0.600204 0.224171 0.591735
O O12 0.172023 0.500000 0.665970
O O13 0.113237 0.225670 0.647111
O O14 0.193727 0.232849 0.755289
O O15 0.500000 0.226281 0.360573
O O16 0.440129 0.500000 0.357695
O O17 0.418893 0.249725 0.258493
O O18 0.500000 0.726118 0.156424
O O19 0.559833 0.000000 0.159156
O O20 0.000000 0.726304 0.130601
O O21 0.941309 0.000000 0.111389
O O22 0.824608 0.500000 0.849825
#
# Coordination Sequence:
#
# PCOD9358298 Si02
#       8
#     8   8   8   8   8   8   8   8
#     4  11  23  39  55  75 106 139 180 230 271 309
#     4   9  16  29  52  77 102 134 170 209 259 319
#     4  10  21  37  57  79 107 145 185 218 260 318
#     4  10  20  36  57  77 102 139 178 217 266 323
#     4   9  18  34  57  85 116 146 177 217 262 311
#     4   9  18  34  57  84 113 144 177 215 261 314
#     4   9  17  29  49  78 107 132 163 210 264 316
#     4   9  19  35  54  76 102 134 174 218 265 315
#
# _framework density 20.963251
#
# number of rings (size 3 to 8) (size 9 to 14) (size 15 to 20)
#    0.000    2.500    1.250    0.750    0.000    4.000 
#    0.000    8.125    0.000    3.750    0.000    3.500 
#    0.000    0.000    0.000    0.000    0.000    0.000 
#
# Total GULP energy -178600.302386 kJ/mol
# GULP energy per Si atom -5581.259450 kJ/mol
# Density = 2.091554 g / cm^3
# Si number density = 20.963251 Si / 1000 Ang^3
#
#
#
# Elastic Constant Matrix: (Units=GPa)
#
#
# Indices 1 2 3 4 5 6 
#
# 1 130.9022 0.7003 105.0899 0.0000 0.0000 0.0000
# 2 0.7003 34.5266 0.5430 0.0000 0.0000 0.0000
# 3 105.0899 0.5430 175.5873 0.0000 0.0000 0.0000
# 4 0.0000 0.0000 0.0000 19.9816 0.0000 0.0000
# 5 0.0000 0.0000 0.0000 0.0000 -16.3675 0.0000
# 6 0.0000 0.0000 0.0000 0.0000 0.0000 8.0873
#
#
#
# Elastic Compliance Matrix: (Units=1/GPa)
#
#
# Indices 1 2 3 4 5 6 
#
# 1 0.014706 -0.000160 -0.008801 0.000000 0.000000 0.000000
# 2 -0.000160 0.028966 0.000006 0.000000 0.000000 0.000000
# 3 -0.008801 0.000006 0.010963 0.000000 0.000000 0.000000
# 4 0.000000 0.000000 0.000000 0.050046 0.000000 0.000000
# 5 0.000000 0.000000 0.000000 0.000000 -0.061097 0.000000
# 6 0.000000 0.000000 0.000000 0.000000 0.000000 0.123650
#
#
# Mechanical properties :
#
#
# Convention : Reuss Voigt Hill
#
# Bulk Modulus (GPa) = 27.22930 61.52029 44.37479
# Shear Modulus (GPa) = 25.33120 17.98582 21.65851
#
# Velocity S-wave (km/s) = 3.47992 2.93229 3.21778
# Velocity P-wave (km/s) = 5.40035 6.39335 5.91771
#
# Compressibility (1/GPa) = 0.03672515
#
# Stress axis : x y z
#
# Youngs Moduli (GPa) = 68.00126 34.52287 91.21982
#
# Poissons Ratio (x) = 0.00552 0.80282
# Poissons Ratio (y) = 0.01087 -0.00056
# Poissons Ratio (z) = 0.59847 -0.00021
#
# Static dielectric constant tensor:
#      x y z
#    x 1.748860 0.000000 0.000000 
#    y 0.000000 1.815850 0.000000 
#    z 0.000000 0.000000 1.747670 
# 
# From -- ./inp_files/15831.got.cif
#   From: 2010.05.17/outbox.cif.g08.bks.cpg/sg38_8_cif.got.tgz:15831.got - 2010.06.03 18:07:57.
