data_PCOD9358455
_publ_section_title
;
Structure prediction by ZEFSAII (Michael W. Deem and Ramdas Pophale) SiO2 
 PCOD9358455
Probable space group: A M M 2
;
_chemical_formula_sum "Si O2"
_cell_formula_units_Z 38
_cell_length_a 13.872707
_cell_length_b 10.406056
_cell_length_c 14.825446
_cell_angle_alpha 90.000000
_cell_angle_beta 90.000000
_cell_angle_gamma 90.000000
_cell_volume 2140.203844
_symmetry_space_group_name_H-M "A M M 2"
_symmetry_group_IT_number 38
_symmetry_cell_setting 'orthorhombic'
loop_
_space_group_symop_operation_xyz
x,y,z
-x,-y,z
-x,y,z
x,-y,z
x,1/2+y,1/2+z
-x,1/2-y,1/2+z
-x,1/2+y,1/2+z
x,1/2-y,1/2+z
loop_
_atom_site_type_symbol
_atom_site_label
_atom_site_fract_x
_atom_site_fract_y
_atom_site_fract_z
Si Si1 0.111174 0.652342 0.082440
Si Si2 0.267028 0.754933 0.945305
Si Si3 0.388214 0.500000 0.506805
Si Si4 0.168114 0.709954 0.760793
Si Si5 0.000000 0.500000 0.796272
Si Si6 0.610767 0.500000 0.907438
Si Si7 0.679012 0.500000 0.707522
O O1 0.125691 0.500000 0.069575
O O2 0.129152 0.692908 0.185650
O O3 0.000000 0.681587 0.058861
O O4 0.184188 0.728912 0.018872
O O5 0.215438 0.772660 0.848802
O O6 0.332058 0.626333 0.939313
O O7 0.332940 0.874833 0.970656
O O8 0.500000 0.500000 0.480241
O O9 0.378664 0.500000 0.615227
O O10 0.084575 0.612255 0.791964
O O11 0.250942 0.623264 0.713992
O O12 0.500000 0.500000 0.937181
O O13 0.616657 0.500000 0.798495
#
# Coordination Sequence:
#
# PCOD9358455 Si02
#       7
#     8   8   4   8   2   4   4
#     4  11  23  38  61  90 126 163 202 244 303 370
#     4  11  24  40  62  92 123 161 204 257 307 368
#     4  12  24  41  63  92 125 158 204 269 325 360
#     4  10  21  38  61  87 126 159 201 249 300 365
#     4  10  20  36  68  90 116 166 212 244 302 354
#     4  10  20  41  65  87 115 162 212 256 309 373
#     4   9  19  37  63  86 115 154 205 258 302 358
#
# _framework density 17.755317999999999
#
# number of rings (size 3 to 8) (size 9 to 14) (size 15 to 20)
#    0.000    1.474    4.211    1.579    2.947    0.000 
#    0.000    0.000    0.000    1.263    0.000    0.000 
#    0.000    0.000    0.000    0.000    0.000    0.000 
#
# Total GULP energy -105829.946177 kJ/mol
# GULP energy per Si atom -5569.997167 kJ/mol
# Density = 1.771491 g / cm^3
# Si number density = 17.755318 Si / 1000 Ang^3
#
#
#
# Elastic Constant Matrix: (Units=GPa)
#
#
# Indices 1 2 3 4 5 6 
#
# 1 148.7242 68.1798 55.7054 0.0000 0.0000 0.0000
# 2 68.1798 107.9049 49.7671 0.0000 0.0000 0.0000
# 3 55.7054 49.7671 92.7309 0.0000 0.0000 0.0000
# 4 0.0000 0.0000 0.0000 21.9423 0.0000 0.0000
# 5 0.0000 0.0000 0.0000 0.0000 11.7381 0.0000
# 6 0.0000 0.0000 0.0000 0.0000 0.0000 24.8614
#
#
#
# Elastic Compliance Matrix: (Units=1/GPa)
#
#
# Indices 1 2 3 4 5 6 
#
# 1 0.010287 -0.004850 -0.003577 0.000000 0.000000 0.000000
# 2 -0.004850 0.014603 -0.004923 0.000000 0.000000 0.000000
# 3 -0.003577 -0.004923 0.015575 0.000000 0.000000 0.000000
# 4 0.000000 0.000000 0.000000 0.045574 0.000000 0.000000
# 5 0.000000 0.000000 0.000000 0.000000 0.085192 0.000000
# 6 0.000000 0.000000 0.000000 0.000000 0.000000 0.040223
#
#
# Mechanical properties :
#
#
# Convention : Reuss Voigt Hill
#
# Bulk Modulus (GPa) = 72.65319 77.40718 75.03018
# Shear Modulus (GPa) = 20.59798 23.42224 22.01011
#
# Velocity S-wave (km/s) = 3.40972 3.63597 3.52466
# Velocity P-wave (km/s) = 7.51728 7.83060 7.67554
#
# Compressibility (1/GPa) = 0.01376402
#
# Stress axis : x y z
#
# Youngs Moduli (GPa) = 97.21015 68.47998 64.20667
#
# Poissons Ratio (x) = 0.33215 0.22964
# Poissons Ratio (y) = 0.47150 0.31612
# Poissons Ratio (z) = 0.34768 0.33715
#
# Static dielectric constant tensor:
#      x y z
#    x 1.591130 0.000000 0.000000 
#    y 0.000000 1.574490 0.000000 
#    z 0.000000 0.000000 1.609030 
# 
# From -- ./inp_files/17490.got.cif
#   From: 2010.05.17/outbox.cif.g08.bks.cpg/sg38_9_cif.got.tgz:17490.got - 2010.06.03 18:07:57.
