data_PCOD9358206
_publ_section_title
;
Structure prediction by ZEFSAII (Michael W. Deem and Ramdas Pophale) SiO2 
 PCOD9358206
Probable space group: A M M 2
;
_chemical_formula_sum "Si O2"
_cell_formula_units_Z 64
_cell_length_a 15.986129
_cell_length_b 7.648142
_cell_length_c 24.494088
_cell_angle_alpha 90.000000
_cell_angle_beta 90.000000
_cell_angle_gamma 90.000000
_cell_volume 2994.749697
_symmetry_space_group_name_H-M "A M M 2"
_symmetry_group_IT_number 38
_symmetry_cell_setting 'orthorhombic'
loop_
_space_group_symop_operation_xyz
x,y,z
-x,-y,z
-x,y,z
x,-y,z
x,1/2+y,1/2+z
-x,1/2-y,1/2+z
-x,1/2+y,1/2+z
x,1/2-y,1/2+z
loop_
_atom_site_type_symbol
_atom_site_label
_atom_site_fract_x
_atom_site_fract_y
_atom_site_fract_z
Si Si1 0.151720 0.792936 0.684980
Si Si2 0.407194 0.713977 0.293802
Si Si3 0.091930 0.202633 0.302593
Si Si4 0.756909 0.207978 0.989561
Si Si5 0.655815 0.286588 0.176107
Si Si6 0.593077 0.711516 0.057956
Si Si7 0.907817 0.788871 0.064787
Si Si8 0.744463 0.295482 0.367770
O O1 0.107983 0.713090 0.737743
O O2 0.247514 0.730339 0.679316
O O3 0.107027 0.760065 0.627716
O O4 0.154402 0.000000 0.695177
O O5 0.500000 0.766956 0.311407
O O6 0.404872 0.500000 0.293494
O O7 0.390042 0.768234 0.231376
O O8 0.332322 0.778022 0.332336
O O9 0.170178 0.285222 0.333551
O O10 0.000000 0.278049 0.314792
O O11 0.091605 0.000000 0.318555
O O12 0.755433 0.280769 0.928201
O O13 0.772183 0.000000 0.985618
O O14 0.667943 0.233508 0.018599
O O15 0.831523 0.278768 0.027759
O O16 0.655189 0.500000 0.175214
O O17 0.614450 0.228951 0.119595
O O18 0.500000 0.770770 0.042050
O O19 0.592699 0.500000 0.058581
O O20 0.000000 0.729107 0.046983
O O21 0.906892 0.000000 0.062521
O O22 0.724168 0.500000 0.375296
#
# Coordination Sequence:
#
# PCOD9358206 Si02
#       8
#     8   8   8   8   8   8   8   8
#     4  11  20  34  59  87 112 143 186 233 280 334
#     4   9  16  29  53  83 111 138 174 225 279 326
#     4  11  24  40  58  83 116 152 185 225 284 345
#     4  10  22  38  57  81 113 150 190 240 288 330
#     4   9  16  29  52  82 111 139 178 228 277 327
#     4  10  20  35  57  84 114 150 190 233 284 341
#     4  10  21  37  55  78 111 150 187 226 285 350
#     4  10  21  38  59  85 111 145 195 240 277 324
#
# _framework density 21.370733999999999
#
# number of rings (size 3 to 8) (size 9 to 14) (size 15 to 20)
#    0.000    2.000    2.500    1.500    0.000    6.000 
#    0.000    2.500    0.000    0.375    0.000    0.000 
#    0.000    0.000    0.000    0.000    0.000    0.000 
#
# Total GULP energy -178777.701479 kJ/mol
# GULP energy per Si atom -5586.803171 kJ/mol
# Density = 2.132209 g / cm^3
# Si number density = 21.370734 Si / 1000 Ang^3
#
#
#
# Elastic Constant Matrix: (Units=GPa)
#
#
# Indices 1 2 3 4 5 6 
#
# 1 167.0343 -10.8231 67.0690 0.0000 0.0000 0.0000
# 2 -10.8231 37.7391 -8.5558 0.0000 0.0000 0.0000
# 3 67.0690 -8.5558 146.4577 0.0000 0.0000 0.0000
# 4 0.0000 0.0000 0.0000 2.6334 0.0000 0.0000
# 5 0.0000 0.0000 0.0000 0.0000 -17.3154 0.0000
# 6 0.0000 0.0000 0.0000 0.0000 0.0000 10.9103
#
#
#
# Elastic Compliance Matrix: (Units=1/GPa)
#
#
# Indices 1 2 3 4 5 6 
#
# 1 0.007405 0.001373 -0.003311 0.000000 0.000000 0.000000
# 2 0.001373 0.027108 0.000955 0.000000 0.000000 0.000000
# 3 -0.003311 0.000955 0.008400 0.000000 0.000000 0.000000
# 4 0.000000 0.000000 0.000000 0.379739 0.000000 0.000000
# 5 0.000000 0.000000 0.000000 0.000000 -0.057752 0.000000
# 6 0.000000 0.000000 0.000000 0.000000 0.000000 0.091656
#
#
# Mechanical properties :
#
#
# Convention : Reuss Voigt Hill
#
# Bulk Modulus (GPa) = 24.42181 49.62347 37.02264
# Shear Modulus (GPa) = 10.58937 19.48173 15.03555
#
# Velocity S-wave (km/s) = 2.22842 3.02256 2.65534
# Velocity P-wave (km/s) = 4.25131 5.95415 5.17327
#
# Compressibility (1/GPa) = 0.04094701
#
# Stress axis : x y z
#
# Youngs Moduli (GPa) = 135.04030 36.88951 119.04910
#
# Poissons Ratio (x) = -0.05065 0.39416
# Poissons Ratio (y) = -0.18542 -0.11367
# Poissons Ratio (z) = 0.44711 -0.03522
#
# Static dielectric constant tensor:
#      x y z
#    x 1.779320 0.000000 0.000000 
#    y 0.000000 1.807420 0.000000 
#    z 0.000000 0.000000 1.737340 
# 
# From -- ./inp_files/22980.got.cif
#   From: 2010.05.17/outbox.cif.g08.bks.cpg/sg38_12_cif.got.tgz:22980.got - 2010.06.03 18:07:57.
