data_PCOD9358631
_publ_section_title
;
Structure prediction by ZEFSAII (Michael W. Deem and Ramdas Pophale) SiO2 
 PCOD9358631
Probable space group: A M M 2
;
_chemical_formula_sum "Si O2"
_cell_formula_units_Z 44
_cell_length_a 14.053523
_cell_length_b 11.028219
_cell_length_c 15.390815
_cell_angle_alpha 90.000000
_cell_angle_beta 90.000000
_cell_angle_gamma 90.000000
_cell_volume 2385.350532
_symmetry_space_group_name_H-M "A M M 2"
_symmetry_group_IT_number 38
_symmetry_cell_setting 'orthorhombic'
loop_
_space_group_symop_operation_xyz
x,y,z
-x,-y,z
-x,y,z
x,-y,z
x,1/2+y,1/2+z
-x,1/2-y,1/2+z
-x,1/2+y,1/2+z
x,1/2-y,1/2+z
loop_
_atom_site_type_symbol
_atom_site_label
_atom_site_fract_x
_atom_site_fract_y
_atom_site_fract_z
Si Si1 0.613887 0.500000 0.217930
Si Si2 0.107376 0.144283 0.318774
Si Si3 0.227878 0.249053 0.969454
Si Si4 0.615403 0.228574 0.599716
Si Si5 0.114784 0.641630 0.625979
Si Si6 0.691984 0.500000 0.411329
Si Si7 0.390476 0.500000 0.599161
O O1 0.500000 0.500000 0.217767
O O2 0.642088 0.622613 0.166700
O O3 0.647071 0.500000 0.316795
O O4 0.177517 0.171567 0.397064
O O5 0.139133 0.186785 0.223072
O O6 0.000000 0.191088 0.336855
O O7 0.100274 0.000000 0.308872
O O8 0.247011 0.120065 0.924735
O O9 0.327366 0.294606 0.010377
O O10 0.160056 0.223368 0.051596
O O11 0.500000 0.228875 0.588346
O O12 0.645994 0.366601 0.627156
O O13 0.145525 0.500000 0.614327
O O14 0.000000 0.642471 0.620437
O O15 0.620294 0.500000 0.494119
O O16 0.500000 0.500000 0.625239
#
# Coordination Sequence:
#
# PCOD9358631 Si02
#       7
#     4   8   8   8   8   4   4
#     4  10  21  38  56  79 114 155 192 233 288 340
#     4   9  20  37  56  81 111 145 184 226 283 343
#     4  11  20  34  58  84 113 142 188 234 278 335
#     4   9  20  35  56  82 115 153 191 234 282 336
#     4   9  18  35  57  80 108 143 181 224 277 339
#     4  10  21  32  51  85 107 144 185 230 281 340
#     4   8  15  34  56  76 103 143 191 233 275 322
#
# _framework density 18.445927000000001
#
# number of rings (size 3 to 8) (size 9 to 14) (size 15 to 20)
#    0.000    2.545    0.909    1.909    3.818    0.727 
#    0.000    0.000    0.000    0.000    0.000    8.909 
#    0.000    0.000    0.000    0.000    0.000    0.000 
#
# Total GULP energy -122568.490535 kJ/mol
# GULP energy per Si atom -5571.295024 kJ/mol
# Density = 1.840394 g / cm^3
# Si number density = 18.445927 Si / 1000 Ang^3
#
#
#
# Elastic Constant Matrix: (Units=GPa)
#
#
# Indices 1 2 3 4 5 6 
#
# 1 43.6898 17.9619 25.6386 0.0000 0.0000 0.0000
# 2 17.9619 78.2867 55.4637 0.0000 0.0000 0.0000
# 3 25.6386 55.4637 103.4642 0.0000 0.0000 0.0000
# 4 0.0000 0.0000 0.0000 19.0372 0.0000 0.0000
# 5 0.0000 0.0000 0.0000 0.0000 31.8599 0.0000
# 6 0.0000 0.0000 0.0000 0.0000 0.0000 23.1880
#
#
#
# Elastic Compliance Matrix: (Units=1/GPa)
#
#
# Indices 1 2 3 4 5 6 
#
# 1 0.027049 -0.002350 -0.005443 0.000000 0.000000 0.000000
# 2 -0.002350 0.020800 -0.010568 0.000000 0.000000 0.000000
# 3 -0.005443 -0.010568 0.016679 0.000000 0.000000 0.000000
# 4 0.000000 0.000000 0.000000 0.052529 0.000000 0.000000
# 5 0.000000 0.000000 0.000000 0.000000 0.031387 0.000000
# 6 0.000000 0.000000 0.000000 0.000000 0.000000 0.043126
#
#
# Mechanical properties :
#
#
# Convention : Reuss Voigt Hill
#
# Bulk Modulus (GPa) = 35.96303 47.06323 41.51313
# Shear Modulus (GPa) = 21.04737 23.24210 22.14474
#
# Velocity S-wave (km/s) = 3.38158 3.55352 3.46861
# Velocity P-wave (km/s) = 5.89793 6.51200 6.21256
#
# Compressibility (1/GPa) = 0.02780633
#
# Stress axis : x y z
#
# Youngs Moduli (GPa) = 36.97005 48.07797 59.95567
#
# Poissons Ratio (x) = 0.11297 0.32635
# Poissons Ratio (y) = 0.08687 0.63359
# Poissons Ratio (z) = 0.20123 0.50807
#
# Static dielectric constant tensor:
#      x y z
#    x 1.672550 0.000000 0.000000 
#    y 0.000000 1.651670 0.000000 
#    z 0.000000 0.000000 1.613580 
# 
# From -- ./inp_files/14440.got.cif
#   From: 2010.05.17/outbox.cif.g08.bks.cpg/sg38_8_cif.got.tgz:14440.got - 2010.06.03 18:07:57.
