data_PCOD9358644
_publ_section_title
;
Structure prediction by ZEFSAII (Michael W. Deem and Ramdas Pophale) SiO2 
 PCOD9358644
Probable space group: A M M 2
;
_chemical_formula_sum "Si O2"
_cell_formula_units_Z 64
_cell_length_a 18.226918
_cell_length_b 7.448531
_cell_length_c 21.565719
_cell_angle_alpha 90.000000
_cell_angle_beta 90.000000
_cell_angle_gamma 90.000000
_cell_volume 2927.843180
_symmetry_space_group_name_H-M "A M M 2"
_symmetry_group_IT_number 38
_symmetry_cell_setting 'orthorhombic'
loop_
_space_group_symop_operation_xyz
x,y,z
-x,-y,z
-x,y,z
x,-y,z
x,1/2+y,1/2+z
-x,1/2-y,1/2+z
-x,1/2+y,1/2+z
x,1/2-y,1/2+z
loop_
_atom_site_type_symbol
_atom_site_label
_atom_site_fract_x
_atom_site_fract_y
_atom_site_fract_z
Si Si1 0.358721 0.706959 0.059670
Si Si2 0.919984 0.786217 0.935574
Si Si3 0.144216 0.783817 0.304376
Si Si4 0.309654 0.786096 0.325078
Si Si5 0.582214 0.220069 0.431242
Si Si6 0.148699 0.796894 0.171856
Si Si7 0.188394 0.280809 0.540353
Si Si8 0.681811 0.785260 0.689049
O O1 0.382638 0.500000 0.063663
O O2 0.271844 0.714595 0.043610
O O3 0.363756 0.780768 0.129576
O O4 0.400090 0.785130 0.000656
O O5 0.905364 0.755089 0.863244
O O6 0.000000 0.714552 0.953005
O O7 0.921282 0.000000 0.945234
O O8 0.854325 0.719797 0.979189
O O9 0.226304 0.715684 0.320679
O O10 0.119881 0.715413 0.236382
O O11 0.148475 0.000000 0.297938
O O12 0.357427 0.716935 0.381995
O O13 0.345944 0.752214 0.257975
O O14 0.303798 0.000000 0.332958
O O15 0.500000 0.269746 0.412869
O O16 0.585678 0.000000 0.432110
O O17 0.145287 0.719685 0.102635
O O18 0.236933 0.798892 0.183948
O O19 0.119839 0.000000 0.167369
O O20 0.192102 0.500000 0.542223
O O21 0.691217 0.000000 0.682528
#
# Coordination Sequence:
#
# PCOD9358644 Si02
#       8
#     8   8   8   8   8   8   8   8
#     4   9  17  30  49  72  94 117 151 193 230 267
#     4  10  21  34  46  65  95 126 153 184 225 273
#     4   9  17  30  49  71  92 116 150 191 230 267
#     4   9  17  30  49  71  93 118 152 193 229 265
#     4   9  17  30  48  68  91 123 161 194 224 264
#     4   8  15  29  48  70  93 116 148 190 229 265
#     4   9  17  31  51  71  91 119 153 187 227 273
#     4   9  16  26  44  71  97 119 146 184 232 278
#
# _framework density 21.859096000000001
#
# number of rings (size 3 to 8) (size 9 to 14) (size 15 to 20)
#    0.000    3.000    0.000    1.875    0.000    4.250 
#    0.000    1.875    0.000    4.500    0.000    0.000 
#    0.000    0.000    0.000    0.000    0.000    0.000 
#
# Total GULP energy -178380.544989 kJ/mol
# GULP energy per Si atom -5574.392031 kJ/mol
# Density = 2.180934 g / cm^3
# Si number density = 21.859096 Si / 1000 Ang^3
#
#
#
# Elastic Constant Matrix: (Units=GPa)
#
#
# Indices 1 2 3 4 5 6 
#
# 1 22.1925 -6.4224 -3.0335 0.0000 0.0000 0.0000
# 2 -6.4224 71.8974 -13.0497 0.0000 0.0000 0.0000
# 3 -3.0335 -13.0497 80.1063 0.0000 0.0000 0.0000
# 4 0.0000 0.0000 0.0000 16.7511 0.0000 0.0000
# 5 0.0000 0.0000 0.0000 0.0000 -2.2271 0.0000
# 6 0.0000 0.0000 0.0000 0.0000 0.0000 4.5421
#
#
#
# Elastic Compliance Matrix: (Units=1/GPa)
#
#
# Indices 1 2 3 4 5 6 
#
# 1 0.046747 0.004634 0.002525 0.000000 0.000000 0.000000
# 2 0.004634 0.014792 0.002585 0.000000 0.000000 0.000000
# 3 0.002525 0.002585 0.013000 0.000000 0.000000 0.000000
# 4 0.000000 0.000000 0.000000 0.059697 0.000000 0.000000
# 5 0.000000 0.000000 0.000000 0.000000 -0.449022 0.000000
# 6 0.000000 0.000000 0.000000 0.000000 0.000000 0.220160
#
#
# Mechanical properties :
#
#
# Convention : Reuss Voigt Hill
#
# Bulk Modulus (GPa) = 10.63521 14.35389 12.49455
# Shear Modulus (GPa) = -60.40667 16.92669 -21.73999
#
# Velocity S-wave (km/s) = -5.26256 2.78574 -3.15707
# Velocity P-wave (km/s) = 5.66129 4.11436 2.74975
#
# Compressibility (1/GPa) = 0.09402732
#
# Stress axis : x y z
#
# Youngs Moduli (GPa) = 21.39194 67.60464 76.92212
#
# Poissons Ratio (x) = -0.31329 -0.19424
# Poissons Ratio (y) = -0.09913 -0.19885
# Poissons Ratio (z) = -0.05402 -0.17477
#
# Static dielectric constant tensor:
#      x y z
#    x 1.756670 0.000000 0.000000 
#    y 0.000000 1.791750 0.000000 
#    z 0.000000 0.000000 1.848510 
# 
# From -- ./inp_files/21361.got.cif
#   From: 2010.05.17/outbox.cif.g08.bks.cpg/sg38_11_cif.got.tgz:21361.got - 2010.06.03 18:07:57.
