data_PCOD9358951
_publ_section_title
;
Structure prediction by ZEFSAII (Michael W. Deem and Ramdas Pophale) SiO2 
 PCOD9358951
Probable space group: A M M 2
;
_chemical_formula_sum "Si O2"
_cell_formula_units_Z 64
_cell_length_a 14.833182
_cell_length_b 9.114740
_cell_length_c 25.178712
_cell_angle_alpha 90.000000
_cell_angle_beta 90.000000
_cell_angle_gamma 90.000000
_cell_volume 3404.176902
_symmetry_space_group_name_H-M "A M M 2"
_symmetry_group_IT_number 38
_symmetry_cell_setting 'orthorhombic'
loop_
_space_group_symop_operation_xyz
x,y,z
-x,-y,z
-x,y,z
x,-y,z
x,1/2+y,1/2+z
-x,1/2-y,1/2+z
-x,1/2+y,1/2+z
x,1/2-y,1/2+z
loop_
_atom_site_type_symbol
_atom_site_label
_atom_site_fract_x
_atom_site_fract_y
_atom_site_fract_z
Si Si1 0.244785 0.324103 0.794440
Si Si2 0.105211 0.676828 0.217288
Si Si3 0.251433 0.323831 0.917927
Si Si4 0.109574 0.668962 0.099274
Si Si5 0.390372 0.331997 0.102355
Si Si6 0.605381 0.325084 0.710316
Si Si7 0.392296 0.173637 0.993636
Si Si8 0.107671 0.826837 0.991359
O O1 0.232962 0.500000 0.792269
O O2 0.163889 0.247867 0.763090
O O3 0.250649 0.282118 0.855953
O O4 0.334753 0.287790 0.761196
O O5 0.111048 0.500000 0.219107
O O6 0.137550 0.720651 0.157937
O O7 0.000000 0.716823 0.222723
O O8 0.253758 0.500000 0.922097
O O9 0.336682 0.254932 0.948182
O O10 0.163839 0.260655 0.947668
O O11 0.138269 0.500000 0.090964
O O12 0.135433 0.767985 0.049570
O O13 0.000000 0.667208 0.101030
O O14 0.500000 0.331491 0.102907
O O15 0.360077 0.500000 0.098442
O O16 0.362605 0.259311 0.157741
O O17 0.364026 0.240526 0.050534
O O18 0.500000 0.290881 0.719190
O O19 0.612133 0.500000 0.700679
O O20 0.500000 0.196240 0.987712
O O21 0.374803 0.000000 0.992622
O O22 0.000000 0.802992 0.985681
O O23 0.125218 0.000000 0.987174
#
# Coordination Sequence:
#
# PCOD9358951 Si02
#       8
#     8   8   8   8   8   8   8   8
#     4  10  23  39  55  79 107 141 188 233 272 318
#     4   9  19  36  58  83 111 144 178 216 269 328
#     4  11  24  40  57  79 109 147 192 235 274 324
#     4   8  15  31  55  82 111 142 178 220 271 333
#     4   9  17  31  54  85 116 144 178 219 266 325
#     4   9  18  35  57  79 108 145 181 222 273 325
#     4  10  21  38  60  85 113 145 181 225 278 331
#     4  10  21  37  58  84 113 146 184 228 279 331
#
# _framework density 18.800433000000002
#
# number of rings (size 3 to 8) (size 9 to 14) (size 15 to 20)
#    0.000    2.500    0.000    2.250    0.000    7.250 
#    0.000    7.500    0.000    1.500    0.000    0.000 
#    0.000    0.000    0.000    0.000    0.000    0.000 
#
# Total GULP energy -178687.390859 kJ/mol
# GULP energy per Si atom -5583.980964 kJ/mol
# Density = 1.875764 g / cm^3
# Si number density = 18.800433 Si / 1000 Ang^3
#
#
#
# Elastic Constant Matrix: (Units=GPa)
#
#
# Indices 1 2 3 4 5 6 
#
# 1 92.5053 50.7893 76.8240 0.0000 0.0000 0.0000
# 2 50.7893 79.1260 87.0068 0.0000 0.0000 0.0000
# 3 76.8240 87.0068 209.3842 0.0000 0.0000 0.0000
# 4 0.0000 0.0000 0.0000 90.4284 0.0000 0.0000
# 5 0.0000 0.0000 0.0000 0.0000 31.5968 0.0000
# 6 0.0000 0.0000 0.0000 0.0000 0.0000 24.5366
#
#
#
# Elastic Compliance Matrix: (Units=1/GPa)
#
#
# Indices 1 2 3 4 5 6 
#
# 1 0.017846 -0.007835 -0.003292 0.000000 0.000000 0.000000
# 2 -0.007835 0.026711 -0.008225 0.000000 0.000000 0.000000
# 3 -0.003292 -0.008225 0.009401 0.000000 0.000000 0.000000
# 4 0.000000 0.000000 0.000000 0.011058 0.000000 0.000000
# 5 0.000000 0.000000 0.000000 0.000000 0.031649 0.000000
# 6 0.000000 0.000000 0.000000 0.000000 0.000000 0.040755
#
#
# Mechanical properties :
#
#
# Convention : Reuss Voigt Hill
#
# Bulk Modulus (GPa) = 65.55260 90.02840 77.79050
# Shear Modulus (GPa) = 27.59236 40.40538 33.99887
#
# Velocity S-wave (km/s) = 3.83514 4.64095 4.25715
# Velocity P-wave (km/s) = 7.38609 8.75832 8.10131
#
# Compressibility (1/GPa) = 0.01525493
#
# Stress axis : x y z
#
# Youngs Moduli (GPa) = 56.03531 37.43766 106.36670
#
# Poissons Ratio (x) = 0.29332 0.35016
# Poissons Ratio (y) = 0.43904 0.87484
# Poissons Ratio (z) = 0.18447 0.30791
#
# Static dielectric constant tensor:
#      x y z
#    x 1.677200 0.000000 0.000000 
#    y 0.000000 1.623740 0.000000 
#    z 0.000000 0.000000 1.618880 
# 
# From -- ./inp_files/22977.got.cif
#   From: 2010.05.17/outbox.cif.g08.bks.cpg/sg38_12_cif.got.tgz:22977.got - 2010.06.03 18:07:57.
