data_PCOD9358733
_publ_section_title
;
Structure prediction by ZEFSAII (Michael W. Deem and Ramdas Pophale) SiO2 
 PCOD9358733
Probable space group: A M M 2
;
_chemical_formula_sum "Si O2"
_cell_formula_units_Z 58
_cell_length_a 7.779607
_cell_length_b 15.358036
_cell_length_c 24.318279
_cell_angle_alpha 90.000000
_cell_angle_beta 90.000000
_cell_angle_gamma 90.000000
_cell_volume 2905.535436
_symmetry_space_group_name_H-M "A M M 2"
_symmetry_group_IT_number 38
_symmetry_cell_setting 'orthorhombic'
loop_
_space_group_symop_operation_xyz
x,y,z
-x,-y,z
-x,y,z
x,-y,z
x,1/2+y,1/2+z
-x,1/2-y,1/2+z
-x,1/2+y,1/2+z
x,1/2-y,1/2+z
loop_
_atom_site_type_symbol
_atom_site_label
_atom_site_fract_x
_atom_site_fract_y
_atom_site_fract_z
Si Si1 0.198513 0.739490 0.857200
Si Si2 0.299525 0.850821 0.248323
Si Si3 0.790078 0.401245 0.426323
Si Si4 0.698895 0.899814 0.443948
Si Si5 0.800562 0.597957 0.064631
Si Si6 0.791804 0.400278 0.552267
Si Si7 0.000000 0.000000 0.254073
Si Si8 0.301096 0.247209 0.138448
O O1 0.295659 0.703791 0.804508
O O2 0.269250 0.827596 0.884565
O O3 0.204009 0.666189 0.904739
O O4 0.000000 0.754106 0.841461
O O5 0.500000 0.880169 0.238813
O O6 0.245321 0.789960 0.197058
O O7 0.154424 0.924808 0.253561
O O8 0.737943 0.500000 0.412962
O O9 0.738110 0.382433 0.489380
O O10 0.000000 0.399231 0.426437
O O11 0.500000 0.898721 0.426846
O O12 0.708906 0.874468 0.508120
O O13 0.761700 0.000000 0.439606
O O14 0.741800 0.500000 0.079326
O O15 0.783722 0.667416 0.112811
O O16 0.000000 0.593624 0.049358
O O17 0.742972 0.500000 0.565984
O O18 0.722188 0.330762 0.594750
O O19 0.000000 0.396076 0.554221
O O20 0.500000 0.269181 0.143477
#
# Coordination Sequence:
#
# PCOD9358733 Si02
#       8
#     8   8   8   8   8   8   2   8
#     4  11  21  36  60  88 121 164 208 254 311 368
#     4  11  27  45  64  95 128 160 209 257 304 368
#     4   8  16  33  56  86 118 154 201 254 304 360
#     4  10  21  35  55  85 122 160 198 248 310 373
#     4  10  21  38  61  88 116 153 202 255 307 372
#     4   9  18  32  57  88 120 156 197 243 297 361
#     4  12  26  48  72  90 118 176 206 256 304 364
#     4  11  24  39  58  84 121 161 198 252 309 362
#
# _framework density 19.961895999999999
#
# number of rings (size 3 to 8) (size 9 to 14) (size 15 to 20)
#    0.000    1.931    0.690    3.517    3.862    3.034 
#    0.000    1.379    0.000    5.793    0.000    0.000 
#    0.000    0.000    0.000    0.000    0.000    0.000 
#
# Total GULP energy -161655.288809 kJ/mol
# GULP energy per Si atom -5574.320304 kJ/mol
# Density = 1.991646 g / cm^3
# Si number density = 19.961896 Si / 1000 Ang^3
#
#
#
# Elastic Constant Matrix: (Units=GPa)
#
#
# Indices 1 2 3 4 5 6 
#
# 1 53.5749 15.8965 16.6898 0.0000 0.0000 0.0000
# 2 15.8965 104.2155 81.8131 0.0000 0.0000 0.0000
# 3 16.6898 81.8131 107.2154 0.0000 0.0000 0.0000
# 4 0.0000 0.0000 0.0000 -18.4820 0.0000 0.0000
# 5 0.0000 0.0000 0.0000 0.0000 24.5335 0.0000
# 6 0.0000 0.0000 0.0000 0.0000 0.0000 -35.0827
#
#
#
# Elastic Compliance Matrix: (Units=1/GPa)
#
#
# Indices 1 2 3 4 5 6 
#
# 1 0.019709 -0.001491 -0.001930 0.000000 0.000000 0.000000
# 2 -0.001491 0.024044 -0.018115 0.000000 0.000000 0.000000
# 3 -0.001930 -0.018115 0.023451 0.000000 0.000000 0.000000
# 4 0.000000 0.000000 0.000000 -0.054107 0.000000 0.000000
# 5 0.000000 0.000000 0.000000 0.000000 0.040761 0.000000
# 6 0.000000 0.000000 0.000000 0.000000 0.000000 -0.028504
#
#
# Mechanical properties :
#
#
# Convention : Reuss Voigt Hill
#
# Bulk Modulus (GPa) = 41.44063 54.86715 48.15389
# Shear Modulus (GPa) = 65.38444 4.23419 34.80932
#
# Velocity S-wave (km/s) = 5.72937 1.45799 4.18040
# Velocity P-wave (km/s) = 8.03571 5.51180 6.89030
#
# Compressibility (1/GPa) = 0.02413091
#
# Stress axis : x y z
#
# Youngs Moduli (GPa) = 50.73775 41.59020 42.64245
#
# Poissons Ratio (x) = 0.06201 0.08232
# Poissons Ratio (y) = 0.07565 0.77248
# Poissons Ratio (z) = 0.09794 0.75342
#
# Static dielectric constant tensor:
#      x y z
#    x 1.705500 0.000000 0.000000 
#    y 0.000000 1.701860 0.000000 
#    z 0.000000 0.000000 1.686140 
# 
# From -- ./inp_files/22032.got.cif
#   From: 2010.05.17/outbox.cif.g08.bks.cpg/sg38_12_cif.got.tgz:22032.got - 2010.06.03 18:07:57.
