data_PCOD9358363
_publ_section_title
;
Structure prediction by ZEFSAII (Michael W. Deem and Ramdas Pophale) SiO2 
 PCOD9358363
Probable space group: A M M 2
;
_chemical_formula_sum "Si O2"
_cell_formula_units_Z 48
_cell_length_a 7.795887
_cell_length_b 28.859491
_cell_length_c 10.486998
_cell_angle_alpha 90.000000
_cell_angle_beta 90.000000
_cell_angle_gamma 90.000000
_cell_volume 2359.420713
_symmetry_space_group_name_H-M "A M M 2"
_symmetry_group_IT_number 38
_symmetry_cell_setting 'orthorhombic'
loop_
_space_group_symop_operation_xyz
x,y,z
-x,-y,z
-x,y,z
x,-y,z
x,1/2+y,1/2+z
-x,1/2-y,1/2+z
-x,1/2+y,1/2+z
x,1/2-y,1/2+z
loop_
_atom_site_type_symbol
_atom_site_label
_atom_site_fract_x
_atom_site_fract_y
_atom_site_fract_z
Si Si1 0.801053 0.857422 0.149900
Si Si2 0.790218 0.947989 0.019873
Si Si3 0.701709 0.850115 0.632603
Si Si4 0.800274 0.297606 0.881527
Si Si5 0.699053 0.807254 0.898156
Si Si6 0.207410 0.947684 0.724620
O O1 0.726357 0.907227 0.110792
O O2 0.725163 0.828549 0.266670
O O3 0.000000 0.865651 0.184547
O O4 0.792846 0.827023 0.021737
O O5 0.000000 0.946684 0.019837
O O6 0.738587 0.000000 0.055992
O O7 0.738999 0.939913 0.872414
O O8 0.500000 0.839300 0.624506
O O9 0.787643 0.826284 0.511833
O O10 0.767352 0.828816 0.766269
O O11 0.726720 0.905295 0.640949
O O12 0.711742 0.248025 0.893459
O O13 0.000000 0.287635 0.853100
O O14 0.500000 0.821144 0.910216
O O15 0.000000 0.946606 0.721814
O O16 0.260921 0.000000 0.688613
#
# Coordination Sequence:
#
# PCOD9358363 Si02
#       6
#     8   8   8   8   8   8
#     4  10  20  36  59  85 111 143 184 230 281 331
#     4   8  14  28  54  85 111 136 173 225 278 323
#     4  11  23  38  57  83 116 154 187 225 279 336
#     4  11  24  38  55  81 112 148 188 231 279 332
#     4  11  23  38  57  81 108 145 190 232 279 333
#     4   9  17  32  58  87 112 143 186 235 280 324
#
# _framework density 20.343975
#
# number of rings (size 3 to 8) (size 9 to 14) (size 15 to 20)
#    0.000    2.000    1.667    3.500    0.000    6.333 
#    0.000    0.833    0.000    3.500    0.000    0.000 
#    0.000    0.000    0.000    0.000    0.000    0.000 
#
# Total GULP energy -134033.690317 kJ/mol
# GULP energy per Si atom -5584.737097 kJ/mol
# Density = 2.029767 g / cm^3
# Si number density = 20.343975 Si / 1000 Ang^3
#
#
#
# Elastic Constant Matrix: (Units=GPa)
#
#
# Indices 1 2 3 4 5 6 
#
# 1 31.2971 -14.2210 -9.3675 0.0000 0.0000 0.0000
# 2 -14.2210 140.9826 43.9138 0.0000 0.0000 0.0000
# 3 -9.3675 43.9138 87.0051 0.0000 0.0000 0.0000
# 4 0.0000 0.0000 0.0000 -17.5511 0.0000 0.0000
# 5 0.0000 0.0000 0.0000 0.0000 0.7546 0.0000
# 6 0.0000 0.0000 0.0000 0.0000 0.0000 -45.5129
#
#
#
# Elastic Compliance Matrix: (Units=1/GPa)
#
#
# Indices 1 2 3 4 5 6 
#
# 1 0.033864 0.002706 0.002280 0.000000 0.000000 0.000000
# 2 0.002706 0.008632 -0.004066 0.000000 0.000000 0.000000
# 3 0.002280 -0.004066 0.013791 0.000000 0.000000 0.000000
# 4 0.000000 0.000000 0.000000 -0.056977 0.000000 0.000000
# 5 0.000000 0.000000 0.000000 0.000000 1.325218 0.000000
# 6 0.000000 0.000000 0.000000 0.000000 0.000000 -0.021972
#
#
# Mechanical properties :
#
#
# Convention : Reuss Voigt Hill
#
# Bulk Modulus (GPa) = 17.20346 33.32613 25.26480
# Shear Modulus (GPa) = 3.78761 3.46877 3.62819
#
# Velocity S-wave (km/s) = 1.36595 1.30720 1.33690
# Velocity P-wave (km/s) = 3.31095 4.32380 3.85082
#
# Compressibility (1/GPa) = 0.05812784
#
# Stress axis : x y z
#
# Youngs Moduli (GPa) = 29.53012 115.84286 72.51017
#
# Poissons Ratio (x) = -0.31342 -0.16535
# Poissons Ratio (y) = -0.07990 0.29480
# Poissons Ratio (z) = -0.06734 0.47098
#
# Static dielectric constant tensor:
#      x y z
#    x 1.801180 0.000000 0.000000 
#    y 0.000000 1.722430 0.000000 
#    z 0.000000 0.000000 1.695370 
# 
# From -- ./inp_files/3794.got.cif
#   From: 2010.05.17/outbox.cif.g08.bks.cpg/sg38_2_cif.got.tgz:3794.got - 2010.06.03 18:07:57.
