data_PCOD9358184
_publ_section_title
;
Structure prediction by ZEFSAII (Michael W. Deem and Ramdas Pophale) SiO2 
 PCOD9358184
Probable space group: A M M 2
;
_chemical_formula_sum "Si O2"
_cell_formula_units_Z 48
_cell_length_a 9.364619
_cell_length_b 8.338460
_cell_length_c 32.315849
_cell_angle_alpha 90.000000
_cell_angle_beta 90.000000
_cell_angle_gamma 90.000000
_cell_volume 2523.431574
_symmetry_space_group_name_H-M "A M M 2"
_symmetry_group_IT_number 38
_symmetry_cell_setting 'orthorhombic'
loop_
_space_group_symop_operation_xyz
x,y,z
-x,-y,z
-x,y,z
x,-y,z
x,1/2+y,1/2+z
-x,1/2-y,1/2+z
-x,1/2+y,1/2+z
x,1/2-y,1/2+z
loop_
_atom_site_type_symbol
_atom_site_label
_atom_site_fract_x
_atom_site_fract_y
_atom_site_fract_z
Si Si1 0.836498 0.807925 0.796950
Si Si2 0.335893 0.803684 0.716954
Si Si3 0.836130 0.306131 0.135595
Si Si4 0.663654 0.691999 0.555664
Si Si5 0.834219 0.694380 0.975937
Si Si6 0.173418 0.813554 0.385343
O O1 0.739522 0.749160 0.759283
O O2 0.780794 0.768205 0.842823
O O3 0.000000 0.746550 0.793171
O O4 0.843183 0.000000 0.793559
O O5 0.500000 0.752026 0.714402
O O6 0.246328 0.752245 0.676870
O O7 0.335456 0.000000 0.717154
O O8 0.838502 0.500000 0.136286
O O9 0.752859 0.253358 0.094783
O O10 0.000000 0.249875 0.135188
O O11 0.500000 0.750030 0.557877
O O12 0.662972 0.500000 0.556560
O O13 0.738378 0.747916 0.513483
O O14 0.833889 0.500000 0.974898
O O15 0.782288 0.750514 0.930433
O O16 0.000000 0.744227 0.981934
O O17 0.000000 0.804910 0.386311
O O18 0.213529 0.000000 0.382798
#
# Coordination Sequence:
#
# PCOD9358184 Si02
#       6
#     8   8   8   8   8   8
#     4   9  16  27  46  72  99 128 166 208 245 286
#     4   9  17  30  49  73 101 133 167 204 248 296
#     4  10  20  35  57  81 101 127 169 215 254 298
#     4  11  24  38  51  73 106 138 167 204 253 307
#     4   9  18  34  56  79 101 130 172 216 254 298
#     4   8  15  29  49  73 100 128 161 204 250 294
#
# _framework density 19.021718
#
# number of rings (size 3 to 8) (size 9 to 14) (size 15 to 20)
#    0.000    2.667    0.000    3.000    0.000    7.333 
#    0.000    3.333    0.000    6.500    0.000    0.000 
#    0.000    0.000    0.000    0.000    0.000    0.000 
#
# Total GULP energy -133853.999665 kJ/mol
# GULP energy per Si atom -5577.249986 kJ/mol
# Density = 1.897842 g / cm^3
# Si number density = 19.021718 Si / 1000 Ang^3
#
#
#
# Elastic Constant Matrix: (Units=GPa)
#
#
# Indices 1 2 3 4 5 6 
#
# 1 140.3162 16.6582 114.3152 0.0000 0.0000 0.0000
# 2 16.6582 4.8936 18.0130 0.0000 0.0000 0.0000
# 3 114.3152 18.0130 221.8835 0.0000 0.0000 0.0000
# 4 0.0000 0.0000 0.0000 26.3119 0.0000 0.0000
# 5 0.0000 0.0000 0.0000 0.0000 -13.4297 0.0000
# 6 0.0000 0.0000 0.0000 0.0000 0.0000 16.1113
#
#
#
# Elastic Compliance Matrix: (Units=1/GPa)
#
#
# Indices 1 2 3 4 5 6 
#
# 1 0.015254 -0.032799 -0.005196 0.000000 0.000000 0.000000
# 2 -0.032799 0.361963 -0.012487 0.000000 0.000000 0.000000
# 3 -0.005196 -0.012487 0.008198 0.000000 0.000000 0.000000
# 4 0.000000 0.000000 0.000000 0.038006 0.000000 0.000000
# 5 0.000000 0.000000 0.000000 0.000000 -0.074462 0.000000
# 6 0.000000 0.000000 0.000000 0.000000 0.000000 0.062068
#
#
# Mechanical properties :
#
#
# Convention : Reuss Voigt Hill
#
# Bulk Modulus (GPa) = 3.51555 73.89623 38.70589
# Shear Modulus (GPa) = 8.23984 20.33917 14.28950
#
# Velocity S-wave (km/s) = 2.08356 3.27350 2.74381
# Velocity P-wave (km/s) = 2.76414 7.29523 5.51638
#
# Compressibility (1/GPa) = 0.28445080
#
# Stress axis : x y z
#
# Youngs Moduli (GPa) = 65.55676 2.76271 121.98580
#
# Poissons Ratio (x) = 0.09061 0.63386
# Poissons Ratio (y) = 2.15020 1.52321
# Poissons Ratio (z) = 0.34065 0.03450
#
# Static dielectric constant tensor:
#      x y z
#    x 1.646860 0.000000 0.000000 
#    y 0.000000 1.668330 0.000000 
#    z 0.000000 0.000000 1.654590 
# 
# From -- ./inp_files/24286.got.cif
#   From: 2010.05.17/outbox.cif.g08.bks.cpg/sg38_13_cif.got.tgz:24286.got - 2010.06.03 18:07:57.
