data_PCOD9358899
_publ_section_title
;
Structure prediction by ZEFSAII (Michael W. Deem and Ramdas Pophale) SiO2 
 PCOD9358899
Probable space group: A M M 2
;
_chemical_formula_sum "Si O2"
_cell_formula_units_Z 48
_cell_length_a 8.342957
_cell_length_b 31.236801
_cell_length_c 9.313958
_cell_angle_alpha 90.000000
_cell_angle_beta 90.000000
_cell_angle_gamma 90.000000
_cell_volume 2427.285331
_symmetry_space_group_name_H-M "A M M 2"
_symmetry_group_IT_number 38
_symmetry_cell_setting 'orthorhombic'
loop_
_space_group_symop_operation_xyz
x,y,z
-x,-y,z
-x,y,z
x,-y,z
x,1/2+y,1/2+z
-x,1/2-y,1/2+z
-x,1/2+y,1/2+z
x,1/2-y,1/2+z
loop_
_atom_site_type_symbol
_atom_site_label
_atom_site_fract_x
_atom_site_fract_y
_atom_site_fract_z
Si Si1 0.806042 0.951421 0.941100
Si Si2 0.804493 0.370701 0.257163
Si Si3 0.691534 0.049078 0.265046
Si Si4 0.190683 0.369276 0.928126
Si Si5 0.811675 0.709744 0.448166
Si Si6 0.685380 0.287099 0.767580
O O1 0.753396 0.915261 0.829453
O O2 0.000000 0.950080 0.949408
O O3 0.759119 0.000000 0.901217
O O4 0.739334 0.942344 0.099757
O O5 0.753967 0.331038 0.356229
O O6 0.000000 0.370528 0.255033
O O7 0.752588 0.365918 0.092810
O O8 0.500000 0.052138 0.278928
O O9 0.772759 0.083926 0.365977
O O10 0.740386 0.000000 0.296981
O O11 0.274014 0.333647 0.830479
O O12 0.000000 0.361639 0.923984
O O13 0.723604 0.713986 0.599241
O O14 0.787479 0.751853 0.352606
O O15 0.000000 0.703693 0.478987
O O16 0.500000 0.277119 0.792301
#
# Coordination Sequence:
#
# PCOD9358899 Si02
#       6
#     8   8   8   8   8   8
#     4   9  17  33  58  85 112 146 191 241 292 347
#     4   9  20  36  57  85 114 146 190 243 290 337
#     4  10  21  37  56  82 117 154 193 240 294 350
#     4  11  22  38  60  86 116 153 197 241 290 351
#     4  11  22  40  64  88 117 156 200 243 292 353
#     4  12  25  41  61  89 122 154 193 244 300 352
#
# _framework density 19.775176999999999
#
# number of rings (size 3 to 8) (size 9 to 14) (size 15 to 20)
#    0.000    1.667    0.000    5.000    0.000    4.333 
#    0.000    6.667    0.000    2.000    0.000    0.000 
#    0.000    0.000    0.000    0.000    0.000    0.000 
#
# Total GULP energy -134167.703482 kJ/mol
# GULP energy per Si atom -5590.320978 kJ/mol
# Density = 1.973017 g / cm^3
# Si number density = 19.775177 Si / 1000 Ang^3
#
#
#
# Elastic Constant Matrix: (Units=GPa)
#
#
# Indices 1 2 3 4 5 6 
#
# 1 20.3577 -9.4780 -8.2016 0.0000 0.0000 0.0000
# 2 -9.4780 82.8845 48.3073 0.0000 0.0000 0.0000
# 3 -8.2016 48.3073 108.3469 0.0000 0.0000 0.0000
# 4 0.0000 0.0000 0.0000 39.0157 0.0000 0.0000
# 5 0.0000 0.0000 0.0000 0.0000 -4.8876 0.0000
# 6 0.0000 0.0000 0.0000 0.0000 0.0000 19.9328
#
#
#
# Elastic Compliance Matrix: (Units=1/GPa)
#
#
# Indices 1 2 3 4 5 6 
#
# 1 0.052126 0.004946 0.001740 0.000000 0.000000 0.000000
# 2 0.004946 0.016770 -0.007103 0.000000 0.000000 0.000000
# 3 0.001740 -0.007103 0.012528 0.000000 0.000000 0.000000
# 4 0.000000 0.000000 0.000000 0.025631 0.000000 0.000000
# 5 0.000000 0.000000 0.000000 0.000000 -0.204600 0.000000
# 6 0.000000 0.000000 0.000000 0.000000 0.000000 0.050169
#
#
# Mechanical properties :
#
#
# Convention : Reuss Voigt Hill
#
# Bulk Modulus (GPa) = 12.40820 30.31607 21.36213
# Shear Modulus (GPa) = -254.05196 22.87628 -115.58784
#
# Velocity S-wave (km/s) = -11.34676 3.40489 -7.65362
# Velocity P-wave (km/s) = 12.85990 5.55170 8.20231
#
# Compressibility (1/GPa) = 0.08059187
#
# Stress axis : x y z
#
# Youngs Moduli (GPa) = 19.18447 59.62942 79.82009
#
# Poissons Ratio (x) = -0.29494 -0.13892
# Poissons Ratio (y) = -0.09489 0.56694
# Poissons Ratio (z) = -0.03339 0.42353
#
# Static dielectric constant tensor:
#      x y z
#    x 1.677390 0.000000 0.000000 
#    y 0.000000 1.680000 0.000000 
#    z 0.000000 0.000000 1.650330 
# 
# From -- ./inp_files/3746.got.cif
#   From: 2010.05.17/outbox.cif.g08.bks.cpg/sg38_2_cif.got.tgz:3746.got - 2010.06.03 18:07:57.
