data_PCOD9358845
_publ_section_title
;
Structure prediction by ZEFSAII (Michael W. Deem and Ramdas Pophale) SiO2 
 PCOD9358845
Probable space group: A M M 2
;
_chemical_formula_sum "Si O2"
_cell_formula_units_Z 64
_cell_length_a 14.304992
_cell_length_b 8.978365
_cell_length_c 26.642422
_cell_angle_alpha 90.000000
_cell_angle_beta 90.000000
_cell_angle_gamma 90.000000
_cell_volume 3421.831179
_symmetry_space_group_name_H-M "A M M 2"
_symmetry_group_IT_number 38
_symmetry_cell_setting 'orthorhombic'
loop_
_space_group_symop_operation_xyz
x,y,z
-x,-y,z
-x,y,z
x,-y,z
x,1/2+y,1/2+z
-x,1/2-y,1/2+z
-x,1/2+y,1/2+z
x,1/2-y,1/2+z
loop_
_atom_site_type_symbol
_atom_site_label
_atom_site_fract_x
_atom_site_fract_y
_atom_site_fract_z
Si Si1 0.285535 0.177203 0.537020
Si Si2 0.113489 0.330732 0.691516
Si Si3 0.707434 0.820621 0.839501
Si Si4 0.610136 0.179758 0.942816
Si Si5 0.105801 0.321082 0.294867
Si Si6 0.388248 0.676568 0.743600
Si Si7 0.612876 0.824001 0.130852
Si Si8 0.109022 0.680013 0.578772
O O1 0.338583 0.244037 0.489198
O O2 0.340101 0.232403 0.586696
O O3 0.181282 0.244023 0.541578
O O4 0.283246 0.000000 0.534959
O O5 0.147915 0.500000 0.698014
O O6 0.137525 0.234918 0.739948
O O7 0.138307 0.276784 0.635859
O O8 0.000000 0.336551 0.690472
O O9 0.656677 0.772006 0.890279
O O10 0.816058 0.774722 0.834779
O O11 0.657589 0.760594 0.789750
O O12 0.703352 0.000000 0.838597
O O13 0.500000 0.214325 0.942820
O O14 0.619550 0.000000 0.947258
O O15 0.102845 0.500000 0.293885
O O16 0.000000 0.266497 0.304287
O O17 0.500000 0.698293 0.745572
O O18 0.370586 0.500000 0.748350
O O19 0.357359 0.721309 0.687294
O O20 0.500000 0.810986 0.128210
O O21 0.635246 0.000000 0.124527
O O22 0.115719 0.500000 0.576270
O O23 0.000000 0.719148 0.571090
#
# Coordination Sequence:
#
# PCOD9358845 Si02
#       8
#     8   8   8   8   8   8   8   8
#     4  12  25  37  56  86 117 147 186 240 297 344
#     4   8  15  29  50  76 106 144 189 229 262 308
#     4  10  21  36  57  84 112 145 191 238 284 336
#     4  10  22  42  64  82 106 146 194 243 293 349
#     4   9  18  32  50  77 116 153 183 222 274 330
#     4   9  19  35  55  81 112 145 181 226 284 346
#     4   9  19  37  58  80 111 151 191 231 281 348
#     4   9  19  37  59  82 112 153 198 236 274 333
#
# _framework density 18.703434999999999
#
# number of rings (size 3 to 8) (size 9 to 14) (size 15 to 20)
#    0.000    2.500    0.000    3.375    1.750    5.000 
#    0.000    3.125    0.000    2.250    0.000    0.000 
#    0.000    0.000    0.000    0.000    0.000    0.000 
#
# Total GULP energy -178613.134857 kJ/mol
# GULP energy per Si atom -5581.660464 kJ/mol
# Density = 1.866087 g / cm^3
# Si number density = 18.703435 Si / 1000 Ang^3
#
#
#
# Elastic Constant Matrix: (Units=GPa)
#
#
# Indices 1 2 3 4 5 6 
#
# 1 126.8910 47.4425 92.6118 0.0000 0.0000 0.0000
# 2 47.4425 28.6760 47.1636 0.0000 0.0000 0.0000
# 3 92.6118 47.1636 148.4820 0.0000 0.0000 0.0000
# 4 0.0000 0.0000 0.0000 28.5237 0.0000 0.0000
# 5 0.0000 0.0000 0.0000 0.0000 37.8303 0.0000
# 6 0.0000 0.0000 0.0000 0.0000 0.0000 20.0517
#
#
#
# Elastic Compliance Matrix: (Units=1/GPa)
#
#
# Indices 1 2 3 4 5 6 
#
# 1 0.022026 -0.028990 -0.004530 0.000000 0.000000 0.000000
# 2 -0.028990 0.111176 -0.017232 0.000000 0.000000 0.000000
# 3 -0.004530 -0.017232 0.015034 0.000000 0.000000 0.000000
# 4 0.000000 0.000000 0.000000 0.035059 0.000000 0.000000
# 5 0.000000 0.000000 0.000000 0.000000 0.026434 0.000000
# 6 0.000000 0.000000 0.000000 0.000000 0.000000 0.049871
#
#
# Mechanical properties :
#
#
# Convention : Reuss Voigt Hill
#
# Bulk Modulus (GPa) = 21.39861 75.38721 48.39291
# Shear Modulus (GPa) = 13.27388 25.06986 19.17187
#
# Velocity S-wave (km/s) = 2.66691 3.66510 3.20511
# Velocity P-wave (km/s) = 4.57702 7.63575 6.29499
#
# Compressibility (1/GPa) = 0.04673201
#
# Stress axis : x y z
#
# Youngs Moduli (GPa) = 45.40166 8.99473 66.51800
#
# Poissons Ratio (x) = 0.26076 0.30129
# Poissons Ratio (y) = 1.31620 1.14624
# Poissons Ratio (z) = 0.20565 0.15500
#
# Static dielectric constant tensor:
#      x y z
#    x 1.694250 0.000000 0.000000 
#    y 0.000000 1.622120 0.000000 
#    z 0.000000 0.000000 1.622830 
# 
# From -- ./inp_files/22949.got.cif
#   From: 2010.05.17/outbox.cif.g08.bks.cpg/sg38_12_cif.got.tgz:22949.got - 2010.06.03 18:07:57.
