data_PCOD9358626
_publ_section_title
;
Structure prediction by ZEFSAII (Michael W. Deem and Ramdas Pophale) SiO2 
 PCOD9358626
Probable space group: A M M 2
;
_chemical_formula_sum "Si O2"
_cell_formula_units_Z 48
_cell_length_a 10.324011
_cell_length_b 8.725409
_cell_length_c 28.036107
_cell_angle_alpha 90.000000
_cell_angle_beta 90.000000
_cell_angle_gamma 90.000000
_cell_volume 2525.526680
_symmetry_space_group_name_H-M "A M M 2"
_symmetry_group_IT_number 38
_symmetry_cell_setting 'orthorhombic'
loop_
_space_group_symop_operation_xyz
x,y,z
-x,-y,z
-x,y,z
x,-y,z
x,1/2+y,1/2+z
-x,1/2-y,1/2+z
-x,1/2+y,1/2+z
x,1/2-y,1/2+z
loop_
_atom_site_type_symbol
_atom_site_label
_atom_site_fract_x
_atom_site_fract_y
_atom_site_fract_z
Si Si1 0.000000 0.817138 0.327981
Si Si2 0.352697 0.815322 0.685245
Si Si3 0.729902 0.315812 0.292923
Si Si4 0.767442 0.315239 0.504895
Si Si5 0.500000 0.183280 0.467898
Si Si6 0.853054 0.185095 0.111207
Si Si7 0.500000 0.684168 0.856606
Si Si8 0.000000 0.185295 0.934095
O O1 0.871181 0.749895 0.303855
O O2 0.000000 0.764744 0.383086
O O3 0.000000 0.000000 0.324729
O O4 0.500000 0.764350 0.675250
O O5 0.315333 0.774571 0.739502
O O6 0.250273 0.747994 0.648437
O O7 0.349760 0.000000 0.682102
O O8 0.731473 0.500000 0.296871
O O9 0.626114 0.249490 0.330114
O O10 0.758783 0.500000 0.504699
O O11 0.628873 0.246444 0.492510
O O12 0.816115 0.268378 0.557313
O O13 0.873808 0.272788 0.465133
O O14 0.500000 0.229089 0.412137
O O15 0.500000 0.000000 0.470230
O O16 0.000000 0.235253 0.122115
O O17 0.850919 0.000000 0.112641
O O18 0.500000 0.500000 0.853562
O O19 0.000000 0.000000 0.927747
#
# Coordination Sequence:
#
# PCOD9358626 Si02
#       8
#     4   8   8   8   4   8   4   4
#     4  12  26  40  59  94 131 161 202 261 313 362
#     4  10  23  43  64  90 122 157 201 250 299 359
#     4  11  23  43  66  89 122 167 212 252 300 369
#     4  10  21  40  64  89 120 159 205 251 295 356
#     4  11  25  39  56  89 128 161 198 249 302 359
#     4  10  22  41  64  92 123 155 198 251 304 359
#     4  11  23  41  64  93 128 161 202 259 316 363
#     4  10  20  40  67  90 117 161 208 251 301 364
#
# _framework density 19.005935999999998
#
# number of rings (size 3 to 8) (size 9 to 14) (size 15 to 20)
#    0.000    1.500    1.667    2.750    2.333    7.333 
#    0.000    0.000    0.000    0.000    0.000    0.000 
#    0.000    0.000    0.000    0.000    0.000    0.000 
#
# Total GULP energy -134198.231606 kJ/mol
# GULP energy per Si atom -5591.592984 kJ/mol
# Density = 1.896268 g / cm^3
# Si number density = 19.005936 Si / 1000 Ang^3
#
#
#
# Elastic Constant Matrix: (Units=GPa)
#
#
# Indices 1 2 3 4 5 6 
#
# 1 209.5910 40.9890 80.9981 0.0000 0.0000 0.0000
# 2 40.9890 32.2483 33.7962 0.0000 0.0000 0.0000
# 3 80.9981 33.7962 110.7305 0.0000 0.0000 0.0000
# 4 0.0000 0.0000 0.0000 33.0392 0.0000 0.0000
# 5 0.0000 0.0000 0.0000 0.0000 43.0921 0.0000
# 6 0.0000 0.0000 0.0000 0.0000 0.0000 26.1311
#
#
#
# Elastic Compliance Matrix: (Units=1/GPa)
#
#
# Indices 1 2 3 4 5 6 
#
# 1 0.007232 -0.005364 -0.003653 0.000000 0.000000 0.000000
# 2 -0.005364 0.049571 -0.011206 0.000000 0.000000 0.000000
# 3 -0.003653 -0.011206 0.015123 0.000000 0.000000 0.000000
# 4 0.000000 0.000000 0.000000 0.030267 0.000000 0.000000
# 5 0.000000 0.000000 0.000000 0.000000 0.023206 0.000000
# 6 0.000000 0.000000 0.000000 0.000000 0.000000 0.038269
#
#
# Mechanical properties :
#
#
# Convention : Reuss Voigt Hill
#
# Bulk Modulus (GPa) = 31.76575 73.79292 52.77933
# Shear Modulus (GPa) = 23.29841 33.57157 28.43499
#
# Velocity S-wave (km/s) = 3.50501 4.20738 3.87216
# Velocity P-wave (km/s) = 5.75587 7.90654 6.91532
#
# Compressibility (1/GPa) = 0.03148045
#
# Stress axis : x y z
#
# Youngs Moduli (GPa) = 138.27664 20.17313 66.12325
#
# Poissons Ratio (x) = 0.10820 0.24155
# Poissons Ratio (y) = 0.74168 0.74098
# Poissons Ratio (z) = 0.50512 0.22606
#
# Static dielectric constant tensor:
#      x y z
#    x 1.627760 0.000000 0.000000 
#    y 0.000000 1.642020 0.000000 
#    z 0.000000 0.000000 1.633620 
# 
# From -- ./inp_files/24466.got.cif
#   From: 2010.05.17/outbox.cif.g08.bks.cpg/sg38_13_cif.got.tgz:24466.got - 2010.06.03 18:07:57.
