data_PCOD9358183
_publ_section_title
;
Structure prediction by ZEFSAII (Michael W. Deem and Ramdas Pophale) SiO2 
 PCOD9358183
Probable space group: A M M 2
;
_chemical_formula_sum "Si O2"
_cell_formula_units_Z 56
_cell_length_a 22.017599
_cell_length_b 7.742138
_cell_length_c 15.945821
_cell_angle_alpha 90.000000
_cell_angle_beta 90.000000
_cell_angle_gamma 90.000000
_cell_volume 2718.177108
_symmetry_space_group_name_H-M "A M M 2"
_symmetry_group_IT_number 38
_symmetry_cell_setting 'orthorhombic'
loop_
_space_group_symop_operation_xyz
x,y,z
-x,-y,z
-x,y,z
x,-y,z
x,1/2+y,1/2+z
-x,1/2-y,1/2+z
-x,1/2+y,1/2+z
x,1/2-y,1/2+z
loop_
_atom_site_type_symbol
_atom_site_label
_atom_site_fract_x
_atom_site_fract_y
_atom_site_fract_z
Si Si1 0.569434 0.208513 0.511110
Si Si2 0.347941 0.296310 0.353490
Si Si3 0.869030 0.292391 0.703910
Si Si4 0.000000 0.710642 0.958853
Si Si5 0.130991 0.707627 0.017400
Si Si6 0.207950 0.794711 0.360667
Si Si7 0.000000 0.789367 0.262492
Si Si8 0.430070 0.288931 0.200981
O O1 0.500000 0.266386 0.494332
O O2 0.614396 0.265077 0.438306
O O3 0.586071 0.264410 0.605878
O O4 0.569019 0.000000 0.511553
O O5 0.343235 0.500000 0.340752
O O6 0.279695 0.229855 0.360018
O O7 0.385484 0.225379 0.273685
O O8 0.871190 0.500000 0.710211
O O9 0.848272 0.249792 0.610686
O O10 0.825033 0.225985 0.777201
O O11 0.937836 0.228437 0.719812
O O12 0.937811 0.771603 0.001484
O O13 0.000000 0.500000 0.961790
O O14 0.000000 0.757937 0.860671
O O15 0.128818 0.500000 0.011048
O O16 0.175077 0.774017 0.944190
O O17 0.196959 0.000000 0.360802
O O18 0.000000 0.000000 0.259593
O O19 0.500000 0.237306 0.217319
O O20 0.429484 0.500000 0.201976
#
# Coordination Sequence:
#
# PCOD9358183 Si02
#       8
#     8   8   8   4   8   8   4   8
#     4   9  18  35  59  84 110 142 179 216 258 318
#     4  11  22  35  55  81 110 143 180 225 271 310
#     4  10  20  35  57  81 106 138 177 224 274 324
#     4   9  15  30  57  82 103 134 179 219 262 328
#     4  10  20  35  57  80 104 138 179 223 269 324
#     4  10  22  39  54  72 104 148 187 217 259 323
#     4   9  15  30  57  82 105 136 175 217 270 330
#     4   8  16  33  56  80 106 137 172 210 258 315
#
# _framework density 20.602042999999998
#
# number of rings (size 3 to 8) (size 9 to 14) (size 15 to 20)
#    0.000    2.429    1.429    2.143    0.000    3.143 
#    0.000    5.714    0.000    2.571    0.000    0.000 
#    0.000    0.000    0.000    0.000    0.000    0.000 
#
# Total GULP energy -156334.963281 kJ/mol
# GULP energy per Si atom -5583.391546 kJ/mol
# Density = 2.055515 g / cm^3
# Si number density = 20.602043 Si / 1000 Ang^3
#
#
#
# Elastic Constant Matrix: (Units=GPa)
#
#
# Indices 1 2 3 4 5 6 
#
# 1 139.1777 0.0145 109.9858 0.0000 0.0000 0.0000
# 2 0.0145 28.5442 1.1168 0.0000 0.0000 0.0000
# 3 109.9858 1.1168 194.6615 0.0000 0.0000 0.0000
# 4 0.0000 0.0000 0.0000 20.4649 0.0000 0.0000
# 5 0.0000 0.0000 0.0000 0.0000 1.3015 0.0000
# 6 0.0000 0.0000 0.0000 0.0000 0.0000 4.4577
#
#
#
# Elastic Compliance Matrix: (Units=1/GPa)
#
#
# Indices 1 2 3 4 5 6 
#
# 1 0.012983 0.000280 -0.007337 0.000000 0.000000 0.000000
# 2 0.000280 0.035047 -0.000360 0.000000 0.000000 0.000000
# 3 -0.007337 -0.000360 0.009285 0.000000 0.000000 0.000000
# 4 0.000000 0.000000 0.000000 0.048864 0.000000 0.000000
# 5 0.000000 0.000000 0.000000 0.000000 0.768349 0.000000
# 6 0.000000 0.000000 0.000000 0.000000 0.000000 0.224332
#
#
# Mechanical properties :
#
#
# Convention : Reuss Voigt Hill
#
# Bulk Modulus (GPa) = 23.53899 64.95751 44.24825
# Shear Modulus (GPa) = 4.43320 21.99590 13.21455
#
# Velocity S-wave (km/s) = 1.46850 3.27105 2.53537
# Velocity P-wave (km/s) = 3.78493 6.77233 5.48590
#
# Compressibility (1/GPa) = 0.04248270
#
# Stress axis : x y z
#
# Youngs Moduli (GPa) = 77.02130 28.53288 107.70199
#
# Poissons Ratio (x) = -0.00800 0.79025
# Poissons Ratio (y) = -0.02160 0.03872
# Poissons Ratio (z) = 0.56513 0.01026
#
# Static dielectric constant tensor:
#      x y z
#    x 1.711930 0.000000 0.000000 
#    y 0.000000 1.771860 0.000000 
#    z 0.000000 0.000000 1.727460 
# 
# From -- ./inp_files/15547.got.cif
#   From: 2010.05.17/outbox.cif.g08.bks.cpg/sg38_8_cif.got.tgz:15547.got - 2010.06.03 18:07:57.
