data_PCOD9358962
_publ_section_title
;
Structure prediction by ZEFSAII (Michael W. Deem and Ramdas Pophale) SiO2 
 PCOD9358962
Probable space group: A M M 2
;
_chemical_formula_sum "Si O2"
_cell_formula_units_Z 64
_cell_length_a 24.426060
_cell_length_b 7.819963
_cell_length_c 15.809280
_cell_angle_alpha 90.000000
_cell_angle_beta 90.000000
_cell_angle_gamma 90.000000
_cell_volume 3019.744571
_symmetry_space_group_name_H-M "A M M 2"
_symmetry_group_IT_number 38
_symmetry_cell_setting 'orthorhombic'
loop_
_space_group_symop_operation_xyz
x,y,z
-x,-y,z
-x,y,z
x,-y,z
x,1/2+y,1/2+z
-x,1/2-y,1/2+z
-x,1/2+y,1/2+z
x,1/2-y,1/2+z
loop_
_atom_site_type_symbol
_atom_site_label
_atom_site_fract_x
_atom_site_fract_y
_atom_site_fract_z
Si Si1 0.061146 0.798712 0.049850
Si Si2 0.561668 0.205018 0.063966
Si Si3 0.139843 0.291835 0.401737
Si Si4 0.641372 0.290417 0.713191
Si Si5 0.237852 0.698272 0.664873
Si Si6 0.880483 0.196344 0.717913
Si Si7 0.629588 0.706138 0.901700
Si Si8 0.746273 0.297602 0.973839
O O1 0.085978 0.782812 0.143199
O O2 0.000000 0.725181 0.044769
O O3 0.057217 0.000000 0.030888
O O4 0.103851 0.729059 0.980897
O O5 0.500000 0.271852 0.073690
O O6 0.603483 0.269612 0.135917
O O7 0.559635 0.000000 0.073904
O O8 0.585648 0.241132 0.971380
O O9 0.141128 0.500000 0.401065
O O10 0.114894 0.233337 0.312670
O O11 0.202059 0.232418 0.413629
O O12 0.642123 0.500000 0.710433
O O13 0.704373 0.236523 0.700680
O O14 0.620354 0.236594 0.805415
O O15 0.231344 0.500000 0.690079
O O16 0.183786 0.793805 0.694733
O O17 0.242211 0.709174 0.563373
O O18 0.898369 0.000000 0.718975
O O19 0.630777 0.500000 0.899734
O O20 0.689471 0.764292 0.933611
O O21 0.741162 0.500000 0.990213
#
# Coordination Sequence:
#
# PCOD9358962 Si02
#       8
#     8   8   8   8   8   8   8   8
#     4  10  22  41  62  83 112 155 201 240 282 336
#     4  10  21  38  58  80 109 147 193 239 280 330
#     4  10  22  39  60  86 118 157 192 229 287 349
#     4   9  19  36  58  83 111 150 190 226 277 342
#     4  11  20  35  60  85 116 155 191 229 287 351
#     4  11  23  38  59  90 121 150 191 239 289 342
#     4  10  21  37  58  85 115 147 185 231 285 340
#     4  11  21  34  57  89 121 149 186 237 287 341
#
# _framework density 21.193845
#
# number of rings (size 3 to 8) (size 9 to 14) (size 15 to 20)
#    0.000    1.750    2.500    1.875    0.000    4.000 
#    0.000    4.375    0.000    0.000    0.000    0.000 
#    0.000    0.000    0.000    0.000    0.000    0.000 
#
# Total GULP energy -178823.463061 kJ/mol
# GULP energy per Si atom -5588.233221 kJ/mol
# Density = 2.114561 g / cm^3
# Si number density = 21.193845 Si / 1000 Ang^3
#
#
#
# Elastic Constant Matrix: (Units=GPa)
#
#
# Indices 1 2 3 4 5 6 
#
# 1 84.9001 -2.8609 2.3570 0.0000 0.0000 0.0000
# 2 -2.8609 26.9426 -8.0139 0.0000 0.0000 0.0000
# 3 2.3570 -8.0139 85.2654 0.0000 0.0000 0.0000
# 4 0.0000 0.0000 0.0000 18.0443 0.0000 0.0000
# 5 0.0000 0.0000 0.0000 0.0000 3.9579 0.0000
# 6 0.0000 0.0000 0.0000 0.0000 0.0000 -3.2527
#
#
#
# Elastic Compliance Matrix: (Units=1/GPa)
#
#
# Indices 1 2 3 4 5 6 
#
# 1 0.011825 0.001192 -0.000215 0.000000 0.000000 0.000000
# 2 0.001192 0.038303 0.003567 0.000000 0.000000 0.000000
# 3 -0.000215 0.003567 0.012069 0.000000 0.000000 0.000000
# 4 0.000000 0.000000 0.000000 0.055419 0.000000 0.000000
# 5 0.000000 0.000000 0.000000 0.000000 0.252660 0.000000
# 6 0.000000 0.000000 0.000000 0.000000 0.000000 -0.307435
#
#
# Mechanical properties :
#
#
# Convention : Reuss Voigt Hill
#
# Bulk Modulus (GPa) = 14.02814 20.00805 17.01809
# Shear Modulus (GPa) = 64.50361 17.45829 40.98095
#
# Velocity S-wave (km/s) = 5.52278 2.87321 4.40207
# Velocity P-wave (km/s) = 6.87761 4.52417 5.82107
#
# Compressibility (1/GPa) = 0.07128531
#
# Stress axis : x y z
#
# Youngs Moduli (GPa) = 84.56890 26.10729 82.85494
#
# Poissons Ratio (x) = -0.03111 0.01780
# Poissons Ratio (y) = -0.10078 -0.29555
# Poissons Ratio (z) = 0.01817 -0.09313
#
# Static dielectric constant tensor:
#      x y z
#    x 1.740920 0.000000 0.000000 
#    y 0.000000 1.784410 0.000000 
#    z 0.000000 0.000000 1.753500 
# 
# From -- ./inp_files/15779.got.cif
#   From: 2010.05.17/outbox.cif.g08.bks.cpg/sg38_8_cif.got.tgz:15779.got - 2010.06.03 18:07:57.
