data_PCOD9358081
_publ_section_title
;
Structure prediction by ZEFSAII (Michael W. Deem and Ramdas Pophale) SiO2 
 PCOD9358081
Probable space group: A M M 2
;
_chemical_formula_sum "Si O2"
_cell_formula_units_Z 58
_cell_length_a 9.783161
_cell_length_b 17.064000
_cell_length_c 17.609316
_cell_angle_alpha 90.000000
_cell_angle_beta 90.000000
_cell_angle_gamma 90.000000
_cell_volume 2939.696735
_symmetry_space_group_name_H-M "A M M 2"
_symmetry_group_IT_number 38
_symmetry_cell_setting 'orthorhombic'
loop_
_space_group_symop_operation_xyz
x,y,z
-x,-y,z
-x,y,z
x,-y,z
x,1/2+y,1/2+z
-x,1/2-y,1/2+z
-x,1/2+y,1/2+z
x,1/2-y,1/2+z
loop_
_atom_site_type_symbol
_atom_site_label
_atom_site_fract_x
_atom_site_fract_y
_atom_site_fract_z
Si Si1 0.500000 0.000000 0.660970
Si Si2 0.837103 0.409892 0.513670
Si Si3 0.155059 0.093025 0.250017
Si Si4 0.725890 0.135676 0.680244
Si Si5 0.164017 0.352226 0.347707
Si Si6 0.839619 0.814695 0.402677
Si Si7 0.156801 0.913741 0.534274
Si Si8 0.661760 0.185268 0.132761
O O1 0.615732 0.069523 0.663495
O O2 0.810135 0.500000 0.538735
O O3 0.811300 0.403486 0.423074
O O4 0.746571 0.346918 0.559576
O O5 0.000000 0.394482 0.525084
O O6 0.167518 0.120769 0.336847
O O7 0.268526 0.135411 0.200261
O O8 0.000000 0.116302 0.225091
O O9 0.165584 0.000000 0.244001
O O10 0.768166 0.127853 0.767817
O O11 0.843091 0.114064 0.620292
O O12 0.682072 0.223841 0.656772
O O13 0.217328 0.266009 0.370931
O O14 0.000000 0.351182 0.334918
O O15 0.776740 0.849743 0.479054
O O16 0.000000 0.795449 0.416857
O O17 0.000000 0.919982 0.508561
O O18 0.219279 0.000000 0.525516
O O19 0.500000 0.170437 0.123732
#
# Coordination Sequence:
#
# PCOD9358081 Si02
#       8
#     2   8   8   8   8   8   8   8
#     4  12  28  48  62  84 126 180 222 262 324 400
#     4  10  23  43  67 100 138 174 213 266 328 385
#     4  10  20  36  63  94 130 173 214 262 326 387
#     4  12  24  44  66  88 124 172 216 268 324 387
#     4  10  21  39  67 100 128 161 211 269 325 382
#     4   9  17  33  58  94 130 160 199 257 322 380
#     4  10  20  34  61  96 124 154 203 265 325 382
#     4  12  25  42  64  92 127 169 225 272 320 387
#
# _framework density 19.729925000000001
#
# number of rings (size 3 to 8) (size 9 to 14) (size 15 to 20)
#    0.000    1.517    2.759    2.483    0.966    6.621 
#    1.241    0.000    1.517    0.000    0.000    0.000 
#    0.000    0.000    0.000    0.000    0.000    0.000 
#
# Total GULP energy -161441.185700 kJ/mol
# GULP energy per Si atom -5566.937438 kJ/mol
# Density = 1.968502 g / cm^3
# Si number density = 19.729925 Si / 1000 Ang^3
#
#
#
# Elastic Constant Matrix: (Units=GPa)
#
#
# Indices 1 2 3 4 5 6 
#
# 1 75.2300 38.9107 19.6867 0.0000 0.0000 0.0000
# 2 38.9107 108.4747 16.1108 0.0000 0.0000 0.0000
# 3 19.6867 16.1108 76.4401 0.0000 0.0000 0.0000
# 4 0.0000 0.0000 0.0000 25.9803 0.0000 0.0000
# 5 0.0000 0.0000 0.0000 0.0000 -38.0559 0.0000
# 6 0.0000 0.0000 0.0000 0.0000 0.0000 0.6505
#
#
#
# Elastic Compliance Matrix: (Units=1/GPa)
#
#
# Indices 1 2 3 4 5 6 
#
# 1 0.017047 -0.005639 -0.003202 0.000000 0.000000 0.000000
# 2 -0.005639 0.011382 -0.000947 0.000000 0.000000 0.000000
# 3 -0.003202 -0.000947 0.014106 0.000000 0.000000 0.000000
# 4 0.000000 0.000000 0.000000 0.038491 0.000000 0.000000
# 5 0.000000 0.000000 0.000000 0.000000 -0.026277 0.000000
# 6 0.000000 0.000000 0.000000 0.000000 0.000000 1.537189
#
#
# Mechanical properties :
#
#
# Convention : Reuss Voigt Hill
#
# Bulk Modulus (GPa) = 43.55381 45.50679 44.53030
# Shear Modulus (GPa) = 3.08801 10.07743 6.58272
#
# Velocity S-wave (km/s) = 1.25241 2.26247 1.82857
# Velocity P-wave (km/s) = 4.92080 5.47174 5.20357
#
# Compressibility (1/GPa) = 0.02296011
#
# Stress axis : x y z
#
# Youngs Moduli (GPa) = 58.66028 87.85620 70.89055
#
# Poissons Ratio (x) = 0.49546 0.22698
# Poissons Ratio (y) = 0.33081 0.06710
# Poissons Ratio (z) = 0.18782 0.08316
#
# Static dielectric constant tensor:
#      x y z
#    x 1.765370 0.000000 0.000000 
#    y 0.000000 1.728370 0.000000 
#    z 0.000000 0.000000 1.712380 
# 
# From -- ./inp_files/17009.got.cif
#   From: 2010.05.17/outbox.cif.g08.bks.cpg/sg38_9_cif.got.tgz:17009.got - 2010.06.03 18:07:57.
