data_PCOD9358168
_publ_section_title
;
Structure prediction by ZEFSAII (Michael W. Deem and Ramdas Pophale) SiO2 
 PCOD9358168
Probable space group: A M M 2
;
_chemical_formula_sum "Si O2"
_cell_formula_units_Z 64
_cell_length_a 8.171563
_cell_length_b 29.603168
_cell_length_c 12.795728
_cell_angle_alpha 90.000000
_cell_angle_beta 90.000000
_cell_angle_gamma 90.000000
_cell_volume 3095.339735
_symmetry_space_group_name_H-M "A M M 2"
_symmetry_group_IT_number 38
_symmetry_cell_setting 'orthorhombic'
loop_
_space_group_symop_operation_xyz
x,y,z
-x,-y,z
-x,y,z
x,-y,z
x,1/2+y,1/2+z
-x,1/2-y,1/2+z
-x,1/2+y,1/2+z
x,1/2-y,1/2+z
loop_
_atom_site_type_symbol
_atom_site_label
_atom_site_fract_x
_atom_site_fract_y
_atom_site_fract_z
Si Si1 0.194168 0.551216 0.410930
Si Si2 0.304426 0.090968 0.129419
Si Si3 0.699352 0.209661 0.629767
Si Si4 0.305664 0.047307 0.574900
Si Si5 0.814243 0.930031 0.353440
Si Si6 0.693015 0.192407 0.177695
Si Si7 0.691341 0.834615 0.408412
Si Si8 0.697287 0.620708 0.234451
O O1 0.259514 0.500000 0.390752
O O2 0.232521 0.565774 0.529647
O O3 0.259519 0.590821 0.335181
O O4 0.000000 0.549702 0.396590
O O5 0.500000 0.092277 0.118919
O O6 0.263195 0.066683 0.238968
O O7 0.243058 0.143352 0.140198
O O8 0.500000 0.212558 0.639303
O O9 0.764957 0.260518 0.638043
O O10 0.733121 0.190119 0.514879
O O11 0.755347 0.172131 0.714652
O O12 0.500000 0.047482 0.591804
O O13 0.274939 0.048375 0.451893
O O14 0.241617 0.090687 0.636103
O O15 0.237337 0.000000 0.617766
O O16 0.802195 0.877350 0.384305
O O17 0.000000 0.945434 0.349507
O O18 0.500000 0.191380 0.149096
O O19 0.700598 0.194645 0.303574
O O20 0.500000 0.850392 0.417134
O O21 0.500000 0.623273 0.231087
#
# Coordination Sequence:
#
# PCOD9358168 Si02
#       8
#     8   8   8   8   8   8   8   8
#     4  11  25  43  61  83 117 159 199 245 303 361
#     4  10  21  39  63  86 113 149 195 243 291 346
#     4   9  16  29  54  86 116 148 192 245 292 337
#     4  10  20  35  56  83 113 144 184 233 282 334
#     4  11  21  34  55  81 112 147 185 229 285 346
#     4   8  16  29  52  87 115 145 189 243 296 339
#     4   9  16  31  52  74 110 150 187 233 284 336
#     4  10  20  36  60  87 114 149 196 243 288 342
#
# _framework density 20.676245999999999
#
# number of rings (size 3 to 8) (size 9 to 14) (size 15 to 20)
#    0.000    2.250    1.250    3.000    0.000    3.750 
#    0.000    3.750    0.000   10.500    0.000    0.000 
#    0.000    0.000    0.000    0.000    0.000    0.000 
#
# Total GULP energy -178405.478146 kJ/mol
# GULP energy per Si atom -5575.171192 kJ/mol
# Density = 2.062919 g / cm^3
# Si number density = 20.676246 Si / 1000 Ang^3
#
#
#
# Elastic Constant Matrix: (Units=GPa)
#
#
# Indices 1 2 3 4 5 6 
#
# 1 14.8358 2.8020 -6.9809 0.0000 0.0000 0.0000
# 2 2.8020 66.4697 10.8415 0.0000 0.0000 0.0000
# 3 -6.9809 10.8415 67.6158 0.0000 0.0000 0.0000
# 4 0.0000 0.0000 0.0000 28.8470 0.0000 0.0000
# 5 0.0000 0.0000 0.0000 0.0000 -41.9005 0.0000
# 6 0.0000 0.0000 0.0000 0.0000 0.0000 6.8801
#
#
#
# Elastic Compliance Matrix: (Units=1/GPa)
#
#
# Indices 1 2 3 4 5 6 
#
# 1 0.072059 -0.004365 0.008140 0.000000 0.000000 0.000000
# 2 -0.004365 0.015713 -0.002970 0.000000 0.000000 0.000000
# 3 0.008140 -0.002970 0.016106 0.000000 0.000000 0.000000
# 4 0.000000 0.000000 0.000000 0.034666 0.000000 0.000000
# 5 0.000000 0.000000 0.000000 0.000000 -0.023866 0.000000
# 6 0.000000 0.000000 0.000000 0.000000 0.000000 0.145346
#
#
# Mechanical properties :
#
#
# Convention : Reuss Voigt Hill
#
# Bulk Modulus (GPa) = 9.47991 18.02739 13.75365
# Shear Modulus (GPa) = 17.03131 8.24924 12.64027
#
# Velocity S-wave (km/s) = 2.87316 1.99959 2.47522
# Velocity P-wave (km/s) = 3.94988 3.75087 3.85166
#
# Compressibility (1/GPa) = 0.10548627
#
# Stress axis : x y z
#
# Youngs Moduli (GPa) = 13.87756 63.64194 62.08853
#
# Poissons Ratio (x) = 0.27781 -0.50537
# Poissons Ratio (y) = 0.06058 0.18441
# Poissons Ratio (z) = -0.11296 0.18902
#
# Static dielectric constant tensor:
#      x y z
#    x 1.732150 0.000000 0.000000 
#    y 0.000000 1.793940 0.000000 
#    z 0.000000 0.000000 1.726470 
# 
# From -- ./inp_files/8624.got.cif
#   From: 2010.05.17/outbox.cif.g08.bks.cpg/sg38_5_cif.got.tgz:8624.got - 2010.06.03 18:07:57.
