data_PCOD9358381
_publ_section_title
;
Structure prediction by ZEFSAII (Michael W. Deem and Ramdas Pophale) SiO2 
 PCOD9358381
Probable space group: A M M 2
;
_chemical_formula_sum "Si O2"
_cell_formula_units_Z 64
_cell_length_a 8.695093
_cell_length_b 24.381153
_cell_length_c 15.879859
_cell_angle_alpha 90.000000
_cell_angle_beta 90.000000
_cell_angle_gamma 90.000000
_cell_volume 3366.472826
_symmetry_space_group_name_H-M "A M M 2"
_symmetry_group_IT_number 38
_symmetry_cell_setting 'orthorhombic'
loop_
_space_group_symop_operation_xyz
x,y,z
-x,-y,z
-x,y,z
x,-y,z
x,1/2+y,1/2+z
-x,1/2-y,1/2+z
-x,1/2+y,1/2+z
x,1/2-y,1/2+z
loop_
_atom_site_type_symbol
_atom_site_label
_atom_site_fract_x
_atom_site_fract_y
_atom_site_fract_z
Si Si1 0.685194 0.630794 0.601850
Si Si2 0.316138 0.868745 0.600289
Si Si3 0.314523 0.750065 0.168556
Si Si4 0.184178 0.246621 0.856704
Si Si5 0.814583 0.633287 0.920067
Si Si6 0.185778 0.063239 0.257827
Si Si7 0.184257 0.436186 0.256911
Si Si8 0.684366 0.131461 0.912991
O O1 0.500000 0.627376 0.605884
O O2 0.727480 0.694185 0.620339
O O3 0.754193 0.593380 0.674766
O O4 0.732947 0.615030 0.507378
O O5 0.500000 0.872132 0.601177
O O6 0.271948 0.805451 0.619805
O O7 0.253395 0.884644 0.508996
O O8 0.250129 0.905731 0.675085
O O9 0.500000 0.749652 0.180191
O O10 0.235302 0.749756 0.259483
O O11 0.229334 0.303729 0.900591
O O12 0.263801 0.193919 0.897162
O O13 0.000000 0.240753 0.861406
O O14 0.763974 0.596162 0.841240
O O15 0.000000 0.630858 0.924369
O O16 0.000000 0.064669 0.256474
O O17 0.235225 0.000000 0.260599
O O18 0.229535 0.500000 0.257443
O O19 0.244612 0.405739 0.340079
O O20 0.000000 0.432647 0.255039
O O21 0.500000 0.128630 0.907523
#
# Coordination Sequence:
#
# PCOD9358381 Si02
#       8
#     8   8   8   8   8   8   8   8
#     4  10  22  39  61  89 122 158 197 242 297 358
#     4  11  23  39  63  93 122 157 198 244 301 362
#     4  10  20  36  59  88 122 158 191 238 302 359
#     4  11  21  35  60  91 122 159 199 243 295 355
#     4  10  22  39  59  89 124 160 200 244 298 357
#     4  10  22  41  62  84 116 158 203 251 300 348
#     4  11  25  44  64  87 118 158 204 253 303 357
#     4  11  23  40  62  90 123 159 198 245 303 362
#
# _framework density 19.010995999999999
#
# number of rings (size 3 to 8) (size 9 to 14) (size 15 to 20)
#    0.000    1.500    2.500    2.250    0.000    6.250 
#    0.000    3.750    0.000    0.000    0.000    0.000 
#    0.000    0.000    0.000    0.000    0.000    0.000 
#
# Total GULP energy -178875.078812 kJ/mol
# GULP energy per Si atom -5589.846213 kJ/mol
# Density = 1.896773 g / cm^3
# Si number density = 19.010996 Si / 1000 Ang^3
#
#
#
# Elastic Constant Matrix: (Units=GPa)
#
#
# Indices 1 2 3 4 5 6 
#
# 1 20.9406 37.1041 38.1026 0.0000 0.0000 0.0000
# 2 37.1041 157.0125 93.1987 0.0000 0.0000 0.0000
# 3 38.1026 93.1987 200.5209 0.0000 0.0000 0.0000
# 4 0.0000 0.0000 0.0000 -3.0411 0.0000 0.0000
# 5 0.0000 0.0000 0.0000 0.0000 37.4527 0.0000
# 6 0.0000 0.0000 0.0000 0.0000 0.0000 18.4750
#
#
#
# Elastic Compliance Matrix: (Units=1/GPa)
#
#
# Indices 1 2 3 4 5 6 
#
# 1 0.096227 -0.016415 -0.010656 0.000000 0.000000 0.000000
# 2 -0.016415 0.011596 -0.002270 0.000000 0.000000 0.000000
# 3 -0.010656 -0.002270 0.008067 0.000000 0.000000 0.000000
# 4 0.000000 0.000000 0.000000 -0.328824 0.000000 0.000000
# 5 0.000000 0.000000 0.000000 0.000000 0.026700 0.000000
# 6 0.000000 0.000000 0.000000 0.000000 0.000000 0.054127
#
#
# Mechanical properties :
#
#
# Convention : Reuss Voigt Hill
#
# Bulk Modulus (GPa) = 17.47994 79.47609 48.47802
# Shear Modulus (GPa) = -91.98761 24.58189 -33.70286
#
# Velocity S-wave (km/s) = -6.96359 3.59978 -4.21504
# Velocity P-wave (km/s) = 7.44586 7.69246 1.36623
#
# Compressibility (1/GPa) = 0.05720844
#
# Stress axis : x y z
#
# Youngs Moduli (GPa) = 10.39204 86.23994 123.96240
#
# Poissons Ratio (x) = 1.41562 1.32089
# Poissons Ratio (y) = 0.17058 0.28143
# Poissons Ratio (z) = 0.11073 0.19579
#
# Static dielectric constant tensor:
#      x y z
#    x 1.640530 0.000000 0.000000 
#    y 0.000000 1.648840 0.000000 
#    z 0.000000 0.000000 1.633930 
# 
# From -- ./inp_files/12755.got.cif
#   From: 2010.05.17/outbox.cif.g08.bks.cpg/sg38_7_cif.got.tgz:12755.got - 2010.06.03 18:07:57.
