data_PCOD9358359
_publ_section_title
;
Structure prediction by ZEFSAII (Michael W. Deem and Ramdas Pophale) SiO2 
 PCOD9358359
Probable space group: A M M 2
;
_chemical_formula_sum "Si O2"
_cell_formula_units_Z 48
_cell_length_a 10.482313
_cell_length_b 7.800686
_cell_length_c 28.024610
_cell_angle_alpha 90.000000
_cell_angle_beta 90.000000
_cell_angle_gamma 90.000000
_cell_volume 2291.550844
_symmetry_space_group_name_H-M "A M M 2"
_symmetry_group_IT_number 38
_symmetry_cell_setting 'orthorhombic'
loop_
_space_group_symop_operation_xyz
x,y,z
-x,-y,z
-x,y,z
x,-y,z
x,1/2+y,1/2+z
-x,1/2-y,1/2+z
-x,1/2+y,1/2+z
x,1/2-y,1/2+z
loop_
_atom_site_type_symbol
_atom_site_label
_atom_site_fract_x
_atom_site_fract_y
_atom_site_fract_z
Si Si1 0.271765 0.707384 0.535440
Si Si2 0.000000 0.205306 0.183989
Si Si3 0.230199 0.796214 0.753257
Si Si4 0.500000 0.207274 0.103655
Si Si5 0.858060 0.203116 0.358182
Si Si6 0.642755 0.294635 0.928912
Si Si7 0.000000 0.790080 0.074218
Si Si8 0.500000 0.705021 0.214707
O O1 0.271658 0.500000 0.536407
O O2 0.374824 0.765674 0.574750
O O3 0.315997 0.762065 0.483180
O O4 0.129652 0.766377 0.548528
O O5 0.874509 0.261726 0.212597
O O6 0.000000 0.265815 0.129387
O O7 0.000000 0.000000 0.183233
O O8 0.181803 0.723014 0.803267
O O9 0.369022 0.727832 0.737831
O O10 0.239378 0.000000 0.759414
O O11 0.500000 0.262419 0.158265
O O12 0.500000 0.000000 0.103121
O O13 0.749142 0.275555 0.392780
O O14 0.000000 0.276374 0.365541
O O15 0.865767 0.000000 0.368122
O O16 0.500000 0.225650 0.920767
O O17 0.636655 0.500000 0.922036
O O18 0.000000 0.000000 0.074099
O O19 0.500000 0.500000 0.221518
#
# Coordination Sequence:
#
# PCOD9358359 Si02
#       8
#     8   4   8   4   8   8   4   4
#     4  10  20  37  58  84 116 150 191 238 285 337
#     4  11  21  39  64  87 116 157 200 243 292 345
#     4  11  23  40  60  87 122 155 194 243 295 350
#     4  10  20  36  59  84 113 153 200 243 285 342
#     4  10  22  40  61  85 114 149 192 238 289 350
#     4  10  22  39  59  85 116 149 188 236 289 343
#     4   9  20  35  56  85 116 149 190 237 280 333
#     4  10  24  40  57  86 123 159 194 241 293 348
#
# _framework density 20.946512999999999
#
# number of rings (size 3 to 8) (size 9 to 14) (size 15 to 20)
#    0.000    1.833    1.667    1.750    2.333    4.000 
#    0.000    1.667    0.000    0.000    0.000    0.000 
#    0.000    0.000    0.000    0.000    0.000    0.000 
#
# Total GULP energy -134136.367771 kJ/mol
# GULP energy per Si atom -5589.015324 kJ/mol
# Density = 2.089884 g / cm^3
# Si number density = 20.946513 Si / 1000 Ang^3
#
#
#
# Elastic Constant Matrix: (Units=GPa)
#
#
# Indices 1 2 3 4 5 6 
#
# 1 242.4677 9.6137 90.3305 0.0000 0.0000 0.0000
# 2 9.6137 26.2112 -6.4820 0.0000 0.0000 0.0000
# 3 90.3305 -6.4820 104.6039 0.0000 0.0000 0.0000
# 4 0.0000 0.0000 0.0000 23.9822 0.0000 0.0000
# 5 0.0000 0.0000 0.0000 0.0000 46.2026 0.0000
# 6 0.0000 0.0000 0.0000 0.0000 0.0000 72.6154
#
#
#
# Elastic Compliance Matrix: (Units=1/GPa)
#
#
# Indices 1 2 3 4 5 6 
#
# 1 0.006431 -0.003790 -0.005788 0.000000 0.000000 0.000000
# 2 -0.003790 0.040979 0.005812 0.000000 0.000000 0.000000
# 3 -0.005788 0.005812 0.014919 0.000000 0.000000 0.000000
# 4 0.000000 0.000000 0.000000 0.041698 0.000000 0.000000
# 5 0.000000 0.000000 0.000000 0.000000 0.021644 0.000000
# 6 0.000000 0.000000 0.000000 0.000000 0.000000 0.013771
#
#
# Mechanical properties :
#
#
# Convention : Reuss Voigt Hill
#
# Bulk Modulus (GPa) = 18.24937 62.24525 40.24731
# Shear Modulus (GPa) = 30.25921 47.21473 38.73697
#
# Velocity S-wave (km/s) = 3.80490 4.75285 4.30505
# Velocity P-wave (km/s) = 5.29475 7.73952 6.63078
#
# Compressibility (1/GPa) = 0.05479643
#
# Stress axis : x y z
#
# Youngs Moduli (GPa) = 155.49807 24.40262 67.03078
#
# Poissons Ratio (x) = 0.09249 0.38799
# Poissons Ratio (y) = 0.58937 -0.38961
# Poissons Ratio (z) = 0.90007 -0.14184
#
# Static dielectric constant tensor:
#      x y z
#    x 1.764120 0.000000 0.000000 
#    y 0.000000 1.770850 0.000000 
#    z 0.000000 0.000000 1.686230 
# 
# From -- ./inp_files/24477.got.cif
#   From: 2010.05.17/outbox.cif.g08.bks.cpg/sg38_13_cif.got.tgz:24477.got - 2010.06.03 18:07:57.
