data_PCOD9358067
_publ_section_title
;
Structure prediction by ZEFSAII (Michael W. Deem and Ramdas Pophale) SiO2 
 PCOD9358067
Probable space group: A M M 2
;
_chemical_formula_sum "Si O2"
_cell_formula_units_Z 64
_cell_length_a 8.730916
_cell_length_b 19.274175
_cell_length_c 19.065951
_cell_angle_alpha 90.000000
_cell_angle_beta 90.000000
_cell_angle_gamma 90.000000
_cell_volume 3208.441169
_symmetry_space_group_name_H-M "A M M 2"
_symmetry_group_IT_number 38
_symmetry_cell_setting 'orthorhombic'
loop_
_space_group_symop_operation_xyz
x,y,z
-x,-y,z
-x,y,z
x,-y,z
x,1/2+y,1/2+z
-x,1/2-y,1/2+z
-x,1/2+y,1/2+z
x,1/2-y,1/2+z
loop_
_atom_site_type_symbol
_atom_site_label
_atom_site_fract_x
_atom_site_fract_y
_atom_site_fract_z
Si Si1 0.828957 0.075477 0.227340
Si Si2 0.177965 0.288540 0.525801
Si Si3 0.312773 0.081198 0.750162
Si Si4 0.675561 0.578530 0.585518
Si Si5 0.320589 0.818588 0.873287
Si Si6 0.176726 0.682601 0.851268
Si Si7 0.316960 0.843225 0.606789
Si Si8 0.316357 0.579569 0.965062
O O1 0.700312 0.079134 0.168793
O O2 0.818184 0.133262 0.284672
O O3 0.000000 0.079334 0.194208
O O4 0.818662 0.000000 0.262215
O O5 0.212105 0.363204 0.558598
O O6 0.245025 0.299646 0.447821
O O7 0.251746 0.228484 0.574489
O O8 0.000000 0.273034 0.521379
O O9 0.500000 0.081933 0.749395
O O10 0.265034 0.118847 0.823075
O O11 0.262840 0.126538 0.682003
O O12 0.266423 0.000000 0.746059
O O13 0.500000 0.594834 0.566771
O O14 0.709358 0.500000 0.561118
O O15 0.500000 0.829363 0.885405
O O16 0.284940 0.747091 0.833817
O O17 0.234233 0.636474 0.916650
O O18 0.000000 0.704621 0.862396
O O19 0.500000 0.833912 0.612358
O O20 0.287931 0.900226 0.546013
O O21 0.500000 0.584927 0.953303
O O22 0.269846 0.500000 0.950994
#
# Coordination Sequence:
#
# PCOD9358067 Si02
#       8
#     8   8   8   8   8   8   8   8
#     4   9  19  36  56  82 119 160 198 240 295 359
#     4  12  25  41  62  90 125 166 207 256 317 378
#     4   9  20  40  67  97 126 159 204 260 320 377
#     4  10  22  40  63  90 118 153 201 255 308 367
#     4  11  23  40  62  90 122 161 209 260 309 366
#     4  11  22  36  55  83 122 167 206 249 305 365
#     4  10  20  38  64  94 126 160 202 255 313 378
#     4  10  20  34  57  88 122 161 203 250 306 370
#
# _framework density 19.947381
#
# number of rings (size 3 to 8) (size 9 to 14) (size 15 to 20)
#    0.000    1.750    1.250    3.000    1.750    4.500 
#    0.000    3.125    0.000    3.750    0.000    0.000 
#    0.000    0.000    0.000    0.000    0.000    0.000 
#
# Total GULP energy -178448.714807 kJ/mol
# GULP energy per Si atom -5576.522338 kJ/mol
# Density = 1.990198 g / cm^3
# Si number density = 19.947381 Si / 1000 Ang^3
#
#
#
# Elastic Constant Matrix: (Units=GPa)
#
#
# Indices 1 2 3 4 5 6 
#
# 1 28.6118 21.4383 19.5594 0.0000 0.0000 0.0000
# 2 21.4383 108.0299 57.1238 0.0000 0.0000 0.0000
# 3 19.5594 57.1238 69.2315 0.0000 0.0000 0.0000
# 4 0.0000 0.0000 0.0000 34.6603 0.0000 0.0000
# 5 0.0000 0.0000 0.0000 0.0000 17.2041 0.0000
# 6 0.0000 0.0000 0.0000 0.0000 0.0000 6.2789
#
#
#
# Elastic Compliance Matrix: (Units=1/GPa)
#
#
# Indices 1 2 3 4 5 6 
#
# 1 0.044200 -0.003847 -0.009314 0.000000 0.000000 0.000000
# 2 -0.003847 0.016756 -0.012739 0.000000 0.000000 0.000000
# 3 -0.009314 -0.012739 0.027587 0.000000 0.000000 0.000000
# 4 0.000000 0.000000 0.000000 0.028851 0.000000 0.000000
# 5 0.000000 0.000000 0.000000 0.000000 0.058126 0.000000
# 6 0.000000 0.000000 0.000000 0.000000 0.000000 0.159263
#
#
# Mechanical properties :
#
#
# Convention : Reuss Voigt Hill
#
# Bulk Modulus (GPa) = 27.21506 44.67958 35.94732
# Shear Modulus (GPa) = 12.53670 18.81210 15.67440
#
# Velocity S-wave (km/s) = 2.50969 3.07430 2.80623
# Velocity P-wave (km/s) = 4.69799 5.92023 5.34417
#
# Compressibility (1/GPa) = 0.03674435
#
# Stress axis : x y z
#
# Youngs Moduli (GPa) = 22.62460 59.67967 36.24938
#
# Poissons Ratio (x) = 0.22956 0.33761
# Poissons Ratio (y) = 0.08703 0.46178
# Poissons Ratio (z) = 0.21072 0.76026
#
# Static dielectric constant tensor:
#      x y z
#    x 1.706460 0.000000 0.000000 
#    y 0.000000 1.680070 0.000000 
#    z 0.000000 0.000000 1.759080 
# 
# From -- ./inp_files/20113.got.cif
#   From: 2010.05.17/outbox.cif.g08.bks.cpg/sg38_11_cif.got.tgz:20113.got - 2010.06.03 18:07:57.
