data_PCOD9358082
_publ_section_title
;
Structure prediction by ZEFSAII (Michael W. Deem and Ramdas Pophale) SiO2 
 PCOD9358082
Probable space group: A M M 2
;
_chemical_formula_sum "Si O2"
_cell_formula_units_Z 48
_cell_length_a 8.514569
_cell_length_b 33.606909
_cell_length_c 7.359260
_cell_angle_alpha 90.000000
_cell_angle_beta 90.000000
_cell_angle_gamma 90.000000
_cell_volume 2105.840074
_symmetry_space_group_name_H-M "A M M 2"
_symmetry_group_IT_number 38
_symmetry_cell_setting 'orthorhombic'
loop_
_space_group_symop_operation_xyz
x,y,z
-x,-y,z
-x,y,z
x,-y,z
x,1/2+y,1/2+z
-x,1/2-y,1/2+z
-x,1/2+y,1/2+z
x,1/2-y,1/2+z
loop_
_atom_site_type_symbol
_atom_site_label
_atom_site_fract_x
_atom_site_fract_y
_atom_site_fract_z
Si Si1 0.811875 0.042840 0.444230
Si Si2 0.184440 0.371092 0.939660
Si Si3 0.315392 0.042786 0.036628
Si Si4 0.184381 0.707585 0.545021
Si Si5 0.677472 0.288377 0.926581
Si Si6 0.819283 0.123158 0.996370
O O1 0.753153 0.086148 0.508015
O O2 0.777089 0.042674 0.227876
O O3 0.000000 0.043296 0.470364
O O4 0.750286 0.000000 0.512878
O O5 0.269022 0.331062 0.002020
O O6 0.194476 0.373118 0.717740
O O7 0.000000 0.367654 0.983871
O O8 0.500000 0.043412 0.078211
O O9 0.274024 0.084023 0.939939
O O10 0.278713 0.000000 0.946536
O O11 0.304198 0.706479 0.711318
O O12 0.210316 0.750930 0.463057
O O13 0.219124 0.667727 0.429392
O O14 0.000000 0.703658 0.600623
O O15 0.500000 0.279251 0.980999
O O16 0.000000 0.115125 0.952212
#
# Coordination Sequence:
#
# PCOD9358082 Si02
#       6
#     8   8   8   8   8   8
#     4   8  13  21  33  49  72 105 143 177 209 253
#     4   8  14  25  39  56  81 114 147 179 221 269
#     4   9  15  20  29  49  77 107 137 171 214 261
#     4  10  20  35  51  67  91 124 158 191 232 279
#     4  11  21  32  48  71  95 120 154 195 235 274
#     4   8  15  26  40  56  76 108 147 181 215 260
#
# _framework density 22.793752999999999
#
# number of rings (size 3 to 8) (size 9 to 14) (size 15 to 20)
#    0.000    3.000    0.000    4.500    0.000    7.667 
#    0.000    0.000    0.000    0.000    0.000    0.000 
#    0.000    1.333    0.000    7.000    0.000   18.000 
#
# Total GULP energy -133674.066891 kJ/mol
# GULP energy per Si atom -5569.752787 kJ/mol
# Density = 2.274187 g / cm^3
# Si number density = 22.793753 Si / 1000 Ang^3
#
#
#
# Elastic Constant Matrix: (Units=GPa)
#
#
# Indices 1 2 3 4 5 6 
#
# 1 28.8716 49.2929 -0.7745 0.0000 0.0000 0.0000
# 2 49.2929 248.4354 -6.1911 0.0000 0.0000 0.0000
# 3 -0.7745 -6.1911 42.9311 0.0000 0.0000 0.0000
# 4 0.0000 0.0000 0.0000 -1.8921 0.0000 0.0000
# 5 0.0000 0.0000 0.0000 0.0000 1.6868 0.0000
# 6 0.0000 0.0000 0.0000 0.0000 0.0000 22.1142
#
#
#
# Elastic Compliance Matrix: (Units=1/GPa)
#
#
# Indices 1 2 3 4 5 6 
#
# 1 0.052393 -0.010409 -0.000556 0.000000 0.000000 0.000000
# 2 -0.010409 0.006108 0.000693 0.000000 0.000000 0.000000
# 3 -0.000556 0.000693 0.023383 0.000000 0.000000 0.000000
# 4 0.000000 0.000000 0.000000 -0.528501 0.000000 0.000000
# 5 0.000000 0.000000 0.000000 0.000000 0.592850 0.000000
# 6 0.000000 0.000000 0.000000 0.000000 0.000000 0.045220
#
#
# Mechanical properties :
#
#
# Convention : Reuss Voigt Hill
#
# Bulk Modulus (GPa) = 16.30269 44.98808 30.64538
# Shear Modulus (GPa) = 21.51060 22.90916 22.20988
#
# Velocity S-wave (km/s) = 3.07531 3.17371 3.12490
# Velocity P-wave (km/s) = 4.44723 5.76279 5.14722
#
# Compressibility (1/GPa) = 0.06133957
#
# Stress axis : x y z
#
# Youngs Moduli (GPa) = 19.08645 163.72473 42.76603
#
# Poissons Ratio (x) = 1.70427 0.02377
# Poissons Ratio (y) = 0.19868 -0.02964
# Poissons Ratio (z) = 0.01061 -0.11346
#
# Static dielectric constant tensor:
#      x y z
#    x 1.563250 0.000000 0.000000 
#    y 0.000000 1.970500 0.000000 
#    z 0.000000 0.000000 2.060040 
# 
# From -- ./inp_files/8390.got.cif
#   From: 2010.05.17/outbox.cif.g08.bks.cpg/sg38_5_cif.got.tgz:8390.got - 2010.06.03 18:07:57.
