data_PCOD9358732
_publ_section_title
;
Structure prediction by ZEFSAII (Michael W. Deem and Ramdas Pophale) SiO2 
 PCOD9358732
Probable space group: A M M 2
;
_chemical_formula_sum "Si O2"
_cell_formula_units_Z 48
_cell_length_a 7.522031
_cell_length_b 24.207075
_cell_length_c 11.969304
_cell_angle_alpha 90.000000
_cell_angle_beta 90.000000
_cell_angle_gamma 90.000000
_cell_volume 2179.447100
_symmetry_space_group_name_H-M "A M M 2"
_symmetry_group_IT_number 38
_symmetry_cell_setting 'orthorhombic'
loop_
_space_group_symop_operation_xyz
x,y,z
-x,-y,z
-x,y,z
x,-y,z
x,1/2+y,1/2+z
-x,1/2-y,1/2+z
-x,1/2+y,1/2+z
x,1/2-y,1/2+z
loop_
_atom_site_type_symbol
_atom_site_label
_atom_site_fract_x
_atom_site_fract_y
_atom_site_fract_z
Si Si1 0.295591 0.349175 0.370220
Si Si2 0.784350 0.563298 0.801488
Si Si3 0.284950 0.270597 0.829312
Si Si4 0.790177 0.649374 0.624431
Si Si5 0.717423 0.063550 0.701468
Si Si6 0.298317 0.641362 0.002574
O O1 0.500000 0.347405 0.332791
O O2 0.214636 0.291635 0.327609
O O3 0.292586 0.345762 0.503438
O O4 0.228058 0.406172 0.316805
O O5 0.734075 0.500000 0.803569
O O6 0.731734 0.593967 0.688151
O O7 0.701591 0.596500 0.903443
O O8 0.000000 0.567660 0.811676
O O9 0.500000 0.229913 0.339630
O O10 0.244205 0.302536 0.714768
O O11 0.218660 0.305384 0.938027
O O12 0.000000 0.646643 0.605808
O O13 0.500000 0.060243 0.693328
O O14 0.779035 0.107300 0.606571
O O15 0.779475 0.000000 0.689287
O O16 0.500000 0.656752 0.035323
#
# Coordination Sequence:
#
# PCOD9358732 Si02
#       6
#     8   8   8   8   8   8
#     4  10  21  35  55  78 105 141 179 218 261 317
#     4   9  18  33  52  74 103 139 174 211 259 310
#     4   9  19  34  56  80 103 133 177 224 269 318
#     4  10  21  36  53  76 107 138 174 217 264 315
#     4   9  18  32  51  78 110 141 174 216 266 313
#     4   9  17  31  53  80 103 130 172 222 267 309
#
# _framework density 22.023933
#
# number of rings (size 3 to 8) (size 9 to 14) (size 15 to 20)
#    0.000    2.667    0.000    1.000    2.333    3.000 
#    0.000    0.833    0.000    1.000    0.000    0.000 
#    0.000    0.000    0.000    0.000    0.000    0.000 
#
# Total GULP energy -133851.717398 kJ/mol
# GULP energy per Si atom -5577.154892 kJ/mol
# Density = 2.197381 g / cm^3
# Si number density = 22.023933 Si / 1000 Ang^3
#
#
#
# Elastic Constant Matrix: (Units=GPa)
#
#
# Indices 1 2 3 4 5 6 
#
# 1 54.8578 6.4413 -4.6615 0.0000 0.0000 0.0000
# 2 6.4413 83.6684 25.9007 0.0000 0.0000 0.0000
# 3 -4.6615 25.9007 90.8091 0.0000 0.0000 0.0000
# 4 0.0000 0.0000 0.0000 15.2476 0.0000 0.0000
# 5 0.0000 0.0000 0.0000 0.0000 35.1462 0.0000
# 6 0.0000 0.0000 0.0000 0.0000 0.0000 -1.3568
#
#
#
# Elastic Compliance Matrix: (Units=1/GPa)
#
#
# Indices 1 2 3 4 5 6 
#
# 1 0.018578 -0.001893 0.001493 0.000000 0.000000 0.000000
# 2 -0.001893 0.013302 -0.003891 0.000000 0.000000 0.000000
# 3 0.001493 -0.003891 0.012199 0.000000 0.000000 0.000000
# 4 0.000000 0.000000 0.000000 0.065584 0.000000 0.000000
# 5 0.000000 0.000000 0.000000 0.000000 0.028453 0.000000
# 6 0.000000 0.000000 0.000000 0.000000 0.000000 -0.737026
#
#
# Mechanical properties :
#
#
# Convention : Reuss Voigt Hill
#
# Bulk Modulus (GPa) = 28.17040 31.63293 29.90167
# Shear Modulus (GPa) = -8.64309 23.25106 7.30398
#
# Velocity S-wave (km/s) = -1.98316 3.25271 1.82307
# Velocity P-wave (km/s) = 2.75221 5.33863 4.24710
#
# Compressibility (1/GPa) = 0.03549825
#
# Stress axis : x y z
#
# Youngs Moduli (GPa) = 53.82690 75.17532 81.97638
#
# Poissons Ratio (x) = 0.14228 -0.12243
# Poissons Ratio (y) = 0.10187 0.31899
# Poissons Ratio (z) = -0.08039 0.29252
#
# Static dielectric constant tensor:
#      x y z
#    x 1.831350 0.000000 0.000000 
#    y 0.000000 1.809830 0.000000 
#    z 0.000000 0.000000 1.795070 
# 
# From -- ./inp_files/8109.got.cif
#   From: 2010.05.17/outbox.cif.g08.bks.cpg/sg38_5_cif.got.tgz:8109.got - 2010.06.03 18:07:57.
