data_PCOD9358045
_publ_section_title
;
Structure prediction by ZEFSAII (Michael W. Deem and Ramdas Pophale) SiO2 
 PCOD9358045
Probable space group: A M M 2
;
_chemical_formula_sum "Si O2"
_cell_formula_units_Z 40
_cell_length_a 11.750237
_cell_length_b 8.714981
_cell_length_c 20.858886
_cell_angle_alpha 90.000000
_cell_angle_beta 90.000000
_cell_angle_gamma 90.000000
_cell_volume 2136.014426
_symmetry_space_group_name_H-M "A M M 2"
_symmetry_group_IT_number 38
_symmetry_cell_setting 'orthorhombic'
loop_
_space_group_symop_operation_xyz
x,y,z
-x,-y,z
-x,y,z
x,-y,z
x,1/2+y,1/2+z
-x,1/2-y,1/2+z
-x,1/2+y,1/2+z
x,1/2-y,1/2+z
loop_
_atom_site_type_symbol
_atom_site_label
_atom_site_fract_x
_atom_site_fract_y
_atom_site_fract_z
Si Si1 0.500000 0.818008 0.755461
Si Si2 0.500000 0.682314 0.610797
Si Si3 0.269112 0.318345 0.807597
Si Si4 0.733282 0.815783 0.561137
Si Si5 0.131781 0.187250 0.433894
Si Si6 0.134835 0.320071 0.192124
O O1 0.500000 0.749296 0.683303
O O2 0.611839 0.763227 0.793052
O O3 0.500000 0.000000 0.748958
O O4 0.500000 0.500000 0.615729
O O5 0.612057 0.739168 0.573785
O O6 0.289399 0.500000 0.813111
O O7 0.202352 0.265323 0.871116
O O8 0.189750 0.282519 0.746883
O O9 0.800637 0.765264 0.497717
O O10 0.809820 0.785210 0.623644
O O11 0.716905 0.000000 0.556903
O O12 0.000000 0.238821 0.432879
O O13 0.128653 0.000000 0.433971
O O14 0.159676 0.500000 0.206432
O O15 0.000000 0.300984 0.189437
#
# Coordination Sequence:
#
# PCOD9358045 Si02
#       6
#     4   4   8   8   8   8
#     4  12  24  41  62  85 117 157 203 251 300 362
#     4  12  24  39  60  89 123 153 193 251 308 358
#     4  11  22  37  60  89 121 157 198 250 303 348
#     4  10  20  37  62  87 117 159 203 243 288 349
#     4   9  19  37  61  90 123 159 199 242 289 348
#     4  10  20  34  56  86 117 154 202 249 294 351
#
# _framework density 18.726465000000001
#
# number of rings (size 3 to 8) (size 9 to 14) (size 15 to 20)
#    0.000    1.600    2.000    3.600    0.000    4.400 
#    0.000    6.000    0.000    4.200    0.000    0.000 
#    0.000    0.000    0.000    0.000    0.000    0.000 
#
# Total GULP energy -111751.434523 kJ/mol
# GULP energy per Si atom -5587.571726 kJ/mol
# Density = 1.868384 g / cm^3
# Si number density = 18.726465 Si / 1000 Ang^3
#
#
#
# Elastic Constant Matrix: (Units=GPa)
#
#
# Indices 1 2 3 4 5 6 
#
# 1 163.0384 49.2214 92.3831 0.0000 0.0000 0.0000
# 2 49.2214 47.3390 53.2937 0.0000 0.0000 0.0000
# 3 92.3831 53.2937 160.4849 0.0000 0.0000 0.0000
# 4 0.0000 0.0000 0.0000 24.9588 0.0000 0.0000
# 5 0.0000 0.0000 0.0000 0.0000 45.7939 0.0000
# 6 0.0000 0.0000 0.0000 0.0000 0.0000 26.4819
#
#
#
# Elastic Compliance Matrix: (Units=1/GPa)
#
#
# Indices 1 2 3 4 5 6 
#
# 1 0.010177 -0.006367 -0.003744 0.000000 0.000000 0.000000
# 2 -0.006367 0.037720 -0.008861 0.000000 0.000000 0.000000
# 3 -0.003744 -0.008861 0.011329 0.000000 0.000000 0.000000
# 4 0.000000 0.000000 0.000000 0.040066 0.000000 0.000000
# 5 0.000000 0.000000 0.000000 0.000000 0.021837 0.000000
# 6 0.000000 0.000000 0.000000 0.000000 0.000000 0.037762
#
#
# Mechanical properties :
#
#
# Convention : Reuss Voigt Hill
#
# Bulk Modulus (GPa) = 46.98781 84.51763 65.75272
# Shear Modulus (GPa) = 24.51842 31.17788 27.84815
#
# Velocity S-wave (km/s) = 3.62234 4.08476 3.86048
# Velocity P-wave (km/s) = 6.53003 8.21448 7.42021
#
# Compressibility (1/GPa) = 0.02128212
#
# Stress axis : x y z
#
# Youngs Moduli (GPa) = 98.25811 26.51143 88.26862
#
# Poissons Ratio (x) = 0.16879 0.33050
# Poissons Ratio (y) = 0.62558 0.78214
# Poissons Ratio (z) = 0.36791 0.23492
#
# Static dielectric constant tensor:
#      x y z
#    x 1.615920 0.000000 0.000000 
#    y 0.000000 1.651520 0.000000 
#    z 0.000000 0.000000 1.623920 
# 
# From -- ./inp_files/20462.got.cif
#   From: 2010.05.17/outbox.cif.g08.bks.cpg/sg38_11_cif.got.tgz:20462.got - 2010.06.03 18:07:57.
