data_PCOD9358137
_publ_section_title
;
Structure prediction by ZEFSAII (Michael W. Deem and Ramdas Pophale) SiO2 
 PCOD9358137
Probable space group: A M M 2
;
_chemical_formula_sum "Si O2"
_cell_formula_units_Z 64
_cell_length_a 9.070150
_cell_length_b 32.387517
_cell_length_c 11.829513
_cell_angle_alpha 90.000000
_cell_angle_beta 90.000000
_cell_angle_gamma 90.000000
_cell_volume 3475.033449
_symmetry_space_group_name_H-M "A M M 2"
_symmetry_group_IT_number 38
_symmetry_cell_setting 'orthorhombic'
loop_
_space_group_symop_operation_xyz
x,y,z
-x,-y,z
-x,y,z
x,-y,z
x,1/2+y,1/2+z
-x,1/2-y,1/2+z
-x,1/2+y,1/2+z
x,1/2-y,1/2+z
loop_
_atom_site_type_symbol
_atom_site_label
_atom_site_fract_x
_atom_site_fract_y
_atom_site_fract_z
Si Si1 0.327474 0.681478 0.263580
Si Si2 0.832488 0.599337 0.646315
Si Si3 0.327606 0.223750 0.192752
Si Si4 0.322156 0.048689 0.703735
Si Si5 0.833136 0.817691 0.996754
Si Si6 0.176206 0.876864 0.580695
Si Si7 0.668345 0.450432 0.459886
Si Si8 0.324037 0.644277 0.843302
O O1 0.500000 0.670416 0.253501
O O2 0.311229 0.730114 0.237547
O O3 0.269164 0.675025 0.389580
O O4 0.234498 0.654764 0.175654
O O5 0.835211 0.640935 0.571367
O O6 0.766409 0.565718 0.561734
O O7 0.732267 0.610156 0.753761
O O8 0.000000 0.589701 0.680899
O O9 0.500000 0.216897 0.163772
O O10 0.289669 0.188939 0.286337
O O11 0.232203 0.216506 0.080864
O O12 0.500000 0.053013 0.694726
O O13 0.240936 0.078599 0.617170
O O14 0.281495 0.061361 0.832999
O O15 0.288188 0.000000 0.688919
O O16 0.000000 0.807871 0.961016
O O17 0.242290 0.862608 0.461023
O O18 0.000000 0.877771 0.577374
O O19 0.500000 0.435260 0.474648
O O20 0.665022 0.500000 0.460073
O O21 0.500000 0.641833 0.858755
#
# Coordination Sequence:
#
# PCOD9358137 Si02
#       8
#     8   8   8   8   8   8   8   8
#     4  11  23  38  58  83 113 150 195 241 281 337
#     4  10  20  35  55  81 113 146 182 227 280 342
#     4   9  21  39  59  81 107 146 193 238 285 339
#     4   9  19  38  63  89 118 155 198 243 291 345
#     4  10  21  36  55  82 112 142 179 228 287 340
#     4  12  25  39  57  87 121 155 194 241 298 355
#     4   9  18  33  56  86 116 146 185 233 283 337
#     4  10  21  40  62  81 108 151 197 242 289 343
#
# _framework density 18.417089000000001
#
# number of rings (size 3 to 8) (size 9 to 14) (size 15 to 20)
#    0.000    2.000    0.000    4.125    1.750    6.000 
#    0.000    1.875    0.000    3.750    0.000    0.000 
#    0.000    0.000    0.000    0.000    0.000    0.000 
#
# Total GULP energy -178696.211847 kJ/mol
# GULP energy per Si atom -5584.256620 kJ/mol
# Density = 1.837517 g / cm^3
# Si number density = 18.417089 Si / 1000 Ang^3
#
#
#
# Elastic Constant Matrix: (Units=GPa)
#
#
# Indices 1 2 3 4 5 6 
#
# 1 92.9306 40.0494 57.3905 0.0000 0.0000 0.0000
# 2 40.0494 52.7955 32.6490 0.0000 0.0000 0.0000
# 3 57.3905 32.6490 106.0358 0.0000 0.0000 0.0000
# 4 0.0000 0.0000 0.0000 10.9936 0.0000 0.0000
# 5 0.0000 0.0000 0.0000 0.0000 22.2573 0.0000
# 6 0.0000 0.0000 0.0000 0.0000 0.0000 15.1016
#
#
#
# Elastic Compliance Matrix: (Units=1/GPa)
#
#
# Indices 1 2 3 4 5 6 
#
# 1 0.019939 -0.010440 -0.007578 0.000000 0.000000 0.000000
# 2 -0.010440 0.028862 -0.003236 0.000000 0.000000 0.000000
# 3 -0.007578 -0.003236 0.014529 0.000000 0.000000 0.000000
# 4 0.000000 0.000000 0.000000 0.090962 0.000000 0.000000
# 5 0.000000 0.000000 0.000000 0.000000 0.044929 0.000000
# 6 0.000000 0.000000 0.000000 0.000000 0.000000 0.066218
#
#
# Mechanical properties :
#
#
# Convention : Reuss Voigt Hill
#
# Bulk Modulus (GPa) = 48.02482 56.88220 52.45351
# Shear Modulus (GPa) = 15.87875 17.78204 16.83039
#
# Velocity S-wave (km/s) = 2.93947 3.11065 3.02627
# Velocity P-wave (km/s) = 6.13624 6.62224 6.38387
#
# Compressibility (1/GPa) = 0.02082256
#
# Stress axis : x y z
#
# Youngs Moduli (GPa) = 50.15210 34.64814 68.83018
#
# Poissons Ratio (x) = 0.36171 0.52156
# Poissons Ratio (y) = 0.52356 0.22276
# Poissons Ratio (z) = 0.38003 0.11213
#
# Static dielectric constant tensor:
#      x y z
#    x 1.628610 0.000000 0.000000 
#    y 0.000000 1.638240 0.000000 
#    z 0.000000 0.000000 1.609300 
# 
# From -- ./inp_files/8538.got.cif
#   From: 2010.05.17/outbox.cif.g08.bks.cpg/sg38_5_cif.got.tgz:8538.got - 2010.06.03 18:07:57.
