data_PCOD9358581
_publ_section_title
;
Structure prediction by ZEFSAII (Michael W. Deem and Ramdas Pophale) SiO2 
 PCOD9358581
Probable space group: A M M 2
;
_chemical_formula_sum "Si O2"
_cell_formula_units_Z 64
_cell_length_a 9.020595
_cell_length_b 27.161158
_cell_length_c 13.304361
_cell_angle_alpha 90.000000
_cell_angle_beta 90.000000
_cell_angle_gamma 90.000000
_cell_volume 3259.698908
_symmetry_space_group_name_H-M "A M M 2"
_symmetry_group_IT_number 38
_symmetry_cell_setting 'orthorhombic'
loop_
_space_group_symop_operation_xyz
x,y,z
-x,-y,z
-x,y,z
x,-y,z
x,1/2+y,1/2+z
-x,1/2-y,1/2+z
-x,1/2+y,1/2+z
x,1/2-y,1/2+z
loop_
_atom_site_type_symbol
_atom_site_label
_atom_site_fract_x
_atom_site_fract_y
_atom_site_fract_z
Si Si1 0.667886 0.236103 0.526900
Si Si2 0.824201 0.776408 0.854109
Si Si3 0.821734 0.898661 0.148120
Si Si4 0.179920 0.055065 0.361344
Si Si5 0.668462 0.200184 0.221260
Si Si6 0.676161 0.058735 0.945661
Si Si7 0.820774 0.630384 0.035086
Si Si8 0.821941 0.117700 0.763874
O O1 0.500000 0.231640 0.488482
O O2 0.755344 0.277383 0.464238
O O3 0.661700 0.256914 0.638646
O O4 0.749735 0.184073 0.524985
O O5 0.756341 0.726213 0.810417
O O6 0.786228 0.825598 0.792956
O O7 0.000000 0.772532 0.856812
O O8 0.782423 0.931260 0.246582
O O9 0.756048 0.845581 0.176012
O O10 0.753207 0.919021 0.045088
O O11 0.000000 0.896803 0.139143
O O12 0.228451 0.094975 0.444113
O O13 0.000000 0.055179 0.365848
O O14 0.231726 0.000000 0.385656
O O15 0.500000 0.185934 0.247534
O O16 0.500000 0.068152 0.950682
O O17 0.700596 0.000000 0.943617
O O18 0.742110 0.083377 0.845021
O O19 0.783569 0.609878 0.146614
O O20 0.000000 0.635335 0.031197
O O21 0.000000 0.111712 0.774243
#
# Coordination Sequence:
#
# PCOD9358581 Si02
#       8
#     8   8   8   8   8   8   8   8
#     4  11  23  37  56  84 119 161 200 242 298 363
#     4  11  22  37  58  86 121 159 202 252 298 356
#     4  11  22  38  63  93 124 160 205 258 314 375
#     4   9  19  36  60  90 120 152 193 246 307 363
#     4  11  23  38  58  87 121 159 199 241 300 369
#     4  11  25  43  63  88 121 164 211 264 324 378
#     4  10  20  38  63  91 122 158 201 250 304 364
#     4  10  22  39  62  92 123 160 206 257 311 370
#
# _framework density 19.633714999999999
#
# number of rings (size 3 to 8) (size 9 to 14) (size 15 to 20)
#    0.000    1.500    1.250    3.750    0.000    8.000 
#    0.000    1.875    0.000    1.875    0.000    0.000 
#    0.000    0.000    0.000    0.000    0.000    0.000 
#
# Total GULP energy -178736.928911 kJ/mol
# GULP energy per Si atom -5585.529028 kJ/mol
# Density = 1.958903 g / cm^3
# Si number density = 19.633715 Si / 1000 Ang^3
#
#
#
# Elastic Constant Matrix: (Units=GPa)
#
#
# Indices 1 2 3 4 5 6 
#
# 1 58.1854 35.2897 31.3963 0.0000 0.0000 0.0000
# 2 35.2897 75.3233 19.8435 0.0000 0.0000 0.0000
# 3 31.3963 19.8435 93.3462 0.0000 0.0000 0.0000
# 4 0.0000 0.0000 0.0000 35.8416 0.0000 0.0000
# 5 0.0000 0.0000 0.0000 0.0000 19.3780 0.0000
# 6 0.0000 0.0000 0.0000 0.0000 0.0000 15.4568
#
#
#
# Elastic Compliance Matrix: (Units=1/GPa)
#
#
# Indices 1 2 3 4 5 6 
#
# 1 0.027694 -0.011145 -0.006945 0.000000 0.000000 0.000000
# 2 -0.011145 0.018549 -0.000195 0.000000 0.000000 0.000000
# 3 -0.006945 -0.000195 0.013090 0.000000 0.000000 0.000000
# 4 0.000000 0.000000 0.000000 0.027901 0.000000 0.000000
# 5 0.000000 0.000000 0.000000 0.000000 0.051605 0.000000
# 6 0.000000 0.000000 0.000000 0.000000 0.000000 0.064696
#
#
# Mechanical properties :
#
#
# Convention : Reuss Voigt Hill
#
# Bulk Modulus (GPa) = 43.93124 44.43487 44.18306
# Shear Modulus (GPa) = 20.18636 23.49030 21.83833
#
# Velocity S-wave (km/s) = 3.20995 3.46269 3.33871
# Velocity P-wave (km/s) = 6.01352 6.21836 6.11680
#
# Compressibility (1/GPa) = 0.02276284
#
# Stress axis : x y z
#
# Youngs Moduli (GPa) = 36.10948 53.91154 76.39313
#
# Poissons Ratio (x) = 0.60084 0.53058
# Poissons Ratio (y) = 0.40244 0.01486
# Poissons Ratio (z) = 0.25079 0.01049
#
# Static dielectric constant tensor:
#      x y z
#    x 1.671330 0.000000 0.000000 
#    y 0.000000 1.664690 0.000000 
#    z 0.000000 0.000000 1.724580 
# 
# From -- ./inp_files/12781.got.cif
#   From: 2010.05.17/outbox.cif.g08.bks.cpg/sg38_7_cif.got.tgz:12781.got - 2010.06.03 18:07:57.
