data_PCOD9358775
_publ_section_title
;
Structure prediction by ZEFSAII (Michael W. Deem and Ramdas Pophale) SiO2 
 PCOD9358775
Probable space group: A M M 2
;
_chemical_formula_sum "Si O2"
_cell_formula_units_Z 58
_cell_length_a 15.522608
_cell_length_b 8.018541
_cell_length_c 25.501832
_cell_angle_alpha 90.000000
_cell_angle_beta 90.000000
_cell_angle_gamma 90.000000
_cell_volume 3174.179078
_symmetry_space_group_name_H-M "A M M 2"
_symmetry_group_IT_number 38
_symmetry_cell_setting 'orthorhombic'
loop_
_space_group_symop_operation_xyz
x,y,z
-x,-y,z
-x,y,z
x,-y,z
x,1/2+y,1/2+z
-x,1/2-y,1/2+z
-x,1/2+y,1/2+z
x,1/2-y,1/2+z
loop_
_atom_site_type_symbol
_atom_site_label
_atom_site_fract_x
_atom_site_fract_y
_atom_site_fract_z
Si Si1 0.597841 0.802748 0.502080
Si Si2 0.325184 0.690549 0.780571
Si Si3 0.596100 0.307427 0.179639
Si Si4 0.124330 0.198699 0.256434
Si Si5 0.275978 0.194829 0.093730
Si Si6 0.000000 0.500000 0.287864
Si Si7 0.905016 0.201078 0.132181
Si Si8 0.598567 0.696919 0.386434
O O1 0.500000 0.740661 0.514359
O O2 0.665160 0.767750 0.547904
O O3 0.625817 0.728505 0.446235
O O4 0.592448 0.000000 0.495255
O O5 0.346584 0.500000 0.767581
O O6 0.382584 0.798266 0.741087
O O7 0.225158 0.717338 0.768280
O O8 0.345288 0.722105 0.841120
O O9 0.500000 0.241419 0.169344
O O10 0.598044 0.500000 0.162418
O O11 0.670160 0.215700 0.147350
O O12 0.106905 0.227189 0.194460
O O13 0.073613 0.347836 0.284950
O O14 0.102472 0.000000 0.267134
O O15 0.179895 0.266475 0.102617
O O16 0.266547 0.000000 0.082478
O O17 0.000000 0.265383 0.116848
O O18 0.905962 0.000000 0.125163
O O19 0.500000 0.760129 0.382241
O O20 0.598262 0.500000 0.377168
#
# Coordination Sequence:
#
# PCOD9358775 Si02
#       8
#     8   8   8   8   8   2   8   8
#     4  10  21  38  57  79 109 146 187 232 284 338
#     4  11  22  36  55  81 115 151 185 231 284 339
#     4  11  23  35  49  74 114 156 190 228 274 338
#     4  10  21  36  53  82 117 147 191 239 283 346
#     4  11  21  34  55  81 109 145 186 230 285 341
#     4  12  22  32  60  82 106 160 190 236 300 338
#     4   9  17  34  54  75 109 146 181 232 284 333
#     4  10  21  37  58  83 111 144 189 240 279 330
#
# _framework density 18.272441000000001
#
# number of rings (size 3 to 8) (size 9 to 14) (size 15 to 20)
#    0.000    1.655    2.069    3.103    1.931    6.069 
#    1.241    0.000    0.000    0.000    1.793    0.000 
#    0.000    0.000    0.000    0.000    0.000    0.000 
#
# Total GULP energy -161524.118323 kJ/mol
# GULP energy per Si atom -5569.797184 kJ/mol
# Density = 1.823085 g / cm^3
# Si number density = 18.272441 Si / 1000 Ang^3
#
#
#
# Elastic Constant Matrix: (Units=GPa)
#
#
# Indices 1 2 3 4 5 6 
#
# 1 118.8416 13.9170 43.1245 0.0000 0.0000 0.0000
# 2 13.9170 53.7147 -1.6451 0.0000 0.0000 0.0000
# 3 43.1245 -1.6451 65.7804 0.0000 0.0000 0.0000
# 4 0.0000 0.0000 0.0000 26.9339 0.0000 0.0000
# 5 0.0000 0.0000 0.0000 0.0000 29.1732 0.0000
# 6 0.0000 0.0000 0.0000 0.0000 0.0000 29.8371
#
#
#
# Elastic Compliance Matrix: (Units=1/GPa)
#
#
# Indices 1 2 3 4 5 6 
#
# 1 0.011577 -0.003234 -0.007670 0.000000 0.000000 0.000000
# 2 -0.003234 0.019535 0.002609 0.000000 0.000000 0.000000
# 3 -0.007670 0.002609 0.020296 0.000000 0.000000 0.000000
# 4 0.000000 0.000000 0.000000 0.037128 0.000000 0.000000
# 5 0.000000 0.000000 0.000000 0.000000 0.034278 0.000000
# 6 0.000000 0.000000 0.000000 0.000000 0.000000 0.033515
#
#
# Mechanical properties :
#
#
# Convention : Reuss Voigt Hill
#
# Bulk Modulus (GPa) = 28.72259 38.79217 33.75738
# Shear Modulus (GPa) = 27.09652 29.38485 28.24068
#
# Velocity S-wave (km/s) = 3.85504 4.01453 3.93559
# Velocity P-wave (km/s) = 5.96392 6.53946 6.25831
#
# Compressibility (1/GPa) = 0.03481581
#
# Stress axis : x y z
#
# Youngs Moduli (GPa) = 86.38045 51.19072 49.27105
#
# Poissons Ratio (x) = 0.16557 0.37793
# Poissons Ratio (y) = 0.27938 -0.12854
# Poissons Ratio (z) = 0.66257 -0.13355
#
# Static dielectric constant tensor:
#      x y z
#    x 1.654270 0.000000 0.000000 
#    y 0.000000 1.646510 0.000000 
#    z 0.000000 0.000000 1.605730 
# 
# From -- ./inp_files/22837.got.cif
#   From: 2010.05.17/outbox.cif.g08.bks.cpg/sg38_12_cif.got.tgz:22837.got - 2010.06.03 18:07:57.
