data_PCOD9358448
_publ_section_title
;
Structure prediction by ZEFSAII (Michael W. Deem and Ramdas Pophale) SiO2 
 PCOD9358448
Probable space group: A M M 2
;
_chemical_formula_sum "Si O2"
_cell_formula_units_Z 38
_cell_length_a 7.826417
_cell_length_b 12.525892
_cell_length_c 20.044962
_cell_angle_alpha 90.000000
_cell_angle_beta 90.000000
_cell_angle_gamma 90.000000
_cell_volume 1965.064835
_symmetry_space_group_name_H-M "A M M 2"
_symmetry_group_IT_number 38
_symmetry_cell_setting 'orthorhombic'
loop_
_space_group_symop_operation_xyz
x,y,z
-x,-y,z
-x,y,z
x,-y,z
x,1/2+y,1/2+z
-x,1/2-y,1/2+z
-x,1/2+y,1/2+z
x,1/2-y,1/2+z
loop_
_atom_site_type_symbol
_atom_site_label
_atom_site_fract_x
_atom_site_fract_y
_atom_site_fract_z
Si Si1 0.500000 0.500000 0.652101
Si Si2 0.194216 0.881148 0.373293
Si Si3 0.804688 0.377460 0.113139
Si Si4 0.500000 0.157660 0.274190
Si Si5 0.295227 0.774407 0.991392
Si Si6 0.194801 0.500000 0.544704
Si Si7 0.500000 0.379806 0.218029
O O1 0.500000 0.601941 0.701686
O O2 0.334422 0.500000 0.604228
O O3 0.332498 0.875743 0.314888
O O4 0.230782 0.789404 0.426896
O O5 0.000000 0.870929 0.348605
O O6 0.210335 0.000000 0.404789
O O7 0.789447 0.500000 0.088176
O O8 0.666651 0.366500 0.171506
O O9 0.000000 0.362130 0.135999
O O10 0.762914 0.294830 0.055080
O O11 0.500000 0.285005 0.269866
O O12 0.500000 0.778400 0.989795
O O13 0.225305 0.893452 0.001434
O O14 0.000000 0.500000 0.570011
O O15 0.500000 0.500000 0.245393
#
# Coordination Sequence:
#
# PCOD9358448 Si02
#       7
#     2   8   8   4   8   4   4
#     4  12  24  42  66  98 128 176 224 260 316 386
#     4  11  24  43  66  93 123 163 215 269 321 377
#     4  10  20  36  62  94 124 159 202 256 316 374
#     4  12  24  42  64  87 126 168 221 263 314 372
#     4  12  22  40  66  95 130 164 204 259 324 386
#     4  12  26  44  66  98 136 174 211 262 326 395
#     4  10  22  39  59  88 122 162 208 258 306 374
#
# _framework density 19.337783999999999
#
# number of rings (size 3 to 8) (size 9 to 14) (size 15 to 20)
#    0.000    0.842    4.211    3.789    0.000    4.211 
#    1.895    0.000    0.000    0.000    0.000    0.000 
#    0.000    0.000    0.000    0.000    0.000    0.000 
#
# Total GULP energy -106204.551146 kJ/mol
# GULP energy per Si atom -5589.713218 kJ/mol
# Density = 1.929377 g / cm^3
# Si number density = 19.337784 Si / 1000 Ang^3
#
#
#
# Elastic Constant Matrix: (Units=GPa)
#
#
# Indices 1 2 3 4 5 6 
#
# 1 182.3412 52.9643 42.8646 0.0000 0.0000 0.0000
# 2 52.9643 150.3493 49.3489 0.0000 0.0000 0.0000
# 3 42.8646 49.3489 56.8087 0.0000 0.0000 0.0000
# 4 0.0000 0.0000 0.0000 33.9080 0.0000 0.0000
# 5 0.0000 0.0000 0.0000 0.0000 -10.5812 0.0000
# 6 0.0000 0.0000 0.0000 0.0000 0.0000 34.5699
#
#
#
# Elastic Compliance Matrix: (Units=1/GPa)
#
#
# Indices 1 2 3 4 5 6 
#
# 1 0.006771 -0.000991 -0.004248 0.000000 0.000000 0.000000
# 2 -0.000991 0.009449 -0.007461 0.000000 0.000000 0.000000
# 3 -0.004248 -0.007461 0.027289 0.000000 0.000000 0.000000
# 4 0.000000 0.000000 0.000000 0.029492 0.000000 0.000000
# 5 0.000000 0.000000 0.000000 0.000000 -0.094507 0.000000
# 6 0.000000 0.000000 0.000000 0.000000 0.000000 0.028927
#
#
# Mechanical properties :
#
#
# Convention : Reuss Voigt Hill
#
# Bulk Modulus (GPa) = 55.21835 75.53945 65.37890
# Shear Modulus (GPa) = 128.68061 27.86742 78.27401
#
# Velocity S-wave (km/s) = 8.16628 3.80028 6.36907
# Velocity P-wave (km/s) = 10.84131 7.64226 9.37918
#
# Compressibility (1/GPa) = 0.01810992
#
# Stress axis : x y z
#
# Youngs Moduli (GPa) = 147.69632 105.83134 36.64452
#
# Poissons Ratio (x) = 0.10486 0.15567
# Poissons Ratio (y) = 0.14634 0.27339
# Poissons Ratio (z) = 0.62742 0.78957
#
# Static dielectric constant tensor:
#      x y z
#    x 1.672450 0.000000 0.000000 
#    y 0.000000 1.699270 0.000000 
#    z 0.000000 0.000000 1.627620 
# 
# From -- ./inp_files/16345.got.cif
#   From: 2010.05.17/outbox.cif.g08.bks.cpg/sg38_9_cif.got.tgz:16345.got - 2010.06.03 18:07:57.
