data_PCOD9358909
_publ_section_title
;
Structure prediction by ZEFSAII (Michael W. Deem and Ramdas Pophale) SiO2 
 PCOD9358909
Probable space group: A M M 2
;
_chemical_formula_sum "Si O2"
_cell_formula_units_Z 48
_cell_length_a 17.490860
_cell_length_b 8.648485
_cell_length_c 14.121147
_cell_angle_alpha 90.000000
_cell_angle_beta 90.000000
_cell_angle_gamma 90.000000
_cell_volume 2136.098004
_symmetry_space_group_name_H-M "A M M 2"
_symmetry_group_IT_number 38
_symmetry_cell_setting 'orthorhombic'
loop_
_space_group_symop_operation_xyz
x,y,z
-x,-y,z
-x,y,z
x,-y,z
x,1/2+y,1/2+z
-x,1/2-y,1/2+z
-x,1/2+y,1/2+z
x,1/2-y,1/2+z
loop_
_atom_site_type_symbol
_atom_site_label
_atom_site_fract_x
_atom_site_fract_y
_atom_site_fract_z
Si Si1 0.868513 0.669940 0.736300
Si Si2 0.414145 0.175795 0.600739
Si Si3 0.089460 0.832249 0.456922
Si Si4 0.094058 0.000000 0.944596
Si Si5 0.313258 0.826885 0.250901
Si Si6 0.412972 0.319860 0.402249
Si Si7 0.090333 0.000000 0.723848
O O1 0.888972 0.500000 0.694786
O O2 0.906495 0.672732 0.841262
O O3 0.777690 0.675636 0.751806
O O4 0.888231 0.830804 0.684161
O O5 0.500000 0.193325 0.641844
O O6 0.350084 0.209515 0.677007
O O7 0.406707 0.291550 0.513703
O O8 0.408542 0.000000 0.565075
O O9 0.121360 0.664122 0.486406
O O10 0.000000 0.835085 0.483681
O O11 0.123569 0.000000 0.484399
O O12 0.118643 0.000000 0.833589
O O13 0.000000 0.000000 0.946559
O O14 0.349903 0.780917 0.350332
O O15 0.338014 0.000000 0.224706
O O16 0.500000 0.274174 0.375530
O O17 0.403091 0.500000 0.378973
O O18 0.000000 0.000000 0.726621
#
# Coordination Sequence:
#
# PCOD9358909 Si02
#       7
#     8   8   8   4   8   8   4
#     4   9  18  28  41  68 104 142 177 225 278 333
#     4  10  21  37  57  80 107 145 192 238 283 338
#     4   8  12  20  34  51  79 118 156 199 245 293
#     4   7  10  16  26  44  66  97 141 181 225 276
#     4  11  22  34  52  80 115 153 184 233 288 342
#     4  10  21  37  57  80 107 145 192 238 283 338
#     4   9  16  26  44  66  97 141 181 225 276 326
#
# _framework density 22.470879
#
# number of rings (size 3 to 8) (size 9 to 14) (size 15 to 20)
#    0.000    2.667    0.000    3.500    2.333    5.000 
#    0.000    0.000    0.000    0.000    0.000    0.000 
#    0.000    5.333    3.333    0.000    0.000    0.000 
#
# Total GULP energy -133917.031073 kJ/mol
# GULP energy per Si atom -5579.876295 kJ/mol
# Density = 2.241973 g / cm^3
# Si number density = 22.470879 Si / 1000 Ang^3
#
#
#
# Elastic Constant Matrix: (Units=GPa)
#
#
# Indices 1 2 3 4 5 6 
#
# 1 47.0213 17.3180 4.9938 0.0000 0.0000 0.0000
# 2 17.3180 197.1694 14.5472 0.0000 0.0000 0.0000
# 3 4.9938 14.5472 39.9726 0.0000 0.0000 0.0000
# 4 0.0000 0.0000 0.0000 33.0774 0.0000 0.0000
# 5 0.0000 0.0000 0.0000 0.0000 -2.9657 0.0000
# 6 0.0000 0.0000 0.0000 0.0000 0.0000 28.1382
#
#
#
# Elastic Compliance Matrix: (Units=1/GPa)
#
#
# Indices 1 2 3 4 5 6 
#
# 1 0.022151 -0.001789 -0.002116 0.000000 0.000000 0.000000
# 2 -0.001789 0.005356 -0.001726 0.000000 0.000000 0.000000
# 3 -0.002116 -0.001726 0.025910 0.000000 0.000000 0.000000
# 4 0.000000 0.000000 0.000000 0.030232 0.000000 0.000000
# 5 0.000000 0.000000 0.000000 0.000000 -0.337190 0.000000
# 6 0.000000 0.000000 0.000000 0.000000 0.000000 0.035539
#
#
# Mechanical properties :
#
#
# Convention : Reuss Voigt Hill
#
# Bulk Modulus (GPa) = 23.72250 39.76457 31.74353
# Shear Modulus (GPa) = -25.94865 28.13694 1.09415
#
# Velocity S-wave (km/s) = -3.40187 3.54241 0.69855
# Velocity P-wave (km/s) = 2.20237 5.87078 3.84809
#
# Compressibility (1/GPa) = 0.04215408
#
# Stress axis : x y z
#
# Youngs Moduli (GPa) = 45.14517 186.69672 38.59581
#
# Poissons Ratio (x) = 0.33408 0.08167
# Poissons Ratio (y) = 0.08078 0.06661
# Poissons Ratio (z) = 0.09553 0.32219
#
# Static dielectric constant tensor:
#      x y z
#    x 1.751220 0.000000 0.000000 
#    y 0.000000 1.890650 0.000000 
#    z 0.000000 0.000000 1.830060 
# 
# From -- ./inp_files/14990.got.cif
#   From: 2010.05.17/outbox.cif.g08.bks.cpg/sg38_8_cif.got.tgz:14990.got - 2010.06.03 18:07:57.
