data_PCOD9358846
_publ_section_title
;
Structure prediction by ZEFSAII (Michael W. Deem and Ramdas Pophale) SiO2 
 PCOD9358846
Probable space group: A M M 2
;
_chemical_formula_sum "Si O2"
_cell_formula_units_Z 58
_cell_length_a 7.728676
_cell_length_b 24.995427
_cell_length_c 13.902372
_cell_angle_alpha 90.000000
_cell_angle_beta 90.000000
_cell_angle_gamma 90.000000
_cell_volume 2685.681866
_symmetry_space_group_name_H-M "A M M 2"
_symmetry_group_IT_number 38
_symmetry_cell_setting 'orthorhombic'
loop_
_space_group_symop_operation_xyz
x,y,z
-x,-y,z
-x,y,z
x,-y,z
x,1/2+y,1/2+z
-x,1/2-y,1/2+z
-x,1/2+y,1/2+z
x,1/2-y,1/2+z
loop_
_atom_site_type_symbol
_atom_site_label
_atom_site_fract_x
_atom_site_fract_y
_atom_site_fract_z
Si Si1 0.500000 0.000000 0.304320
Si Si2 0.800792 0.660362 0.574994
Si Si3 0.193713 0.078735 0.358803
Si Si4 0.198150 0.802488 0.272698
Si Si5 0.710042 0.127448 0.555669
Si Si6 0.791810 0.439566 0.459847
Si Si7 0.708378 0.438739 0.238280
Si Si8 0.699334 0.759301 0.468189
O O1 0.653194 0.954372 0.312228
O O2 0.721581 0.689394 0.667915
O O3 0.724233 0.605757 0.532415
O O4 0.798482 0.705769 0.494576
O O5 0.000000 0.648141 0.602990
O O6 0.195975 0.137906 0.315335
O O7 0.230209 0.086716 0.472382
O O8 0.000000 0.057856 0.344024
O O9 0.290961 0.768779 0.354233
O O10 0.000000 0.782430 0.264716
O O11 0.500000 0.128437 0.553347
O O12 0.767917 0.103925 0.658355
O O13 0.766742 0.187299 0.523757
O O14 0.726707 0.500000 0.478347
O O15 0.754074 0.425897 0.348569
O O16 0.000000 0.440512 0.469443
O O17 0.500000 0.439862 0.232010
O O18 0.769774 0.500000 0.218965
O O19 0.500000 0.752136 0.495785
#
# Coordination Sequence:
#
# PCOD9358846 Si02
#       8
#     2   8   8   8   8   8   8   8
#     4  12  22  36  56  82 124 158 206 268 294 354
#     4  10  21  39  63  86 112 150 193 241 297 352
#     4  10  21  36  57  84 118 162 204 249 308 364
#     4   9  20  40  61  84 116 153 196 245 299 356
#     4   9  18  34  54  79 117 158 192 243 303 350
#     4   9  19  37  57  79 109 146 189 240 291 344
#     4   9  18  31  53  79 113 152 187 231 291 344
#     4  10  21  36  57  87 119 150 187 237 295 355
#
# _framework density 21.596005999999999
#
# number of rings (size 3 to 8) (size 9 to 14) (size 15 to 20)
#    0.000    2.483    0.690    0.621    1.931    3.310 
#    1.241    2.759    0.000    0.000    0.000    0.000 
#    0.000    0.000    0.000    0.000    0.000    0.000 
#
# Total GULP energy -161506.899998 kJ/mol
# GULP energy per Si atom -5569.203448 kJ/mol
# Density = 2.154685 g / cm^3
# Si number density = 21.596006 Si / 1000 Ang^3
#
#
#
# Elastic Constant Matrix: (Units=GPa)
#
#
# Indices 1 2 3 4 5 6 
#
# 1 72.5820 4.9921 -0.4359 0.0000 0.0000 0.0000
# 2 4.9921 58.8743 43.2727 0.0000 0.0000 0.0000
# 3 -0.4359 43.2727 105.3672 0.0000 0.0000 0.0000
# 4 0.0000 0.0000 0.0000 16.9654 0.0000 0.0000
# 5 0.0000 0.0000 0.0000 0.0000 -4.4150 0.0000
# 6 0.0000 0.0000 0.0000 0.0000 0.0000 17.6255
#
#
#
# Elastic Compliance Matrix: (Units=1/GPa)
#
#
# Indices 1 2 3 4 5 6 
#
# 1 0.013902 -0.001749 0.000776 0.000000 0.000000 0.000000
# 2 -0.001749 0.024549 -0.010089 0.000000 0.000000 0.000000
# 3 0.000776 -0.010089 0.013637 0.000000 0.000000 0.000000
# 4 0.000000 0.000000 0.000000 0.058944 0.000000 0.000000
# 5 0.000000 0.000000 0.000000 0.000000 -0.226501 0.000000
# 6 0.000000 0.000000 0.000000 0.000000 0.000000 0.056736
#
#
# Mechanical properties :
#
#
# Convention : Reuss Voigt Hill
#
# Bulk Modulus (GPa) = 33.37326 36.94236 35.15781
# Shear Modulus (GPa) = -187.83532 18.63482 -84.60025
#
# Velocity S-wave (km/s) = -9.33626 2.94067 -6.26571
# Velocity P-wave (km/s) = 10.03663 5.35475 6.00253
#
# Compressibility (1/GPa) = 0.02996411
#
# Stress axis : x y z
#
# Youngs Moduli (GPa) = 71.92958 40.73447 73.32824
#
# Poissons Ratio (x) = 0.07125 -0.05689
# Poissons Ratio (y) = 0.12581 0.73982
# Poissons Ratio (z) = -0.05581 0.41098
#
# Static dielectric constant tensor:
#      x y z
#    x 1.801250 0.000000 0.000000 
#    y 0.000000 1.770460 0.000000 
#    z 0.000000 0.000000 1.819150 
# 
# From -- ./inp_files/8325.got.cif
#   From: 2010.05.17/outbox.cif.g08.bks.cpg/sg38_5_cif.got.tgz:8325.got - 2010.06.03 18:07:57.
