data_PCOD9358107
_publ_section_title
;
Structure prediction by ZEFSAII (Michael W. Deem and Ramdas Pophale) SiO2 
 PCOD9358107
Probable space group: A M M 2
;
_chemical_formula_sum "Si O2"
_cell_formula_units_Z 48
_cell_length_a 7.630384
_cell_length_b 14.420467
_cell_length_c 19.246925
_cell_angle_alpha 90.000000
_cell_angle_beta 90.000000
_cell_angle_gamma 90.000000
_cell_volume 2117.810384
_symmetry_space_group_name_H-M "A M M 2"
_symmetry_group_IT_number 38
_symmetry_cell_setting 'orthorhombic'
loop_
_space_group_symop_operation_xyz
x,y,z
-x,-y,z
-x,y,z
x,-y,z
x,1/2+y,1/2+z
-x,1/2-y,1/2+z
-x,1/2+y,1/2+z
x,1/2-y,1/2+z
loop_
_atom_site_type_symbol
_atom_site_label
_atom_site_fract_x
_atom_site_fract_y
_atom_site_fract_z
Si Si1 0.789344 0.747127 0.453410
Si Si2 0.711711 0.197323 0.204145
Si Si3 0.709690 0.601174 0.569413
Si Si4 0.791332 0.600828 0.341537
Si Si5 0.789831 0.895567 0.351228
Si Si6 0.300191 0.398877 0.184024
O O1 0.746376 0.692515 0.523562
O O2 0.726597 0.677207 0.393515
O O3 0.727409 0.845811 0.422763
O O4 0.000000 0.750287 0.452106
O O5 0.500000 0.204601 0.202848
O O6 0.768502 0.121109 0.148192
O O7 0.757440 0.166966 0.282399
O O8 0.780823 0.296809 0.175099
O O9 0.500000 0.594790 0.570203
O O10 0.778252 0.500000 0.545384
O O11 0.769259 0.500000 0.374342
O O12 0.698523 0.599908 0.267900
O O13 0.000000 0.614186 0.328302
O O14 0.000000 0.901634 0.356323
O O15 0.720022 0.000000 0.342243
O O16 0.500000 0.397757 0.157281
O O17 0.222102 0.500000 0.163096
#
# Coordination Sequence:
#
# PCOD9358107 Si02
#       6
#     8   8   8   8   8   8
#     4  10  20  35  54  78 108 141 179 224 272 324
#     4  10  20  36  57  81 113 148 182 224 273 324
#     4  10  22  38  55  79 112 148 184 224 272 325
#     4   9  16  27  46  72 101 131 166 211 260 308
#     4  10  21  37  58  83 109 140 181 229 278 328
#     4   9  17  29  48  76 106 136 172 213 260 313
#
# _framework density 22.664919000000001
#
# number of rings (size 3 to 8) (size 9 to 14) (size 15 to 20)
#    0.000    2.333    1.667    1.000    0.000    4.000 
#    0.000    2.500    0.000    1.000    0.000    0.000 
#    0.000    0.000    0.000    0.000    0.000    0.000 
#
# Total GULP energy -133655.911678 kJ/mol
# GULP energy per Si atom -5568.996320 kJ/mol
# Density = 2.261333 g / cm^3
# Si number density = 22.664919 Si / 1000 Ang^3
#
#
#
# Elastic Constant Matrix: (Units=GPa)
#
#
# Indices 1 2 3 4 5 6 
#
# 1 44.4719 15.1379 -3.8450 0.0000 0.0000 0.0000
# 2 15.1379 154.2236 38.9404 0.0000 0.0000 0.0000
# 3 -3.8450 38.9404 82.1062 0.0000 0.0000 0.0000
# 4 0.0000 0.0000 0.0000 22.7905 0.0000 0.0000
# 5 0.0000 0.0000 0.0000 0.0000 15.8007 0.0000
# 6 0.0000 0.0000 0.0000 0.0000 0.0000 13.1162
#
#
#
# Elastic Compliance Matrix: (Units=1/GPa)
#
#
# Indices 1 2 3 4 5 6 
#
# 1 0.023712 -0.002963 0.002516 0.000000 0.000000 0.000000
# 2 -0.002963 0.007736 -0.003808 0.000000 0.000000 0.000000
# 3 0.002516 -0.003808 0.014103 0.000000 0.000000 0.000000
# 4 0.000000 0.000000 0.000000 0.043878 0.000000 0.000000
# 5 0.000000 0.000000 0.000000 0.000000 0.063288 0.000000
# 6 0.000000 0.000000 0.000000 0.000000 0.000000 0.076241
#
#
# Mechanical properties :
#
#
# Convention : Reuss Voigt Hill
#
# Bulk Modulus (GPa) = 26.99668 42.36316 34.67992
# Shear Modulus (GPa) = 20.01471 25.71272 22.86372
#
# Velocity S-wave (km/s) = 2.97487 3.37185 3.17956
# Velocity P-wave (km/s) = 4.87205 5.82158 5.36785
#
# Compressibility (1/GPa) = 0.03704159
#
# Stress axis : x y z
#
# Youngs Moduli (GPa) = 42.17261 129.26002 70.90644
#
# Poissons Ratio (x) = 0.38295 -0.17837
# Poissons Ratio (y) = 0.12494 0.27000
# Poissons Ratio (z) = -0.10609 0.49220
#
# Static dielectric constant tensor:
#      x y z
#    x 1.853380 0.000000 0.000000 
#    y 0.000000 1.954250 0.000000 
#    z 0.000000 0.000000 1.804450 
# 
# From -- ./inp_files/16635.got.cif
#   From: 2010.05.17/outbox.cif.g08.bks.cpg/sg38_9_cif.got.tgz:16635.got - 2010.06.03 18:07:57.
