data_PCOD9358963
_publ_section_title
;
Structure prediction by ZEFSAII (Michael W. Deem and Ramdas Pophale) SiO2 
 PCOD9358963
Probable space group: A M M 2
;
_chemical_formula_sum "Si O2"
_cell_formula_units_Z 64
_cell_length_a 23.408547
_cell_length_b 10.284673
_cell_length_c 14.142025
_cell_angle_alpha 90.000000
_cell_angle_beta 90.000000
_cell_angle_gamma 90.000000
_cell_volume 3404.681931
_symmetry_space_group_name_H-M "A M M 2"
_symmetry_group_IT_number 38
_symmetry_cell_setting 'orthorhombic'
loop_
_space_group_symop_operation_xyz
x,y,z
-x,-y,z
-x,y,z
x,-y,z
x,1/2+y,1/2+z
-x,1/2-y,1/2+z
-x,1/2+y,1/2+z
x,1/2-y,1/2+z
loop_
_atom_site_type_symbol
_atom_site_label
_atom_site_fract_x
_atom_site_fract_y
_atom_site_fract_z
Si Si1 0.344916 0.855145 0.841960
Si Si2 0.157267 0.251954 0.478093
Si Si3 0.063712 0.155330 0.622324
Si Si4 0.251382 0.147646 0.116339
Si Si5 0.354624 0.153012 0.618455
Si Si6 0.432277 0.649511 0.509026
Si Si7 0.936752 0.345397 0.334825
Si Si8 0.248136 0.145428 0.337702
O O1 0.360993 0.845929 0.731972
O O2 0.399038 0.839824 0.909600
O O3 0.296723 0.749410 0.861514
O O4 0.320770 0.000000 0.858547
O O5 0.114715 0.185969 0.552302
O O6 0.200358 0.336332 0.541889
O O7 0.114016 0.320395 0.406322
O O8 0.196397 0.163553 0.410289
O O9 0.075195 0.205123 0.728796
O O10 0.000000 0.203125 0.594121
O O11 0.060254 0.000000 0.626767
O O12 0.297740 0.261127 0.097739
O O13 0.232220 0.163905 0.226446
O O14 0.275187 0.000000 0.108200
O O15 0.405350 0.237047 0.572860
O O16 0.351104 0.000000 0.589246
O O17 0.500000 0.664663 0.498900
O O18 0.421791 0.500000 0.544087
O O19 0.941334 0.500000 0.327357
O O20 0.000000 0.295680 0.363799
O O21 0.271457 0.000000 0.346273
#
# Coordination Sequence:
#
# PCOD9358963 Si02
#       8
#     8   8   8   8   8   8   8   8
#     4   9  20  39  60  80 108 149 190 224 265 320
#     4  12  20  31  54  81 103 134 180 225 266 322
#     4   9  19  35  52  72 102 138 174 217 271 326
#     4  10  22  38  54  77 112 148 179 218 275 335
#     4  10  21  38  60  84 111 146 188 231 271 314
#     4  10  21  37  58  85 116 149 184 223 271 325
#     4   9  19  35  52  72 100 134 175 222 267 315
#     4  10  22  37  53  78 112 144 176 221 274 325
#
# _framework density 18.797643999999998
#
# number of rings (size 3 to 8) (size 9 to 14) (size 15 to 20)
#    0.000    2.125    0.000    3.750    0.000    5.750 
#    0.000    3.750    0.000    0.000    0.000   10.500 
#    0.000    0.000    0.000    0.000    0.000    0.000 
#
# Total GULP energy -178385.312536 kJ/mol
# GULP energy per Si atom -5574.541017 kJ/mol
# Density = 1.875486 g / cm^3
# Si number density = 18.797644 Si / 1000 Ang^3
#
#
#
# Elastic Constant Matrix: (Units=GPa)
#
#
# Indices 1 2 3 4 5 6 
#
# 1 128.0482 73.6757 67.2464 0.0000 0.0000 0.0000
# 2 73.6757 123.5446 55.6530 0.0000 0.0000 0.0000
# 3 67.2464 55.6530 100.3623 0.0000 0.0000 0.0000
# 4 0.0000 0.0000 0.0000 -57.4886 0.0000 0.0000
# 5 0.0000 0.0000 0.0000 0.0000 20.6912 0.0000
# 6 0.0000 0.0000 0.0000 0.0000 0.0000 44.6793
#
#
#
# Elastic Compliance Matrix: (Units=1/GPa)
#
#
# Indices 1 2 3 4 5 6 
#
# 1 0.014555 -0.005714 -0.006584 0.000000 0.000000 0.000000
# 2 -0.005714 0.013033 -0.003398 0.000000 0.000000 0.000000
# 3 -0.006584 -0.003398 0.016260 0.000000 0.000000 0.000000
# 4 0.000000 0.000000 0.000000 -0.017395 0.000000 0.000000
# 5 0.000000 0.000000 0.000000 0.000000 0.048330 0.000000
# 6 0.000000 0.000000 0.000000 0.000000 0.000000 0.022382
#
#
# Mechanical properties :
#
#
# Convention : Reuss Voigt Hill
#
# Bulk Modulus (GPa) = 80.28847 82.78947 81.53897
# Shear Modulus (GPa) = 37.67692 11.93506 24.80599
#
# Velocity S-wave (km/s) = 4.48185 2.52250 3.63662
# Velocity P-wave (km/s) = 8.34190 7.25411 7.81695
#
# Compressibility (1/GPa) = 0.01245509
#
# Stress axis : x y z
#
# Youngs Moduli (GPa) = 68.70612 76.73088 61.50206
#
# Poissons Ratio (x) = 0.43844 0.40491
# Poissons Ratio (y) = 0.39258 0.20900
# Poissons Ratio (z) = 0.45234 0.26075
#
# Static dielectric constant tensor:
#      x y z
#    x 1.634710 0.000000 0.000000 
#    y 0.000000 1.653310 0.000000 
#    z 0.000000 0.000000 1.680950 
# 
# From -- ./inp_files/15786.got.cif
#   From: 2010.05.17/outbox.cif.g08.bks.cpg/sg38_8_cif.got.tgz:15786.got - 2010.06.03 18:07:57.
