data_PCOD9358263
_publ_section_title
;
Structure prediction by ZEFSAII (Michael W. Deem and Ramdas Pophale) SiO2 
 PCOD9358263
Probable space group: A M M 2
;
_chemical_formula_sum "Si O2"
_cell_formula_units_Z 64
_cell_length_a 24.281912
_cell_length_b 8.597179
_cell_length_c 15.782285
_cell_angle_alpha 90.000000
_cell_angle_beta 90.000000
_cell_angle_gamma 90.000000
_cell_volume 3294.645802
_symmetry_space_group_name_H-M "A M M 2"
_symmetry_group_IT_number 38
_symmetry_cell_setting 'orthorhombic'
loop_
_space_group_symop_operation_xyz
x,y,z
-x,-y,z
-x,y,z
x,-y,z
x,1/2+y,1/2+z
-x,1/2-y,1/2+z
-x,1/2+y,1/2+z
x,1/2-y,1/2+z
loop_
_atom_site_type_symbol
_atom_site_label
_atom_site_fract_x
_atom_site_fract_y
_atom_site_fract_z
Si Si1 0.824079 0.815029 0.766610
Si Si2 0.238691 0.683643 0.604699
Si Si3 0.062254 0.684798 0.496863
Si Si4 0.175305 0.181901 0.444550
Si Si5 0.938548 0.686386 0.186300
Si Si6 0.563333 0.187485 0.751514
Si Si7 0.563353 0.312479 0.935711
Si Si8 0.638502 0.688890 0.093444
O O1 0.789055 0.769088 0.684530
O O2 0.804754 0.731131 0.851697
O O3 0.887514 0.771621 0.745412
O O4 0.821765 0.000000 0.779864
O O5 0.235584 0.500000 0.618740
O O6 0.205770 0.727341 0.519605
O O7 0.301303 0.738813 0.594952
O O8 0.069421 0.500000 0.485016
O O9 0.110891 0.774259 0.450644
O O10 0.066690 0.726881 0.596539
O O11 0.000000 0.726506 0.470254
O O12 0.183223 0.000000 0.458912
O O13 0.934684 0.500000 0.170068
O O14 0.000000 0.717202 0.220692
O O15 0.500000 0.237076 0.734914
O O16 0.579605 0.250528 0.843492
O O17 0.603742 0.235639 0.676406
O O18 0.563577 0.000000 0.754206
O O19 0.500000 0.262528 0.952236
O O20 0.563458 0.500000 0.933678
O O21 0.604044 0.263581 0.010381
O O22 0.642932 0.500000 0.093161
#
# Coordination Sequence:
#
# PCOD9358263 Si02
#       8
#     8   8   8   8   8   8   8   8
#     4  11  23  41  65  91 120 157 198 247 305 365
#     4  12  26  44  63  86 119 158 205 257 305 358
#     4  10  20  35  59  90 123 157 195 242 297 358
#     4  12  25  42  64  89 119 159 203 250 303 361
#     4   9  18  34  59  89 120 154 191 237 297 362
#     4   9  18  34  58  88 121 156 193 236 289 349
#     4   9  18  34  58  88 121 156 194 239 292 348
#     4  10  21  38  60  84 116 158 201 243 292 354
#
# _framework density 19.425456000000001
#
# number of rings (size 3 to 8) (size 9 to 14) (size 15 to 20)
#    0.000    1.750    1.250    3.375    0.000    5.250 
#    0.000    3.750    0.000    3.750    0.000    0.000 
#    0.000    0.000    0.000    0.000    0.000    0.000 
#
# Total GULP energy -178824.344522 kJ/mol
# GULP energy per Si atom -5588.260766 kJ/mol
# Density = 1.938124 g / cm^3
# Si number density = 19.425456 Si / 1000 Ang^3
#
#
#
# Elastic Constant Matrix: (Units=GPa)
#
#
# Indices 1 2 3 4 5 6 
#
# 1 91.4644 10.1759 47.8870 0.0000 0.0000 0.0000
# 2 10.1759 18.9358 -3.1062 0.0000 0.0000 0.0000
# 3 47.8870 -3.1062 88.4804 0.0000 0.0000 0.0000
# 4 0.0000 0.0000 0.0000 31.7024 0.0000 0.0000
# 5 0.0000 0.0000 0.0000 0.0000 -5.0966 0.0000
# 6 0.0000 0.0000 0.0000 0.0000 0.0000 25.0763
#
#
#
# Elastic Compliance Matrix: (Units=1/GPa)
#
#
# Indices 1 2 3 4 5 6 
#
# 1 0.017218 -0.010844 -0.009699 0.000000 0.000000 0.000000
# 2 -0.010844 0.059945 0.007973 0.000000 0.000000 0.000000
# 3 -0.009699 0.007973 0.016831 0.000000 0.000000 0.000000
# 4 0.000000 0.000000 0.000000 0.031543 0.000000 0.000000
# 5 0.000000 0.000000 0.000000 0.000000 -0.196208 0.000000
# 6 0.000000 0.000000 0.000000 0.000000 0.000000 0.039878
#
#
# Mechanical properties :
#
#
# Convention : Reuss Voigt Hill
#
# Bulk Modulus (GPa) = 14.52329 34.31043 24.41686
# Shear Modulus (GPa) = 289.04298 19.93135 154.48717
#
# Velocity S-wave (km/s) = 12.21143 3.20667 8.92753
# Velocity P-wave (km/s) = 14.36377 5.60457 10.90250
#
# Compressibility (1/GPa) = 0.06885492
#
# Stress axis : x y z
#
# Youngs Moduli (GPa) = 58.07973 16.68189 59.41352
#
# Poissons Ratio (x) = 0.18089 0.57626
# Poissons Ratio (y) = 0.62980 -0.47372
# Poissons Ratio (z) = 0.56333 -0.13301
#
# Static dielectric constant tensor:
#      x y z
#    x 1.673210 0.000000 0.000000 
#    y 0.000000 1.655110 0.000000 
#    z 0.000000 0.000000 1.662450 
# 
# From -- ./inp_files/15763.got.cif
#   From: 2010.05.17/outbox.cif.g08.bks.cpg/sg38_8_cif.got.tgz:15763.got - 2010.06.03 18:07:57.
