data_PCOD9358432
_publ_section_title
;
Structure prediction by ZEFSAII (Michael W. Deem and Ramdas Pophale) SiO2 
 PCOD9358432
Probable space group: A M M 2
;
_chemical_formula_sum "Si O2"
_cell_formula_units_Z 44
_cell_length_a 7.896660
_cell_length_b 30.315365
_cell_length_c 7.627107
_cell_angle_alpha 90.000000
_cell_angle_beta 90.000000
_cell_angle_gamma 90.000000
_cell_volume 1825.854138
_symmetry_space_group_name_H-M "A M M 2"
_symmetry_group_IT_number 38
_symmetry_cell_setting 'orthorhombic'
loop_
_space_group_symop_operation_xyz
x,y,z
-x,-y,z
-x,y,z
x,-y,z
x,1/2+y,1/2+z
-x,1/2-y,1/2+z
-x,1/2+y,1/2+z
x,1/2-y,1/2+z
loop_
_atom_site_type_symbol
_atom_site_label
_atom_site_fract_x
_atom_site_fract_y
_atom_site_fract_z
Si Si1 0.198722 0.904801 0.589470
Si Si2 0.000000 0.749999 0.131041
Si Si3 0.685780 0.310294 0.176117
Si Si4 0.801278 0.095200 0.172620
Si Si5 0.685780 0.689706 0.585969
Si Si6 0.701917 0.000000 0.583324
Si Si7 0.701918 0.500000 0.678762
O O1 0.294214 0.862965 0.665975
O O2 0.237674 0.905292 0.381045
O O3 0.000000 0.897347 0.613791
O O4 0.241452 0.953357 0.661100
O O5 0.151166 0.713238 0.094692
O O6 0.151166 0.786761 0.167391
O O7 0.500000 0.298744 0.104004
O O8 0.693473 0.297699 0.381043
O O9 0.705787 0.137036 0.096115
O O10 0.000000 0.102653 0.148301
O O11 0.758548 0.046643 0.100988
O O12 0.500000 0.701256 0.658081
O O13 0.768067 0.000000 0.381043
O O14 0.500000 0.000000 0.578833
O O15 0.500000 0.500000 0.683251
#
# Coordination Sequence:
#
# PCOD9358432 Si02
#       7
#     8   4   8   8   8   4   4
#     4  10  20  36  61  92 127 166 210 255 304 363
#     4  12  24  44  68  86 118 164 208 254 312 384
#     4  11  25  44  67  95 127 162 205 259 316 373
#     4  10  20  36  61  92 127 166 210 255 304 363
#     4  11  25  44  67  95 127 162 205 259 316 373
#     4   9  17  31  54  87 126 167 208 251 299 358
#     4   9  17  31  54  87 126 167 208 251 299 358
#
# _framework density 24.098310000000001
#
# number of rings (size 3 to 8) (size 9 to 14) (size 15 to 20)
#    0.000    1.636    1.818    2.727    0.000    7.273 
#    0.000    0.909    0.000    5.455    0.000    0.000 
#    0.000    0.000    0.000    0.000    0.000    0.000 
#
# Total GULP energy -122491.394670 kJ/mol
# GULP energy per Si atom -5567.790667 kJ/mol
# Density = 2.404346 g / cm^3
# Si number density = 24.098310 Si / 1000 Ang^3
#
#
#
# Elastic Constant Matrix: (Units=GPa)
#
#
# Indices 1 2 3 4 5 6 
#
# 1 161.7457 82.2763 51.0074 0.0000 0.0000 0.0000
# 2 82.2763 208.5328 -0.2813 0.0000 0.0000 0.0000
# 3 51.0074 -0.2813 42.5942 0.0000 0.0000 0.0000
# 4 0.0000 0.0000 0.0000 -270.2306 0.0000 0.0000
# 5 0.0000 0.0000 0.0000 0.0000 2.1298 0.0000
# 6 0.0000 0.0000 0.0000 0.0000 0.0000 512.6513
#
#
#
# Elastic Compliance Matrix: (Units=1/GPa)
#
#
# Indices 1 2 3 4 5 6 
#
# 1 0.014720 -0.005832 -0.017666 0.000000 0.000000 0.000000
# 2 -0.005832 0.007106 0.007030 0.000000 0.000000 0.000000
# 3 -0.017666 0.007030 0.044679 0.000000 0.000000 0.000000
# 4 0.000000 0.000000 0.000000 -0.003701 0.000000 0.000000
# 5 0.000000 0.000000 0.000000 0.000000 0.469525 0.000000
# 6 0.000000 0.000000 0.000000 0.000000 0.000000 0.001951
#
#
# Mechanical properties :
#
#
# Convention : Reuss Voigt Hill
#
# Bulk Modulus (GPa) = 29.78809 75.43083 52.60946
# Shear Modulus (GPa) = 8.64447 67.56812 38.10629
#
# Velocity S-wave (km/s) = 1.89604 5.30089 3.98085
# Velocity P-wave (km/s) = 4.14502 8.29669 6.55806
#
# Compressibility (1/GPa) = 0.03357046
#
# Stress axis : x y z
#
# Youngs Moduli (GPa) = 67.93479 140.73148 22.38179
#
# Poissons Ratio (x) = 0.82069 0.39540
# Poissons Ratio (y) = 0.39617 -0.15735
# Poissons Ratio (z) = 1.20014 -0.98939
#
# Static dielectric constant tensor:
#      x y z
#    x 1.875330 0.000000 0.000000 
#    y 0.000000 1.939750 0.000000 
#    z 0.000000 0.000000 2.021830 
# 
# From -- ./inp_files/3702.got.cif
#   From: 2010.05.17/outbox.cif.g08.bks.cpg/sg38_2_cif.got.tgz:3702.got - 2010.06.03 18:07:57.
