data_PCOD9358076
_publ_section_title
;
Structure prediction by ZEFSAII (Michael W. Deem and Ramdas Pophale) SiO2 
 PCOD9358076
Probable space group: A M M 2
;
_chemical_formula_sum "Si O2"
_cell_formula_units_Z 56
_cell_length_a 17.042543
_cell_length_b 20.660424
_cell_length_c 7.922887
_cell_angle_alpha 90.000000
_cell_angle_beta 90.000000
_cell_angle_gamma 90.000000
_cell_volume 2789.697353
_symmetry_space_group_name_H-M "A M M 2"
_symmetry_group_IT_number 38
_symmetry_cell_setting 'orthorhombic'
loop_
_space_group_symop_operation_xyz
x,y,z
-x,-y,z
-x,y,z
x,-y,z
x,1/2+y,1/2+z
-x,1/2-y,1/2+z
-x,1/2+y,1/2+z
x,1/2-y,1/2+z
loop_
_atom_site_type_symbol
_atom_site_label
_atom_site_fract_x
_atom_site_fract_y
_atom_site_fract_z
Si Si1 0.194483 0.266484 0.933490
Si Si2 0.662439 0.145253 0.350144
Si Si3 0.658011 0.577392 0.217886
Si Si4 0.500000 0.709925 0.915149
Si Si5 0.089272 0.184246 0.701688
Si Si6 0.914337 0.925059 0.982688
Si Si7 0.753393 0.376205 0.535604
Si Si8 0.500000 0.151003 0.788920
O O1 0.271650 0.299547 0.863736
O O2 0.125278 0.243052 0.810400
O O3 0.151935 0.318041 0.053291
O O4 0.226077 0.199777 0.015264
O O5 0.665687 0.105316 0.526391
O O6 0.578162 0.179336 0.334681
O O7 0.688568 0.109707 0.178295
O O8 0.655027 0.500000 0.210960
O O9 0.724466 0.599397 0.351901
O O10 0.577683 0.607663 0.292677
O O11 0.500000 0.787623 0.912354
O O12 0.500000 0.686040 0.107113
O O13 0.089225 0.121650 0.820546
O O14 0.000000 0.197082 0.647541
O O15 0.000000 0.912816 0.064719
O O16 0.911658 0.000000 0.934163
O O17 0.836209 0.908678 0.085398
#
# Coordination Sequence:
#
# PCOD9358076 Si02
#       8
#     8   8   8   4   8   8   8   4
#     4  11  20  37  56  88 127 156 200 264 317 382
#     4  11  24  41  62  95 127 167 207 266 317 377
#     4  11  25  43  64  91 126 168 213 255 311 375
#     4  10  24  38  65  95 127 162 205 255 328 383
#     4  10  20  34  58  89 121 162 201 256 322 379
#     4   9  19  37  59  86 121 164 212 256 310 378
#     4  11  23  38  65  92 125 166 212 258 320 373
#     4  10  23  42  65  95 128 162 203 263 314 377
#
# _framework density 20.073861999999998
#
# number of rings (size 3 to 8) (size 9 to 14) (size 15 to 20)
#    0.000    1.571    1.429    3.643    6.000    1.714 
#    0.000    0.000    0.000    2.571    0.000    8.000 
#    0.000    0.000    0.000    0.000    0.000    0.000 
#
# Total GULP energy -156165.788048 kJ/mol
# GULP energy per Si atom -5577.349573 kJ/mol
# Density = 2.002817 g / cm^3
# Si number density = 20.073862 Si / 1000 Ang^3
#
#
#
# Elastic Constant Matrix: (Units=GPa)
#
#
# Indices 1 2 3 4 5 6 
#
# 1 128.4519 35.7914 35.8860 0.0000 0.0000 0.0000
# 2 35.7914 96.7033 17.6176 0.0000 0.0000 0.0000
# 3 35.8860 17.6176 57.0819 0.0000 0.0000 0.0000
# 4 0.0000 0.0000 0.0000 6.8627 0.0000 0.0000
# 5 0.0000 0.0000 0.0000 0.0000 15.8133 0.0000
# 6 0.0000 0.0000 0.0000 0.0000 0.0000 26.0557
#
#
#
# Elastic Compliance Matrix: (Units=1/GPa)
#
#
# Indices 1 2 3 4 5 6 
#
# 1 0.010081 -0.002730 -0.005495 0.000000 0.000000 0.000000
# 2 -0.002730 0.011696 -0.001894 0.000000 0.000000 0.000000
# 3 -0.005495 -0.001894 0.021558 0.000000 0.000000 0.000000
# 4 0.000000 0.000000 0.000000 0.145715 0.000000 0.000000
# 5 0.000000 0.000000 0.000000 0.000000 0.063238 0.000000
# 6 0.000000 0.000000 0.000000 0.000000 0.000000 0.038379
#
#
# Mechanical properties :
#
#
# Convention : Reuss Voigt Hill
#
# Bulk Modulus (GPa) = 43.29455 51.20300 47.24877
# Shear Modulus (GPa) = 15.69351 22.60918 19.15134
#
# Velocity S-wave (km/s) = 2.79908 3.35968 3.09211
# Velocity P-wave (km/s) = 5.66224 6.37280 6.02800
#
# Compressibility (1/GPa) = 0.02309760
#
# Stress axis : x y z
#
# Youngs Moduli (GPa) = 99.19810 85.49712 46.38715
#
# Poissons Ratio (x) = 0.23341 0.25490
# Poissons Ratio (y) = 0.27081 0.08784
# Poissons Ratio (z) = 0.54509 0.16190
#
# Static dielectric constant tensor:
#      x y z
#    x 1.725100 0.000000 0.000000 
#    y 0.000000 1.680260 0.000000 
#    z 0.000000 0.000000 1.790380 
# 
# From -- ./inp_files/5776.got.cif
#   From: 2010.05.17/outbox.cif.g08.bks.cpg/sg38_3_cif.got.tgz:5776.got - 2010.06.03 18:07:57.
