data_PCOD9358554
_publ_section_title
;
Structure prediction by ZEFSAII (Michael W. Deem and Ramdas Pophale) SiO2 
 PCOD9358554
Probable space group: A M M 2
;
_chemical_formula_sum "Si O2"
_cell_formula_units_Z 40
_cell_length_a 8.925257
_cell_length_b 7.694022
_cell_length_c 30.337896
_cell_angle_alpha 90.000000
_cell_angle_beta 90.000000
_cell_angle_gamma 90.000000
_cell_volume 2083.337409
_symmetry_space_group_name_H-M "A M M 2"
_symmetry_group_IT_number 38
_symmetry_cell_setting 'orthorhombic'
loop_
_space_group_symop_operation_xyz
x,y,z
-x,-y,z
-x,y,z
x,-y,z
x,1/2+y,1/2+z
-x,1/2-y,1/2+z
-x,1/2+y,1/2+z
x,1/2-y,1/2+z
loop_
_atom_site_type_symbol
_atom_site_label
_atom_site_fract_x
_atom_site_fract_y
_atom_site_fract_z
Si Si1 0.670436 0.211551 0.962320
Si Si2 0.178426 0.705571 0.553877
Si Si3 0.173813 0.789560 0.872903
Si Si4 0.678848 0.500000 0.113821
Si Si5 0.182163 0.193000 0.275476
Si Si6 0.182103 0.000000 0.710572
O O1 0.500000 0.269976 0.968604
O O2 0.736442 0.271190 0.915676
O O3 0.670015 0.000000 0.960528
O O4 0.769595 0.256921 0.004610
O O5 0.214328 0.500000 0.560104
O O6 0.000000 0.725527 0.557992
O O7 0.260461 0.830555 0.588094
O O8 0.233107 0.728894 0.825496
O O9 0.000000 0.735561 0.877235
O O10 0.175851 0.000000 0.872064
O O11 0.500000 0.500000 0.114107
O O12 0.744383 0.500000 0.162994
O O13 0.228005 0.334692 0.239973
O O14 0.000000 0.203026 0.277622
O O15 0.225411 0.000000 0.261994
O O16 0.000000 0.000000 0.706062
#
# Coordination Sequence:
#
# PCOD9358554 Si02
#       6
#     8   8   8   4   8   4
#     4   9  17  30  51  81 117 157 193 231 289 353
#     4  10  21  40  65  90 117 153 201 253 297 347
#     4   9  15  27  49  76 108 149 192 235 283 338
#     4  12  26  42  62  90 122 158 196 244 309 374
#     4   9  17  31  54  82 109 141 187 242 294 339
#     4  10  20  38  60  82 110 146 194 250 297 348
#
# _framework density 19.199960999999998
#
# number of rings (size 3 to 8) (size 9 to 14) (size 15 to 20)
#    0.000    2.400    1.000    2.100    0.000    4.400 
#    1.800    3.000    0.000    1.200    0.000    0.000 
#    0.000    0.000    0.000    0.000    0.000    0.000 
#
# Total GULP energy -111653.559259 kJ/mol
# GULP energy per Si atom -5582.677963 kJ/mol
# Density = 1.915626 g / cm^3
# Si number density = 19.199961 Si / 1000 Ang^3
#
#
#
# Elastic Constant Matrix: (Units=GPa)
#
#
# Indices 1 2 3 4 5 6 
#
# 1 75.4053 45.0625 61.3797 0.0000 0.0000 0.0000
# 2 45.0625 104.1624 85.6081 0.0000 0.0000 0.0000
# 3 61.3797 85.6081 189.6832 0.0000 0.0000 0.0000
# 4 0.0000 0.0000 0.0000 -39.8756 0.0000 0.0000
# 5 0.0000 0.0000 0.0000 0.0000 -16.9253 0.0000
# 6 0.0000 0.0000 0.0000 0.0000 0.0000 13.1322
#
#
#
# Elastic Compliance Matrix: (Units=1/GPa)
#
#
# Indices 1 2 3 4 5 6 
#
# 1 0.019629 -0.005201 -0.004005 0.000000 0.000000 0.000000
# 2 -0.005201 0.016639 -0.005827 0.000000 0.000000 0.000000
# 3 -0.004005 -0.005827 0.009198 0.000000 0.000000 0.000000
# 4 0.000000 0.000000 0.000000 -0.025078 0.000000 0.000000
# 5 0.000000 0.000000 0.000000 0.000000 -0.059083 0.000000
# 6 0.000000 0.000000 0.000000 0.000000 0.000000 0.076149
#
#
# Mechanical properties :
#
#
# Convention : Reuss Voigt Hill
#
# Bulk Modulus (GPa) = 64.92703 83.70571 74.31637
# Shear Modulus (GPa) = 68.82154 3.07963 35.95059
#
# Velocity S-wave (km/s) = 5.99353 1.26786 4.33185
# Velocity P-wave (km/s) = 9.04357 6.77014 7.98815
#
# Compressibility (1/GPa) = 0.01540191
#
# Stress axis : x y z
#
# Youngs Moduli (GPa) = 50.94385 60.09950 108.72458
#
# Poissons Ratio (x) = 0.31256 0.43541
# Poissons Ratio (y) = 0.26494 0.63350
# Poissons Ratio (z) = 0.20402 0.35018
#
# Static dielectric constant tensor:
#      x y z
#    x 1.642650 0.000000 0.000000 
#    y 0.000000 1.693480 0.000000 
#    z 0.000000 0.000000 1.634480 
# 
# From -- ./inp_files/23233.got.cif
#   From: 2010.05.17/outbox.cif.g08.bks.cpg/sg38_12_cif.got.tgz:23233.got - 2010.06.03 18:07:57.
