data_PCOD9358587
_publ_section_title
;
Structure prediction by ZEFSAII (Michael W. Deem and Ramdas Pophale) SiO2 
 PCOD9358587
Probable space group: A M M 2
;
_chemical_formula_sum "Si O2"
_cell_formula_units_Z 56
_cell_length_a 13.679248
_cell_length_b 19.457024
_cell_length_c 9.810921
_cell_angle_alpha 90.000000
_cell_angle_beta 90.000000
_cell_angle_gamma 90.000000
_cell_volume 2611.249781
_symmetry_space_group_name_H-M "A M M 2"
_symmetry_group_IT_number 38
_symmetry_cell_setting 'orthorhombic'
loop_
_space_group_symop_operation_xyz
x,y,z
-x,-y,z
-x,y,z
x,-y,z
x,1/2+y,1/2+z
-x,1/2-y,1/2+z
-x,1/2+y,1/2+z
x,1/2-y,1/2+z
loop_
_atom_site_type_symbol
_atom_site_label
_atom_site_fract_x
_atom_site_fract_y
_atom_site_fract_z
Si Si1 0.111000 0.326049 0.189980
Si Si2 0.615816 0.578406 0.212913
Si Si3 0.700422 0.285306 0.312184
Si Si4 0.891556 0.079707 0.957937
Si Si5 0.391168 0.294395 0.579698
Si Si6 0.723083 0.081417 0.171033
Si Si7 0.227379 0.080472 0.483695
O O1 0.194128 0.273530 0.243251
O O2 0.109581 0.377518 0.319509
O O3 0.000000 0.301109 0.166802
O O4 0.152951 0.368793 0.061530
O O5 0.500000 0.591171 0.204156
O O6 0.630219 0.500000 0.261704
O O7 0.670812 0.634074 0.304747
O O8 0.670735 0.584429 0.067766
O O9 0.684715 0.265718 0.467735
O O10 0.622767 0.248863 0.215795
O O11 0.000000 0.086859 0.018884
O O12 0.876375 0.000000 0.922008
O O13 0.811545 0.098905 0.068849
O O14 0.500000 0.288909 0.523885
O O15 0.365796 0.371816 0.622378
O O16 0.753652 0.097551 0.326391
O O17 0.703492 0.000000 0.163692
O O18 0.194872 0.000000 0.492194
#
# Coordination Sequence:
#
# PCOD9358587 Si02
#       7
#     8   8   8   8   8   8   8
#     4  10  20  38  64  92 123 164 212 259 313 372
#     4   9  18  35  61  90 121 160 207 263 318 367
#     4  11  25  44  64  93 128 162 215 260 317 384
#     4   9  17  33  60  90 122 162 203 251 314 373
#     4  12  26  44  67  92 125 171 213 262 321 387
#     4  10  22  40  61  92 130 166 208 266 320 368
#     4   9  19  33  55  90 130 165 204 256 311 372
#
# _framework density 21.44567
#
# number of rings (size 3 to 8) (size 9 to 14) (size 15 to 20)
#    0.000    2.000    1.429    1.714    4.000    3.429 
#    0.000    4.286    0.000    0.000    0.000    0.000 
#    0.000    0.000    0.000    0.000    0.000    0.000 
#
# Total GULP energy -156401.896247 kJ/mol
# GULP energy per Si atom -5585.782009 kJ/mol
# Density = 2.139686 g / cm^3
# Si number density = 21.445670 Si / 1000 Ang^3
#
#
#
# Elastic Constant Matrix: (Units=GPa)
#
#
# Indices 1 2 3 4 5 6 
#
# 1 108.8889 17.2787 8.3286 0.0000 0.0000 0.0000
# 2 17.2787 33.3568 13.5884 0.0000 0.0000 0.0000
# 3 8.3286 13.5884 99.2986 0.0000 0.0000 0.0000
# 4 0.0000 0.0000 0.0000 23.1854 0.0000 0.0000
# 5 0.0000 0.0000 0.0000 0.0000 18.6864 0.0000
# 6 0.0000 0.0000 0.0000 0.0000 0.0000 22.6460
#
#
#
# Elastic Compliance Matrix: (Units=1/GPa)
#
#
# Indices 1 2 3 4 5 6 
#
# 1 0.010008 -0.005128 -0.000138 0.000000 0.000000 0.000000
# 2 -0.005128 0.034376 -0.004274 0.000000 0.000000 0.000000
# 3 -0.000138 -0.004274 0.010667 0.000000 0.000000 0.000000
# 4 0.000000 0.000000 0.000000 0.043131 0.000000 0.000000
# 5 0.000000 0.000000 0.000000 0.000000 0.053515 0.000000
# 6 0.000000 0.000000 0.000000 0.000000 0.000000 0.044158
#
#
# Mechanical properties :
#
#
# Convention : Reuss Voigt Hill
#
# Bulk Modulus (GPa) = 27.79956 35.54841 31.67399
# Shear Modulus (GPa) = 22.03374 26.39346 24.21360
#
# Velocity S-wave (km/s) = 3.20882 3.51196 3.36380
# Velocity P-wave (km/s) = 5.16910 5.74953 5.46703
#
# Compressibility (1/GPa) = 0.03597179
#
# Stress axis : x y z
#
# Youngs Moduli (GPa) = 99.92084 29.08985 93.74651
#
# Poissons Ratio (x) = 0.14917 0.01291
# Poissons Ratio (y) = 0.51239 0.40068
# Poissons Ratio (z) = 0.01376 0.12433
#
# Static dielectric constant tensor:
#      x y z
#    x 1.794330 0.000000 0.000000 
#    y 0.000000 1.810030 0.000000 
#    z 0.000000 0.000000 1.745450 
# 
# From -- ./inp_files/5705.got.cif
#   From: 2010.05.17/outbox.cif.g08.bks.cpg/sg38_3_cif.got.tgz:5705.got - 2010.06.03 18:07:57.
