data_PCOD9358563
_publ_section_title
;
Structure prediction by ZEFSAII (Michael W. Deem and Ramdas Pophale) SiO2 
 PCOD9358563
Probable space group: A M M 2
;
_chemical_formula_sum "Si O2"
_cell_formula_units_Z 48
_cell_length_a 10.406510
_cell_length_b 7.841723
_cell_length_c 28.442546
_cell_angle_alpha 90.000000
_cell_angle_beta 90.000000
_cell_angle_gamma 90.000000
_cell_volume 2321.053079
_symmetry_space_group_name_H-M "A M M 2"
_symmetry_group_IT_number 38
_symmetry_cell_setting 'orthorhombic'
loop_
_space_group_symop_operation_xyz
x,y,z
-x,-y,z
-x,y,z
x,-y,z
x,1/2+y,1/2+z
-x,1/2-y,1/2+z
-x,1/2+y,1/2+z
x,1/2-y,1/2+z
loop_
_atom_site_type_symbol
_atom_site_label
_atom_site_fract_x
_atom_site_fract_y
_atom_site_fract_z
Si Si1 0.000000 0.296573 0.564210
Si Si2 0.769968 0.795336 0.740137
Si Si3 0.644906 0.794421 0.419804
Si Si4 0.500000 0.290726 0.199490
Si Si5 0.726270 0.204394 0.523032
Si Si6 0.500000 0.291261 0.091158
Si Si7 0.000000 0.203625 0.171163
Si Si8 0.856154 0.294537 0.342625
O O1 0.128874 0.243137 0.537561
O O2 0.000000 0.228341 0.617836
O O3 0.000000 0.500000 0.566729
O O4 0.629754 0.732439 0.724977
O O5 0.874866 0.758266 0.700292
O O6 0.816821 0.730207 0.790784
O O7 0.761204 0.000000 0.744062
O O8 0.500000 0.733657 0.409087
O O9 0.688215 0.731017 0.471329
O O10 0.749085 0.749031 0.380750
O O11 0.640156 0.000000 0.422023
O O12 0.500000 0.500000 0.199752
O O13 0.500000 0.236243 0.145108
O O14 0.625607 0.265888 0.562393
O O15 0.712047 0.000000 0.521545
O O16 0.500000 0.500000 0.091756
O O17 0.000000 0.000000 0.169010
O O18 0.861934 0.500000 0.340061
O O19 0.000000 0.233087 0.354820
#
# Coordination Sequence:
#
# PCOD9358563 Si02
#       8
#     4   8   8   4   8   4   4   8
#     4  11  25  39  54  85 124 155 188 233 282 343
#     4  10  20  38  61  86 115 149 193 241 283 334
#     4  10  22  40  61  87 117 148 189 240 290 343
#     4   9  18  30  56  91 113 139 185 237 284 331
#     4  10  20  38  62  85 112 150 194 239 284 335
#     4   9  16  32  58  87 113 139 183 241 288 327
#     4  11  23  39  58  83 118 157 192 231 286 345
#     4  10  22  39  59  85 117 152 191 237 287 341
#
# _framework density 20.680268000000002
#
# number of rings (size 3 to 8) (size 9 to 14) (size 15 to 20)
#    0.000    2.000    1.667    1.500    2.333    4.667 
#    0.000    0.833    0.000    3.000    0.000    0.000 
#    0.000    0.000    0.000    0.000    0.000    0.000 
#
# Total GULP energy -134098.884071 kJ/mol
# GULP energy per Si atom -5587.453503 kJ/mol
# Density = 2.063320 g / cm^3
# Si number density = 20.680268 Si / 1000 Ang^3
#
#
#
# Elastic Constant Matrix: (Units=GPa)
#
#
# Indices 1 2 3 4 5 6 
#
# 1 230.8734 5.5239 103.9769 0.0000 0.0000 0.0000
# 2 5.5239 20.6669 10.1369 0.0000 0.0000 0.0000
# 3 103.9769 10.1369 142.0977 0.0000 0.0000 0.0000
# 4 0.0000 0.0000 0.0000 17.9463 0.0000 0.0000
# 5 0.0000 0.0000 0.0000 0.0000 44.9144 0.0000
# 6 0.0000 0.0000 0.0000 0.0000 0.0000 -11.0961
#
#
#
# Elastic Compliance Matrix: (Units=1/GPa)
#
#
# Indices 1 2 3 4 5 6 
#
# 1 0.006468 0.000614 -0.004777 0.000000 0.000000 0.000000
# 2 0.000614 0.050199 -0.004030 0.000000 0.000000 0.000000
# 3 -0.004777 -0.004030 0.010820 0.000000 0.000000 0.000000
# 4 0.000000 0.000000 0.000000 0.055722 0.000000 0.000000
# 5 0.000000 0.000000 0.000000 0.000000 0.022265 0.000000
# 6 0.000000 0.000000 0.000000 0.000000 0.000000 -0.090122
#
#
# Mechanical properties :
#
#
# Convention : Reuss Voigt Hill
#
# Bulk Modulus (GPa) = 19.56892 70.32370 44.94631
# Shear Modulus (GPa) = 56.32473 28.61962 42.47217
#
# Velocity S-wave (km/s) = 5.22447 3.72413 4.53675
# Velocity P-wave (km/s) = 6.77323 7.25060 7.01598
#
# Compressibility (1/GPa) = 0.05110144
#
# Stress axis : x y z
#
# Youngs Moduli (GPa) = 154.61077 19.92061 92.42102
#
# Poissons Ratio (x) = -0.01223 0.44145
# Poissons Ratio (y) = -0.09495 0.37250
# Poissons Ratio (z) = 0.73850 0.08029
#
# Static dielectric constant tensor:
#      x y z
#    x 1.713300 0.000000 0.000000 
#    y 0.000000 1.765270 0.000000 
#    z 0.000000 0.000000 1.715380 
# 
# From -- ./inp_files/24459.got.cif
#   From: 2010.05.17/outbox.cif.g08.bks.cpg/sg38_13_cif.got.tgz:24459.got - 2010.06.03 18:07:57.
