data_PCOD9358863
_publ_section_title
;
Structure prediction by ZEFSAII (Michael W. Deem and Ramdas Pophale) SiO2 
 PCOD9358863
Probable space group: A M M 2
;
_chemical_formula_sum "Si O2"
_cell_formula_units_Z 38
_cell_length_a 24.324826
_cell_length_b 14.093749
_cell_length_c 5.052021
_cell_angle_alpha 90.000000
_cell_angle_beta 90.000000
_cell_angle_gamma 90.000000
_cell_volume 1731.974216
_symmetry_space_group_name_H-M "A M M 2"
_symmetry_group_IT_number 38
_symmetry_cell_setting 'orthorhombic'
loop_
_space_group_symop_operation_xyz
x,y,z
-x,-y,z
-x,y,z
x,-y,z
x,1/2+y,1/2+z
-x,1/2-y,1/2+z
-x,1/2+y,1/2+z
x,1/2-y,1/2+z
loop_
_atom_site_type_symbol
_atom_site_label
_atom_site_fract_x
_atom_site_fract_y
_atom_site_fract_z
Si Si1 0.207263 0.308185 0.957110
Si Si2 0.384651 0.386154 0.647762
Si Si3 0.916687 0.680333 0.041451
Si Si4 0.500000 0.193818 0.960221
Si Si5 0.678188 0.386751 0.148045
Si Si6 0.000000 0.500000 0.031395
O O1 0.208672 0.285217 0.645941
O O2 0.147538 0.349721 0.025092
O O3 0.261432 0.362318 0.046915
O O4 0.383440 0.500000 0.655397
O O5 0.444312 0.357397 0.547203
O O6 0.338383 0.353019 0.439005
O O7 0.367374 0.352276 0.937891
O O8 0.926469 0.745505 0.300504
O O9 0.952927 0.585798 0.032293
O O10 0.500000 0.287233 0.147529
O O11 0.674608 0.500000 0.155921
#
# Coordination Sequence:
#
# PCOD9358863 Si02
#       6
#     8   8   8   4   8   2
#     4  10  21  38  59  86 123 158 190 251 308 348
#     4  10  22  40  57  82 113 155 186 240 294 351
#     4  10  24  43  63  98 134 166 222 269 315 387
#     4  12  25  38  57  84 112 144 194 244 285 352
#     4  10  21  36  60  84 113 147 200 236 287 361
#     4  12  24  42  76  92 128 190 208 264 336 356
#
# _framework density 21.940280999999999
#
# number of rings (size 3 to 8) (size 9 to 14) (size 15 to 20)
#    0.000    1.684    0.000    3.474    1.474    6.737 
#    0.000    4.211    0.000    0.000    0.000    0.000 
#    0.000    0.000    0.000    0.000    0.000    0.000 
#
# Total GULP energy -105890.848876 kJ/mol
# GULP energy per Si atom -5573.202572 kJ/mol
# Density = 2.189034 g / cm^3
# Si number density = 21.940281 Si / 1000 Ang^3
#
#
#
# Elastic Constant Matrix: (Units=GPa)
#
#
# Indices 1 2 3 4 5 6 
#
# 1 137.1985 30.5238 16.8844 0.0000 0.0000 0.0000
# 2 30.5238 92.8781 3.9300 0.0000 0.0000 0.0000
# 3 16.8844 3.9300 86.9091 0.0000 0.0000 0.0000
# 4 0.0000 0.0000 0.0000 12.9871 0.0000 0.0000
# 5 0.0000 0.0000 0.0000 0.0000 337.5691 0.0000
# 6 0.0000 0.0000 0.0000 0.0000 0.0000 37.8630
#
#
#
# Elastic Compliance Matrix: (Units=1/GPa)
#
#
# Indices 1 2 3 4 5 6 
#
# 1 0.008041 -0.002581 -0.001445 0.000000 0.000000 0.000000
# 2 -0.002581 0.011616 -0.000024 0.000000 0.000000 0.000000
# 3 -0.001445 -0.000024 0.011788 0.000000 0.000000 0.000000
# 4 0.000000 0.000000 0.000000 0.076999 0.000000 0.000000
# 5 0.000000 0.000000 0.000000 0.000000 0.002962 0.000000
# 6 0.000000 0.000000 0.000000 0.000000 0.000000 0.026411
#
#
# Mechanical properties :
#
#
# Convention : Reuss Voigt Hill
#
# Bulk Modulus (GPa) = 42.83759 46.62912 44.73335
# Shear Modulus (GPa) = 32.53077 95.39368 63.96223
#
# Velocity S-wave (km/s) = 3.85476 6.60100 5.40520
# Velocity P-wave (km/s) = 6.27529 8.91047 7.70635
#
# Compressibility (1/GPa) = 0.02334399
#
# Stress axis : x y z
#
# Youngs Moduli (GPa) = 124.36407 86.08682 84.83091
#
# Poissons Ratio (x) = 0.22223 0.12262
# Poissons Ratio (y) = 0.32104 0.00202
# Poissons Ratio (z) = 0.17976 0.00205
#
# Static dielectric constant tensor:
#      x y z
#    x 1.739710 0.000000 0.000000 
#    y 0.000000 1.785680 0.000000 
#    z 0.000000 0.000000 1.806060 
# 
# From -- ./inp_files/2072.got.cif
#   From: 2010.05.17/outbox.cif.g08.bks.cpg/sg38_2_cif.got.tgz:2072.got - 2010.06.03 18:07:57.
