data_PCOD9358855
_publ_section_title
;
Structure prediction by ZEFSAII (Michael W. Deem and Ramdas Pophale) SiO2 
 PCOD9358855
Probable space group: A M M 2
;
_chemical_formula_sum "Si O2"
_cell_formula_units_Z 40
_cell_length_a 21.521143
_cell_length_b 17.752074
_cell_length_c 5.093397
_cell_angle_alpha 90.000000
_cell_angle_beta 90.000000
_cell_angle_gamma 90.000000
_cell_volume 1945.906465
_symmetry_space_group_name_H-M "A M M 2"
_symmetry_group_IT_number 38
_symmetry_cell_setting 'orthorhombic'
loop_
_space_group_symop_operation_xyz
x,y,z
-x,-y,z
-x,y,z
x,-y,z
x,1/2+y,1/2+z
-x,1/2-y,1/2+z
-x,1/2+y,1/2+z
x,1/2-y,1/2+z
loop_
_atom_site_type_symbol
_atom_site_label
_atom_site_fract_x
_atom_site_fract_y
_atom_site_fract_z
Si Si1 0.193243 0.412276 0.310660
Si Si2 0.296655 0.804665 0.028945
Si Si3 0.860822 0.804154 0.449411
Si Si4 0.566474 0.804727 0.019504
Si Si5 0.931478 0.085361 0.156915
O O1 0.207969 0.500000 0.285190
O O2 0.244557 0.366272 0.471640
O O3 0.186318 0.370929 0.029883
O O4 0.125909 0.406015 0.455321
O O5 0.291260 0.740800 0.801385
O O6 0.365595 0.841686 0.012998
O O7 0.855385 0.750756 0.197662
O O8 0.922079 0.852374 0.381557
O O9 0.500000 0.847288 0.011579
O O10 0.566188 0.746743 0.777931
O O11 0.000000 0.093741 0.036499
O O12 0.927098 0.000000 0.264154
#
# Coordination Sequence:
#
# PCOD9358855 Si02
#       5
#     8   8   8   8   8
#     4  11  24  42  65  91 123 162 203 247 304 368
#     4  10  21  36  58  88 120 157 199 249 299 346
#     4  12  24  43  64  89 117 148 191 247 299 353
#     4   8  14  27  49  79 114 151 194 241 288 340
#     4  10  24  46  67  88 118 158 201 247 304 370
#
# _framework density 20.555973000000002
#
# number of rings (size 3 to 8) (size 9 to 14) (size 15 to 20)
#    0.000    1.800    2.000    1.800    2.800    1.600 
#    0.000    2.000    0.000    0.600    0.000    0.000 
#    0.000   16.000    0.000    0.000    0.000    2.400 
#
# Total GULP energy -111496.794863 kJ/mol
# GULP energy per Si atom -5574.839743 kJ/mol
# Density = 2.050919 g / cm^3
# Si number density = 20.555973 Si / 1000 Ang^3
#
#
#
# Elastic Constant Matrix: (Units=GPa)
#
#
# Indices 1 2 3 4 5 6 
#
# 1 177.3520 53.3563 18.8903 0.0000 0.0000 0.0000
# 2 53.3563 119.1249 34.1756 0.0000 0.0000 0.0000
# 3 18.8903 34.1756 128.4748 0.0000 0.0000 0.0000
# 4 0.0000 0.0000 0.0000 21.7726 0.0000 0.0000
# 5 0.0000 0.0000 0.0000 0.0000 24.9439 0.0000
# 6 0.0000 0.0000 0.0000 0.0000 0.0000 17.0008
#
#
#
# Elastic Compliance Matrix: (Units=1/GPa)
#
#
# Indices 1 2 3 4 5 6 
#
# 1 0.006521 -0.002864 -0.000197 0.000000 0.000000 0.000000
# 2 -0.002864 0.010346 -0.002331 0.000000 0.000000 0.000000
# 3 -0.000197 -0.002331 0.008433 0.000000 0.000000 0.000000
# 4 0.000000 0.000000 0.000000 0.045929 0.000000 0.000000
# 5 0.000000 0.000000 0.000000 0.000000 0.040090 0.000000
# 6 0.000000 0.000000 0.000000 0.000000 0.000000 0.058821
#
#
# Mechanical properties :
#
#
# Convention : Reuss Voigt Hill
#
# Bulk Modulus (GPa) = 68.89186 70.86623 69.87905
# Shear Modulus (GPa) = 26.91596 33.97876 30.44736
#
# Velocity S-wave (km/s) = 3.62249 4.07010 3.85280
# Velocity P-wave (km/s) = 7.14728 7.52577 7.33897
#
# Compressibility (1/GPa) = 0.01451550
#
# Stress axis : x y z
#
# Youngs Moduli (GPa) = 153.34536 96.65324 118.58650
#
# Poissons Ratio (x) = 0.27685 0.02335
# Poissons Ratio (y) = 0.43924 0.27643
# Poissons Ratio (z) = 0.03019 0.22530
#
# Static dielectric constant tensor:
#      x y z
#    x 1.847330 0.000000 0.000000 
#    y 0.000000 1.712940 0.000000 
#    z 0.000000 0.000000 1.795290 
# 
# From -- ./inp_files/1848.got.cif
#   From: 2010.05.17/outbox.cif.g08.bks.cpg/sg38_1_cif.got.tgz:1848.got - 2010.06.03 18:07:57.
