data_PCOD9358671
_publ_section_title
;
Structure prediction by ZEFSAII (Michael W. Deem and Ramdas Pophale) SiO2 
 PCOD9358671
Probable space group: A M M 2
;
_chemical_formula_sum "Si O2"
_cell_formula_units_Z 64
_cell_length_a 7.734813
_cell_length_b 19.518802
_cell_length_c 22.318918
_cell_angle_alpha 90.000000
_cell_angle_beta 90.000000
_cell_angle_gamma 90.000000
_cell_volume 3369.582653
_symmetry_space_group_name_H-M "A M M 2"
_symmetry_group_IT_number 38
_symmetry_cell_setting 'orthorhombic'
loop_
_space_group_symop_operation_xyz
x,y,z
-x,-y,z
-x,y,z
x,-y,z
x,1/2+y,1/2+z
-x,1/2-y,1/2+z
-x,1/2+y,1/2+z
x,1/2-y,1/2+z
loop_
_atom_site_type_symbol
_atom_site_label
_atom_site_fract_x
_atom_site_fract_y
_atom_site_fract_z
Si Si1 0.708163 0.574526 0.088460
Si Si2 0.790118 0.280690 0.451830
Si Si3 0.290449 0.130529 0.127711
Si Si4 0.808976 0.183553 0.354962
Si Si5 0.706230 0.423736 0.754985
Si Si6 0.296987 0.423273 0.945907
Si Si7 0.292034 0.723570 0.082291
Si Si8 0.793442 0.425223 0.498684
O O1 0.500000 0.573696 0.098391
O O2 0.774509 0.500000 0.110483
O O3 0.774141 0.650056 0.106105
O O4 0.734096 0.575364 0.016614
O O5 0.723830 0.247570 0.389811
O O6 0.744707 0.237327 0.511730
O O7 0.726946 0.357843 0.464470
O O8 0.000000 0.280898 0.448701
O O9 0.500000 0.131842 0.129264
O O10 0.227179 0.098005 0.189476
O O11 0.229568 0.208758 0.116866
O O12 0.238676 0.088318 0.068989
O O13 0.734767 0.137889 0.301582
O O14 0.813766 0.129862 0.409811
O O15 0.000000 0.204678 0.335612
O O16 0.500000 0.429802 0.750219
O O17 0.772289 0.500000 0.772102
O O18 0.500000 0.406296 0.936735
O O19 0.269315 0.500000 0.922830
O O20 0.500000 0.721420 0.087468
O O21 0.723908 0.500000 0.481750
O O22 0.000000 0.426132 0.489613
#
# Coordination Sequence:
#
# PCOD9358671 Si02
#       8
#     8   8   8   8   8   8   8   8
#     4   8  13  21  36  60  87 112 139 170 203 248
#     4   9  18  30  42  62  91 115 138 176 223 264
#     4   9  18  31  48  69  90 114 148 189 225 257
#     4  11  21  30  42  61  87 116 148 186 219 252
#     4  10  21  35  47  60  85 122 158 188 218 255
#     4   9  16  26  40  57  81 115 148 174 205 249
#     4   9  15  26  46  67  86 112 147 181 215 261
#     4   9  17  30  49  70  91 116 142 172 218 274
#
# _framework density 18.993449999999999
#
# number of rings (size 3 to 8) (size 9 to 14) (size 15 to 20)
#    0.000    2.750    1.250    1.875    0.000    3.750 
#    0.000    0.000    0.000    0.375    0.000    0.875 
#    0.000    1.000    0.000    0.000    0.000    0.000 
#
# Total GULP energy -178174.403231 kJ/mol
# GULP energy per Si atom -5567.950101 kJ/mol
# Density = 1.895022 g / cm^3
# Si number density = 18.993450 Si / 1000 Ang^3
#
#
#
# Elastic Constant Matrix: (Units=GPa)
#
#
# Indices 1 2 3 4 5 6 
#
# 1 20.3398 8.0933 3.7242 0.0000 0.0000 0.0000
# 2 8.0933 155.5162 42.1260 0.0000 0.0000 0.0000
# 3 3.7242 42.1260 66.4993 0.0000 0.0000 0.0000
# 4 0.0000 0.0000 0.0000 4.6828 0.0000 0.0000
# 5 0.0000 0.0000 0.0000 0.0000 14.5485 0.0000
# 6 0.0000 0.0000 0.0000 0.0000 0.0000 10.9201
#
#
#
# Elastic Compliance Matrix: (Units=1/GPa)
#
#
# Indices 1 2 3 4 5 6 
#
# 1 0.050312 -0.002239 -0.001399 0.000000 0.000000 0.000000
# 2 -0.002239 0.007862 -0.004855 0.000000 0.000000 0.000000
# 3 -0.001399 -0.004855 0.018192 0.000000 0.000000 0.000000
# 4 0.000000 0.000000 0.000000 0.213550 0.000000 0.000000
# 5 0.000000 0.000000 0.000000 0.000000 0.068736 0.000000
# 6 0.000000 0.000000 0.000000 0.000000 0.000000 0.091574
#
#
# Mechanical properties :
#
#
# Convention : Reuss Voigt Hill
#
# Bulk Modulus (GPa) = 16.84104 38.91579 27.87842
# Shear Modulus (GPa) = 10.26684 18.59105 14.42895
#
# Velocity S-wave (km/s) = 2.32749 3.13199 2.75922
# Velocity P-wave (km/s) = 4.01359 5.79765 4.98606
#
# Compressibility (1/GPa) = 0.05937877
#
# Stress axis : x y z
#
# Youngs Moduli (GPa) = 19.87597 127.19695 54.97044
#
# Poissons Ratio (x) = 0.28483 0.07691
# Poissons Ratio (y) = 0.04451 0.26688
# Poissons Ratio (z) = 0.02781 0.61753
#
# Static dielectric constant tensor:
#      x y z
#    x 1.685360 0.000000 0.000000 
#    y 0.000000 1.789250 0.000000 
#    z 0.000000 0.000000 1.637340 
# 
# From -- ./inp_files/20219.got.cif
#   From: 2010.05.17/outbox.cif.g08.bks.cpg/sg38_11_cif.got.tgz:20219.got - 2010.06.03 18:07:57.
