data_PCOD9358979
_publ_section_title
;
Structure prediction by ZEFSAII (Michael W. Deem and Ramdas Pophale) SiO2 
 PCOD9358979
Probable space group: A M M 2
;
_chemical_formula_sum "Si O2"
_cell_formula_units_Z 64
_cell_length_a 24.278961
_cell_length_b 7.734076
_cell_length_c 15.862300
_cell_angle_alpha 90.000000
_cell_angle_beta 90.000000
_cell_angle_gamma 90.000000
_cell_volume 2978.548610
_symmetry_space_group_name_H-M "A M M 2"
_symmetry_group_IT_number 38
_symmetry_cell_setting 'orthorhombic'
loop_
_space_group_symop_operation_xyz
x,y,z
-x,-y,z
-x,y,z
x,-y,z
x,1/2+y,1/2+z
-x,1/2-y,1/2+z
-x,1/2+y,1/2+z
x,1/2-y,1/2+z
loop_
_atom_site_type_symbol
_atom_site_label
_atom_site_fract_x
_atom_site_fract_y
_atom_site_fract_z
Si Si1 0.857005 0.204665 0.978320
Si Si2 0.438036 0.207227 0.812480
Si Si3 0.255354 0.701634 0.899461
Si Si4 0.763126 0.198974 0.710597
Si Si5 0.062735 0.709927 0.825608
Si Si6 0.882047 0.198477 0.157225
Si Si7 0.370723 0.208195 0.475806
Si Si8 0.641797 0.711969 0.163248
O O1 0.797327 0.283019 0.959427
O O2 0.896254 0.232760 0.898813
O O3 0.848387 0.000000 0.989755
O O4 0.884038 0.276182 0.063939
O O5 0.500000 0.274768 0.801808
O O6 0.414936 0.242768 0.905534
O O7 0.395584 0.272369 0.741244
O O8 0.439999 0.000000 0.802446
O O9 0.263698 0.500000 0.878550
O O10 0.242644 0.794660 0.811676
O O11 0.310913 0.768546 0.942731
O O12 0.817811 0.297329 0.683380
O O13 0.705321 0.266146 0.674253
O O14 0.770034 0.000000 0.683337
O O15 0.064791 0.500000 0.824114
O O16 0.084318 0.775821 0.735071
O O17 0.000000 0.763342 0.840958
O O18 0.901233 0.000000 0.150094
O O19 0.380050 0.266823 0.571672
O O20 0.368640 0.000000 0.479108
O O21 0.642521 0.500000 0.166178
#
# Coordination Sequence:
#
# PCOD9358979 Si02
#       8
#     8   8   8   8   8   8   8   8
#     4  11  23  38  60  90 119 153 195 238 286 342
#     4  10  21  38  58  80 111 150 191 238 288 335
#     4  11  21  35  57  86 121 154 187 233 292 347
#     4  11  20  34  60  88 116 150 190 234 285 348
#     4  10  22  41  62  83 114 158 199 240 291 339
#     4  10  22  39  59  86 120 154 189 232 290 350
#     4  10  21  37  59  85 113 149 189 232 282 339
#     4   9  19  36  57  83 113 148 187 227 280 343
#
# _framework density 21.486975000000001
#
# number of rings (size 3 to 8) (size 9 to 14) (size 15 to 20)
#    0.000    1.750    2.500    1.875    0.000    4.000 
#    0.000    4.375    0.000    0.000    0.000    0.000 
#    0.000    0.000    0.000    0.000    0.000    0.000 
#
# Total GULP energy -178827.149202 kJ/mol
# GULP energy per Si atom -5588.348413 kJ/mol
# Density = 2.143807 g / cm^3
# Si number density = 21.486975 Si / 1000 Ang^3
#
#
#
# Elastic Constant Matrix: (Units=GPa)
#
#
# Indices 1 2 3 4 5 6 
#
# 1 66.7333 -6.3415 -5.1598 0.0000 0.0000 0.0000
# 2 -6.3415 36.6934 -7.3730 0.0000 0.0000 0.0000
# 3 -5.1598 -7.3730 92.0217 0.0000 0.0000 0.0000
# 4 0.0000 0.0000 0.0000 24.1903 0.0000 0.0000
# 5 0.0000 0.0000 0.0000 0.0000 7.3587 0.0000
# 6 0.0000 0.0000 0.0000 0.0000 0.0000 21.8865
#
#
#
# Elastic Compliance Matrix: (Units=1/GPa)
#
#
# Indices 1 2 3 4 5 6 
#
# 1 0.015342 0.002871 0.001090 0.000000 0.000000 0.000000
# 2 0.002871 0.028236 0.002423 0.000000 0.000000 0.000000
# 3 0.001090 0.002423 0.011122 0.000000 0.000000 0.000000
# 4 0.000000 0.000000 0.000000 0.041339 0.000000 0.000000
# 5 0.000000 0.000000 0.000000 0.000000 0.135893 0.000000
# 6 0.000000 0.000000 0.000000 0.000000 0.000000 0.045690
#
#
# Mechanical properties :
#
#
# Convention : Reuss Voigt Hill
#
# Bulk Modulus (GPa) = 14.82175 17.52221 16.17198
# Shear Modulus (GPa) = 17.40076 24.97529 21.18803
#
# Velocity S-wave (km/s) = 2.84884 3.41302 3.14361
# Velocity P-wave (km/s) = 4.21119 4.86868 4.55183
#
# Compressibility (1/GPa) = 0.06746841
#
# Stress axis : x y z
#
# Youngs Moduli (GPa) = 65.18011 35.41596 89.90954
#
# Poissons Ratio (x) = -0.10166 -0.09802
# Poissons Ratio (y) = -0.18710 -0.21788
# Poissons Ratio (z) = -0.07106 -0.08582
#
# Static dielectric constant tensor:
#      x y z
#    x 1.741290 0.000000 0.000000 
#    y 0.000000 1.804130 0.000000 
#    z 0.000000 0.000000 1.778710 
# 
# From -- ./inp_files/15753.got.cif
#   From: 2010.05.17/outbox.cif.g08.bks.cpg/sg38_8_cif.got.tgz:15753.got - 2010.06.03 18:07:57.
