data_PCOD9358681
_publ_section_title
;
Structure prediction by ZEFSAII (Michael W. Deem and Ramdas Pophale) SiO2 
 PCOD9358681
Probable space group: A M M 2
;
_chemical_formula_sum "Si O2"
_cell_formula_units_Z 64
_cell_length_a 7.376018
_cell_length_b 17.278000
_cell_length_c 22.534229
_cell_angle_alpha 90.000000
_cell_angle_beta 90.000000
_cell_angle_gamma 90.000000
_cell_volume 2871.826119
_symmetry_space_group_name_H-M "A M M 2"
_symmetry_group_IT_number 38
_symmetry_cell_setting 'orthorhombic'
loop_
_space_group_symop_operation_xyz
x,y,z
-x,-y,z
-x,y,z
x,-y,z
x,1/2+y,1/2+z
-x,1/2-y,1/2+z
-x,1/2+y,1/2+z
x,1/2-y,1/2+z
loop_
_atom_site_type_symbol
_atom_site_label
_atom_site_fract_x
_atom_site_fract_y
_atom_site_fract_z
Si Si1 0.720703 0.581582 0.742310
Si Si2 0.719617 0.749385 0.781046
Si Si3 0.793875 0.586995 0.924086
Si Si4 0.720469 0.711641 0.151025
Si Si5 0.208158 0.739218 0.411065
Si Si6 0.283958 0.914266 0.560739
Si Si7 0.210044 0.414544 0.475356
Si Si8 0.281975 0.118943 0.109954
O O1 0.500000 0.583937 0.742767
O O2 0.778745 0.500000 0.768957
O O3 0.779308 0.659612 0.774262
O O4 0.775244 0.583337 0.673011
O O5 0.500000 0.750765 0.782792
O O6 0.778709 0.788305 0.719368
O O7 0.787630 0.784328 0.842102
O O8 0.715461 0.500000 0.909634
O O9 0.711195 0.672583 0.910312
O O10 0.000000 0.586940 0.900949
O O11 0.797412 0.589555 0.995596
O O12 0.500000 0.709114 0.153045
O O13 0.786500 0.644932 0.108655
O O14 0.767184 0.791804 0.119307
O O15 0.286361 0.666951 0.449116
O O16 0.000000 0.749609 0.431786
O O17 0.500000 0.901022 0.552369
O O18 0.258768 0.000000 0.584406
O O19 0.286454 0.500000 0.458717
O O20 0.214502 0.410235 0.546994
O O21 0.000000 0.414933 0.456203
O O22 0.500000 0.110876 0.107675
#
# Coordination Sequence:
#
# PCOD9358681 Si02
#       8
#     8   8   8   8   8   8   8   8
#     4   8  14  26  45  70  98 123 146 179 228 280
#     4   9  18  32  49  67  89 121 159 194 227 269
#     4   9  18  32  49  70  97 125 151 185 232 281
#     4   8  15  29  47  69  97 123 147 184 236 280
#     4  10  21  36  50  65  91 127 161 194 234 273
#     4   9  16  27  46  71  96 121 150 185 227 278
#     4  10  21  35  49  67  94 126 157 192 235 277
#     4   9  16  28  50  75  96 120 150 185 227 279
#
# _framework density 22.285474000000001
#
# number of rings (size 3 to 8) (size 9 to 14) (size 15 to 20)
#    0.000    3.000    0.000    2.625    0.000    2.250 
#    0.000    3.750    0.000    1.500    0.000    0.000 
#    0.000    0.000    0.000    0.000    0.000    0.000 
#
# Total GULP energy -178380.689113 kJ/mol
# GULP energy per Si atom -5574.396535 kJ/mol
# Density = 2.223475 g / cm^3
# Si number density = 22.285474 Si / 1000 Ang^3
#
#
#
# Elastic Constant Matrix: (Units=GPa)
#
#
# Indices 1 2 3 4 5 6 
#
# 1 73.4724 22.3530 -5.8088 0.0000 0.0000 0.0000
# 2 22.3530 94.2991 61.6255 0.0000 0.0000 0.0000
# 3 -5.8088 61.6255 105.3131 0.0000 0.0000 0.0000
# 4 0.0000 0.0000 0.0000 -0.9750 0.0000 0.0000
# 5 0.0000 0.0000 0.0000 0.0000 16.2679 0.0000
# 6 0.0000 0.0000 0.0000 0.0000 0.0000 -6.8893
#
#
#
# Elastic Compliance Matrix: (Units=1/GPa)
#
#
# Indices 1 2 3 4 5 6 
#
# 1 0.016190 -0.007159 0.005082 0.000000 0.000000 0.000000
# 2 -0.007159 0.020337 -0.012295 0.000000 0.000000 0.000000
# 3 0.005082 -0.012295 0.016970 0.000000 0.000000 0.000000
# 4 0.000000 0.000000 0.000000 -1.025660 0.000000 0.000000
# 5 0.000000 0.000000 0.000000 0.000000 0.061471 0.000000
# 6 0.000000 0.000000 0.000000 0.000000 0.000000 -0.145154
#
#
# Mechanical properties :
#
#
# Convention : Reuss Voigt Hill
#
# Bulk Modulus (GPa) = 40.39826 47.71379 44.05603
# Shear Modulus (GPa) = -4.90749 14.67506 4.88378
#
# Velocity S-wave (km/s) = -1.48556 2.56892 1.48197
# Velocity P-wave (km/s) = 3.90185 5.50053 4.76866
#
# Compressibility (1/GPa) = 0.02475354
#
# Stress axis : x y z
#
# Youngs Moduli (GPa) = 61.76477 49.17241 58.92580
#
# Poissons Ratio (x) = 0.35204 -0.29948
# Poissons Ratio (y) = 0.44219 0.72450
# Poissons Ratio (z) = -0.31391 0.60458
#
# Static dielectric constant tensor:
#      x y z
#    x 1.864810 0.000000 0.000000 
#    y 0.000000 1.870330 0.000000 
#    z 0.000000 0.000000 1.770030 
# 
# From -- ./inp_files/20083.got.cif
#   From: 2010.05.17/outbox.cif.g08.bks.cpg/sg38_11_cif.got.tgz:20083.got - 2010.06.03 18:07:57.
