data_PCOD9358463
_publ_section_title
;
Structure prediction by ZEFSAII (Michael W. Deem and Ramdas Pophale) SiO2 
 PCOD9358463
Probable space group: A M M 2
;
_chemical_formula_sum "Si O2"
_cell_formula_units_Z 48
_cell_length_a 17.534698
_cell_length_b 14.651084
_cell_length_c 9.014260
_cell_angle_alpha 90.000000
_cell_angle_beta 90.000000
_cell_angle_gamma 90.000000
_cell_volume 2315.784427
_symmetry_space_group_name_H-M "A M M 2"
_symmetry_group_IT_number 38
_symmetry_cell_setting 'orthorhombic'
loop_
_space_group_symop_operation_xyz
x,y,z
-x,-y,z
-x,y,z
x,-y,z
x,1/2+y,1/2+z
-x,1/2-y,1/2+z
-x,1/2+y,1/2+z
x,1/2-y,1/2+z
loop_
_atom_site_type_symbol
_atom_site_label
_atom_site_fract_x
_atom_site_fract_y
_atom_site_fract_z
Si Si1 0.210790 0.000000 0.677500
Si Si2 0.686649 0.298213 0.869610
Si Si3 0.589392 0.500000 0.627185
Si Si4 0.088092 0.500000 0.909777
Si Si5 0.306215 0.500000 0.913328
Si Si6 0.173028 0.173311 0.878113
Si Si7 0.089587 0.671819 0.689867
Si Si8 0.589958 0.203530 0.084857
O O1 0.148093 0.000000 0.544199
O O2 0.292687 0.000000 0.591833
O O3 0.196629 0.086629 0.781215
O O4 0.723025 0.398608 0.875582
O O5 0.750502 0.227894 0.917082
O O6 0.652049 0.278462 0.710682
O O7 0.611660 0.281248 0.968281
O O8 0.500000 0.500000 0.646872
O O9 0.623497 0.500000 0.794762
O O10 0.606613 0.596194 0.545735
O O11 0.097826 0.587636 0.803620
O O12 0.000000 0.500000 0.965073
O O13 0.124121 0.239977 0.771850
O O14 0.130075 0.153288 0.032269
O O15 0.000000 0.685818 0.661713
O O16 0.500000 0.209165 0.123685
#
# Coordination Sequence:
#
# PCOD9358463 Si02
#       8
#     4   8   4   4   4   8   8   8
#     4  12  25  40  60  89 126 161 201 253 312 375
#     4  11  22  38  61  87 119 157 200 252 306 365
#     4   8  18  35  58  84 114 154 201 246 298 361
#     4  10  23  42  66  92 122 160 204 251 306 367
#     4  10  20  37  58  83 114 153 200 246 300 361
#     4  12  25  41  62  91 125 163 206 257 313 371
#     4  11  23  42  65  91 121 160 207 256 307 367
#     4  10  20  37  59  86 117 155 199 247 301 363
#
# _framework density 20.727318
#
# number of rings (size 3 to 8) (size 9 to 14) (size 15 to 20)
#    0.000    1.333    0.000    6.500    0.000    5.333 
#    0.000    2.500    0.000    0.000    0.000    0.000 
#    0.000    0.000    0.000    0.000    0.000    0.000 
#
# Total GULP energy -133754.013441 kJ/mol
# GULP energy per Si atom -5573.083893 kJ/mol
# Density = 2.068014 g / cm^3
# Si number density = 20.727318 Si / 1000 Ang^3
#
#
#
# Elastic Constant Matrix: (Units=GPa)
#
#
# Indices 1 2 3 4 5 6 
#
# 1 79.9669 18.1357 10.2876 0.0000 0.0000 0.0000
# 2 18.1357 66.7635 11.0872 0.0000 0.0000 0.0000
# 3 10.2876 11.0872 71.2306 0.0000 0.0000 0.0000
# 4 0.0000 0.0000 0.0000 30.3835 0.0000 0.0000
# 5 0.0000 0.0000 0.0000 0.0000 38.4981 0.0000
# 6 0.0000 0.0000 0.0000 0.0000 0.0000 101.9682
#
#
#
# Elastic Compliance Matrix: (Units=1/GPa)
#
#
# Indices 1 2 3 4 5 6 
#
# 1 0.013463 -0.003423 -0.001412 0.000000 0.000000 0.000000
# 2 -0.003423 0.016246 -0.002034 0.000000 0.000000 0.000000
# 3 -0.001412 -0.002034 0.014559 0.000000 0.000000 0.000000
# 4 0.000000 0.000000 0.000000 0.032913 0.000000 0.000000
# 5 0.000000 0.000000 0.000000 0.000000 0.025975 0.000000
# 6 0.000000 0.000000 0.000000 0.000000 0.000000 0.009807
#
#
# Mechanical properties :
#
#
# Convention : Reuss Voigt Hill
#
# Bulk Modulus (GPa) = 32.75376 32.99800 32.87588
# Shear Modulus (GPa) = 36.52901 46.06666 41.29784
#
# Velocity S-wave (km/s) = 4.20260 4.71946 4.46851
# Velocity P-wave (km/s) = 6.27580 6.75666 6.52066
#
# Compressibility (1/GPa) = 0.03053085
#
# Stress axis : x y z
#
# Youngs Moduli (GPa) = 74.27761 61.55429 68.68397
#
# Poissons Ratio (x) = 0.21068 0.09696
# Poissons Ratio (y) = 0.25423 0.13973
# Poissons Ratio (z) = 0.10486 0.12522
#
# Static dielectric constant tensor:
#      x y z
#    x 1.743450 0.000000 0.000000 
#    y 0.000000 1.769080 0.000000 
#    z 0.000000 0.000000 1.745900 
# 
# From -- ./inp_files/6243.got.cif
#   From: 2010.05.17/outbox.cif.g08.bks.cpg/sg38_4_cif.got.tgz:6243.got - 2010.06.03 18:07:57.
