data_PCOD9358665
_publ_section_title
;
Structure prediction by ZEFSAII (Michael W. Deem and Ramdas Pophale) SiO2 
 PCOD9358665
Probable space group: A M M 2
;
_chemical_formula_sum "Si O2"
_cell_formula_units_Z 64
_cell_length_a 17.731439
_cell_length_b 29.095187
_cell_length_c 5.793847
_cell_angle_alpha 90.000000
_cell_angle_beta 90.000000
_cell_angle_gamma 90.000000
_cell_volume 2989.042964
_symmetry_space_group_name_H-M "A M M 2"
_symmetry_group_IT_number 38
_symmetry_cell_setting 'orthorhombic'
loop_
_space_group_symop_operation_xyz
x,y,z
-x,-y,z
-x,y,z
x,-y,z
x,1/2+y,1/2+z
-x,1/2-y,1/2+z
-x,1/2+y,1/2+z
x,1/2-y,1/2+z
loop_
_atom_site_type_symbol
_atom_site_label
_atom_site_fract_x
_atom_site_fract_y
_atom_site_fract_z
Si Si1 0.589445 0.767448 0.730990
Si Si2 0.657449 0.361534 0.354147
Si Si3 0.908901 0.729968 0.499422
Si Si4 0.841195 0.553174 0.495936
Si Si5 0.805355 0.878470 0.620289
Si Si6 0.088086 0.638058 0.742131
Si Si7 0.694392 0.918496 0.238513
Si Si8 0.589316 0.449759 0.104009
O O1 0.500000 0.757139 0.723840
O O2 0.619571 0.754097 0.474583
O O3 0.605634 0.820904 0.769504
O O4 0.660425 0.372595 0.624317
O O5 0.624775 0.408727 0.249988
O O6 0.744421 0.353053 0.280892
O O7 0.882141 0.747124 0.245397
O O8 0.894971 0.675503 0.543492
O O9 0.000000 0.736898 0.494910
O O10 0.863810 0.500000 0.493739
O O11 0.888019 0.586851 0.664414
O O12 0.752299 0.556686 0.564944
O O13 0.846400 0.580455 0.255907
O O14 0.864305 0.850148 0.469983
O O15 0.749983 0.902764 0.439065
O O16 0.000000 0.640501 0.791700
O O17 0.628141 0.946962 0.353216
O O18 0.500000 0.444248 0.087260
O O19 0.606009 0.500000 0.205145
#
# Coordination Sequence:
#
# PCOD9358665 Si02
#       8
#     8   8   8   8   8   8   8   8
#     4  10  23  41  65  98 135 181 232 277 333 395
#     4  10  21  39  62  85 122 165 213 270 318 383
#     4   9  19  36  61  90 120 158 201 247 309 379
#     4  10  21  38  60  86 121 163 209 256 313 387
#     4   9  21  38  59  86 117 155 212 254 319 379
#     4  10  22  39  62  89 124 160 203 263 325 397
#     4   9  20  37  60  81 113 158 206 252 310 372
#     4  10  21  34  53  87 123 155 198 253 317 378
#
# _framework density 21.411534
#
# number of rings (size 3 to 8) (size 9 to 14) (size 15 to 20)
#    0.000    2.375    0.000    0.750    5.250    8.750 
#    0.000    2.500    0.000    0.000    0.000    0.000 
#    0.000    0.000    0.000    0.000    0.000    0.000 
#
# Total GULP energy -178324.997108 kJ/mol
# GULP energy per Si atom -5572.656160 kJ/mol
# Density = 2.136280 g / cm^3
# Si number density = 21.411534 Si / 1000 Ang^3
#
#
#
# Elastic Constant Matrix: (Units=GPa)
#
#
# Indices 1 2 3 4 5 6 
#
# 1 51.9726 -0.6809 13.5407 0.0000 0.0000 0.0000
# 2 -0.6809 66.2355 23.8692 0.0000 0.0000 0.0000
# 3 13.5407 23.8692 87.5588 0.0000 0.0000 0.0000
# 4 0.0000 0.0000 0.0000 28.3664 0.0000 0.0000
# 5 0.0000 0.0000 0.0000 0.0000 20.2140 0.0000
# 6 0.0000 0.0000 0.0000 0.0000 0.0000 12.0883
#
#
#
# Elastic Compliance Matrix: (Units=1/GPa)
#
#
# Indices 1 2 3 4 5 6 
#
# 1 0.020178 0.001477 -0.003523 0.000000 0.000000 0.000000
# 2 0.001477 0.016851 -0.004822 0.000000 0.000000 0.000000
# 3 -0.003523 -0.004822 0.013280 0.000000 0.000000 0.000000
# 4 0.000000 0.000000 0.000000 0.035253 0.000000 0.000000
# 5 0.000000 0.000000 0.000000 0.000000 0.049471 0.000000
# 6 0.000000 0.000000 0.000000 0.000000 0.000000 0.082724
#
#
# Mechanical properties :
#
#
# Convention : Reuss Voigt Hill
#
# Bulk Modulus (GPa) = 27.34276 31.02501 29.18388
# Shear Modulus (GPa) = 20.51837 23.40293 21.96065
#
# Velocity S-wave (km/s) = 3.09898 3.30965 3.20604
# Velocity P-wave (km/s) = 5.05991 5.39688 5.23111
#
# Compressibility (1/GPa) = 0.03657276
#
# Stress axis : x y z
#
# Youngs Moduli (GPa) = 49.55847 59.34527 75.29976
#
# Poissons Ratio (x) = -0.08766 0.26529
# Poissons Ratio (y) = -0.07320 0.36310
# Poissons Ratio (z) = 0.17460 0.28616
#
# Static dielectric constant tensor:
#      x y z
#    x 1.761760 0.000000 0.000000 
#    y 0.000000 1.794070 0.000000 
#    z 0.000000 0.000000 1.886670 
# 
# From -- ./inp_files/1748.got.cif
#   From: 2010.05.17/outbox.cif.g08.bks.cpg/sg38_1_cif.got.tgz:1748.got - 2010.06.03 18:07:57.
