data_PCOD9358353
_publ_section_title
;
Structure prediction by ZEFSAII (Michael W. Deem and Ramdas Pophale) SiO2 
 PCOD9358353
Probable space group: A M M 2
;
_chemical_formula_sum "Si O2"
_cell_formula_units_Z 56
_cell_length_a 15.279465
_cell_length_b 13.341836
_cell_length_c 12.437632
_cell_angle_alpha 90.000000
_cell_angle_beta 90.000000
_cell_angle_gamma 90.000000
_cell_volume 2535.487354
_symmetry_space_group_name_H-M "A M M 2"
_symmetry_group_IT_number 38
_symmetry_cell_setting 'orthorhombic'
loop_
_space_group_symop_operation_xyz
x,y,z
-x,-y,z
-x,y,z
x,-y,z
x,1/2+y,1/2+z
-x,1/2-y,1/2+z
-x,1/2+y,1/2+z
x,1/2-y,1/2+z
loop_
_atom_site_type_symbol
_atom_site_label
_atom_site_fract_x
_atom_site_fract_y
_atom_site_fract_z
Si Si1 0.678341 0.179144 0.963000
Si Si2 0.717303 0.115286 0.355715
Si Si3 0.867925 0.880074 0.024186
Si Si4 0.094009 0.120411 0.262027
Si Si5 0.290679 0.885109 0.724721
Si Si6 0.904446 0.379324 0.282017
Si Si7 0.599437 0.806006 0.170226
O O1 0.683712 0.296952 0.933169
O O2 0.680844 0.121423 0.850186
O O3 0.766167 0.145994 0.023491
O O4 0.603041 0.157447 0.047611
O O5 0.816990 0.144627 0.324152
O O6 0.656695 0.125809 0.250061
O O7 0.715770 0.000000 0.394160
O O8 0.903622 0.843239 0.138262
O O9 0.881420 0.000000 0.023584
O O10 0.900974 0.845011 0.907148
O O11 0.000000 0.147722 0.311407
O O12 0.096118 0.000000 0.256459
O O13 0.187433 0.853955 0.724218
O O14 0.351412 0.801817 0.670835
O O15 0.298883 0.000000 0.686856
O O16 0.901509 0.500000 0.285315
O O17 0.000000 0.352792 0.235769
O O18 0.500000 0.797650 0.208682
#
# Coordination Sequence:
#
# PCOD9358353 Si02
#       7
#     8   8   8   8   8   8   8
#     4  10  20  36  59  83 116 149 190 236 289 340
#     4  10  22  40  60  85 119 155 193 237 287 348
#     4   9  15  27  52  83 115 149 190 233 274 326
#     4   9  16  29  54  84 115 154 193 230 278 337
#     4   9  20  38  61  87 117 150 185 232 286 343
#     4   8  13  24  48  83 118 149 180 218 267 325
#     4  11  24  41  60  82 112 148 191 247 299 347
#
# _framework density 22.086483999999999
#
# number of rings (size 3 to 8) (size 9 to 14) (size 15 to 20)
#    0.000    2.571    1.429    1.714    0.000    5.714 
#    0.000    7.143    0.000    0.000    0.000    4.000 
#    0.000    0.000    0.000    0.000    0.000    0.000 
#
# Total GULP energy -156157.682027 kJ/mol
# GULP energy per Si atom -5577.060072 kJ/mol
# Density = 2.203621 g / cm^3
# Si number density = 22.086484 Si / 1000 Ang^3
#
#
#
# Elastic Constant Matrix: (Units=GPa)
#
#
# Indices 1 2 3 4 5 6 
#
# 1 114.6887 3.4437 21.4537 0.0000 0.0000 0.0000
# 2 3.4437 79.5827 -13.1249 0.0000 0.0000 0.0000
# 3 21.4537 -13.1249 39.9295 0.0000 0.0000 0.0000
# 4 0.0000 0.0000 0.0000 5.8038 0.0000 0.0000
# 5 0.0000 0.0000 0.0000 0.0000 -17.8488 0.0000
# 6 0.0000 0.0000 0.0000 0.0000 0.0000 30.0389
#
#
#
# Elastic Compliance Matrix: (Units=1/GPa)
#
#
# Indices 1 2 3 4 5 6 
#
# 1 0.009833 -0.001371 -0.005734 0.000000 0.000000 0.000000
# 2 -0.001371 0.013477 0.005167 0.000000 0.000000 0.000000
# 3 -0.005734 0.005167 0.029823 0.000000 0.000000 0.000000
# 4 0.000000 0.000000 0.000000 0.172300 0.000000 0.000000
# 5 0.000000 0.000000 0.000000 0.000000 -0.056026 0.000000
# 6 0.000000 0.000000 0.000000 0.000000 0.000000 0.033290
#
#
# Mechanical properties :
#
#
# Convention : Reuss Voigt Hill
#
# Bulk Modulus (GPa) = 20.30198 28.63844 24.47021
# Shear Modulus (GPa) = 22.42230 18.42735 20.42483
#
# Velocity S-wave (km/s) = 3.18968 2.89161 3.04430
# Velocity P-wave (km/s) = 4.77257 4.91357 4.84358
#
# Compressibility (1/GPa) = 0.04925629
#
# Stress axis : x y z
#
# Youngs Moduli (GPa) = 101.69839 74.20076 33.53102
#
# Poissons Ratio (x) = 0.10174 0.19226
# Poissons Ratio (y) = 0.13944 -0.17324
# Poissons Ratio (z) = 0.58312 -0.38336
#
# Static dielectric constant tensor:
#      x y z
#    x 1.891960 0.000000 0.000000 
#    y 0.000000 1.843000 0.000000 
#    z 0.000000 0.000000 1.833010 
# 
# From -- ./inp_files/10114.got.cif
#   From: 2010.05.17/outbox.cif.g08.bks.cpg/sg38_6_cif.got.tgz:10114.got - 2010.06.03 18:07:57.
