data_PCOD9358971
_publ_section_title
;
Structure prediction by ZEFSAII (Michael W. Deem and Ramdas Pophale) SiO2 
 PCOD9358971
Probable space group: A M M 2
;
_chemical_formula_sum "Si O2"
_cell_formula_units_Z 64
_cell_length_a 18.830732
_cell_length_b 15.168255
_cell_length_c 11.969397
_cell_angle_alpha 90.000000
_cell_angle_beta 90.000000
_cell_angle_gamma 90.000000
_cell_volume 3418.811023
_symmetry_space_group_name_H-M "A M M 2"
_symmetry_group_IT_number 38
_symmetry_cell_setting 'orthorhombic'
loop_
_space_group_symop_operation_xyz
x,y,z
-x,-y,z
-x,y,z
x,-y,z
x,1/2+y,1/2+z
-x,1/2-y,1/2+z
-x,1/2+y,1/2+z
x,1/2-y,1/2+z
loop_
_atom_site_type_symbol
_atom_site_label
_atom_site_fract_x
_atom_site_fract_y
_atom_site_fract_z
Si Si1 0.307797 0.836104 0.627050
Si Si2 0.813275 0.228146 0.019127
Si Si3 0.160429 0.399653 0.885432
Si Si4 0.724699 0.102077 0.864171
Si Si5 0.582138 0.292501 0.714810
Si Si6 0.916280 0.898240 0.154214
Si Si7 0.676701 0.098817 0.377872
Si Si8 0.421609 0.394489 0.484207
O O1 0.252518 0.757954 0.597237
O O2 0.276349 0.890020 0.730475
O O3 0.381342 0.795549 0.669469
O O4 0.319649 0.886626 0.511109
O O5 0.869912 0.169811 0.084058
O O6 0.845445 0.319580 0.971953
O O7 0.780127 0.169137 0.919726
O O8 0.154242 0.500000 0.931581
O O9 0.106454 0.389967 0.783603
O O10 0.241412 0.392509 0.839374
O O11 0.646748 0.129453 0.910820
O O12 0.737639 0.000000 0.896750
O O13 0.500000 0.282497 0.743240
O O14 0.627335 0.331594 0.816539
O O15 0.587603 0.358906 0.609392
O O16 0.000000 0.883513 0.140851
O O17 0.900332 0.000000 0.121798
O O18 0.651784 0.000000 0.352728
O O19 0.500000 0.363746 0.444483
O O20 0.422992 0.500000 0.485961
#
# Coordination Sequence:
#
# PCOD9358971 Si02
#       8
#     8   8   8   8   8   8   8   8
#     4  11  22  38  54  83 112 145 184 240 288 344
#     4  11  20  37  60  87 115 149 194 233 281 338
#     4   9  20  37  59  85 115 151 190 236 286 338
#     4  11  22  36  57  83 113 151 189 234 289 347
#     4  11  22  35  54  78 107 143 188 239 290 344
#     4  10  21  37  58  87 121 153 188 232 280 331
#     4  10  21  38  59  80 107 144 188 237 288 340
#     4   9  19  35  53  76 106 143 189 237 285 341
#
# _framework density 18.719958999999999
#
# number of rings (size 3 to 8) (size 9 to 14) (size 15 to 20)
#    0.000    1.750    1.250    4.125    0.000    2.750 
#    0.000    0.000    0.000    2.250    0.000    0.000 
#    0.000    0.000    0.000    0.000    0.000    0.000 
#
# Total GULP energy -178657.527832 kJ/mol
# GULP energy per Si atom -5583.047745 kJ/mol
# Density = 1.867735 g / cm^3
# Si number density = 18.719959 Si / 1000 Ang^3
#
#
#
# Elastic Constant Matrix: (Units=GPa)
#
#
# Indices 1 2 3 4 5 6 
#
# 1 48.3825 25.8486 10.1599 0.0000 0.0000 0.0000
# 2 25.8486 80.3365 18.6722 0.0000 0.0000 0.0000
# 3 10.1599 18.6722 59.4022 0.0000 0.0000 0.0000
# 4 0.0000 0.0000 0.0000 35.7567 0.0000 0.0000
# 5 0.0000 0.0000 0.0000 0.0000 9.4671 0.0000
# 6 0.0000 0.0000 0.0000 0.0000 0.0000 11.6107
#
#
#
# Elastic Compliance Matrix: (Units=1/GPa)
#
#
# Indices 1 2 3 4 5 6 
#
# 1 0.025156 -0.007653 -0.001897 0.000000 0.000000 0.000000
# 2 -0.007653 0.015757 -0.003644 0.000000 0.000000 0.000000
# 3 -0.001897 -0.003644 0.018304 0.000000 0.000000 0.000000
# 4 0.000000 0.000000 0.000000 0.027967 0.000000 0.000000
# 5 0.000000 0.000000 0.000000 0.000000 0.105629 0.000000
# 6 0.000000 0.000000 0.000000 0.000000 0.000000 0.086127
#
#
# Mechanical properties :
#
#
# Convention : Reuss Voigt Hill
#
# Bulk Modulus (GPa) = 30.46091 33.05363 31.75727
# Shear Modulus (GPa) = 15.80922 20.26294 18.03608
#
# Velocity S-wave (km/s) = 2.90920 3.29359 3.10735
# Velocity P-wave (km/s) = 5.25279 5.67088 5.46583
#
# Compressibility (1/GPa) = 0.03282896
#
# Stress axis : x y z
#
# Youngs Moduli (GPa) = 39.75258 63.46389 54.63207
#
# Poissons Ratio (x) = 0.48569 0.10363
# Poissons Ratio (y) = 0.30423 0.19908
# Poissons Ratio (z) = 0.07541 0.23126
#
# Static dielectric constant tensor:
#      x y z
#    x 1.630450 0.000000 0.000000 
#    y 0.000000 1.669660 0.000000 
#    z 0.000000 0.000000 1.641680 
# 
# From -- ./inp_files/10604.got.cif
#   From: 2010.05.17/outbox.cif.g08.bks.cpg/sg38_6_cif.got.tgz:10604.got - 2010.06.03 18:07:57.
