data_PCOD9358262
_publ_section_title
;
Structure prediction by ZEFSAII (Michael W. Deem and Ramdas Pophale) SiO2 
 PCOD9358262
Probable space group: A M M 2
;
_chemical_formula_sum "Si O2"
_cell_formula_units_Z 64
_cell_length_a 24.294223
_cell_length_b 8.714038
_cell_length_c 15.776006
_cell_angle_alpha 90.000000
_cell_angle_beta 90.000000
_cell_angle_gamma 90.000000
_cell_volume 3339.792813
_symmetry_space_group_name_H-M "A M M 2"
_symmetry_group_IT_number 38
_symmetry_cell_setting 'orthorhombic'
loop_
_space_group_symop_operation_xyz
x,y,z
-x,-y,z
-x,y,z
x,-y,z
x,1/2+y,1/2+z
-x,1/2-y,1/2+z
-x,1/2+y,1/2+z
x,1/2-y,1/2+z
loop_
_atom_site_type_symbol
_atom_site_label
_atom_site_fract_x
_atom_site_fract_y
_atom_site_fract_z
Si Si1 0.874347 0.181157 0.822100
Si Si2 0.244065 0.818368 0.063729
Si Si3 0.138781 0.684925 0.135981
Si Si4 0.364213 0.684165 0.874606
Si Si5 0.237962 0.318203 0.878742
Si Si6 0.937351 0.184660 0.480132
Si Si7 0.628881 0.317401 0.562823
Si Si8 0.435738 0.816203 0.721147
O O1 0.889302 0.219536 0.725585
O O2 0.810610 0.227422 0.833816
O O3 0.910030 0.265823 0.892344
O O4 0.880306 0.000000 0.835018
O O5 0.197971 0.765228 0.129077
O O6 0.307267 0.790038 0.089001
O O7 0.238673 0.000000 0.046009
O O8 0.233433 0.722722 0.978200
O O9 0.146433 0.500000 0.131351
O O10 0.101342 0.736634 0.057444
O O11 0.367501 0.500000 0.878904
O O12 0.300389 0.724636 0.854289
O O13 0.403114 0.746354 0.800846
O O14 0.377784 0.751267 0.967762
O O15 0.230490 0.500000 0.866014
O O16 0.000000 0.240645 0.487467
O O17 0.938303 0.000000 0.483867
O O18 0.620015 0.500000 0.560331
O O19 0.590193 0.242991 0.633257
O O20 0.500000 0.773827 0.725666
O O21 0.431222 0.000000 0.724230
#
# Coordination Sequence:
#
# PCOD9358262 Si02
#       8
#     8   8   8   8   8   8   8   8
#     4  11  23  37  58  91 122 156 201 247 298 355
#     4  10  20  35  59  90 123 155 196 246 298 356
#     4  10  22  38  58  87 121 160 198 239 299 360
#     4  10  22  40  63  91 122 162 205 252 309 365
#     4  10  20  36  59  87 123 160 197 242 301 362
#     4  10  22  42  64  84 115 162 208 251 300 356
#     4  10  22  40  62  91 124 161 203 252 308 364
#     4  11  25  43  63  89 122 163 210 256 304 364
#
# _framework density 19.162865
#
# number of rings (size 3 to 8) (size 9 to 14) (size 15 to 20)
#    0.000    1.750    1.250    2.250    1.750    6.250 
#    0.000    1.250    0.000    0.000    0.000    0.000 
#    0.000    0.000    0.000    0.000    0.000    0.000 
#
# Total GULP energy -178781.874975 kJ/mol
# GULP energy per Si atom -5586.933593 kJ/mol
# Density = 1.911925 g / cm^3
# Si number density = 19.162865 Si / 1000 Ang^3
#
#
#
# Elastic Constant Matrix: (Units=GPa)
#
#
# Indices 1 2 3 4 5 6 
#
# 1 78.1020 17.0231 28.1503 0.0000 0.0000 0.0000
# 2 17.0231 19.4470 6.4040 0.0000 0.0000 0.0000
# 3 28.1503 6.4040 54.1511 0.0000 0.0000 0.0000
# 4 0.0000 0.0000 0.0000 31.0005 0.0000 0.0000
# 5 0.0000 0.0000 0.0000 0.0000 -2.6346 0.0000
# 6 0.0000 0.0000 0.0000 0.0000 0.0000 21.6634
#
#
#
# Elastic Compliance Matrix: (Units=1/GPa)
#
#
# Indices 1 2 3 4 5 6 
#
# 1 0.018714 -0.013712 -0.008107 0.000000 0.000000 0.000000
# 2 -0.013712 0.063552 -0.000388 0.000000 0.000000 0.000000
# 3 -0.008107 -0.000388 0.022727 0.000000 0.000000 0.000000
# 4 0.000000 0.000000 0.000000 0.032258 0.000000 0.000000
# 5 0.000000 0.000000 0.000000 0.000000 -0.379557 0.000000
# 6 0.000000 0.000000 0.000000 0.000000 0.000000 0.046161
#
#
# Mechanical properties :
#
#
# Convention : Reuss Voigt Hill
#
# Bulk Modulus (GPa) = 16.50696 28.31718 22.41207
# Shear Modulus (GPa) = -38.01195 16.68069 -10.66563
#
# Velocity S-wave (km/s) = -4.45862 2.95357 -2.36175
# Velocity P-wave (km/s) = 4.22765 5.14205 2.06974
#
# Compressibility (1/GPa) = 0.06058051
#
# Stress axis : x y z
#
# Youngs Moduli (GPa) = 53.43451 15.73503 44.00028
#
# Poissons Ratio (x) = 0.21576 0.35671
# Poissons Ratio (y) = 0.73270 0.01705
# Poissons Ratio (z) = 0.43320 0.00610
#
# Static dielectric constant tensor:
#      x y z
#    x 1.659440 0.000000 0.000000 
#    y 0.000000 1.644340 0.000000 
#    z 0.000000 0.000000 1.656970 
# 
# From -- ./inp_files/15798.got.cif
#   From: 2010.05.17/outbox.cif.g08.bks.cpg/sg38_8_cif.got.tgz:15798.got - 2010.06.03 18:07:57.
