data_PCOD9358308
_publ_section_title
;
Structure prediction by ZEFSAII (Michael W. Deem and Ramdas Pophale) SiO2 
 PCOD9358308
Probable space group: A M M 2
;
_chemical_formula_sum "Si O2"
_cell_formula_units_Z 64
_cell_length_a 25.374666
_cell_length_b 8.806287
_cell_length_c 15.080074
_cell_angle_alpha 90.000000
_cell_angle_beta 90.000000
_cell_angle_gamma 90.000000
_cell_volume 3369.741933
_symmetry_space_group_name_H-M "A M M 2"
_symmetry_group_IT_number 38
_symmetry_cell_setting 'orthorhombic'
loop_
_space_group_symop_operation_xyz
x,y,z
-x,-y,z
-x,y,z
x,-y,z
x,1/2+y,1/2+z
-x,1/2-y,1/2+z
-x,1/2+y,1/2+z
x,1/2-y,1/2+z
loop_
_atom_site_type_symbol
_atom_site_label
_atom_site_fract_x
_atom_site_fract_y
_atom_site_fract_z
Si Si1 0.058773 0.684383 0.586130
Si Si2 0.254146 0.817755 0.433627
Si Si3 0.060455 0.817142 0.292007
Si Si4 0.667871 0.181348 0.790976
Si Si5 0.557212 0.322615 0.578195
Si Si6 0.333458 0.182053 0.585088
Si Si7 0.442006 0.677708 0.793898
Si Si8 0.862156 0.682098 0.435095
O O1 0.057909 0.500000 0.582596
O O2 0.067167 0.724552 0.688658
O O3 0.104698 0.735609 0.521123
O O4 0.000000 0.736691 0.559007
O O5 0.288275 0.759484 0.350878
O O6 0.286327 0.767797 0.521457
O O7 0.195709 0.751799 0.432511
O O8 0.252031 0.000000 0.432391
O O9 0.102830 0.734824 0.352211
O O10 0.000000 0.778821 0.317246
O O11 0.066051 0.000000 0.299511
O O12 0.673292 0.229917 0.687639
O O13 0.609292 0.230087 0.821993
O O14 0.672917 0.000000 0.795807
O O15 0.500000 0.261737 0.548576
O O16 0.560260 0.500000 0.554341
O O17 0.610139 0.239424 0.549858
O O18 0.557062 0.314755 0.686064
O O19 0.334867 0.000000 0.584930
O O20 0.500000 0.731148 0.824178
O O21 0.436153 0.500000 0.817643
O O22 0.858311 0.500000 0.436702
#
# Coordination Sequence:
#
# PCOD9358308 Si02
#       8
#     8   8   8   8   8   8   8   8
#     4   8  16  33  57  84 114 146 178 213 258 315
#     4  11  24  41  56  74 105 145 187 224 266 324
#     4   9  18  35  59  86 116 149 182 215 258 316
#     4  10  20  36  57  81 107 135 174 226 278 320
#     4   8  14  26  48  78 107 134 168 212 263 322
#     4   9  20  37  56  77 104 138 175 222 274 320
#     4   8  14  27  49  77 107 139 174 211 260 325
#     4  11  22  36  56  82 111 143 182 228 271 308
#
# _framework density 18.992553000000001
#
# number of rings (size 3 to 8) (size 9 to 14) (size 15 to 20)
#    0.000    2.750    0.000    3.000    0.000    3.750 
#    0.000    6.875    0.000    2.250    0.000    0.000 
#    0.000    0.000    0.000    0.000    0.000    0.000 
#
# Total GULP energy -178530.585942 kJ/mol
# GULP energy per Si atom -5579.080811 kJ/mol
# Density = 1.894932 g / cm^3
# Si number density = 18.992553 Si / 1000 Ang^3
#
#
#
# Elastic Constant Matrix: (Units=GPa)
#
#
# Indices 1 2 3 4 5 6 
#
# 1 209.0611 54.3668 88.1591 0.0000 0.0000 0.0000
# 2 54.3668 33.0199 30.3659 0.0000 0.0000 0.0000
# 3 88.1591 30.3659 88.8903 0.0000 0.0000 0.0000
# 4 0.0000 0.0000 0.0000 18.8829 0.0000 0.0000
# 5 0.0000 0.0000 0.0000 0.0000 -634.5335 0.0000
# 6 0.0000 0.0000 0.0000 0.0000 0.0000 -17.0295
#
#
#
# Elastic Compliance Matrix: (Units=1/GPa)
#
#
# Indices 1 2 3 4 5 6 
#
# 1 0.010454 -0.011194 -0.006544 0.000000 0.000000 0.000000
# 2 -0.011194 0.056144 -0.008077 0.000000 0.000000 0.000000
# 3 -0.006544 -0.008077 0.020499 0.000000 0.000000 0.000000
# 4 0.000000 0.000000 0.000000 0.052958 0.000000 0.000000
# 5 0.000000 0.000000 0.000000 0.000000 -0.001576 0.000000
# 6 0.000000 0.000000 0.000000 0.000000 0.000000 -0.058722
#
#
# Mechanical properties :
#
#
# Convention : Reuss Voigt Hill
#
# Bulk Modulus (GPa) = 28.19581 75.19498 51.69540
# Shear Modulus (GPa) = 34.91383 -115.99739 -40.54178
#
# Velocity S-wave (km/s) = 4.29218 -7.82354 -4.62520
# Velocity P-wave (km/s) = 6.28026 6.47554 1.11600
#
# Compressibility (1/GPa) = 0.03546626
#
# Stress axis : x y z
#
# Youngs Moduli (GPa) = 95.65895 17.81139 48.78284
#
# Poissons Ratio (x) = 0.19938 0.31922
# Poissons Ratio (y) = 1.07083 0.39403
# Poissons Ratio (z) = 0.62597 0.14387
#
# Static dielectric constant tensor:
#      x y z
#    x 1.643440 0.000000 0.000000 
#    y 0.000000 1.639240 0.000000 
#    z 0.000000 0.000000 1.686780 
# 
# From -- ./inp_files/15864.got.cif
#   From: 2010.05.17/outbox.cif.g08.bks.cpg/sg38_8_cif.got.tgz:15864.got - 2010.06.03 18:07:57.
