data_PCOD9358046
_publ_section_title
;
Structure prediction by ZEFSAII (Michael W. Deem and Ramdas Pophale) SiO2 
 PCOD9358046
Probable space group: A M M 2
;
_chemical_formula_sum "Si O2"
_cell_formula_units_Z 64
_cell_length_a 19.532269
_cell_length_b 21.048648
_cell_length_c 7.980584
_cell_angle_alpha 90.000000
_cell_angle_beta 90.000000
_cell_angle_gamma 90.000000
_cell_volume 3281.040380
_symmetry_space_group_name_H-M "A M M 2"
_symmetry_group_IT_number 38
_symmetry_cell_setting 'orthorhombic'
loop_
_space_group_symop_operation_xyz
x,y,z
-x,-y,z
-x,y,z
x,-y,z
x,1/2+y,1/2+z
-x,1/2-y,1/2+z
-x,1/2+y,1/2+z
x,1/2-y,1/2+z
loop_
_atom_site_type_symbol
_atom_site_label
_atom_site_fract_x
_atom_site_fract_y
_atom_site_fract_z
Si Si1 0.575496 0.073785 0.859990
Si Si2 0.670510 0.735054 0.893951
Si Si3 0.077967 0.284792 0.885941
Si Si4 0.077783 0.846556 0.017823
Si Si5 0.713399 0.374078 0.288619
Si Si6 0.791512 0.357034 0.971141
Si Si7 0.421456 0.683235 0.631090
Si Si8 0.207101 0.424402 0.607739
O O1 0.500000 0.084702 0.782737
O O2 0.640668 0.092942 0.750558
O O3 0.580305 0.000000 0.905583
O O4 0.579095 0.119495 0.021451
O O5 0.697120 0.799110 0.803432
O O6 0.738547 0.701326 0.956585
O O7 0.630058 0.683215 0.785136
O O8 0.612911 0.761606 0.019248
O O9 0.097613 0.210522 0.892602
O O10 0.078075 0.310474 0.697099
O O11 0.132709 0.327869 0.981422
O O12 0.000000 0.289421 0.951348
O O13 0.133541 0.901135 0.036434
O O14 0.000000 0.867954 0.983323
O O15 0.739571 0.396498 0.471451
O O16 0.767288 0.389987 0.142694
O O17 0.785901 0.396131 0.796458
O O18 0.500000 0.697797 0.675863
O O19 0.212621 0.500000 0.612943
#
# Coordination Sequence:
#
# PCOD9358046 Si02
#       8
#     8   8   8   8   8   8   8   8
#     4   9  19  37  59  82 113 157 204 243 290 356
#     4  11  20  36  54  88 118 150 190 241 312 364
#     4   9  19  34  57  89 120 152 191 241 304 360
#     4   9  19  36  59  88 120 154 193 244 299 353
#     4  11  23  38  61  89 119 158 196 250 305 358
#     4  11  23  38  61  88 122 157 199 251 301 362
#     4  10  20  34  56  86 119 152 190 242 302 362
#     4  11  25  41  59  86 119 160 206 246 292 355
#
# _framework density 19.506008000000001
#
# number of rings (size 3 to 8) (size 9 to 14) (size 15 to 20)
#    0.000    1.875    1.250    3.000    5.250    1.750 
#    0.000    0.000    0.000    0.750    0.000    8.750 
#    0.000    0.000    0.000    0.000    0.000    0.000 
#
# Total GULP energy -178427.148085 kJ/mol
# GULP energy per Si atom -5575.848378 kJ/mol
# Density = 1.946161 g / cm^3
# Si number density = 19.506008 Si / 1000 Ang^3
#
#
#
# Elastic Constant Matrix: (Units=GPa)
#
#
# Indices 1 2 3 4 5 6 
#
# 1 88.8794 28.1293 32.4414 0.0000 0.0000 0.0000
# 2 28.1293 77.8472 16.8345 0.0000 0.0000 0.0000
# 3 32.4414 16.8345 56.2585 0.0000 0.0000 0.0000
# 4 0.0000 0.0000 0.0000 7.2151 0.0000 0.0000
# 5 0.0000 0.0000 0.0000 0.0000 18.4148 0.0000
# 6 0.0000 0.0000 0.0000 0.0000 0.0000 22.4138
#
#
#
# Elastic Compliance Matrix: (Units=1/GPa)
#
#
# Indices 1 2 3 4 5 6 
#
# 1 0.015265 -0.003862 -0.007647 0.000000 0.000000 0.000000
# 2 -0.003862 0.014712 -0.002175 0.000000 0.000000 0.000000
# 3 -0.007647 -0.002175 0.022835 0.000000 0.000000 0.000000
# 4 0.000000 0.000000 0.000000 0.138599 0.000000 0.000000
# 5 0.000000 0.000000 0.000000 0.000000 0.054304 0.000000
# 6 0.000000 0.000000 0.000000 0.000000 0.000000 0.044615
#
#
# Mechanical properties :
#
#
# Convention : Reuss Voigt Hill
#
# Bulk Modulus (GPa) = 39.30230 41.97727 40.63979
# Shear Modulus (GPa) = 15.32902 19.31406 17.32154
#
# Velocity S-wave (km/s) = 2.80636 3.15009 2.98318
# Velocity P-wave (km/s) = 5.54017 5.89896 5.72237
#
# Compressibility (1/GPa) = 0.02544380
#
# Stress axis : x y z
#
# Youngs Moduli (GPa) = 65.51117 67.97366 43.79174
#
# Poissons Ratio (x) = 0.26252 0.33486
# Poissons Ratio (y) = 0.25301 0.09525
# Poissons Ratio (z) = 0.50094 0.14785
#
# Static dielectric constant tensor:
#      x y z
#    x 1.709720 0.000000 0.000000 
#    y 0.000000 1.652660 0.000000 
#    z 0.000000 0.000000 1.753890 
# 
# From -- ./inp_files/6503.got.cif
#   From: 2010.05.17/outbox.cif.g08.bks.cpg/sg38_4_cif.got.tgz:6503.got - 2010.06.03 18:07:57.
