data_PCOD9358692
_publ_section_title
;
Structure prediction by ZEFSAII (Michael W. Deem and Ramdas Pophale) SiO2 
 PCOD9358692
Probable space group: A M M 2
;
_chemical_formula_sum "Si O2"
_cell_formula_units_Z 64
_cell_length_a 8.815242
_cell_length_b 20.433190
_cell_length_c 20.783483
_cell_angle_alpha 90.000000
_cell_angle_beta 90.000000
_cell_angle_gamma 90.000000
_cell_volume 3743.594005
_symmetry_space_group_name_H-M "A M M 2"
_symmetry_group_IT_number 38
_symmetry_cell_setting 'orthorhombic'
loop_
_space_group_symop_operation_xyz
x,y,z
-x,-y,z
-x,y,z
x,-y,z
x,1/2+y,1/2+z
-x,1/2-y,1/2+z
-x,1/2+y,1/2+z
x,1/2-y,1/2+z
loop_
_atom_site_type_symbol
_atom_site_label
_atom_site_fract_x
_atom_site_fract_y
_atom_site_fract_z
Si Si1 0.182854 0.675018 0.132340
Si Si2 0.817070 0.824701 0.280856
Si Si3 0.183146 0.924162 0.023829
Si Si4 0.817170 0.326846 0.280331
Si Si5 0.317119 0.075300 0.382849
Si Si6 0.682834 0.075248 0.530296
Si Si7 0.184692 0.324952 0.634324
Si Si8 0.681460 0.924061 0.884857
O O1 0.225900 0.659015 0.206146
O O2 0.249984 0.625166 0.081297
O O3 0.230265 0.750226 0.119558
O O4 0.000000 0.673009 0.129152
O O5 0.775207 0.748906 0.293743
O O6 0.749935 0.874163 0.332339
O O7 0.768401 0.840631 0.207511
O O8 0.000000 0.828219 0.282789
O O9 0.235293 0.876316 0.080719
O O10 0.000000 0.920214 0.019531
O O11 0.222885 0.000000 0.037269
O O12 0.252025 0.906221 0.954767
O O13 0.744171 0.376474 0.330242
O O14 0.000000 0.331272 0.284603
O O15 0.500000 0.077823 0.380426
O O16 0.271439 0.090408 0.456595
O O17 0.271833 0.000000 0.369105
O O18 0.500000 0.077896 0.532740
O O19 0.727965 0.000000 0.543913
O O20 0.000000 0.325735 0.634480
O O21 0.500000 0.920548 0.886939
O O22 0.725225 0.000000 0.872340
#
# Coordination Sequence:
#
# PCOD9358692 Si02
#       8
#     8   8   8   8   8   8   8   8
#     4   9  18  33  52  73  98 126 158 200 243 285
#     4   9  18  33  53  76 100 127 163 205 243 284
#     4   9  17  31  52  74  97 129 164 196 237 290
#     4   9  19  35  52  72 100 131 161 197 246 298
#     4   9  19  35  51  70 101 137 167 197 240 292
#     4   9  19  35  51  68  96 131 162 196 240 289
#     4   8  16  32  51  73 101 128 157 197 244 290
#     4  10  21  35  50  71  99 129 164 206 245 284
#
# _framework density 17.095870999999999
#
# number of rings (size 3 to 8) (size 9 to 14) (size 15 to 20)
#    0.000    3.000    0.000    2.625    0.000    4.750 
#    0.000   11.875    0.000    1.500    0.000    0.000 
#    0.000    0.000    0.000    0.000    0.000    0.000 
#
# Total GULP energy -178374.394132 kJ/mol
# GULP energy per Si atom -5574.199817 kJ/mol
# Density = 1.705696 g / cm^3
# Si number density = 17.095871 Si / 1000 Ang^3
#
#
#
# Elastic Constant Matrix: (Units=GPa)
#
#
# Indices 1 2 3 4 5 6 
#
# 1 13.1070 36.1031 40.3257 0.0000 0.0000 0.0000
# 2 36.1031 133.8950 140.2156 0.0000 0.0000 0.0000
# 3 40.3257 140.2156 175.9876 0.0000 0.0000 0.0000
# 4 0.0000 0.0000 0.0000 43.7847 0.0000 0.0000
# 5 0.0000 0.0000 0.0000 0.0000 -29.0247 0.0000
# 6 0.0000 0.0000 0.0000 0.0000 0.0000 23.2037
#
#
#
# Elastic Compliance Matrix: (Units=1/GPa)
#
#
# Indices 1 2 3 4 5 6 
#
# 1 0.316987 -0.056797 -0.027382 0.000000 0.000000 0.000000
# 2 -0.056797 0.055262 -0.031015 0.000000 0.000000 0.000000
# 3 -0.027382 -0.031015 0.036667 0.000000 0.000000 0.000000
# 4 0.000000 0.000000 0.000000 0.022839 0.000000 0.000000
# 5 0.000000 0.000000 0.000000 0.000000 -0.034453 0.000000
# 6 0.000000 0.000000 0.000000 0.000000 0.000000 0.043096
#
#
# Mechanical properties :
#
#
# Convention : Reuss Voigt Hill
#
# Bulk Modulus (GPa) = 5.60136 84.03095 44.81615
# Shear Modulus (GPa) = 6.84655 14.68243 10.76449
#
# Velocity S-wave (km/s) = 2.00337 2.93376 2.51201
# Velocity P-wave (km/s) = 2.93852 7.79329 5.88941
#
# Compressibility (1/GPa) = 0.17852818
#
# Stress axis : x y z
#
# Youngs Moduli (GPa) = 3.15471 18.09562 27.27246
#
# Poissons Ratio (x) = 1.02778 0.74677
# Poissons Ratio (y) = 0.17918 0.84585
# Poissons Ratio (z) = 0.08638 0.56123
#
# Static dielectric constant tensor:
#      x y z
#    x 1.574580 0.000000 0.000000 
#    y 0.000000 1.566380 0.000000 
#    z 0.000000 0.000000 1.558820 
# 
# From -- ./inp_files/17210.got.cif
#   From: 2010.05.17/outbox.cif.g08.bks.cpg/sg38_9_cif.got.tgz:17210.got - 2010.06.03 18:07:57.
