data_PCOD9358389
_publ_section_title
;
Structure prediction by ZEFSAII (Michael W. Deem and Ramdas Pophale) SiO2 
 PCOD9358389
Probable space group: A M M 2
;
_chemical_formula_sum "Si O2"
_cell_formula_units_Z 58
_cell_length_a 25.506335
_cell_length_b 7.874863
_cell_length_c 14.288480
_cell_angle_alpha 90.000000
_cell_angle_beta 90.000000
_cell_angle_gamma 90.000000
_cell_volume 2869.968286
_symmetry_space_group_name_H-M "A M M 2"
_symmetry_group_IT_number 38
_symmetry_cell_setting 'orthorhombic'
loop_
_space_group_symop_operation_xyz
x,y,z
-x,-y,z
-x,y,z
x,-y,z
x,1/2+y,1/2+z
-x,1/2-y,1/2+z
-x,1/2+y,1/2+z
x,1/2-y,1/2+z
loop_
_atom_site_type_symbol
_atom_site_label
_atom_site_fract_x
_atom_site_fract_y
_atom_site_fract_z
Si Si1 0.638327 0.697201 0.744160
Si Si2 0.156318 0.200376 0.076908
Si Si3 0.000000 0.000000 0.481736
Si Si4 0.559397 0.801788 0.595332
Si Si5 0.728357 0.291809 0.608220
Si Si6 0.352676 0.303018 0.453417
Si Si7 0.079761 0.703360 0.426772
Si Si8 0.941048 0.701939 0.206792
O O1 0.633171 0.500000 0.718403
O O2 0.589286 0.785507 0.694199
O O3 0.692284 0.760290 0.695946
O O4 0.640065 0.714394 0.854714
O O5 0.212298 0.275083 0.105794
O O6 0.107085 0.239061 0.143933
O O7 0.163266 0.000000 0.082675
O O8 0.136944 0.234684 0.971100
O O9 0.955609 0.847051 0.474915
O O10 0.500000 0.736515 0.599036
O O11 0.596311 0.713839 0.518868
O O12 0.557873 0.000000 0.570289
O O13 0.729309 0.500000 0.608519
O O14 0.695855 0.238821 0.516143
O O15 0.343159 0.500000 0.433109
O O16 0.066975 0.500000 0.444008
O O17 0.072250 0.730605 0.316015
O O18 0.945319 0.500000 0.192143
O O19 0.000000 0.772769 0.187969
#
# Coordination Sequence:
#
# PCOD9358389 Si02
#       8
#     8   8   2   8   8   8   8   8
#     4  10  20  36  60  85 115 152 195 237 283 338
#     4  10  22  38  59  82 113 147 185 232 288 343
#     4  12  22  36  68  78 116 146 194 232 278 358
#     4  10  21  37  57  85 121 154 190 236 284 335
#     4   8  18  38  57  80 111 147 187 238 287 334
#     4  10  20  36  61  85 113 154 197 235 285 340
#     4  10  23  40  58  85 115 150 186 234 290 345
#     4  10  22  38  56  80 113 143 183 230 279 343
#
# _framework density 20.209282000000002
#
# number of rings (size 3 to 8) (size 9 to 14) (size 15 to 20)
#    0.000    2.207    0.690    2.276    2.897    3.034 
#    0.000    5.517    0.000    0.000    0.000    0.000 
#    0.000    0.000    0.000    0.000    0.000    0.000 
#
# Total GULP energy -161463.706904 kJ/mol
# GULP energy per Si atom -5567.714031 kJ/mol
# Density = 2.016329 g / cm^3
# Si number density = 20.209282 Si / 1000 Ang^3
#
#
#
# Elastic Constant Matrix: (Units=GPa)
#
#
# Indices 1 2 3 4 5 6 
#
# 1 166.8717 -0.1892 60.1692 0.0000 0.0000 0.0000
# 2 -0.1892 36.5602 -2.7652 0.0000 0.0000 0.0000
# 3 60.1692 -2.7652 97.0301 0.0000 0.0000 0.0000
# 4 0.0000 0.0000 0.0000 19.7524 0.0000 0.0000
# 5 0.0000 0.0000 0.0000 0.0000 7.0797 0.0000
# 6 0.0000 0.0000 0.0000 0.0000 0.0000 16.5566
#
#
#
# Elastic Compliance Matrix: (Units=1/GPa)
#
#
# Indices 1 2 3 4 5 6 
#
# 1 0.007722 -0.000323 -0.004798 0.000000 0.000000 0.000000
# 2 -0.000323 0.027425 0.000982 0.000000 0.000000 0.000000
# 3 -0.004798 0.000982 0.013309 0.000000 0.000000 0.000000
# 4 0.000000 0.000000 0.000000 0.050627 0.000000 0.000000
# 5 0.000000 0.000000 0.000000 0.000000 0.141250 0.000000
# 6 0.000000 0.000000 0.000000 0.000000 0.000000 0.060399
#
#
# Mechanical properties :
#
#
# Convention : Reuss Voigt Hill
#
# Bulk Modulus (GPa) = 24.88905 46.09906 35.49406
# Shear Modulus (GPa) = 15.50857 24.89421 20.20139
#
# Velocity S-wave (km/s) = 2.77320 3.51354 3.16509
# Velocity P-wave (km/s) = 4.75359 6.27059 5.56403
#
# Compressibility (1/GPa) = 0.04017831
#
# Stress axis : x y z
#
# Youngs Moduli (GPa) = 129.49651 36.46344 75.13590
#
# Poissons Ratio (x) = 0.01177 0.36049
# Poissons Ratio (y) = 0.04182 -0.07377
# Poissons Ratio (z) = 0.62130 -0.03580
#
# Static dielectric constant tensor:
#      x y z
#    x 1.738280 0.000000 0.000000 
#    y 0.000000 1.725770 0.000000 
#    z 0.000000 0.000000 1.728360 
# 
# From -- ./inp_files/15908.got.cif
#   From: 2010.05.17/outbox.cif.g08.bks.cpg/sg38_8_cif.got.tgz:15908.got - 2010.06.03 18:07:57.
