data_PCOD9358204
_publ_section_title
;
Structure prediction by ZEFSAII (Michael W. Deem and Ramdas Pophale) SiO2 
 PCOD9358204
Probable space group: A M M 2
;
_chemical_formula_sum "Si O2"
_cell_formula_units_Z 64
_cell_length_a 9.146802
_cell_length_b 29.377320
_cell_length_c 13.263637
_cell_angle_alpha 90.000000
_cell_angle_beta 90.000000
_cell_angle_gamma 90.000000
_cell_volume 3564.052392
_symmetry_space_group_name_H-M "A M M 2"
_symmetry_group_IT_number 38
_symmetry_cell_setting 'orthorhombic'
loop_
_space_group_symop_operation_xyz
x,y,z
-x,-y,z
-x,y,z
x,-y,z
x,1/2+y,1/2+z
-x,1/2-y,1/2+z
-x,1/2+y,1/2+z
x,1/2-y,1/2+z
loop_
_atom_site_type_symbol
_atom_site_label
_atom_site_fract_x
_atom_site_fract_y
_atom_site_fract_z
Si Si1 0.676222 0.358371 0.089400
Si Si2 0.671609 0.751274 0.594113
Si Si3 0.163661 0.799734 0.919376
Si Si4 0.172384 0.554681 0.475783
Si Si5 0.173784 0.118013 0.383628
Si Si6 0.822049 0.947129 0.201501
Si Si7 0.324625 0.883066 0.814967
Si Si8 0.161978 0.213780 0.274013
O O1 0.500000 0.359787 0.081427
O O2 0.719203 0.304520 0.092923
O O3 0.717358 0.381432 0.196341
O O4 0.746336 0.381567 0.991191
O O5 0.500000 0.750660 0.572750
O O6 0.758125 0.720309 0.516264
O O7 0.710600 0.727931 0.699242
O O8 0.259422 0.837720 0.865200
O O9 0.151296 0.756154 0.848105
O O10 0.000000 0.817299 0.940491
O O11 0.185478 0.500000 0.474228
O O12 0.222236 0.569545 0.589022
O O13 0.259814 0.576899 0.384090
O O14 0.000000 0.565691 0.465672
O O15 0.225247 0.082591 0.297465
O O16 0.191989 0.167931 0.334822
O O17 0.000000 0.110735 0.399738
O O18 0.000000 0.945966 0.200169
O O19 0.778503 0.000000 0.212425
O O20 0.500000 0.883074 0.819791
O O21 0.000000 0.208530 0.224335
#
# Coordination Sequence:
#
# PCOD9358204 Si02
#       8
#     8   8   8   8   8   8   8   8
#     4  10  22  38  54  75 112 154 189 229 279 334
#     4  11  22  36  53  74 108 151 190 232 280 336
#     4  11  22  36  54  78 111 148 190 235 280 330
#     4   9  19  38  63  89 115 145 183 230 289 347
#     4  10  20  35  57  84 111 143 189 232 275 336
#     4   8  16  34  60  87 114 141 172 223 286 337
#     4  11  23  39  57  83 115 151 195 234 283 341
#     4  10  21  34  51  79 110 144 186 233 279 328
#
# _framework density 17.957086
#
# number of rings (size 3 to 8) (size 9 to 14) (size 15 to 20)
#    0.000    2.000    2.500    1.875    1.750    2.750 
#    0.000    1.250    0.000    3.375    0.000    0.000 
#    0.000    0.000    0.000    0.000    0.000    0.000 
#
# Total GULP energy -178417.605256 kJ/mol
# GULP energy per Si atom -5575.550164 kJ/mol
# Density = 1.791622 g / cm^3
# Si number density = 17.957086 Si / 1000 Ang^3
#
#
#
# Elastic Constant Matrix: (Units=GPa)
#
#
# Indices 1 2 3 4 5 6 
#
# 1 47.8295 25.4808 55.9901 0.0000 0.0000 0.0000
# 2 25.4808 64.8132 51.5803 0.0000 0.0000 0.0000
# 3 55.9901 51.5803 151.5628 0.0000 0.0000 0.0000
# 4 0.0000 0.0000 0.0000 30.5322 0.0000 0.0000
# 5 0.0000 0.0000 0.0000 0.0000 28.2854 0.0000
# 6 0.0000 0.0000 0.0000 0.0000 0.0000 22.2826
#
#
#
# Elastic Compliance Matrix: (Units=1/GPa)
#
#
# Indices 1 2 3 4 5 6 
#
# 1 0.038063 -0.005176 -0.012300 0.000000 0.000000 0.000000
# 2 -0.005176 0.021864 -0.005529 0.000000 0.000000 0.000000
# 3 -0.012300 -0.005529 0.013023 0.000000 0.000000 0.000000
# 4 0.000000 0.000000 0.000000 0.032752 0.000000 0.000000
# 5 0.000000 0.000000 0.000000 0.000000 0.035354 0.000000
# 6 0.000000 0.000000 0.000000 0.000000 0.000000 0.044878
#
#
# Mechanical properties :
#
#
# Convention : Reuss Voigt Hill
#
# Bulk Modulus (GPa) = 37.11717 58.92312 48.02014
# Shear Modulus (GPa) = 20.75346 24.96367 22.85856
#
# Velocity S-wave (km/s) = 3.40328 3.73256 3.57172
# Velocity P-wave (km/s) = 6.01315 7.17360 6.61886
#
# Compressibility (1/GPa) = 0.02694171
#
# Stress axis : x y z
#
# Youngs Moduli (GPa) = 26.27197 45.73806 76.78558
#
# Poissons Ratio (x) = 0.23673 0.94446
# Poissons Ratio (y) = 0.13598 0.42452
# Poissons Ratio (z) = 0.32314 0.25287
#
# Static dielectric constant tensor:
#      x y z
#    x 1.619800 0.000000 0.000000 
#    y 0.000000 1.600730 0.000000 
#    z 0.000000 0.000000 1.612900 
# 
# From -- ./inp_files/8527.got.cif
#   From: 2010.05.17/outbox.cif.g08.bks.cpg/sg38_5_cif.got.tgz:8527.got - 2010.06.03 18:07:57.
