data_PCOD9358540
_publ_section_title
;
Structure prediction by ZEFSAII (Michael W. Deem and Ramdas Pophale) SiO2 
 PCOD9358540
Probable space group: A M M 2
;
_chemical_formula_sum "Si O2"
_cell_formula_units_Z 56
_cell_length_a 15.919384
_cell_length_b 15.666926
_cell_length_c 11.595980
_cell_angle_alpha 90.000000
_cell_angle_beta 90.000000
_cell_angle_gamma 90.000000
_cell_volume 2892.127989
_symmetry_space_group_name_H-M "A M M 2"
_symmetry_group_IT_number 38
_symmetry_cell_setting 'orthorhombic'
loop_
_space_group_symop_operation_xyz
x,y,z
-x,-y,z
-x,y,z
x,-y,z
x,1/2+y,1/2+z
-x,1/2-y,1/2+z
-x,1/2+y,1/2+z
x,1/2-y,1/2+z
loop_
_atom_site_type_symbol
_atom_site_label
_atom_site_fract_x
_atom_site_fract_y
_atom_site_fract_z
Si Si1 0.677781 0.899456 0.062620
Si Si2 0.095824 0.897177 0.705246
Si Si3 0.909147 0.100410 0.446146
Si Si4 0.756192 0.135902 0.286476
Si Si5 0.267640 0.666771 0.314116
Si Si6 0.595640 0.779240 0.630040
Si Si7 0.407322 0.093238 0.419254
O O1 0.755774 0.883752 0.150688
O O2 0.618440 0.820228 0.105198
O O3 0.651567 0.000000 0.071874
O O4 0.700810 0.878244 0.930441
O O5 0.111087 0.864666 0.573665
O O6 0.177777 0.870349 0.775873
O O7 0.000000 0.869665 0.738378
O O8 0.094525 0.000000 0.707946
O O9 0.838136 0.106544 0.351810
O O10 0.000000 0.134990 0.408891
O O11 0.917758 0.000000 0.466824
O O12 0.748896 0.233127 0.326686
O O13 0.669742 0.095363 0.332513
O O14 0.340145 0.672216 0.215754
O O15 0.500000 0.784417 0.673657
O O16 0.600605 0.830973 0.510361
O O17 0.500000 0.100632 0.363909
O O18 0.404768 0.000000 0.478537
#
# Coordination Sequence:
#
# PCOD9358540 Si02
#       7
#     8   8   8   8   8   8   8
#     4  11  24  41  60  89 126 169 212 253 313 381
#     4   9  19  37  63  92 121 158 207 262 317 374
#     4   9  18  34  59  88 115 149 196 249 305 364
#     4  11  22  37  59  86 122 161 203 250 308 371
#     4  11  23  38  61  87 122 167 208 257 311 373
#     4  10  23  42  62  91 125 160 209 263 314 376
#     4  10  20  37  63  90 116 152 201 256 311 367
#
# _framework density 19.362905000000001
#
# number of rings (size 3 to 8) (size 9 to 14) (size 15 to 20)
#    0.000    1.857    1.429    3.429    2.000    6.000 
#    0.000    0.714    0.000    2.571    0.000    0.000 
#    0.000    0.000    0.000    0.000    0.000    0.000 
#
# Total GULP energy -155871.419975 kJ/mol
# GULP energy per Si atom -5566.836428 kJ/mol
# Density = 1.931883 g / cm^3
# Si number density = 19.362905 Si / 1000 Ang^3
#
#
#
# Elastic Constant Matrix: (Units=GPa)
#
#
# Indices 1 2 3 4 5 6 
#
# 1 138.9322 17.3853 61.8753 0.0000 0.0000 0.0000
# 2 17.3853 95.7946 17.9442 0.0000 0.0000 0.0000
# 3 61.8753 17.9442 76.7908 0.0000 0.0000 0.0000
# 4 0.0000 0.0000 0.0000 28.4375 0.0000 0.0000
# 5 0.0000 0.0000 0.0000 0.0000 -42.2415 0.0000
# 6 0.0000 0.0000 0.0000 0.0000 0.0000 24.6614
#
#
#
# Elastic Compliance Matrix: (Units=1/GPa)
#
#
# Indices 1 2 3 4 5 6 
#
# 1 0.011238 -0.000359 -0.008971 0.000000 0.000000 0.000000
# 2 -0.000359 0.010928 -0.002264 0.000000 0.000000 0.000000
# 3 -0.008971 -0.002264 0.020780 0.000000 0.000000 0.000000
# 4 0.000000 0.000000 0.000000 0.035165 0.000000 0.000000
# 5 0.000000 0.000000 0.000000 0.000000 -0.023673 0.000000
# 6 0.000000 0.000000 0.000000 0.000000 0.000000 0.040549
#
#
# Mechanical properties :
#
#
# Convention : Reuss Voigt Hill
#
# Bulk Modulus (GPa) = 50.61450 56.21412 53.41431
# Shear Modulus (GPa) = 40.07590 16.45899 28.26744
#
# Velocity S-wave (km/s) = 4.55436 2.91868 3.82498
# Velocity P-wave (km/s) = 7.33846 6.36028 6.86681
#
# Compressibility (1/GPa) = 0.01975718
#
# Stress axis : x y z
#
# Youngs Moduli (GPa) = 88.98186 91.50528 48.12219
#
# Poissons Ratio (x) = 0.03285 0.43173
# Poissons Ratio (y) = 0.03195 0.10897
# Poissons Ratio (z) = 0.79830 0.20720
#
# Static dielectric constant tensor:
#      x y z
#    x 1.729530 0.000000 0.000000 
#    y 0.000000 1.699970 0.000000 
#    z 0.000000 0.000000 1.712120 
# 
# From -- ./inp_files/10120.got.cif
#   From: 2010.05.17/outbox.cif.g08.bks.cpg/sg38_6_cif.got.tgz:10120.got - 2010.06.03 18:07:57.
