data_PCOD9358886
_publ_section_title
;
Structure prediction by ZEFSAII (Michael W. Deem and Ramdas Pophale) SiO2 
 PCOD9358886
Probable space group: A M M 2
;
_chemical_formula_sum "Si O2"
_cell_formula_units_Z 56
_cell_length_a 24.511573
_cell_length_b 8.427800
_cell_length_c 14.756762
_cell_angle_alpha 90.000000
_cell_angle_beta 90.000000
_cell_angle_gamma 90.000000
_cell_volume 3048.431750
_symmetry_space_group_name_H-M "A M M 2"
_symmetry_group_IT_number 38
_symmetry_cell_setting 'orthorhombic'
loop_
_space_group_symop_operation_xyz
x,y,z
-x,-y,z
-x,y,z
x,-y,z
x,1/2+y,1/2+z
-x,1/2-y,1/2+z
-x,1/2+y,1/2+z
x,1/2-y,1/2+z
loop_
_atom_site_type_symbol
_atom_site_label
_atom_site_fract_x
_atom_site_fract_y
_atom_site_fract_z
Si Si1 0.849182 0.808189 0.599810
Si Si2 0.062417 0.691766 0.247022
Si Si3 0.438030 0.186920 0.891043
Si Si4 0.146460 0.308156 0.891853
Si Si5 0.359510 0.312125 0.742939
Si Si6 0.765342 0.308372 0.744841
Si Si7 0.561689 0.313467 0.090002
O O1 0.901304 0.757352 0.660354
O O2 0.851419 0.753141 0.495839
O O3 0.796578 0.749779 0.655229
O O4 0.848423 0.000000 0.599018
O O5 0.062452 0.500000 0.248007
O O6 0.093732 0.750736 0.336385
O O7 0.000000 0.746570 0.242478
O O8 0.500000 0.239742 0.868335
O O9 0.392761 0.277265 0.834180
O O10 0.434281 0.000000 0.870860
O O11 0.430724 0.217137 0.997562
O O12 0.146016 0.500000 0.892736
O O13 0.198469 0.256024 0.831356
O O14 0.358675 0.500000 0.725940
O O15 0.297155 0.254727 0.748666
O O16 0.393542 0.229996 0.663439
O O17 0.765689 0.500000 0.744926
O O18 0.500000 0.280792 0.124566
O O19 0.564492 0.500000 0.068436
#
# Coordination Sequence:
#
# PCOD9358886 Si02
#       7
#     8   8   8   8   8   8   8
#     4   9  18  33  54  76  99 134 173 209 253 300
#     4   9  18  32  49  74 107 135 164 206 252 300
#     4  10  21  37  56  79 107 138 173 214 263 320
#     4   9  18  34  54  74  99 133 172 210 250 298
#     4  11  22  35  53  78 108 141 176 217 265 313
#     4   9  20  36  51  73 104 134 169 214 256 299
#     4  10  21  37  56  78 104 135 173 218 267 319
#
# _framework density 18.370100999999998
#
# number of rings (size 3 to 8) (size 9 to 14) (size 15 to 20)
#    0.000    2.429    0.000    1.714    0.000    7.143 
#    0.000    2.857    0.000    0.000    0.000    0.000 
#    0.000    0.000    0.000    0.000    0.000    0.000 
#
# Total GULP energy -156239.348212 kJ/mol
# GULP energy per Si atom -5579.976722 kJ/mol
# Density = 1.832829 g / cm^3
# Si number density = 18.370101 Si / 1000 Ang^3
#
#
#
# Elastic Constant Matrix: (Units=GPa)
#
#
# Indices 1 2 3 4 5 6 
#
# 1 162.6945 14.5773 74.1093 0.0000 0.0000 0.0000
# 2 14.5773 9.4208 6.0054 0.0000 0.0000 0.0000
# 3 74.1093 6.0054 131.9570 0.0000 0.0000 0.0000
# 4 0.0000 0.0000 0.0000 27.6053 0.0000 0.0000
# 5 0.0000 0.0000 0.0000 0.0000 18.4662 0.0000
# 6 0.0000 0.0000 0.0000 0.0000 0.0000 25.7766
#
#
#
# Elastic Compliance Matrix: (Units=1/GPa)
#
#
# Indices 1 2 3 4 5 6 
#
# 1 0.009315 -0.011410 -0.004712 0.000000 0.000000 0.000000
# 2 -0.011410 0.123296 0.000797 0.000000 0.000000 0.000000
# 3 -0.004712 0.000797 0.010189 0.000000 0.000000 0.000000
# 4 0.000000 0.000000 0.000000 0.036225 0.000000 0.000000
# 5 0.000000 0.000000 0.000000 0.000000 0.054153 0.000000
# 6 0.000000 0.000000 0.000000 0.000000 0.000000 0.038795
#
#
# Mechanical properties :
#
#
# Convention : Reuss Voigt Hill
#
# Bulk Modulus (GPa) = 8.91674 54.82849 31.87261
# Shear Modulus (GPa) = 14.70557 28.32831 21.51694
#
# Velocity S-wave (km/s) = 2.83241 3.93120 3.42614
# Velocity P-wave (km/s) = 3.94477 7.10754 5.74797
#
# Compressibility (1/GPa) = 0.11214861
#
# Stress axis : x y z
#
# Youngs Moduli (GPa) = 107.34911 8.11055 98.14969
#
# Poissons Ratio (x) = 0.09254 0.46252
# Poissons Ratio (y) = 1.22488 -0.07822
# Poissons Ratio (z) = 0.50587 -0.00646
#
# Static dielectric constant tensor:
#      x y z
#    x 1.620270 0.000000 0.000000 
#    y 0.000000 1.627610 0.000000 
#    z 0.000000 0.000000 1.612080 
# 
# From -- ./inp_files/15419.got.cif
#   From: 2010.05.17/outbox.cif.g08.bks.cpg/sg38_8_cif.got.tgz:15419.got - 2010.06.03 18:07:57.
