data_PCOD9358940
_publ_section_title
;
Structure prediction by ZEFSAII (Michael W. Deem and Ramdas Pophale) SiO2 
 PCOD9358940
Probable space group: A M M 2
;
_chemical_formula_sum "Si O2"
_cell_formula_units_Z 64
_cell_length_a 7.746598
_cell_length_b 32.030538
_cell_length_c 12.321875
_cell_angle_alpha 90.000000
_cell_angle_beta 90.000000
_cell_angle_gamma 90.000000
_cell_volume 3057.398523
_symmetry_space_group_name_H-M "A M M 2"
_symmetry_group_IT_number 38
_symmetry_cell_setting 'orthorhombic'
loop_
_space_group_symop_operation_xyz
x,y,z
-x,-y,z
-x,y,z
x,-y,z
x,1/2+y,1/2+z
-x,1/2-y,1/2+z
-x,1/2+y,1/2+z
x,1/2-y,1/2+z
loop_
_atom_site_type_symbol
_atom_site_label
_atom_site_fract_x
_atom_site_fract_y
_atom_site_fract_z
Si Si1 0.788662 0.954025 0.460360
Si Si2 0.788660 0.545970 0.483842
Si Si3 0.205200 0.375282 0.099670
Si Si4 0.297457 0.796316 0.988770
Si Si5 0.205152 0.624692 0.344512
Si Si6 0.792456 0.331378 0.721901
Si Si7 0.702698 0.203680 0.455194
Si Si8 0.210386 0.428197 0.722094
O O1 0.726676 0.915004 0.531860
O O2 0.733489 0.948348 0.335166
O O3 0.000000 0.952754 0.460064
O O4 0.737640 0.000000 0.500186
O O5 0.737648 0.500000 0.443987
O O6 0.726635 0.584990 0.412355
O O7 0.733504 0.551634 0.609041
O O8 0.000000 0.547246 0.484150
O O9 0.275365 0.372520 0.222100
O O10 0.000000 0.381931 0.108018
O O11 0.227668 0.332715 0.032614
O O12 0.500000 0.794240 0.964407
O O13 0.227403 0.832739 0.911592
O O14 0.222351 0.750002 0.972069
O O15 0.271144 0.809664 0.112904
O O16 0.000000 0.617989 0.336077
O O17 0.729796 0.309682 0.831142
O O18 0.738089 0.379723 0.722037
O O19 0.000000 0.330694 0.721504
O O20 0.500000 0.205747 0.479044
O O21 0.000000 0.429827 0.722114
#
# Coordination Sequence:
#
# PCOD9358940 Si02
#       8
#     8   8   8   8   8   8   8   8
#     4   9  16  28  50  82 118 151 186 236 294 344
#     4   9  16  28  50  82 118 151 186 236 294 344
#     4  10  21  37  57  85 117 151 198 247 290 339
#     4  11  25  42  60  84 117 155 196 237 288 351
#     4  10  21  37  57  85 117 151 198 247 290 339
#     4  11  21  38  65  91 118 148 189 242 293 340
#     4  11  25  42  60  84 117 155 196 237 288 351
#     4   9  15  27  50  82 116 144 180 231 285 339
#
# _framework density 20.932829000000002
#
# number of rings (size 3 to 8) (size 9 to 14) (size 15 to 20)
#    0.000    2.000    2.500    1.500    1.750    4.500 
#    0.000    2.500    0.000    0.750    0.000    3.500 
#    0.000    0.000    0.000    0.000    0.000    0.000 
#
# Total GULP energy -178718.705208 kJ/mol
# GULP energy per Si atom -5584.959538 kJ/mol
# Density = 2.088519 g / cm^3
# Si number density = 20.932829 Si / 1000 Ang^3
#
#
#
# Elastic Constant Matrix: (Units=GPa)
#
#
# Indices 1 2 3 4 5 6 
#
# 1 26.8755 -1.0166 -5.5581 0.0000 0.0000 0.0000
# 2 -1.0166 203.0442 97.1718 0.0000 0.0000 0.0000
# 3 -5.5581 97.1718 171.3549 0.0000 0.0000 0.0000
# 4 0.0000 0.0000 0.0000 78.9072 0.0000 0.0000
# 5 0.0000 0.0000 0.0000 0.0000 1.2729 0.0000
# 6 0.0000 0.0000 0.0000 0.0000 0.0000 58.3568
#
#
#
# Elastic Compliance Matrix: (Units=1/GPa)
#
#
# Indices 1 2 3 4 5 6 
#
# 1 0.037503 -0.000541 0.001523 0.000000 0.000000 0.000000
# 2 -0.000541 0.006767 -0.003855 0.000000 0.000000 0.000000
# 3 0.001523 -0.003855 0.008071 0.000000 0.000000 0.000000
# 4 0.000000 0.000000 0.000000 0.012673 0.000000 0.000000
# 5 0.000000 0.000000 0.000000 0.000000 0.785593 0.000000
# 6 0.000000 0.000000 0.000000 0.000000 0.000000 0.017136
#
#
# Mechanical properties :
#
#
# Convention : Reuss Voigt Hill
#
# Bulk Modulus (GPa) = 21.46113 64.71873 43.08993
# Shear Modulus (GPa) = 5.62416 48.41922 27.02169
#
# Velocity S-wave (km/s) = 1.64091 4.81466 3.59677
# Velocity P-wave (km/s) = 3.72354 7.86717 6.15456
#
# Compressibility (1/GPa) = 0.04659587
#
# Stress axis : x y z
#
# Youngs Moduli (GPa) = 26.66440 147.76930 123.89376
#
# Poissons Ratio (x) = 0.07999 -0.18874
# Poissons Ratio (y) = 0.01443 0.47763
# Poissons Ratio (z) = -0.04062 0.56967
#
# Static dielectric constant tensor:
#      x y z
#    x 1.778790 0.000000 0.000000 
#    y 0.000000 1.748670 0.000000 
#    z 0.000000 0.000000 1.683590 
# 
# From -- ./inp_files/8573.got.cif
#   From: 2010.05.17/outbox.cif.g08.bks.cpg/sg38_5_cif.got.tgz:8573.got - 2010.06.03 18:07:57.
