data_PCOD9358120
_publ_section_title
;
Structure prediction by ZEFSAII (Michael W. Deem and Ramdas Pophale) SiO2 
 PCOD9358120
Probable space group: A M M 2
;
_chemical_formula_sum "Si O2"
_cell_formula_units_Z 58
_cell_length_a 14.288012
_cell_length_b 9.588951
_cell_length_c 25.573930
_cell_angle_alpha 90.000000
_cell_angle_beta 90.000000
_cell_angle_gamma 90.000000
_cell_volume 3503.808628
_symmetry_space_group_name_H-M "A M M 2"
_symmetry_group_IT_number 38
_symmetry_cell_setting 'orthorhombic'
loop_
_space_group_symop_operation_xyz
x,y,z
-x,-y,z
-x,y,z
x,-y,z
x,1/2+y,1/2+z
-x,1/2-y,1/2+z
-x,1/2+y,1/2+z
x,1/2-y,1/2+z
loop_
_atom_site_type_symbol
_atom_site_label
_atom_site_fract_x
_atom_site_fract_y
_atom_site_fract_z
Si Si1 0.101568 0.287666 0.827890
Si Si2 0.000000 0.500000 0.332674
Si Si3 0.611811 0.336235 0.885996
Si Si4 0.716611 0.332800 0.476205
Si Si5 0.608362 0.833894 0.686234
Si Si6 0.889967 0.157553 0.449178
Si Si7 0.294877 0.338835 0.774706
Si Si8 0.611976 0.837206 0.564037
O O1 0.123602 0.339255 0.886384
O O2 0.186556 0.320701 0.790200
O O3 0.000000 0.186325 0.458190
O O4 0.080365 0.123364 0.832342
O O5 0.500000 0.321477 0.889787
O O6 0.634932 0.500000 0.897105
O O7 0.662825 0.235701 0.926808
O O8 0.646830 0.305184 0.827399
O O9 0.714449 0.500000 0.475030
O O10 0.821567 0.271234 0.473448
O O11 0.666041 0.267880 0.526756
O O12 0.500000 0.791810 0.694848
O O13 0.673545 0.755364 0.726783
O O14 0.630738 0.808907 0.625221
O O15 0.614106 0.000000 0.694246
O O16 0.000000 0.153500 0.311572
O O17 0.868823 0.000000 0.467544
O O18 0.313369 0.500000 0.762064
O O19 0.500000 0.824673 0.555923
O O20 0.636154 0.000000 0.552881
#
# Coordination Sequence:
#
# PCOD9358120 Si02
#       8
#     8   2   8   8   8   8   8   8
#     4   9  19  32  53  76 110 143 181 218 266 319
#     4   8  20  32  50  80 110 144 178 228 276 304
#     4  10  21  36  51  72 108 150 184 213 258 322
#     4  12  24  33  53  81 111 141 176 223 276 320
#     4   9  20  37  58  81 105 140 184 227 272 321
#     4  10  20  35  55  77 105 143 183 220 259 319
#     4  11  21  33  54  81 110 144 180 221 268 320
#     4   9  19  39  61  78 102 141 187 227 266 322
#
# _framework density 16.553415999999999
#
# number of rings (size 3 to 8) (size 9 to 14) (size 15 to 20)
#    0.414    1.655    1.379    3.310    1.931    5.241 
#    0.000    1.379    0.000    0.828    0.000    3.862 
#    0.000    0.000    0.000    0.000    0.000    0.000 
#
# Total GULP energy -161485.572776 kJ/mol
# GULP energy per Si atom -5568.468027 kJ/mol
# Density = 1.651574 g / cm^3
# Si number density = 16.553416 Si / 1000 Ang^3
#
#
#
# Elastic Constant Matrix: (Units=GPa)
#
#
# Indices 1 2 3 4 5 6 
#
# 1 92.9509 56.8119 54.7404 0.0000 0.0000 0.0000
# 2 56.8119 120.6513 62.8463 0.0000 0.0000 0.0000
# 3 54.7404 62.8463 76.9826 0.0000 0.0000 0.0000
# 4 0.0000 0.0000 0.0000 21.2534 0.0000 0.0000
# 5 0.0000 0.0000 0.0000 0.0000 17.6366 0.0000
# 6 0.0000 0.0000 0.0000 0.0000 0.0000 25.0370
#
#
#
# Elastic Compliance Matrix: (Units=1/GPa)
#
#
# Indices 1 2 3 4 5 6 
#
# 1 0.019265 -0.003368 -0.010949 0.000000 0.000000 0.000000
# 2 -0.003368 0.015009 -0.009858 0.000000 0.000000 0.000000
# 3 -0.010949 -0.009858 0.028824 0.000000 0.000000 0.000000
# 4 0.000000 0.000000 0.000000 0.047051 0.000000 0.000000
# 5 0.000000 0.000000 0.000000 0.000000 0.056700 0.000000
# 6 0.000000 0.000000 0.000000 0.000000 0.000000 0.039941
#
#
# Mechanical properties :
#
#
# Convention : Reuss Voigt Hill
#
# Bulk Modulus (GPa) = 67.81091 71.04246 69.42669
# Shear Modulus (GPa) = 19.22645 20.53114 19.87880
#
# Velocity S-wave (km/s) = 3.41175 3.52560 3.46914
# Velocity P-wave (km/s) = 7.52156 7.71903 7.62094
#
# Compressibility (1/GPa) = 0.01474689
#
# Stress axis : x y z
#
# Youngs Moduli (GPa) = 51.90686 66.62488 34.69346
#
# Poissons Ratio (x) = 0.22440 0.37988
# Poissons Ratio (y) = 0.17483 0.34202
# Poissons Ratio (z) = 0.56835 0.65681
#
# Static dielectric constant tensor:
#      x y z
#    x 1.572650 0.000000 0.000000 
#    y 0.000000 1.554360 0.000000 
#    z 0.000000 0.000000 1.534550 
# 
# From -- ./inp_files/22846.got.cif
#   From: 2010.05.17/outbox.cif.g08.bks.cpg/sg38_12_cif.got.tgz:22846.got - 2010.06.03 18:07:57.
