data_PCOD9358396
_publ_section_title
;
Structure prediction by ZEFSAII (Michael W. Deem and Ramdas Pophale) SiO2 
 PCOD9358396
Probable space group: A M M 2
;
_chemical_formula_sum "Si O2"
_cell_formula_units_Z 64
_cell_length_a 8.416515
_cell_length_b 28.892370
_cell_length_c 13.038208
_cell_angle_alpha 90.000000
_cell_angle_beta 90.000000
_cell_angle_gamma 90.000000
_cell_volume 3170.541008
_symmetry_space_group_name_H-M "A M M 2"
_symmetry_group_IT_number 38
_symmetry_cell_setting 'orthorhombic'
loop_
_space_group_symop_operation_xyz
x,y,z
-x,-y,z
-x,y,z
x,-y,z
x,1/2+y,1/2+z
-x,1/2-y,1/2+z
-x,1/2+y,1/2+z
x,1/2-y,1/2+z
loop_
_atom_site_type_symbol
_atom_site_label
_atom_site_fract_x
_atom_site_fract_y
_atom_site_fract_z
Si Si1 0.193576 0.049563 0.078470
Si Si2 0.807692 0.621507 0.747796
Si Si3 0.818419 0.679642 0.403555
Si Si4 0.817821 0.070319 0.859483
Si Si5 0.310318 0.552866 0.923204
Si Si6 0.190375 0.090006 0.639310
Si Si7 0.315720 0.808718 0.688098
Si Si8 0.191833 0.709640 0.630533
O O1 0.245649 0.091071 0.149880
O O2 0.000000 0.053211 0.071187
O O3 0.231242 0.000000 0.126818
O O4 0.256707 0.050237 0.962456
O O5 0.751759 0.592779 0.846411
O O6 0.755691 0.673885 0.720289
O O7 0.000000 0.621785 0.750967
O O8 0.824942 0.624707 0.386195
O O9 0.714044 0.697280 0.309857
O O10 0.763630 0.690458 0.518090
O O11 0.000000 0.697410 0.391587
O O12 0.747856 0.066920 0.745731
O O13 0.000000 0.053247 0.852432
O O14 0.500000 0.552159 0.915132
O O15 0.251678 0.500000 0.901488
O O16 0.261684 0.567474 0.038113
O O17 0.227633 0.144850 0.649664
O O18 0.000000 0.084856 0.637049
O O19 0.500000 0.815546 0.666847
O O20 0.254438 0.761336 0.639934
O O21 0.000000 0.710448 0.634096
#
# Coordination Sequence:
#
# PCOD9358396 Si02
#       8
#     8   8   8   8   8   8   8   8
#     4   9  15  25  48  84 118 141 170 224 289 343
#     4  10  20  36  60  88 116 153 203 254 300 354
#     4   9  17  34  57  78 108 147 189 236 291 351
#     4   8  14  28  51  81 111 138 173 228 289 342
#     4  11  25  43  61  84 123 170 209 254 314 377
#     4  10  21  39  64  87 114 153 204 255 301 356
#     4  11  23  37  56  86 122 158 198 244 305 372
#     4  10  20  36  60  86 116 155 203 256 306 355
#
# _framework density 20.185831
#
# number of rings (size 3 to 8) (size 9 to 14) (size 15 to 20)
#    0.000    2.250    1.250    3.000    0.000    4.000 
#    0.000    2.500    0.000    0.000    0.000    1.750 
#    0.000    0.000    0.000    0.000    0.000    0.000 
#
# Total GULP energy -178408.567785 kJ/mol
# GULP energy per Si atom -5575.267743 kJ/mol
# Density = 2.013989 g / cm^3
# Si number density = 20.185831 Si / 1000 Ang^3
#
#
#
# Elastic Constant Matrix: (Units=GPa)
#
#
# Indices 1 2 3 4 5 6 
#
# 1 18.6951 0.0768 1.0248 0.0000 0.0000 0.0000
# 2 0.0768 48.9334 5.8960 0.0000 0.0000 0.0000
# 3 1.0248 5.8960 85.8264 0.0000 0.0000 0.0000
# 4 0.0000 0.0000 0.0000 13.6519 0.0000 0.0000
# 5 0.0000 0.0000 0.0000 0.0000 -34.7502 0.0000
# 6 0.0000 0.0000 0.0000 0.0000 0.0000 12.8224
#
#
#
# Elastic Compliance Matrix: (Units=1/GPa)
#
#
# Indices 1 2 3 4 5 6 
#
# 1 0.053525 -0.000007 -0.000639 0.000000 0.000000 0.000000
# 2 -0.000007 0.020607 -0.001416 0.000000 0.000000 0.000000
# 3 -0.000639 -0.001416 0.011756 0.000000 0.000000 0.000000
# 4 0.000000 0.000000 0.000000 0.073250 0.000000 0.000000
# 5 0.000000 0.000000 0.000000 0.000000 -0.028777 0.000000
# 6 0.000000 0.000000 0.000000 0.000000 0.000000 0.077988
#
#
# Mechanical properties :
#
#
# Convention : Reuss Voigt Hill
#
# Bulk Modulus (GPa) = 12.23009 18.60557 15.41783
# Shear Modulus (GPa) = 20.85704 8.10862 14.48283
#
# Velocity S-wave (km/s) = 3.21791 2.00642 2.68148
# Velocity P-wave (km/s) = 4.45853 3.82162 4.15230
#
# Compressibility (1/GPa) = 0.08176553
#
# Stress axis : x y z
#
# Youngs Moduli (GPa) = 18.68282 48.52832 85.06080
#
# Poissons Ratio (x) = 0.00034 0.05432
# Poissons Ratio (y) = 0.00013 0.12041
# Poissons Ratio (z) = 0.01193 0.06869
#
# Static dielectric constant tensor:
#      x y z
#    x 1.700030 0.000000 0.000000 
#    y 0.000000 1.739140 0.000000 
#    z 0.000000 0.000000 1.731240 
# 
# From -- ./inp_files/8667.got.cif
#   From: 2010.05.17/outbox.cif.g08.bks.cpg/sg38_5_cif.got.tgz:8667.got - 2010.06.03 18:07:57.
