data_PCOD9358817
_publ_section_title
;
Structure prediction by ZEFSAII (Michael W. Deem and Ramdas Pophale) SiO2 
 PCOD9358817
Probable space group: A M M 2
;
_chemical_formula_sum "Si O2"
_cell_formula_units_Z 64
_cell_length_a 13.400056
_cell_length_b 24.650334
_cell_length_c 9.838026
_cell_angle_alpha 90.000000
_cell_angle_beta 90.000000
_cell_angle_gamma 90.000000
_cell_volume 3249.655980
_symmetry_space_group_name_H-M "A M M 2"
_symmetry_group_IT_number 38
_symmetry_cell_setting 'orthorhombic'
loop_
_space_group_symop_operation_xyz
x,y,z
-x,-y,z
-x,y,z
x,-y,z
x,1/2+y,1/2+z
-x,1/2-y,1/2+z
-x,1/2+y,1/2+z
x,1/2-y,1/2+z
loop_
_atom_site_type_symbol
_atom_site_label
_atom_site_fract_x
_atom_site_fract_y
_atom_site_fract_z
Si Si1 0.613667 0.353788 0.653530
Si Si2 0.718062 0.839411 0.412998
Si Si3 0.670857 0.439292 0.435684
Si Si4 0.119876 0.684349 0.278165
Si Si5 0.119246 0.730874 0.995746
Si Si6 0.116741 0.061958 0.841764
Si Si7 0.619825 0.777938 0.915404
Si Si8 0.381008 0.867950 0.691737
O O1 0.500000 0.346584 0.702619
O O2 0.685684 0.368754 0.776379
O O3 0.618138 0.399867 0.539896
O O4 0.644584 0.301418 0.564915
O O5 0.832475 0.820918 0.420645
O O6 0.660997 0.781800 0.401753
O O7 0.677928 0.866281 0.550694
O O8 0.638393 0.500000 0.458149
O O9 0.791725 0.436314 0.447958
O O10 0.642893 0.420031 0.283910
O O11 0.151870 0.714053 0.418199
O O12 0.137340 0.619500 0.264363
O O13 0.000000 0.688420 0.278545
O O14 0.153190 0.721014 0.150718
O O15 0.000000 0.729043 0.992517
O O16 0.000000 0.065681 0.886650
O O17 0.125581 0.000000 0.780199
O O18 0.500000 0.777035 0.910596
O O19 0.650034 0.818173 0.792358
O O20 0.500000 0.863770 0.666932
#
# Coordination Sequence:
#
# PCOD9358817 Si02
#       8
#     8   8   8   8   8   8   8   8
#     4  10  22  37  54  81 110 142 188 233 283 341
#     4  12  22  32  56  79 113 149 179 231 278 340
#     4  10  21  38  61  83 108 148 193 234 288 346
#     4   9  19  36  54  79 117 154 195 234 283 343
#     4  10  23  36  52  82 119 159 192 230 282 351
#     4   9  18  34  59  88 115 146 194 253 291 327
#     4   9  19  34  52  75 107 143 180 220 270 330
#     4  10  21  36  55  82 110 142 192 238 279 336
#
# _framework density 19.694391
#
# number of rings (size 3 to 8) (size 9 to 14) (size 15 to 20)
#    0.000    2.125    0.000    3.750    7.000    3.000 
#    0.000    1.250    0.000    2.250    0.000    0.875 
#    0.000   11.000    0.000    0.000    0.000    0.000 
#
# Total GULP energy -178352.936515 kJ/mol
# GULP energy per Si atom -5573.529266 kJ/mol
# Density = 1.964957 g / cm^3
# Si number density = 19.694391 Si / 1000 Ang^3
#
#
#
# Elastic Constant Matrix: (Units=GPa)
#
#
# Indices 1 2 3 4 5 6 
#
# 1 69.5025 5.2607 12.5720 0.0000 0.0000 0.0000
# 2 5.2607 81.7057 29.5820 0.0000 0.0000 0.0000
# 3 12.5720 29.5820 76.5704 0.0000 0.0000 0.0000
# 4 0.0000 0.0000 0.0000 0.4404 0.0000 0.0000
# 5 0.0000 0.0000 0.0000 0.0000 24.6053 0.0000
# 6 0.0000 0.0000 0.0000 0.0000 0.0000 22.2490
#
#
#
# Elastic Compliance Matrix: (Units=1/GPa)
#
#
# Indices 1 2 3 4 5 6 
#
# 1 0.014829 -0.000085 -0.002402 0.000000 0.000000 0.000000
# 2 -0.000085 0.014230 -0.005484 0.000000 0.000000 0.000000
# 3 -0.002402 -0.005484 0.015573 0.000000 0.000000 0.000000
# 4 0.000000 0.000000 0.000000 2.270805 0.000000 0.000000
# 5 0.000000 0.000000 0.000000 0.000000 0.040642 0.000000
# 6 0.000000 0.000000 0.000000 0.000000 0.000000 0.044946
#
#
# Mechanical properties :
#
#
# Convention : Reuss Voigt Hill
#
# Bulk Modulus (GPa) = 34.85489 35.84533 35.35011
# Shear Modulus (GPa) = 2.06056 21.48318 11.77187
#
# Velocity S-wave (km/s) = 1.02398 3.30635 2.44750
# Velocity P-wave (km/s) = 4.37428 5.72855 5.09660
#
# Compressibility (1/GPa) = 0.02869038
#
# Stress axis : x y z
#
# Youngs Moduli (GPa) = 67.43598 70.27459 64.21479
#
# Poissons Ratio (x) = 0.00599 0.15423
# Poissons Ratio (y) = 0.00574 0.35213
# Poissons Ratio (z) = 0.16197 0.38535
#
# Static dielectric constant tensor:
#      x y z
#    x 1.763040 0.000000 0.000000 
#    y 0.000000 1.697810 0.000000 
#    z 0.000000 0.000000 1.706130 
# 
# From -- ./inp_files/5881.got.cif
#   From: 2010.05.17/outbox.cif.g08.bks.cpg/sg38_3_cif.got.tgz:5881.got - 2010.06.03 18:07:57.
