data_PCOD9358890
_publ_section_title
;
Structure prediction by ZEFSAII (Michael W. Deem and Ramdas Pophale) SiO2 
 PCOD9358890
Probable space group: A M M 2
;
_chemical_formula_sum "Si O2"
_cell_formula_units_Z 58
_cell_length_a 23.500581
_cell_length_b 7.600910
_cell_length_c 15.047041
_cell_angle_alpha 90.000000
_cell_angle_beta 90.000000
_cell_angle_gamma 90.000000
_cell_volume 2687.789753
_symmetry_space_group_name_H-M "A M M 2"
_symmetry_group_IT_number 38
_symmetry_cell_setting 'orthorhombic'
loop_
_space_group_symop_operation_xyz
x,y,z
-x,-y,z
-x,y,z
x,-y,z
x,1/2+y,1/2+z
-x,1/2-y,1/2+z
-x,1/2+y,1/2+z
x,1/2-y,1/2+z
loop_
_atom_site_type_symbol
_atom_site_label
_atom_site_fract_x
_atom_site_fract_y
_atom_site_fract_z
Si Si1 0.377951 0.800506 0.319200
Si Si2 0.217792 0.701710 0.585511
Si Si3 0.563680 0.786057 0.148743
Si Si4 0.937732 0.702479 0.285843
Si Si5 0.000000 0.500000 0.696818
Si Si6 0.660857 0.293465 0.008087
Si Si7 0.834522 0.714976 0.410785
Si Si8 0.741869 0.702372 0.272191
O O1 0.421451 0.722093 0.248405
O O2 0.363299 0.720523 0.414906
O O3 0.317461 0.802477 0.267882
O O4 0.397261 0.000000 0.337545
O O5 0.202745 0.500000 0.603379
O O6 0.280599 0.708022 0.540817
O O7 0.174845 0.775607 0.511432
O O8 0.223788 0.791588 0.680449
O O9 0.500000 0.733891 0.122595
O O10 0.611885 0.723609 0.081375
O O11 0.566291 0.000000 0.150184
O O12 0.925609 0.500000 0.257567
O O13 0.890530 0.762331 0.355830
O O14 0.000000 0.700158 0.332692
O O15 0.950482 0.843354 0.208712
O O16 0.674305 0.500000 0.995457
O O17 0.833348 0.500000 0.413244
O O18 0.780977 0.771856 0.351277
O O19 0.727329 0.500000 0.290462
#
# Coordination Sequence:
#
# PCOD9358890 Si02
#       8
#     8   8   8   8   2   8   8   8
#     4  10  21  37  56  80 109 142 178 220 275 329
#     4  11  21  36  54  80 113 149 183 222 277 334
#     4  10  22  40  60  78 104 145 184 221 272 332
#     4   8  15  31  51  77 110 148 191 233 276 333
#     4   8  14  28  48  86 104 148 190 230 290 318
#     4  11  22  36  56  84 110 139 181 226 273 323
#     4   9  19  35  56  78 112 152 184 221 281 331
#     4  11  21  35  54  83 113 144 182 225 274 330
#
# _framework density 21.579069
#
# number of rings (size 3 to 8) (size 9 to 14) (size 15 to 20)
#    0.414    1.655    2.759    1.241    0.000    1.379 
#    4.966    1.379    0.000    0.828    0.000    0.000 
#    0.000    0.000    0.000    0.000    0.000    0.000 
#
# Total GULP energy -161454.343572 kJ/mol
# GULP energy per Si atom -5567.391158 kJ/mol
# Density = 2.152995 g / cm^3
# Si number density = 21.579069 Si / 1000 Ang^3
#
#
#
# Elastic Constant Matrix: (Units=GPa)
#
#
# Indices 1 2 3 4 5 6 
#
# 1 33.0354 -3.0398 -22.1088 0.0000 0.0000 0.0000
# 2 -3.0398 74.6523 0.9110 0.0000 0.0000 0.0000
# 3 -22.1088 0.9110 72.1945 0.0000 0.0000 0.0000
# 4 0.0000 0.0000 0.0000 14.3714 0.0000 0.0000
# 5 0.0000 0.0000 0.0000 0.0000 -16.9003 0.0000
# 6 0.0000 0.0000 0.0000 0.0000 0.0000 30.0074
#
#
#
# Elastic Compliance Matrix: (Units=1/GPa)
#
#
# Indices 1 2 3 4 5 6 
#
# 1 0.038222 0.001414 0.011687 0.000000 0.000000 0.000000
# 2 0.001414 0.013450 0.000263 0.000000 0.000000 0.000000
# 3 0.011687 0.000263 0.017427 0.000000 0.000000 0.000000
# 4 0.000000 0.000000 0.000000 0.069583 0.000000 0.000000
# 5 0.000000 0.000000 0.000000 0.000000 -0.059170 0.000000
# 6 0.000000 0.000000 0.000000 0.000000 0.000000 0.033325
#
#
# Mechanical properties :
#
#
# Convention : Reuss Voigt Hill
#
# Bulk Modulus (GPa) = 10.43535 14.60078 12.51806
# Shear Modulus (GPa) = 42.35471 19.10368 30.72920
#
# Velocity S-wave (km/s) = 4.43512 2.97861 3.77772
# Velocity P-wave (km/s) = 5.57435 4.31397 4.98416
#
# Compressibility (1/GPa) = 0.09582808
#
# Stress axis : x y z
#
# Youngs Moduli (GPa) = 26.16272 74.35061 57.38135
#
# Poissons Ratio (x) = -0.10512 -0.67063
# Poissons Ratio (y) = -0.03699 -0.01511
# Poissons Ratio (z) = -0.30577 -0.01957
#
# Static dielectric constant tensor:
#      x y z
#    x 1.786470 0.000000 0.000000 
#    y 0.000000 1.828050 0.000000 
#    z 0.000000 0.000000 1.796570 
# 
# From -- ./inp_files/15692.got.cif
#   From: 2010.05.17/outbox.cif.g08.bks.cpg/sg38_8_cif.got.tgz:15692.got - 2010.06.03 18:07:57.
