data_PCOD9358999
_publ_section_title
;
Structure prediction by ZEFSAII (Michael W. Deem and Ramdas Pophale) SiO2 
 PCOD9358999
Probable space group: A M M 2
;
_chemical_formula_sum "Si O2"
_cell_formula_units_Z 44
_cell_length_a 15.402431
_cell_length_b 10.593859
_cell_length_c 15.094894
_cell_angle_alpha 90.000000
_cell_angle_beta 90.000000
_cell_angle_gamma 90.000000
_cell_volume 2463.051700
_symmetry_space_group_name_H-M "A M M 2"
_symmetry_group_IT_number 38
_symmetry_cell_setting 'orthorhombic'
loop_
_space_group_symop_operation_xyz
x,y,z
-x,-y,z
-x,y,z
x,-y,z
x,1/2+y,1/2+z
-x,1/2-y,1/2+z
-x,1/2+y,1/2+z
x,1/2-y,1/2+z
loop_
_atom_site_type_symbol
_atom_site_label
_atom_site_fract_x
_atom_site_fract_y
_atom_site_fract_z
Si Si1 0.194486 0.245320 0.410640
Si Si2 0.500000 0.850226 0.787007
Si Si3 0.500000 0.649512 0.499092
Si Si4 0.690767 0.758593 0.736707
Si Si5 0.895965 0.500000 0.981125
Si Si6 0.201181 0.500000 0.170592
Si Si7 0.101461 0.000000 0.848100
Si Si8 0.314569 0.354401 0.557440
O O1 0.261390 0.227516 0.328879
O O2 0.134246 0.124679 0.427678
O O3 0.142311 0.373090 0.388603
O O4 0.248006 0.274665 0.499605
O O5 0.500000 0.837191 0.893607
O O6 0.589600 0.789759 0.753063
O O7 0.500000 0.000000 0.766641
O O8 0.500000 0.500000 0.520157
O O9 0.589288 0.699482 0.538611
O O10 0.700868 0.653181 0.661734
O O11 0.738766 0.879733 0.693486
O O12 0.000000 0.500000 0.995102
O O13 0.842654 0.500000 0.074197
O O14 0.125638 0.500000 0.244388
O O15 0.000000 0.000000 0.862623
O O16 0.310786 0.500000 0.526056
#
# Coordination Sequence:
#
# PCOD9358999 Si02
#       8
#     8   4   4   8   4   4   4   8
#     4  11  23  39  65  89 120 161 202 251 317 373
#     4  11  19  32  61  92 124 165 211 253 290 360
#     4   9  19  32  56  85 119 160 209 251 286 354
#     4  11  22  37  60  91 126 161 206 249 303 361
#     4  12  25  44  64  91 125 161 202 269 340 380
#     4  10  21  37  62  88 113 158 201 254 307 366
#     4  10  21  40  62  89 114 149 203 256 300 374
#     4  11  21  38  60  88 121 165 207 247 298 362
#
# _framework density 17.864018000000002
#
# number of rings (size 3 to 8) (size 9 to 14) (size 15 to 20)
#    0.000    1.273    5.455    1.364    1.273    0.000 
#    0.000    0.000    0.000    2.182    0.000    0.000 
#    0.000    0.000    0.000    0.000    0.000    0.000 
#
# Total GULP energy -122755.128517 kJ/mol
# GULP energy per Si atom -5579.778569 kJ/mol
# Density = 1.782336 g / cm^3
# Si number density = 17.864018 Si / 1000 Ang^3
#
#
#
# Elastic Constant Matrix: (Units=GPa)
#
#
# Indices 1 2 3 4 5 6 
#
# 1 131.4513 34.8220 47.1419 0.0000 0.0000 0.0000
# 2 34.8220 76.4026 24.3904 0.0000 0.0000 0.0000
# 3 47.1419 24.3904 87.9372 0.0000 0.0000 0.0000
# 4 0.0000 0.0000 0.0000 27.7989 0.0000 0.0000
# 5 0.0000 0.0000 0.0000 0.0000 16.3786 0.0000
# 6 0.0000 0.0000 0.0000 0.0000 0.0000 18.3725
#
#
#
# Elastic Compliance Matrix: (Units=1/GPa)
#
#
# Indices 1 2 3 4 5 6 
#
# 1 0.010062 -0.003142 -0.004522 0.000000 0.000000 0.000000
# 2 -0.003142 0.015341 -0.002571 0.000000 0.000000 0.000000
# 3 -0.004522 -0.002571 0.014509 0.000000 0.000000 0.000000
# 4 0.000000 0.000000 0.000000 0.035973 0.000000 0.000000
# 5 0.000000 0.000000 0.000000 0.000000 0.061055 0.000000
# 6 0.000000 0.000000 0.000000 0.000000 0.000000 0.054429
#
#
# Mechanical properties :
#
#
# Convention : Reuss Voigt Hill
#
# Bulk Modulus (GPa) = 51.43565 56.49996 53.96781
# Shear Modulus (GPa) = 22.90218 25.13911 24.02064
#
# Velocity S-wave (km/s) = 3.58443 3.75540 3.67091
# Velocity P-wave (km/s) = 6.78131 7.10637 6.94574
#
# Compressibility (1/GPa) = 0.01944177
#
# Stress axis : x y z
#
# Youngs Moduli (GPa) = 99.38804 65.18374 68.92201
#
# Poissons Ratio (x) = 0.20481 0.31169
# Poissons Ratio (y) = 0.31228 0.17718
# Poissons Ratio (z) = 0.44947 0.16757
#
# Static dielectric constant tensor:
#      x y z
#    x 1.602800 0.000000 0.000000 
#    y 0.000000 1.617320 0.000000 
#    z 0.000000 0.000000 1.600860 
# 
# From -- ./inp_files/14456.got.cif
#   From: 2010.05.17/outbox.cif.g08.bks.cpg/sg38_8_cif.got.tgz:14456.got - 2010.06.03 18:07:57.
