data_PCOD9358479
_publ_section_title
;
Structure prediction by ZEFSAII (Michael W. Deem and Ramdas Pophale) SiO2 
 PCOD9358479
Probable space group: A M M 2
;
_chemical_formula_sum "Si O2"
_cell_formula_units_Z 48
_cell_length_a 17.253354
_cell_length_b 8.817373
_cell_length_c 16.199670
_cell_angle_alpha 90.000000
_cell_angle_beta 90.000000
_cell_angle_gamma 90.000000
_cell_volume 2464.443772
_symmetry_space_group_name_H-M "A M M 2"
_symmetry_group_IT_number 38
_symmetry_cell_setting 'orthorhombic'
loop_
_space_group_symop_operation_xyz
x,y,z
-x,-y,z
-x,y,z
x,-y,z
x,1/2+y,1/2+z
-x,1/2-y,1/2+z
-x,1/2+y,1/2+z
x,1/2-y,1/2+z
loop_
_atom_site_type_symbol
_atom_site_label
_atom_site_fract_x
_atom_site_fract_y
_atom_site_fract_z
Si Si1 0.177960 0.818763 0.136250
Si Si2 0.339902 0.678918 0.875153
Si Si3 0.500000 0.321800 0.639004
Si Si4 0.185939 0.318447 0.308676
Si Si5 0.663446 0.821242 0.050610
Si Si6 0.089222 0.184765 0.969799
Si Si7 0.500000 0.821483 0.815508
O O1 0.154834 0.739112 0.220999
O O2 0.268677 0.790699 0.116085
O O3 0.167834 0.000000 0.145435
O O4 0.130985 0.768656 0.054775
O O5 0.340856 0.500000 0.861854
O O6 0.271898 0.752957 0.821569
O O7 0.422950 0.748409 0.853095
O O8 0.323653 0.721547 0.969972
O O9 0.500000 0.500000 0.664822
O O10 0.578062 0.296713 0.587022
O O11 0.500000 0.216905 0.718724
O O12 0.188793 0.500000 0.309264
O O13 0.135199 0.267213 0.387645
O O14 0.670379 0.000000 0.027235
O O15 0.000000 0.233491 0.967747
O O16 0.090651 0.000000 0.969664
O O17 0.500000 0.000000 0.831305
#
# Coordination Sequence:
#
# PCOD9358479 Si02
#       7
#     8   8   4   8   8   8   4
#     4  10  20  37  61  89 123 162 206 253 309 372
#     4  12  24  39  61  88 121 160 207 257 307 363
#     4  10  21  36  57  85 121 159 201 251 306 363
#     4  11  22  39  63  92 125 164 210 256 310 371
#     4  10  20  37  59  85 118 160 202 249 307 369
#     4   9  19  38  63  89 123 167 208 251 311 380
#     4  12  25  40  59  85 121 161 207 255 304 361
#
# _framework density 19.477011999999998
#
# number of rings (size 3 to 8) (size 9 to 14) (size 15 to 20)
#    0.000    1.500    1.667    4.250    0.000    4.000 
#    0.000    0.000    0.000    3.500    0.000    0.000 
#    0.000    0.000    0.000    0.000    0.000    0.000 
#
# Total GULP energy -134155.483776 kJ/mol
# GULP energy per Si atom -5589.811824 kJ/mol
# Density = 1.943268 g / cm^3
# Si number density = 19.477012 Si / 1000 Ang^3
#
#
#
# Elastic Constant Matrix: (Units=GPa)
#
#
# Indices 1 2 3 4 5 6 
#
# 1 124.5892 30.7044 61.9366 0.0000 0.0000 0.0000
# 2 30.7044 60.7127 52.8774 0.0000 0.0000 0.0000
# 3 61.9366 52.8774 146.7148 0.0000 0.0000 0.0000
# 4 0.0000 0.0000 0.0000 38.7081 0.0000 0.0000
# 5 0.0000 0.0000 0.0000 0.0000 7.0385 0.0000
# 6 0.0000 0.0000 0.0000 0.0000 0.0000 7.5628
#
#
#
# Elastic Compliance Matrix: (Units=1/GPa)
#
#
# Indices 1 2 3 4 5 6 
#
# 1 0.010335 -0.002080 -0.003614 0.000000 0.000000 0.000000
# 2 -0.002080 0.024425 -0.007925 0.000000 0.000000 0.000000
# 3 -0.003614 -0.007925 0.011198 0.000000 0.000000 0.000000
# 4 0.000000 0.000000 0.000000 0.025834 0.000000 0.000000
# 5 0.000000 0.000000 0.000000 0.000000 0.142076 0.000000
# 6 0.000000 0.000000 0.000000 0.000000 0.000000 0.132226
#
#
# Mechanical properties :
#
#
# Convention : Reuss Voigt Hill
#
# Bulk Modulus (GPa) = 53.41474 69.22818 61.32146
# Shear Modulus (GPa) = 13.17276 23.09510 18.13393
#
# Velocity S-wave (km/s) = 2.60344 3.44722 3.05461
# Velocity P-wave (km/s) = 6.04328 7.17392 6.63274
#
# Compressibility (1/GPa) = 0.01872143
#
# Stress axis : x y z
#
# Youngs Moduli (GPa) = 96.75570 40.94151 89.30394
#
# Poissons Ratio (x) = 0.08515 0.32271
# Poissons Ratio (y) = 0.20122 0.70774
# Poissons Ratio (z) = 0.34963 0.32446
#
# Static dielectric constant tensor:
#      x y z
#    x 1.678140 0.000000 0.000000 
#    y 0.000000 1.660230 0.000000 
#    z 0.000000 0.000000 1.681570 
# 
# From -- ./inp_files/15063.got.cif
#   From: 2010.05.17/outbox.cif.g08.bks.cpg/sg38_8_cif.got.tgz:15063.got - 2010.06.03 18:07:57.
