data_PCOD9358232
_publ_section_title
;
Structure prediction by ZEFSAII (Michael W. Deem and Ramdas Pophale) SiO2 
 PCOD9358232
Probable space group: A M M 2
;
_chemical_formula_sum "Si O2"
_cell_formula_units_Z 48
_cell_length_a 8.535667
_cell_length_b 14.922487
_cell_length_c 21.023019
_cell_angle_alpha 90.000000
_cell_angle_beta 90.000000
_cell_angle_gamma 90.000000
_cell_volume 2677.772985
_symmetry_space_group_name_H-M "A M M 2"
_symmetry_group_IT_number 38
_symmetry_cell_setting 'orthorhombic'
loop_
_space_group_symop_operation_xyz
x,y,z
-x,-y,z
-x,y,z
x,-y,z
x,1/2+y,1/2+z
-x,1/2-y,1/2+z
-x,1/2+y,1/2+z
x,1/2-y,1/2+z
loop_
_atom_site_type_symbol
_atom_site_label
_atom_site_fract_x
_atom_site_fract_y
_atom_site_fract_z
Si Si1 0.689448 0.695199 0.941830
Si Si2 0.312046 0.811395 0.204766
Si Si3 0.186782 0.500000 0.755015
Si Si4 0.811983 0.500000 0.509546
Si Si5 0.190582 0.500000 0.361494
Si Si6 0.811928 0.194990 0.820312
Si Si7 0.310720 0.312374 0.561131
Si Si8 0.689547 0.500000 0.899126
O O1 0.500000 0.698979 0.939617
O O2 0.753541 0.749639 0.881503
O O3 0.735721 0.591433 0.934488
O O4 0.741862 0.742843 0.006835
O O5 0.500000 0.811881 0.207717
O O6 0.252380 0.910470 0.222557
O O7 0.249202 0.742538 0.257045
O O8 0.261927 0.788983 0.132813
O O9 0.239728 0.500000 0.828542
O O10 0.000000 0.500000 0.751331
O O11 0.760854 0.500000 0.435509
O O12 0.749920 0.589388 0.542759
O O13 0.000000 0.500000 0.511182
O O14 0.241737 0.407872 0.328608
O O15 0.000000 0.500000 0.361299
O O16 0.000000 0.196769 0.820077
O O17 0.500000 0.314510 0.560068
O O18 0.500000 0.500000 0.892847
#
# Coordination Sequence:
#
# PCOD9358232 Si02
#       8
#     8   8   4   4   4   8   8   4
#     4  10  20  36  58  83 111 147 187 230 284 338
#     4  11  23  39  56  81 119 155 189 234 288 337
#     4  12  23  35  56  86 116 148 192 236 283 344
#     4  11  20  34  57  85 116 147 184 233 288 340
#     4   9  20  36  55  84 117 146 179 233 288 328
#     4  11  21  37  59  83 113 149 190 234 282 338
#     4  10  22  38  56  82 116 152 189 232 282 342
#     4  10  20  35  58  85 115 145 181 232 289 338
#
# _framework density 17.925343000000002
#
# number of rings (size 3 to 8) (size 9 to 14) (size 15 to 20)
#    0.000    1.500    3.333    2.500    0.000    3.333 
#    0.000    2.500    0.000    2.000    0.000    0.000 
#    0.000    0.000    0.000    0.000    0.000    0.000 
#
# Total GULP energy -134077.471162 kJ/mol
# GULP energy per Si atom -5586.561298 kJ/mol
# Density = 1.788454 g / cm^3
# Si number density = 17.925343 Si / 1000 Ang^3
#
#
#
# Elastic Constant Matrix: (Units=GPa)
#
#
# Indices 1 2 3 4 5 6 
#
# 1 22.6326 31.5497 33.5837 0.0000 0.0000 0.0000
# 2 31.5497 171.2343 105.7962 0.0000 0.0000 0.0000
# 3 33.5837 105.7962 189.7381 0.0000 0.0000 0.0000
# 4 0.0000 0.0000 0.0000 1.3398 0.0000 0.0000
# 5 0.0000 0.0000 0.0000 0.0000 4.1736 0.0000
# 6 0.0000 0.0000 0.0000 0.0000 0.0000 5.8021
#
#
#
# Elastic Compliance Matrix: (Units=1/GPa)
#
#
# Indices 1 2 3 4 5 6 
#
# 1 0.065689 -0.007505 -0.007442 0.000000 0.000000 0.000000
# 2 -0.007505 0.009767 -0.004117 0.000000 0.000000 0.000000
# 3 -0.007442 -0.004117 0.008884 0.000000 0.000000 0.000000
# 4 0.000000 0.000000 0.000000 0.746408 0.000000 0.000000
# 5 0.000000 0.000000 0.000000 0.000000 0.239602 0.000000
# 6 0.000000 0.000000 0.000000 0.000000 0.000000 0.172352
#
#
# Mechanical properties :
#
#
# Convention : Reuss Voigt Hill
#
# Bulk Modulus (GPa) = 21.64024 80.60710 51.12367
# Shear Modulus (GPa) = 3.85733 16.44145 10.14939
#
# Velocity S-wave (km/s) = 1.46852 3.03185 2.38208
# Velocity P-wave (km/s) = 3.86963 7.57113 6.01232
#
# Compressibility (1/GPa) = 0.04621021
#
# Stress axis : x y z
#
# Youngs Moduli (GPa) = 15.22314 102.38918 112.56767
#
# Poissons Ratio (x) = 0.76843 0.83777
# Poissons Ratio (y) = 0.11425 0.46349
# Poissons Ratio (z) = 0.11330 0.42158
#
# Static dielectric constant tensor:
#      x y z
#    x 1.606180 0.000000 0.000000 
#    y 0.000000 1.600730 0.000000 
#    z 0.000000 0.000000 1.599680 
# 
# From -- ./inp_files/16734.got.cif
#   From: 2010.05.17/outbox.cif.g08.bks.cpg/sg38_9_cif.got.tgz:16734.got - 2010.06.03 18:07:57.
