data_PCOD9358997
_publ_section_title
;
Structure prediction by ZEFSAII (Michael W. Deem and Ramdas Pophale) SiO2 
 PCOD9358997
Probable space group: A M M 2
;
_chemical_formula_sum "Si O2"
_cell_formula_units_Z 48
_cell_length_a 8.588333
_cell_length_b 17.265569
_cell_length_c 17.360587
_cell_angle_alpha 90.000000
_cell_angle_beta 90.000000
_cell_angle_gamma 90.000000
_cell_volume 2574.270478
_symmetry_space_group_name_H-M "A M M 2"
_symmetry_group_IT_number 38
_symmetry_cell_setting 'orthorhombic'
loop_
_space_group_symop_operation_xyz
x,y,z
-x,-y,z
-x,y,z
x,-y,z
x,1/2+y,1/2+z
-x,1/2-y,1/2+z
-x,1/2+y,1/2+z
x,1/2-y,1/2+z
loop_
_atom_site_type_symbol
_atom_site_label
_atom_site_fract_x
_atom_site_fract_y
_atom_site_fract_z
Si Si1 0.688935 0.320567 0.634240
Si Si2 0.186741 0.000000 0.576104
Si Si3 0.688708 0.909695 0.981505
Si Si4 0.312836 0.353398 0.168554
Si Si5 0.186760 0.500000 0.897358
Si Si6 0.185694 0.817645 0.835088
Si Si7 0.687350 0.851824 0.307183
O O1 0.500000 0.322123 0.633429
O O2 0.742112 0.367946 0.560156
O O3 0.735181 0.230231 0.633815
O O4 0.736220 0.355101 0.717046
O O5 0.249193 0.924115 0.619227
O O6 0.236041 0.000000 0.486777
O O7 0.000000 0.000000 0.579060
O O8 0.500000 0.904891 0.978232
O O9 0.757045 0.866225 0.907931
O O10 0.731449 0.000000 0.981884
O O11 0.500000 0.356113 0.170515
O O12 0.250653 0.354090 0.255867
O O13 0.249451 0.576075 0.854651
O O14 0.000000 0.500000 0.894715
O O15 0.251031 0.730114 0.838632
O O16 0.000000 0.815601 0.832108
O O17 0.500000 0.851185 0.309951
#
# Coordination Sequence:
#
# PCOD9358997 Si02
#       7
#     8   4   8   8   4   8   8
#     4   8  18  37  62  91 116 148 198 254 298 346
#     4  11  25  41  59  88 125 158 197 249 308 365
#     4  10  21  37  61  90 121 155 199 252 299 354
#     4  10  21  40  64  89 117 155 205 249 297 362
#     4  11  25  41  59  92 131 162 197 245 308 367
#     4  11  23  40  61  87 124 162 199 248 308 363
#     4  10  21  40  66  91 118 158 208 252 298 358
#
# _framework density 18.646059000000001
#
# number of rings (size 3 to 8) (size 9 to 14) (size 15 to 20)
#    0.000    2.000    0.000    4.000    4.667    1.667 
#    0.000    4.167    0.000    0.000    0.000    0.000 
#    0.000    0.000    0.000    0.000    0.000    0.000 
#
# Total GULP energy -134080.801113 kJ/mol
# GULP energy per Si atom -5586.700046 kJ/mol
# Density = 1.860362 g / cm^3
# Si number density = 18.646059 Si / 1000 Ang^3
#
#
#
# Elastic Constant Matrix: (Units=GPa)
#
#
# Indices 1 2 3 4 5 6 
#
# 1 65.2026 56.8628 56.3193 0.0000 0.0000 0.0000
# 2 56.8628 175.3430 156.9934 0.0000 0.0000 0.0000
# 3 56.3193 156.9934 189.7718 0.0000 0.0000 0.0000
# 4 0.0000 0.0000 0.0000 27.9928 0.0000 0.0000
# 5 0.0000 0.0000 0.0000 0.0000 17.9537 0.0000
# 6 0.0000 0.0000 0.0000 0.0000 0.0000 22.9588
#
#
#
# Elastic Compliance Matrix: (Units=1/GPa)
#
#
# Indices 1 2 3 4 5 6 
#
# 1 0.021660 -0.004893 -0.002380 0.000000 0.000000 0.000000
# 2 -0.004893 0.023100 -0.017658 0.000000 0.000000 0.000000
# 3 -0.002380 -0.017658 0.020584 0.000000 0.000000 0.000000
# 4 0.000000 0.000000 0.000000 0.035723 0.000000 0.000000
# 5 0.000000 0.000000 0.000000 0.000000 0.055699 0.000000
# 6 0.000000 0.000000 0.000000 0.000000 0.000000 0.043556
#
#
# Mechanical properties :
#
#
# Convention : Reuss Voigt Hill
#
# Bulk Modulus (GPa) = 64.59372 107.85204 86.22288
# Shear Modulus (GPa) = 19.58141 24.45719 22.01930
#
# Velocity S-wave (km/s) = 3.24414 3.62561 3.44016
# Velocity P-wave (km/s) = 6.98211 8.68873 7.88174
#
# Compressibility (1/GPa) = 0.01548138
#
# Stress axis : x y z
#
# Youngs Moduli (GPa) = 46.16817 43.29056 48.58246
#
# Poissons Ratio (x) = 0.21183 0.11563
# Poissons Ratio (y) = 0.22591 0.85785
# Poissons Ratio (z) = 0.10988 0.76441
#
# Static dielectric constant tensor:
#      x y z
#    x 1.627130 0.000000 0.000000 
#    y 0.000000 1.613850 0.000000 
#    z 0.000000 0.000000 1.624670 
# 
# From -- ./inp_files/12088.got.cif
#   From: 2010.05.17/outbox.cif.g08.bks.cpg/sg38_7_cif.got.tgz:12088.got - 2010.06.03 18:07:57.
