data_PCOD9358078
_publ_section_title
;
Structure prediction by ZEFSAII (Michael W. Deem and Ramdas Pophale) SiO2 
 PCOD9358078
Probable space group: A M M 2
;
_chemical_formula_sum "Si O2"
_cell_formula_units_Z 64
_cell_length_a 9.556517
_cell_length_b 14.697345
_cell_length_c 24.302702
_cell_angle_alpha 90.000000
_cell_angle_beta 90.000000
_cell_angle_gamma 90.000000
_cell_volume 3413.446395
_symmetry_space_group_name_H-M "A M M 2"
_symmetry_group_IT_number 38
_symmetry_cell_setting 'orthorhombic'
loop_
_space_group_symop_operation_xyz
x,y,z
-x,-y,z
-x,y,z
x,-y,z
x,1/2+y,1/2+z
-x,1/2-y,1/2+z
-x,1/2+y,1/2+z
x,1/2-y,1/2+z
loop_
_atom_site_type_symbol
_atom_site_label
_atom_site_fract_x
_atom_site_fract_y
_atom_site_fract_z
Si Si1 0.667958 0.235983 0.413490
Si Si2 0.157685 0.394570 0.111984
Si Si3 0.332583 0.246490 0.542788
Si Si4 0.330517 0.897496 0.123792
Si Si5 0.258332 0.101912 0.735889
Si Si6 0.158850 0.104518 0.858349
Si Si7 0.658071 0.804238 0.238571
Si Si8 0.165730 0.108730 0.336006
O O1 0.500000 0.230682 0.405031
O O2 0.698213 0.240940 0.478381
O O3 0.731547 0.324984 0.383634
O O4 0.748412 0.150876 0.386766
O O5 0.176079 0.500000 0.096361
O O6 0.263972 0.332480 0.078859
O O7 0.178244 0.390755 0.177922
O O8 0.000000 0.365935 0.098782
O O9 0.500000 0.240325 0.548830
O O10 0.285400 0.341131 0.570509
O O11 0.500000 0.902350 0.122136
O O12 0.297691 0.841162 0.178814
O O13 0.275964 0.000000 0.126359
O O14 0.169048 0.105876 0.791895
O O15 0.345585 0.194814 0.738339
O O16 0.325070 0.000000 0.735890
O O17 0.000000 0.128528 0.874439
O O18 0.187465 0.000000 0.875187
O O19 0.500000 0.837815 0.250387
O O20 0.765416 0.842496 0.283219
O O21 0.000000 0.129032 0.339923
O O22 0.182429 0.000000 0.332198
#
# Coordination Sequence:
#
# PCOD9358078 Si02
#       8
#     8   8   8   8   8   8   8   8
#     4  11  24  40  61  87 117 156 203 254 301 351
#     4  10  21  37  59  88 120 155 194 237 292 357
#     4  10  22  40  59  84 116 154 201 248 297 347
#     4   9  18  35  59  86 118 154 191 235 290 348
#     4  10  20  34  58  93 128 157 190 235 295 359
#     4  10  21  38  61  88 121 159 195 236 293 360
#     4  11  21  36  62  93 124 157 194 240 294 357
#     4  11  25  43  63  87 118 157 199 247 304 363
#
# _framework density 18.749379000000001
#
# number of rings (size 3 to 8) (size 9 to 14) (size 15 to 20)
#    0.000    1.750    2.500    1.500    0.000    6.250 
#    0.000    6.250    0.000    0.375    0.000    0.000 
#    0.000    0.000    0.000    0.000    0.000    0.000 
#
# Total GULP energy -178514.292687 kJ/mol
# GULP energy per Si atom -5578.571646 kJ/mol
# Density = 1.870670 g / cm^3
# Si number density = 18.749379 Si / 1000 Ang^3
#
#
#
# Elastic Constant Matrix: (Units=GPa)
#
#
# Indices 1 2 3 4 5 6 
#
# 1 72.4744 51.6048 48.6967 0.0000 0.0000 0.0000
# 2 51.6048 120.3673 59.9818 0.0000 0.0000 0.0000
# 3 48.6967 59.9818 121.5360 0.0000 0.0000 0.0000
# 4 0.0000 0.0000 0.0000 9.1195 0.0000 0.0000
# 5 0.0000 0.0000 0.0000 0.0000 -1.0060 0.0000
# 6 0.0000 0.0000 0.0000 0.0000 0.0000 21.4329
#
#
#
# Elastic Compliance Matrix: (Units=1/GPa)
#
#
# Indices 1 2 3 4 5 6 
#
# 1 0.022428 -0.006813 -0.005624 0.000000 0.000000 0.000000
# 2 -0.006813 0.013087 -0.003729 0.000000 0.000000 0.000000
# 3 -0.005624 -0.003729 0.012322 0.000000 0.000000 0.000000
# 4 0.000000 0.000000 0.000000 0.109655 0.000000 0.000000
# 5 0.000000 0.000000 0.000000 0.000000 -0.993990 0.000000
# 6 0.000000 0.000000 0.000000 0.000000 0.000000 0.046657
#
#
# Mechanical properties :
#
#
# Convention : Reuss Voigt Hill
#
# Bulk Modulus (GPa) = 64.49591 70.54936 67.52264
# Shear Modulus (GPa) = -6.64592 16.18224 4.76816
#
# Velocity S-wave (km/s) = -1.88476 2.94101 1.59644
# Velocity P-wave (km/s) = 5.45319 7.01726 6.28408
#
# Compressibility (1/GPa) = 0.01550486
#
# Stress axis : x y z
#
# Youngs Moduli (GPa) = 44.58738 76.41122 81.15667
#
# Poissons Ratio (x) = 0.52058 0.45642
# Poissons Ratio (y) = 0.30377 0.30264
# Poissons Ratio (z) = 0.25076 0.28495
#
# Static dielectric constant tensor:
#      x y z
#    x 1.642800 0.000000 0.000000 
#    y 0.000000 1.657460 0.000000 
#    z 0.000000 0.000000 1.637420 
# 
# From -- ./inp_files/22188.got.cif
#   From: 2010.05.17/outbox.cif.g08.bks.cpg/sg38_12_cif.got.tgz:22188.got - 2010.06.03 18:07:57.
