data_PCOD9358724
_publ_section_title
;
Structure prediction by ZEFSAII (Michael W. Deem and Ramdas Pophale) SiO2 
 PCOD9358724
Probable space group: A M M 2
;
_chemical_formula_sum "Si O2"
_cell_formula_units_Z 48
_cell_length_a 15.421093
_cell_length_b 8.692739
_cell_length_c 19.634809
_cell_angle_alpha 90.000000
_cell_angle_beta 90.000000
_cell_angle_gamma 90.000000
_cell_volume 2632.076316
_symmetry_space_group_name_H-M "A M M 2"
_symmetry_group_IT_number 38
_symmetry_cell_setting 'orthorhombic'
loop_
_space_group_symop_operation_xyz
x,y,z
-x,-y,z
-x,y,z
x,-y,z
x,1/2+y,1/2+z
-x,1/2-y,1/2+z
-x,1/2+y,1/2+z
x,1/2-y,1/2+z
loop_
_atom_site_type_symbol
_atom_site_label
_atom_site_fract_x
_atom_site_fract_y
_atom_site_fract_z
Si Si1 0.246729 0.684198 0.901430
Si Si2 0.401609 0.687257 0.154492
Si Si3 0.600875 0.185276 0.810589
Si Si4 0.100881 0.184137 0.804380
Si Si5 0.899000 0.683973 0.656519
Si Si6 0.245143 0.186222 0.558719
O O1 0.242786 0.500000 0.899746
O O2 0.332570 0.739388 0.862272
O O3 0.164344 0.750853 0.861369
O O4 0.247647 0.734617 0.980145
O O5 0.500000 0.737544 0.139049
O O6 0.402278 0.500000 0.153964
O O7 0.380059 0.732240 0.232259
O O8 0.330121 0.738374 0.100634
O O9 0.500000 0.222809 0.824332
O O10 0.609644 0.000000 0.814055
O O11 0.126386 0.248527 0.730201
O O12 0.000000 0.227032 0.816225
O O13 0.107017 0.000000 0.802800
O O14 0.892008 0.500000 0.658620
O O15 0.838021 0.750964 0.598347
O O16 0.000000 0.725033 0.645182
O O17 0.243182 0.000000 0.560611
#
# Coordination Sequence:
#
# PCOD9358724 Si02
#       6
#     8   8   8   8   8   8
#     4  11  23  35  51  80 115 148 183 227 274 319
#     4   8  15  31  55  78  99 130 176 223 263 309
#     4   9  18  34  57  81 104 138 186 234 277 325
#     4  10  21  38  60  81 103 139 185 228 273 329
#     4  10  21  37  58  83 109 137 173 222 276 326
#     4  10  21  35  53  79 110 146 183 218 263 320
#
# _framework density 18.236554000000002
#
# number of rings (size 3 to 8) (size 9 to 14) (size 15 to 20)
#    0.000    2.333    0.000    3.500    0.000    6.333 
#    0.000    5.000    0.000    1.500    0.000    0.000 
#    0.000    0.000    0.000    0.000    0.000    0.000 
#
# Total GULP energy -133997.197737 kJ/mol
# GULP energy per Si atom -5583.216572 kJ/mol
# Density = 1.819505 g / cm^3
# Si number density = 18.236554 Si / 1000 Ang^3
#
#
#
# Elastic Constant Matrix: (Units=GPa)
#
#
# Indices 1 2 3 4 5 6 
#
# 1 118.9855 35.1066 120.8138 0.0000 0.0000 0.0000
# 2 35.1066 22.5129 42.1189 0.0000 0.0000 0.0000
# 3 120.8138 42.1189 190.1857 0.0000 0.0000 0.0000
# 4 0.0000 0.0000 0.0000 22.5054 0.0000 0.0000
# 5 0.0000 0.0000 0.0000 0.0000 -16.3599 0.0000
# 6 0.0000 0.0000 0.0000 0.0000 0.0000 27.7407
#
#
#
# Elastic Compliance Matrix: (Units=1/GPa)
#
#
# Indices 1 2 3 4 5 6 
#
# 1 0.027063 -0.017141 -0.013396 0.000000 0.000000 0.000000
# 2 -0.017141 0.086699 -0.008312 0.000000 0.000000 0.000000
# 3 -0.013396 -0.008312 0.015608 0.000000 0.000000 0.000000
# 4 0.000000 0.000000 0.000000 0.044434 0.000000 0.000000
# 5 0.000000 0.000000 0.000000 0.000000 -0.061125 0.000000
# 6 0.000000 0.000000 0.000000 0.000000 0.000000 0.036048
#
#
# Mechanical properties :
#
#
# Convention : Reuss Voigt Hill
#
# Bulk Modulus (GPa) = 19.35226 80.86253 50.10739
# Shear Modulus (GPa) = 20.52136 15.68689 18.10413
#
# Velocity S-wave (km/s) = 3.35817 2.93608 3.15419
# Velocity P-wave (km/s) = 5.06668 7.47872 6.38759
#
# Compressibility (1/GPa) = 0.05167356
#
# Stress axis : x y z
#
# Youngs Moduli (GPa) = 36.95044 11.53418 64.06862
#
# Poissons Ratio (x) = 0.19771 0.85824
# Poissons Ratio (y) = 0.63336 0.53253
# Poissons Ratio (z) = 0.49498 0.09587
#
# Static dielectric constant tensor:
#      x y z
#    x 1.620820 0.000000 0.000000 
#    y 0.000000 1.616240 0.000000 
#    z 0.000000 0.000000 1.598910 
# 
# From -- ./inp_files/18148.got.cif
#   From: 2010.05.17/outbox.cif.g08.bks.cpg/sg38_10_cif.got.tgz:18148.got - 2010.06.03 18:07:57.
