data_PCOD9358838
_publ_section_title
;
Structure prediction by ZEFSAII (Michael W. Deem and Ramdas Pophale) SiO2 
 PCOD9358838
Probable space group: A M M 2
;
_chemical_formula_sum "Si O2"
_cell_formula_units_Z 64
_cell_length_a 11.804980
_cell_length_b 17.496189
_cell_length_c 15.244692
_cell_angle_alpha 90.000000
_cell_angle_beta 90.000000
_cell_angle_gamma 90.000000
_cell_volume 3148.671633
_symmetry_space_group_name_H-M "A M M 2"
_symmetry_group_IT_number 38
_symmetry_cell_setting 'orthorhombic'
loop_
_space_group_symop_operation_xyz
x,y,z
-x,-y,z
-x,y,z
x,-y,z
x,1/2+y,1/2+z
-x,1/2-y,1/2+z
-x,1/2+y,1/2+z
x,1/2-y,1/2+z
loop_
_atom_site_type_symbol
_atom_site_label
_atom_site_fract_x
_atom_site_fract_y
_atom_site_fract_z
Si Si1 0.786289 0.085362 0.870280
Si Si2 0.132593 0.178225 0.706164
Si Si3 0.870778 0.586906 0.857176
Si Si4 0.376797 0.238174 0.235994
Si Si5 0.625689 0.777582 0.933878
Si Si6 0.820655 0.301439 0.017747
Si Si7 0.294796 0.084970 0.190346
Si Si8 0.118280 0.126050 0.044608
O O1 0.844032 0.116850 0.782065
O O2 0.692843 0.145723 0.905819
O O3 0.741883 0.000000 0.857243
O O4 0.873663 0.087887 0.950086
O O5 0.249092 0.229917 0.714195
O O6 0.145112 0.153181 0.604946
O O7 0.000000 0.206821 0.717274
O O8 0.856409 0.500000 0.892760
O O9 0.786646 0.594120 0.775396
O O10 0.000000 0.594185 0.826019
O O11 0.852525 0.650695 0.931759
O O12 0.500000 0.277698 0.214431
O O13 0.377087 0.233032 0.341524
O O14 0.378730 0.155077 0.194376
O O15 0.500000 0.795830 0.963296
O O16 0.691000 0.725293 0.003719
O O17 0.876594 0.217537 0.028490
O O18 0.218964 0.097056 0.104484
O O19 0.343179 0.000000 0.191566
O O20 0.000000 0.107407 0.089340
#
# Coordination Sequence:
#
# PCOD9358838 Si02
#       8
#     8   8   8   8   8   8   8   8
#     4  10  23  41  60  91 129 168 214 269 327 381
#     4  11  23  39  62  93 127 172 219 263 315 377
#     4  10  21  36  56  86 125 164 202 252 317 381
#     4  10  21  41  63  89 124 165 209 259 314 376
#     4   9  20  40  65  91 121 165 213 263 321 385
#     4  11  21  37  60  90 122 161 213 266 311 374
#     4  11  22  37  58  88 122 159 201 253 317 384
#     4  11  22  36  58  87 123 165 209 258 316 382
#
# _framework density 20.326031
#
# number of rings (size 3 to 8) (size 9 to 14) (size 15 to 20)
#    0.000    1.625    2.500    2.250    0.000    4.250 
#    0.000    0.000    0.000    1.875    0.000    1.750 
#    0.000    0.000    0.000    0.000    0.000    0.000 
#
# Total GULP energy -178228.487639 kJ/mol
# GULP energy per Si atom -5569.640239 kJ/mol
# Density = 2.027977 g / cm^3
# Si number density = 20.326031 Si / 1000 Ang^3
#
#
#
# Elastic Constant Matrix: (Units=GPa)
#
#
# Indices 1 2 3 4 5 6 
#
# 1 138.2635 14.5228 15.9455 0.0000 0.0000 0.0000
# 2 14.5228 67.7544 24.6605 0.0000 0.0000 0.0000
# 3 15.9455 24.6605 96.6080 0.0000 0.0000 0.0000
# 4 0.0000 0.0000 0.0000 22.0708 0.0000 0.0000
# 5 0.0000 0.0000 0.0000 0.0000 -10.8073 0.0000
# 6 0.0000 0.0000 0.0000 0.0000 0.0000 8.4662
#
#
#
# Elastic Compliance Matrix: (Units=1/GPa)
#
#
# Indices 1 2 3 4 5 6 
#
# 1 0.007471 -0.001271 -0.000909 0.000000 0.000000 0.000000
# 2 -0.001271 0.016487 -0.003999 0.000000 0.000000 0.000000
# 3 -0.000909 -0.003999 0.011522 0.000000 0.000000 0.000000
# 4 0.000000 0.000000 0.000000 0.045309 0.000000 0.000000
# 5 0.000000 0.000000 0.000000 0.000000 -0.092530 0.000000
# 6 0.000000 0.000000 0.000000 0.000000 0.000000 0.118117
#
#
# Mechanical properties :
#
#
# Convention : Reuss Voigt Hill
#
# Bulk Modulus (GPa) = 43.24628 45.87594 44.56111
# Shear Modulus (GPa) = 39.54476 20.44575 29.99526
#
# Velocity S-wave (km/s) = 4.41559 3.17502 3.84566
# Velocity P-wave (km/s) = 6.87889 6.00500 6.45675
#
# Compressibility (1/GPa) = 0.02312338
#
# Stress axis : x y z
#
# Youngs Moduli (GPa) = 133.85400 60.65396 86.79158
#
# Poissons Ratio (x) = 0.07707 0.07887
# Poissons Ratio (y) = 0.17007 0.34706
# Poissons Ratio (z) = 0.12164 0.24254
#
# Static dielectric constant tensor:
#      x y z
#    x 1.807180 0.000000 0.000000 
#    y 0.000000 1.746260 0.000000 
#    z 0.000000 0.000000 1.719710 
# 
# From -- ./inp_files/13964.got.cif
#   From: 2010.05.17/outbox.cif.g08.bks.cpg/sg38_7_cif.got.tgz:13964.got - 2010.06.03 18:07:57.
