data_PCOD9358103
_publ_section_title
;
Structure prediction by ZEFSAII (Michael W. Deem and Ramdas Pophale) SiO2 
 PCOD9358103
Probable space group: A M M 2
;
_chemical_formula_sum "Si O2"
_cell_formula_units_Z 64
_cell_length_a 20.459905
_cell_length_b 8.583504
_cell_length_c 20.802746
_cell_angle_alpha 90.000000
_cell_angle_beta 90.000000
_cell_angle_gamma 90.000000
_cell_volume 3653.329915
_symmetry_space_group_name_H-M "A M M 2"
_symmetry_group_IT_number 38
_symmetry_cell_setting 'orthorhombic'
loop_
_space_group_symop_operation_xyz
x,y,z
-x,-y,z
-x,y,z
x,-y,z
x,1/2+y,1/2+z
-x,1/2-y,1/2+z
-x,1/2+y,1/2+z
x,1/2-y,1/2+z
loop_
_atom_site_type_symbol
_atom_site_label
_atom_site_fract_x
_atom_site_fract_y
_atom_site_fract_z
Si Si1 0.176985 0.689435 0.459030
Si Si2 0.424468 0.312025 0.854892
Si Si3 0.925062 0.311764 0.710853
Si Si4 0.324271 0.685150 0.102988
Si Si5 0.326520 0.313362 0.461457
Si Si6 0.424169 0.811976 0.207805
Si Si7 0.179322 0.188654 0.105085
Si Si8 0.924929 0.688387 0.352142
O O1 0.175438 0.500000 0.457775
O O2 0.251872 0.736510 0.445752
O O3 0.161325 0.736595 0.532230
O O4 0.125388 0.744471 0.406301
O O5 0.500000 0.266763 0.866984
O O6 0.421444 0.500000 0.857754
O O7 0.376157 0.242944 0.907340
O O8 0.408027 0.265984 0.781413
O O9 0.923965 0.500000 0.712217
O O10 0.873813 0.259148 0.657064
O O11 0.907794 0.249894 0.781461
O O12 0.000000 0.263403 0.696800
O O13 0.321871 0.500000 0.101028
O O14 0.375749 0.740639 0.156025
O O15 0.252023 0.750304 0.118475
O O16 0.342455 0.747984 0.032116
O O17 0.327306 0.500000 0.465173
O O18 0.500000 0.769062 0.195847
O O19 0.420130 0.000000 0.204488
O O20 0.181704 0.000000 0.106104
O O21 0.923152 0.500000 0.350831
O O22 0.000000 0.735209 0.365987
#
# Coordination Sequence:
#
# PCOD9358103 Si02
#       8
#     8   8   8   8   8   8   8   8
#     4   8  16  31  49  70  95 124 163 205 241 284
#     4   9  19  36  56  78 104 132 165 208 254 302
#     4   9  18  32  50  73 100 130 165 205 249 299
#     4  11  22  35  53  77 105 136 173 217 258 301
#     4  10  20  35  54  75 103 137 171 210 255 305
#     4   9  19  37  58  78 104 138 172 208 255 309
#     4   9  18  34  53  72  98 132 169 210 255 303
#     4   9  17  30  49  72  99 130 162 200 247 297
#
# _framework density 17.518265
#
# number of rings (size 3 to 8) (size 9 to 14) (size 15 to 20)
#    0.000    2.750    0.000    3.000    0.000    3.500 
#    0.000    9.375    0.000    0.000    0.000    3.500 
#    0.000    0.000    0.000    0.000    0.000    0.000 
#
# Total GULP energy -178451.163098 kJ/mol
# GULP energy per Si atom -5576.598847 kJ/mol
# Density = 1.747839 g / cm^3
# Si number density = 17.518265 Si / 1000 Ang^3
#
#
#
# Elastic Constant Matrix: (Units=GPa)
#
#
# Indices 1 2 3 4 5 6 
#
# 1 134.2470 34.4725 143.6637 0.0000 0.0000 0.0000
# 2 34.4725 25.6873 39.5019 0.0000 0.0000 0.0000
# 3 143.6637 39.5019 180.6227 0.0000 0.0000 0.0000
# 4 0.0000 0.0000 0.0000 27.7338 0.0000 0.0000
# 5 0.0000 0.0000 0.0000 0.0000 44.1886 0.0000
# 6 0.0000 0.0000 0.0000 0.0000 0.0000 19.6613
#
#
#
# Elastic Compliance Matrix: (Units=1/GPa)
#
#
# Indices 1 2 3 4 5 6 
#
# 1 0.051459 -0.009217 -0.038914 0.000000 0.000000 0.000000
# 2 -0.009217 0.060308 -0.005858 0.000000 0.000000 0.000000
# 3 -0.038914 -0.005858 0.037769 0.000000 0.000000 0.000000
# 4 0.000000 0.000000 0.000000 0.036057 0.000000 0.000000
# 5 0.000000 0.000000 0.000000 0.000000 0.022630 0.000000
# 6 0.000000 0.000000 0.000000 0.000000 0.000000 0.050861
#
#
# Mechanical properties :
#
#
# Convention : Reuss Voigt Hill
#
# Bulk Modulus (GPa) = 24.06285 86.20368 55.13326
# Shear Modulus (GPa) = 13.12627 26.51131 19.81879
#
# Velocity S-wave (km/s) = 2.74029 3.89440 3.36716
# Velocity P-wave (km/s) = 4.87626 8.33886 6.83061
#
# Compressibility (1/GPa) = 0.04155784
#
# Stress axis : x y z
#
# Youngs Moduli (GPa) = 19.43288 16.58159 26.47675
#
# Poissons Ratio (x) = 0.15283 1.03031
# Poissons Ratio (y) = 0.17911 0.15511
# Poissons Ratio (z) = 0.75621 0.09714
#
# Static dielectric constant tensor:
#      x y z
#    x 1.584430 0.000000 0.000000 
#    y 0.000000 1.598580 0.000000 
#    z 0.000000 0.000000 1.574990 
# 
# From -- ./inp_files/21414.got.cif
#   From: 2010.05.17/outbox.cif.g08.bks.cpg/sg38_11_cif.got.tgz:21414.got - 2010.06.03 18:07:57.
