data_PCOD9358252
_publ_section_title
;
Structure prediction by ZEFSAII (Michael W. Deem and Ramdas Pophale) SiO2 
 PCOD9358252
Probable space group: A M M 2
;
_chemical_formula_sum "Si O2"
_cell_formula_units_Z 48
_cell_length_a 14.528661
_cell_length_b 8.038303
_cell_length_c 20.868452
_cell_angle_alpha 90.000000
_cell_angle_beta 90.000000
_cell_angle_gamma 90.000000
_cell_volume 2437.138430
_symmetry_space_group_name_H-M "A M M 2"
_symmetry_group_IT_number 38
_symmetry_cell_setting 'orthorhombic'
loop_
_space_group_symop_operation_xyz
x,y,z
-x,-y,z
-x,y,z
x,-y,z
x,1/2+y,1/2+z
-x,1/2-y,1/2+z
-x,1/2+y,1/2+z
x,1/2-y,1/2+z
loop_
_atom_site_type_symbol
_atom_site_label
_atom_site_fract_x
_atom_site_fract_y
_atom_site_fract_z
Si Si1 0.701080 0.700916 0.664130
Si Si2 0.500000 0.303208 0.204227
Si Si3 0.692156 0.701899 0.913536
Si Si4 0.803501 0.301421 0.537007
Si Si5 0.804206 0.699405 0.790699
Si Si6 0.500000 0.200865 0.354191
Si Si7 0.000000 0.698351 0.332599
Si Si8 0.000000 0.203980 0.981746
O O1 0.706848 0.500000 0.663331
O O2 0.593410 0.742803 0.670046
O O3 0.756557 0.763825 0.602064
O O4 0.751409 0.763467 0.728436
O O5 0.500000 0.500000 0.202826
O O6 0.500000 0.249667 0.279291
O O7 0.693060 0.500000 0.916237
O O8 0.757938 0.760301 0.856062
O O9 0.590627 0.756091 0.892174
O O10 0.732971 0.766954 0.979419
O O11 0.813483 0.500000 0.544334
O O12 0.905496 0.239836 0.516447
O O13 0.793801 0.500000 0.790204
O O14 0.910361 0.742271 0.795338
O O15 0.500000 0.000000 0.353895
O O16 0.000000 0.500000 0.335467
O O17 0.000000 0.758587 0.406972
O O18 0.000000 0.000000 0.981515
#
# Coordination Sequence:
#
# PCOD9358252 Si02
#       8
#     8   4   8   8   8   4   4   4
#     4  10  22  41  63  85 117 158 197 241 291 353
#     4  12  24  37  60  89 119 153 191 245 300 352
#     4  10  20  35  59  86 115 150 189 241 291 340
#     4  10  21  38  61  86 116 153 194 239 288 349
#     4  10  20  36  59  86 113 150 199 241 282 347
#     4  10  20  39  62  85 115 155 201 239 286 348
#     4  11  21  34  57  87 123 154 186 247 301 342
#     4   9  18  34  55  83 113 146 188 235 291 340
#
# _framework density 19.695228
#
# number of rings (size 3 to 8) (size 9 to 14) (size 15 to 20)
#    0.000    1.833    3.333    1.000    0.000    3.333 
#    0.000    4.583    0.000    0.000    0.000    0.000 
#    0.000    0.000    0.000    0.000    0.000    0.000 
#
# Total GULP energy -133988.162242 kJ/mol
# GULP energy per Si atom -5582.840093 kJ/mol
# Density = 1.965040 g / cm^3
# Si number density = 19.695228 Si / 1000 Ang^3
#
#
#
# Elastic Constant Matrix: (Units=GPa)
#
#
# Indices 1 2 3 4 5 6 
#
# 1 125.8888 -6.5162 34.4692 0.0000 0.0000 0.0000
# 2 -6.5162 8.6961 4.3140 0.0000 0.0000 0.0000
# 3 34.4692 4.3140 109.9303 0.0000 0.0000 0.0000
# 4 0.0000 0.0000 0.0000 20.9901 0.0000 0.0000
# 5 0.0000 0.0000 0.0000 0.0000 29.6583 0.0000
# 6 0.0000 0.0000 0.0000 0.0000 0.0000 3.9462
#
#
#
# Elastic Compliance Matrix: (Units=1/GPa)
#
#
# Indices 1 2 3 4 5 6 
#
# 1 0.009275 0.008559 -0.003244 0.000000 0.000000 0.000000
# 2 0.008559 0.125176 -0.007596 0.000000 0.000000 0.000000
# 3 -0.003244 -0.007596 0.010412 0.000000 0.000000 0.000000
# 4 0.000000 0.000000 0.000000 0.047641 0.000000 0.000000
# 5 0.000000 0.000000 0.000000 0.000000 0.033717 0.000000
# 6 0.000000 0.000000 0.000000 0.000000 0.000000 0.253406
#
#
# Mechanical properties :
#
#
# Convention : Reuss Voigt Hill
#
# Bulk Modulus (GPa) = 7.12754 34.33881 20.73317
# Shear Modulus (GPa) = 9.41697 25.06882 17.24290
#
# Velocity S-wave (km/s) = 2.18900 3.57156 2.96207
# Velocity P-wave (km/s) = 3.16477 5.87205 4.71682
#
# Compressibility (1/GPa) = 0.14030093
#
# Stress axis : x y z
#
# Youngs Moduli (GPa) = 107.81911 7.98874 96.04337
#
# Poissons Ratio (x) = -0.06838 0.31157
# Poissons Ratio (y) = -0.92284 0.72956
# Poissons Ratio (z) = 0.34977 0.06068
#
# Static dielectric constant tensor:
#      x y z
#    x 1.710880 0.000000 0.000000 
#    y 0.000000 1.707840 0.000000 
#    z 0.000000 0.000000 1.672960 
# 
# From -- ./inp_files/18245.got.cif
#   From: 2010.05.17/outbox.cif.g08.bks.cpg/sg38_10_cif.got.tgz:18245.got - 2010.06.03 18:07:57.
