data_PCOD9358760
_publ_section_title
;
Structure prediction by ZEFSAII (Michael W. Deem and Ramdas Pophale) SiO2 
 PCOD9358760
Probable space group: A M M 2
;
_chemical_formula_sum "Si O2"
_cell_formula_units_Z 64
_cell_length_a 8.820262
_cell_length_b 14.247721
_cell_length_c 24.911807
_cell_angle_alpha 90.000000
_cell_angle_beta 90.000000
_cell_angle_gamma 90.000000
_cell_volume 3130.632709
_symmetry_space_group_name_H-M "A M M 2"
_symmetry_group_IT_number 38
_symmetry_cell_setting 'orthorhombic'
loop_
_space_group_symop_operation_xyz
x,y,z
-x,-y,z
-x,y,z
x,-y,z
x,1/2+y,1/2+z
-x,1/2-y,1/2+z
-x,1/2+y,1/2+z
x,1/2-y,1/2+z
loop_
_atom_site_type_symbol
_atom_site_label
_atom_site_fract_x
_atom_site_fract_y
_atom_site_fract_z
Si Si1 0.175653 0.385377 0.709730
Si Si2 0.679588 0.712906 0.043378
Si Si3 0.175966 0.386618 0.145636
Si Si4 0.674989 0.614644 0.257415
Si Si5 0.817516 0.392967 0.370981
Si Si6 0.182702 0.285503 0.932460
Si Si7 0.816175 0.108827 0.091163
Si Si8 0.184767 0.390499 0.824617
O O1 0.173462 0.500000 0.711557
O O2 0.239676 0.362968 0.651254
O O3 0.243476 0.354431 0.766708
O O4 0.000000 0.354826 0.708742
O O5 0.500000 0.713561 0.043162
O O6 0.738943 0.654354 0.094273
O O7 0.745885 0.817519 0.050867
O O8 0.742929 0.677737 0.986544
O O9 0.186061 0.500000 0.144587
O O10 0.242129 0.353894 0.202982
O O11 0.000000 0.359652 0.142234
O O12 0.500000 0.643208 0.256779
O O13 0.680084 0.500000 0.256370
O O14 0.753632 0.640303 0.313526
O O15 0.767894 0.500000 0.380463
O O16 0.776647 0.322199 0.418441
O O17 0.000000 0.391989 0.366430
O O18 0.231564 0.339695 0.878703
O O19 0.000000 0.292399 0.937528
O O20 0.000000 0.115043 0.090365
O O21 0.777603 0.000000 0.081452
O O22 0.222995 0.500000 0.828824
O O23 0.000000 0.383702 0.822093
#
# Coordination Sequence:
#
# PCOD9358760 Si02
#       8
#     8   8   8   8   8   8   8   8
#     4   7  11  23  47  80 110 132 161 207 264 320
#     4  12  26  40  54  77 112 151 190 234 286 342
#     4  10  21  39  63  86 109 142 186 235 283 334
#     4   9  17  31  54  85 118 146 173 213 273 342
#     4   9  18  33  53  78 109 144 182 226 273 321
#     4  10  21  36  53  75 102 139 192 238 268 313
#     4   9  18  35  60  86 112 144 182 225 272 326
#     4   8  14  27  50  79 106 128 158 210 269 317
#
# _framework density 20.443151
#
# number of rings (size 3 to 8) (size 9 to 14) (size 15 to 20)
#    0.000    2.750    0.000    3.375    0.000    5.000 
#    0.000    5.000    0.000    0.750    0.000    1.750 
#    0.000    0.000    0.000    0.000    0.000    0.000 
#
# Total GULP energy -178583.378280 kJ/mol
# GULP energy per Si atom -5580.730571 kJ/mol
# Density = 2.039662 g / cm^3
# Si number density = 20.443151 Si / 1000 Ang^3
#
#
#
# Elastic Constant Matrix: (Units=GPa)
#
#
# Indices 1 2 3 4 5 6 
#
# 1 34.9516 6.3203 21.1587 0.0000 0.0000 0.0000
# 2 6.3203 33.2275 9.7779 0.0000 0.0000 0.0000
# 3 21.1587 9.7779 104.7351 0.0000 0.0000 0.0000
# 4 0.0000 0.0000 0.0000 27.3761 0.0000 0.0000
# 5 0.0000 0.0000 0.0000 0.0000 0.9139 0.0000
# 6 0.0000 0.0000 0.0000 0.0000 0.0000 7.9867
#
#
#
# Elastic Compliance Matrix: (Units=1/GPa)
#
#
# Indices 1 2 3 4 5 6 
#
# 1 0.033230 -0.004468 -0.006296 0.000000 0.000000 0.000000
# 2 -0.004468 0.031546 -0.002042 0.000000 0.000000 0.000000
# 3 -0.006296 -0.002042 0.011011 0.000000 0.000000 0.000000
# 4 0.000000 0.000000 0.000000 0.036528 0.000000 0.000000
# 5 0.000000 0.000000 0.000000 0.000000 1.094155 0.000000
# 6 0.000000 0.000000 0.000000 0.000000 0.000000 0.125208
#
#
# Mechanical properties :
#
#
# Convention : Reuss Voigt Hill
#
# Bulk Modulus (GPa) = 19.93061 27.49198 23.71129
# Shear Modulus (GPa) = 3.63897 16.29917 9.96907
#
# Velocity S-wave (km/s) = 1.33563 2.82670 2.21067
# Velocity P-wave (km/s) = 3.48554 4.91232 4.25910
#
# Compressibility (1/GPa) = 0.05017409
#
# Stress axis : x y z
#
# Youngs Moduli (GPa) = 30.09292 31.69930 90.82214
#
# Poissons Ratio (x) = 0.14163 0.57183
# Poissons Ratio (y) = 0.13446 0.18550
# Poissons Ratio (z) = 0.18947 0.06475
#
# Static dielectric constant tensor:
#      x y z
#    x 1.686110 0.000000 0.000000 
#    y 0.000000 1.773710 0.000000 
#    z 0.000000 0.000000 1.723900 
# 
# From -- ./inp_files/22155.got.cif
#   From: 2010.05.17/outbox.cif.g08.bks.cpg/sg38_12_cif.got.tgz:22155.got - 2010.06.03 18:07:57.
