data_PCOD9358638
_publ_section_title
;
Structure prediction by ZEFSAII (Michael W. Deem and Ramdas Pophale) SiO2 
 PCOD9358638
Probable space group: A M M 2
;
_chemical_formula_sum "Si O2"
_cell_formula_units_Z 40
_cell_length_a 13.576917
_cell_length_b 28.609040
_cell_length_c 5.022193
_cell_angle_alpha 90.000000
_cell_angle_beta 90.000000
_cell_angle_gamma 90.000000
_cell_volume 1950.733070
_symmetry_space_group_name_H-M "A M M 2"
_symmetry_group_IT_number 38
_symmetry_cell_setting 'orthorhombic'
loop_
_space_group_symop_operation_xyz
x,y,z
-x,-y,z
-x,y,z
x,-y,z
x,1/2+y,1/2+z
-x,1/2-y,1/2+z
-x,1/2+y,1/2+z
x,1/2-y,1/2+z
loop_
_atom_site_type_symbol
_atom_site_label
_atom_site_fract_x
_atom_site_fract_y
_atom_site_fract_z
Si Si1 0.112555 0.420501 0.741630
Si Si2 0.762359 0.352274 0.462765
Si Si3 0.115580 0.282101 0.122294
Si Si4 0.775419 0.050701 0.760085
Si Si5 0.384128 0.219493 0.220254
O O1 0.151587 0.369034 0.664569
O O2 0.184815 0.323084 0.230317
O O3 0.133335 0.447767 0.467649
O O4 0.181485 0.441611 0.968125
O O5 0.720625 0.401570 0.347722
O O6 0.681987 0.322488 0.616666
O O7 0.132533 0.260734 0.830946
O O8 0.000000 0.295573 0.144131
O O9 0.000000 0.079154 0.321869
O O10 0.726108 0.000000 0.781324
O O11 0.500000 0.208190 0.197260
O O12 0.365007 0.262716 0.018172
#
# Coordination Sequence:
#
# PCOD9358638 Si02
#       5
#     8   8   8   8   8
#     4  10  22  35  53  79 111 151 193 232 275 326
#     4  10  23  36  59  80 112 149 185 232 278 341
#     4  10  21  33  48  73 106 142 178 215 260 323
#     4  10  23  37  54  80 111 151 195 238 278 325
#     4  10  22  39  63  92 117 142 182 232 286 347
#
# _framework density 20.505110999999999
#
# number of rings (size 3 to 8) (size 9 to 14) (size 15 to 20)
#    1.200    0.800    0.000    3.000    5.600    2.400 
#    0.000    0.000    0.000    0.600    0.000    0.000 
#    0.000    0.000    0.000    0.000    0.000    0.000 
#
# Total GULP energy -111646.166554 kJ/mol
# GULP energy per Si atom -5582.308328 kJ/mol
# Density = 2.045844 g / cm^3
# Si number density = 20.505111 Si / 1000 Ang^3
#
#
#
# Elastic Constant Matrix: (Units=GPa)
#
#
# Indices 1 2 3 4 5 6 
#
# 1 36.7633 21.7094 -8.3090 0.0000 0.0000 0.0000
# 2 21.7094 122.2906 0.4941 0.0000 0.0000 0.0000
# 3 -8.3090 0.4941 77.3605 0.0000 0.0000 0.0000
# 4 0.0000 0.0000 0.0000 7.6386 0.0000 0.0000
# 5 0.0000 0.0000 0.0000 0.0000 19.5024 0.0000
# 6 0.0000 0.0000 0.0000 0.0000 0.0000 4.0686
#
#
#
# Elastic Compliance Matrix: (Units=1/GPa)
#
#
# Indices 1 2 3 4 5 6 
#
# 1 0.031252 -0.005562 0.003392 0.000000 0.000000 0.000000
# 2 -0.005562 0.009167 -0.000656 0.000000 0.000000 0.000000
# 3 0.003392 -0.000656 0.013295 0.000000 0.000000 0.000000
# 4 0.000000 0.000000 0.000000 0.130914 0.000000 0.000000
# 5 0.000000 0.000000 0.000000 0.000000 0.051276 0.000000
# 6 0.000000 0.000000 0.000000 0.000000 0.000000 0.245782
#
#
# Mechanical properties :
#
#
# Convention : Reuss Voigt Hill
#
# Bulk Modulus (GPa) = 20.80583 29.35594 25.08088
# Shear Modulus (GPa) = 9.93328 21.07657 15.50492
#
# Velocity S-wave (km/s) = 2.20336 3.20952 2.75280
# Velocity P-wave (km/s) = 4.07943 5.29926 4.72884
#
# Compressibility (1/GPa) = 0.04806346
#
# Stress axis : x y z
#
# Youngs Moduli (GPa) = 31.99793 109.08438 75.21609
#
# Poissons Ratio (x) = 0.60669 -0.25515
# Poissons Ratio (y) = 0.17796 0.04933
# Poissons Ratio (z) = -0.10854 0.07155
#
# Static dielectric constant tensor:
#      x y z
#    x 1.709530 0.000000 0.000000 
#    y 0.000000 1.816550 0.000000 
#    z 0.000000 0.000000 1.743150 
# 
# From -- ./inp_files/1258.got.cif
#   From: 2010.05.17/outbox.cif.g08.bks.cpg/sg38_1_cif.got.tgz:1258.got - 2010.06.03 18:07:57.
