data_PCOD9358712
_publ_section_title
;
Structure prediction by ZEFSAII (Michael W. Deem and Ramdas Pophale) SiO2 
 PCOD9358712
Probable space group: A M M 2
;
_chemical_formula_sum "Si O2"
_cell_formula_units_Z 64
_cell_length_a 14.855428
_cell_length_b 7.636148
_cell_length_c 25.837692
_cell_angle_alpha 90.000000
_cell_angle_beta 90.000000
_cell_angle_gamma 90.000000
_cell_volume 2930.982482
_symmetry_space_group_name_H-M "A M M 2"
_symmetry_group_IT_number 38
_symmetry_cell_setting 'orthorhombic'
loop_
_space_group_symop_operation_xyz
x,y,z
-x,-y,z
-x,y,z
x,-y,z
x,1/2+y,1/2+z
-x,1/2-y,1/2+z
-x,1/2+y,1/2+z
x,1/2-y,1/2+z
loop_
_atom_site_type_symbol
_atom_site_label
_atom_site_fract_x
_atom_site_fract_y
_atom_site_fract_z
Si Si1 0.102964 0.289787 0.243410
Si Si2 0.390152 0.701498 0.642107
Si Si3 0.741670 0.298005 0.444099
Si Si4 0.237410 0.206004 0.829800
Si Si5 0.396310 0.712889 0.754986
Si Si6 0.395477 0.284844 0.529175
Si Si7 0.896719 0.294983 0.018186
Si Si8 0.896946 0.707958 0.630774
O O1 0.099487 0.500000 0.247315
O O2 0.162532 0.219869 0.290556
O O3 0.143367 0.250640 0.186618
O O4 0.000000 0.222719 0.245125
O O5 0.500000 0.696022 0.642011
O O6 0.357375 0.500000 0.642201
O O7 0.366300 0.778463 0.697923
O O8 0.365510 0.778124 0.586358
O O9 0.713760 0.500000 0.435770
O O10 0.755048 0.218030 0.387393
O O11 0.666967 0.220837 0.482718
O O12 0.833815 0.294345 0.476349
O O13 0.331018 0.223729 0.799585
O O14 0.215384 0.000000 0.835842
O O15 0.500000 0.764319 0.763325
O O16 0.393853 0.500000 0.753475
O O17 0.500000 0.239140 0.521423
O O18 0.391024 0.500000 0.531075
O O19 0.898578 0.500000 0.006172
O O20 0.858931 0.273346 0.076479
O O21 0.000000 0.228557 0.018195
O O22 0.900013 0.500000 0.626701
O O23 0.000000 0.778911 0.632920
#
# Coordination Sequence:
#
# PCOD9358712 Si02
#       8
#     8   8   8   8   8   8   8   8
#     4   9  18  34  53  72 101 141 178 214 264 324
#     4   7  11  23  45  72  98 123 157 203 254 307
#     4  10  21  35  52  77 106 138 182 227 260 301
#     4  10  22  36  50  74 106 140 180 224 269 313
#     4   9  18  33  53  76 102 134 172 216 268 323
#     4   8  14  27  49  76 104 132 164 208 261 311
#     4  10  21  37  56  78 107 142 174 209 260 317
#     4   9  17  31  54  83 108 130 165 214 264 315
#
# _framework density 21.835681999999998
#
# number of rings (size 3 to 8) (size 9 to 14) (size 15 to 20)
#    0.000    3.000    0.000    2.250    0.000    5.500 
#    0.000    3.750    0.000    1.875    0.000    1.750 
#    0.000    0.000    0.000    0.000    0.000    0.000 
#
# Total GULP energy -178512.882912 kJ/mol
# GULP energy per Si atom -5578.527591 kJ/mol
# Density = 2.178598 g / cm^3
# Si number density = 21.835682 Si / 1000 Ang^3
#
#
#
# Elastic Constant Matrix: (Units=GPa)
#
#
# Indices 1 2 3 4 5 6 
#
# 1 80.5702 -10.2505 62.8036 0.0000 0.0000 0.0000
# 2 -10.2505 44.7375 -3.8064 0.0000 0.0000 0.0000
# 3 62.8036 -3.8064 217.7312 0.0000 0.0000 0.0000
# 4 0.0000 0.0000 0.0000 -149.5196 0.0000 0.0000
# 5 0.0000 0.0000 0.0000 0.0000 34.1891 0.0000
# 6 0.0000 0.0000 0.0000 0.0000 0.0000 8.5722
#
#
#
# Elastic Compliance Matrix: (Units=1/GPa)
#
#
# Indices 1 2 3 4 5 6 
#
# 1 0.016507 0.003382 -0.004702 0.000000 0.000000 0.000000
# 2 0.003382 0.023079 -0.000572 0.000000 0.000000 0.000000
# 3 -0.004702 -0.000572 0.005939 0.000000 0.000000 0.000000
# 4 0.000000 0.000000 0.000000 -0.006688 0.000000 0.000000
# 5 0.000000 0.000000 0.000000 0.000000 0.029249 0.000000
# 6 0.000000 0.000000 0.000000 0.000000 0.000000 0.116656
#
#
# Mechanical properties :
#
#
# Convention : Reuss Voigt Hill
#
# Bulk Modulus (GPa) = 23.95738 48.94801 36.45269
# Shear Modulus (GPa) = 24.69865 -1.73218 11.48323
#
# Velocity S-wave (km/s) = 3.36685 -0.89163 2.29572
# Velocity P-wave (km/s) = 5.10977 4.62657 4.87416
#
# Compressibility (1/GPa) = 0.04174079
#
# Stress axis : x y z
#
# Youngs Moduli (GPa) = 60.57950 43.32963 168.37347
#
# Poissons Ratio (x) = -0.14655 0.79174
# Poissons Ratio (y) = -0.20489 0.09633
# Poissons Ratio (z) = 0.28486 0.02479
#
# Static dielectric constant tensor:
#      x y z
#    x 1.811920 0.000000 0.000000 
#    y 0.000000 1.815920 0.000000 
#    z 0.000000 0.000000 1.807800 
# 
# From -- ./inp_files/22959.got.cif
#   From: 2010.05.17/outbox.cif.g08.bks.cpg/sg38_12_cif.got.tgz:22959.got - 2010.06.03 18:07:57.
