data_PCOD9358778
_publ_section_title
;
Structure prediction by ZEFSAII (Michael W. Deem and Ramdas Pophale) SiO2 
 PCOD9358778
Probable space group: A M M 2
;
_chemical_formula_sum "Si O2"
_cell_formula_units_Z 56
_cell_length_a 7.604129
_cell_length_b 15.049269
_cell_length_c 22.919422
_cell_angle_alpha 90.000000
_cell_angle_beta 90.000000
_cell_angle_gamma 90.000000
_cell_volume 2622.820334
_symmetry_space_group_name_H-M "A M M 2"
_symmetry_group_IT_number 38
_symmetry_cell_setting 'orthorhombic'
loop_
_space_group_symop_operation_xyz
x,y,z
-x,-y,z
-x,y,z
x,-y,z
x,1/2+y,1/2+z
-x,1/2-y,1/2+z
-x,1/2+y,1/2+z
x,1/2-y,1/2+z
loop_
_atom_site_type_symbol
_atom_site_label
_atom_site_fract_x
_atom_site_fract_y
_atom_site_fract_z
Si Si1 0.212172 0.398098 0.155490
Si Si2 0.711705 0.400561 0.580410
Si Si3 0.707474 0.599966 0.931340
Si Si4 0.293685 0.098060 0.789858
Si Si5 0.283396 0.215101 0.322755
Si Si6 0.286264 0.601065 0.713271
Si Si7 0.792710 0.710249 0.045362
O O1 0.257718 0.500000 0.139029
O O2 0.280834 0.382251 0.220592
O O3 0.278143 0.330533 0.106238
O O4 0.000000 0.392779 0.159018
O O5 0.500000 0.403742 0.581898
O O6 0.772205 0.500000 0.563247
O O7 0.774071 0.382947 0.647017
O O8 0.760512 0.315453 0.542525
O O9 0.500000 0.591197 0.919828
O O10 0.780643 0.500000 0.936209
O O11 0.778424 0.656564 0.877062
O O12 0.725130 0.655143 0.990608
O O13 0.500000 0.092548 0.804228
O O14 0.221626 0.183156 0.823484
O O15 0.215454 0.000000 0.799634
O O16 0.500000 0.216183 0.322791
O O17 0.227242 0.169297 0.262233
O O18 0.500000 0.604199 0.712172
O O19 0.237629 0.500000 0.729331
O O20 0.000000 0.695488 0.046634
#
# Coordination Sequence:
#
# PCOD9358778 Si02
#       7
#     8   8   8   8   8   8   8
#     4   9  18  32  49  71 101 136 171 207 251 302
#     4   9  18  33  54  80 107 134 167 208 252 300
#     4  10  21  36  54  75  98 129 173 219 257 299
#     4   9  17  29  48  75 102 127 159 202 252 305
#     4   9  16  28  47  71 100 130 161 203 253 301
#     4   8  13  23  44  74 102 126 155 197 251 302
#     4  11  22  35  52  73 102 140 175 210 256 306
#
# _framework density 21.351061999999999
#
# number of rings (size 3 to 8) (size 9 to 14) (size 15 to 20)
#    0.000    2.714    0.000    3.000    0.000    5.143 
#    0.000    2.857    0.000    3.429    0.000    2.000 
#    0.000    0.000    0.000    0.000    0.000    0.000 
#
# Total GULP energy -156277.663880 kJ/mol
# GULP energy per Si atom -5581.345139 kJ/mol
# Density = 2.130247 g / cm^3
# Si number density = 21.351062 Si / 1000 Ang^3
#
#
#
# Elastic Constant Matrix: (Units=GPa)
#
#
# Indices 1 2 3 4 5 6 
#
# 1 44.5666 2.1177 -1.9271 0.0000 0.0000 0.0000
# 2 2.1177 198.3036 82.6279 0.0000 0.0000 0.0000
# 3 -1.9271 82.6279 52.1432 0.0000 0.0000 0.0000
# 4 0.0000 0.0000 0.0000 16.6811 0.0000 0.0000
# 5 0.0000 0.0000 0.0000 0.0000 -296.4014 0.0000
# 6 0.0000 0.0000 0.0000 0.0000 0.0000 -0.4006
#
#
#
# Elastic Compliance Matrix: (Units=1/GPa)
#
#
# Indices 1 2 3 4 5 6 
#
# 1 0.022677 -0.001741 0.003597 0.000000 0.000000 0.000000
# 2 -0.001741 0.014977 -0.023798 0.000000 0.000000 0.000000
# 3 0.003597 -0.023798 0.057022 0.000000 0.000000 0.000000
# 4 0.000000 0.000000 0.000000 0.059948 0.000000 0.000000
# 5 0.000000 0.000000 0.000000 0.000000 -0.003374 0.000000
# 6 0.000000 0.000000 0.000000 0.000000 0.000000 -2.496302
#
#
# Mechanical properties :
#
#
# Convention : Reuss Voigt Hill
#
# Bulk Modulus (GPa) = 19.68833 51.18337 35.43585
# Shear Modulus (GPa) = -2.18891 -41.87786 -22.03339
#
# Velocity S-wave (km/s) = -1.01362 -4.43357 -3.21589
# Velocity P-wave (km/s) = 2.80559 1.47796 1.68626
#
# Compressibility (1/GPa) = 0.05079152
#
# Stress axis : x y z
#
# Youngs Moduli (GPa) = 44.09835 66.76750 17.53713
#
# Poissons Ratio (x) = 0.11623 -0.06307
# Poissons Ratio (y) = 0.07676 0.41735
# Poissons Ratio (z) = -0.15860 1.58893
#
# Static dielectric constant tensor:
#      x y z
#    x 1.793540 0.000000 0.000000 
#    y 0.000000 1.799620 0.000000 
#    z 0.000000 0.000000 1.735290 
# 
# From -- ./inp_files/19746.got.cif
#   From: 2010.05.17/outbox.cif.g08.bks.cpg/sg38_10_cif.got.tgz:19746.got - 2010.06.03 18:07:57.
