data_PCOD9358220
_publ_section_title
;
Structure prediction by ZEFSAII (Michael W. Deem and Ramdas Pophale) SiO2 
 PCOD9358220
Probable space group: A M M 2
;
_chemical_formula_sum "Si O2"
_cell_formula_units_Z 44
_cell_length_a 8.570801
_cell_length_b 7.319876
_cell_length_c 30.615875
_cell_angle_alpha 90.000000
_cell_angle_beta 90.000000
_cell_angle_gamma 90.000000
_cell_volume 1920.754290
_symmetry_space_group_name_H-M "A M M 2"
_symmetry_group_IT_number 38
_symmetry_cell_setting 'orthorhombic'
loop_
_space_group_symop_operation_xyz
x,y,z
-x,-y,z
-x,y,z
x,-y,z
x,1/2+y,1/2+z
-x,1/2-y,1/2+z
-x,1/2+y,1/2+z
x,1/2-y,1/2+z
loop_
_atom_site_type_symbol
_atom_site_label
_atom_site_fract_x
_atom_site_fract_y
_atom_site_fract_z
Si Si1 0.321463 0.708127 0.675390
Si Si2 0.822230 0.779150 0.766071
Si Si3 0.680102 0.722772 0.357875
Si Si4 0.202603 0.500000 0.111816
Si Si5 0.682654 0.282296 0.541722
Si Si6 0.178112 0.778154 0.949683
O O1 0.500000 0.770247 0.666471
O O2 0.307751 0.500000 0.660283
O O3 0.286943 0.715250 0.726793
O O4 0.208471 0.841952 0.649941
O O5 0.766950 0.718876 0.813887
O O6 0.000000 0.721902 0.757903
O O7 0.817377 0.000000 0.765856
O O8 0.500000 0.776777 0.356213
O O9 0.684864 0.500000 0.358164
O O10 0.757019 0.784208 0.403101
O O11 0.217773 0.340238 0.074211
O O12 0.500000 0.248300 0.551866
O O13 0.711489 0.500000 0.546330
O O14 0.719288 0.230360 0.491701
O O15 0.000000 0.719521 0.956096
O O16 0.178406 0.000000 0.948098
#
# Coordination Sequence:
#
# PCOD9358220 Si02
#       6
#     8   8   8   4   8   8
#     4  11  23  39  62  90 120 159 207 257 312 370
#     4  10  20  35  57  87 123 164 206 250 307 371
#     4   9  16  28  53  88 122 158 202 250 301 361
#     4  12  23  40  65  90 121 160 207 264 313 360
#     4  10  20  35  58  87 118 156 203 252 305 362
#     4   9  17  31  52  82 121 161 200 246 301 363
#
# _framework density 22.907667
#
# number of rings (size 3 to 8) (size 9 to 14) (size 15 to 20)
#    0.000    2.000    0.909    3.818    0.000    6.909 
#    0.000    2.273    2.000    2.182    0.000    0.000 
#    0.000    0.000    0.000    0.000    0.000    0.000 
#
# Total GULP energy -122559.571219 kJ/mol
# GULP energy per Si atom -5570.889601 kJ/mol
# Density = 2.285553 g / cm^3
# Si number density = 22.907667 Si / 1000 Ang^3
#
#
#
# Elastic Constant Matrix: (Units=GPa)
#
#
# Indices 1 2 3 4 5 6 
#
# 1 51.7805 5.7096 3.6150 0.0000 0.0000 0.0000
# 2 5.7096 113.7662 19.9363 0.0000 0.0000 0.0000
# 3 3.6150 19.9363 155.3827 0.0000 0.0000 0.0000
# 4 0.0000 0.0000 0.0000 -19.1643 0.0000 0.0000
# 5 0.0000 0.0000 0.0000 0.0000 -474.1096 0.0000
# 6 0.0000 0.0000 0.0000 0.0000 0.0000 -13.0017
#
#
#
# Elastic Compliance Matrix: (Units=1/GPa)
#
#
# Indices 1 2 3 4 5 6 
#
# 1 0.019437 -0.000917 -0.000335 0.000000 0.000000 0.000000
# 2 -0.000917 0.009035 -0.001138 0.000000 0.000000 0.000000
# 3 -0.000335 -0.001138 0.006590 0.000000 0.000000 0.000000
# 4 0.000000 0.000000 0.000000 -0.052180 0.000000 0.000000
# 5 0.000000 0.000000 0.000000 0.000000 -0.002109 0.000000
# 6 0.000000 0.000000 0.000000 0.000000 0.000000 -0.076913
#
#
# Mechanical properties :
#
#
# Convention : Reuss Voigt Hill
#
# Bulk Modulus (GPa) = 33.02189 42.16123 37.59156
# Shear Modulus (GPa) = -61.52508 -81.81057 -71.66782
#
# Velocity S-wave (km/s) = -5.18808 -5.98253 -5.59941
# Velocity P-wave (km/s) = 4.63052 5.41074 5.03576
#
# Compressibility (1/GPa) = 0.03028294
#
# Stress axis : x y z
#
# Youngs Moduli (GPa) = 51.44891 110.67596 151.75628
#
# Poissons Ratio (x) = 0.10147 0.05077
# Poissons Ratio (y) = 0.04717 0.17269
# Poissons Ratio (z) = 0.01721 0.12594
#
# Static dielectric constant tensor:
#      x y z
#    x 1.859480 0.000000 0.000000 
#    y 0.000000 1.887870 0.000000 
#    z 0.000000 0.000000 1.796380 
# 
# From -- ./inp_files/24058.got.cif
#   From: 2010.05.17/outbox.cif.g08.bks.cpg/sg38_13_cif.got.tgz:24058.got - 2010.06.03 18:07:57.
