data_PCOD9358090
_publ_section_title
;
Structure prediction by ZEFSAII (Michael W. Deem and Ramdas Pophale) SiO2 
 PCOD9358090
Probable space group: A M M 2
;
_chemical_formula_sum "Si O2"
_cell_formula_units_Z 64
_cell_length_a 8.802218
_cell_length_b 23.594037
_cell_length_c 19.487524
_cell_angle_alpha 90.000000
_cell_angle_beta 90.000000
_cell_angle_gamma 90.000000
_cell_volume 4047.166201
_symmetry_space_group_name_H-M "A M M 2"
_symmetry_group_IT_number 38
_symmetry_cell_setting 'orthorhombic'
loop_
_space_group_symop_operation_xyz
x,y,z
-x,-y,z
-x,y,z
x,-y,z
x,1/2+y,1/2+z
-x,1/2-y,1/2+z
-x,1/2+y,1/2+z
x,1/2-y,1/2+z
loop_
_atom_site_type_symbol
_atom_site_label
_atom_site_fract_x
_atom_site_fract_y
_atom_site_fract_z
Si Si1 0.319144 0.159034 0.689140
Si Si2 0.682210 0.229236 0.556891
Si Si3 0.180962 0.834407 0.140218
Si Si4 0.181131 0.251692 0.913311
Si Si5 0.318861 0.125837 0.912514
Si Si6 0.681992 0.565986 0.557510
Si Si7 0.681763 0.275803 0.769147
Si Si8 0.819345 0.565920 0.280014
O O1 0.500000 0.148785 0.693301
O O2 0.282845 0.180514 0.612575
O O3 0.285440 0.212835 0.738604
O O4 0.230888 0.104930 0.716548
O O5 0.500000 0.234728 0.552070
O O6 0.747434 0.287315 0.589158
O O7 0.753590 0.220760 0.482571
O O8 0.233543 0.895077 0.112487
O O9 0.245969 0.819184 0.215030
O O10 0.000000 0.829204 0.139539
O O11 0.236392 0.186306 0.914122
O O12 0.249240 0.279065 0.844605
O O13 0.000000 0.253864 0.912429
O O14 0.500000 0.135688 0.908452
O O15 0.264611 0.090713 0.846754
O O16 0.285707 0.091264 0.981960
O O17 0.500000 0.570827 0.567904
O O18 0.723594 0.500000 0.560721
O O19 0.500000 0.282191 0.770302
O O20 0.780957 0.500000 0.270188
O O21 0.000000 0.570748 0.290315
#
# Coordination Sequence:
#
# PCOD9358090 Si02
#       8
#     8   8   8   8   8   8   8   8
#     4   9  19  34  53  73  95 131 175 214 252 299
#     4  10  20  35  53  73 101 135 172 210 256 312
#     4  11  21  33  51  76 103 134 171 217 263 302
#     4  12  22  32  51  80 107 135 169 210 260 311
#     4  11  21  34  51  71 101 141 181 214 247 297
#     4  10  21  36  53  72  99 140 184 219 254 303
#     4  10  20  35  54  74 101 136 171 210 257 310
#     4  11  23  35  49  72 104 139 175 217 260 300
#
# _framework density 15.813534000000001
#
# number of rings (size 3 to 8) (size 9 to 14) (size 15 to 20)
#    0.000    1.500    2.500    4.875    0.000    4.750 
#    0.000    0.000    0.000    0.000    0.000    0.875 
#    0.000    3.000    0.000    0.000    0.000    0.000 
#
# Total GULP energy -178762.034694 kJ/mol
# GULP energy per Si atom -5586.313584 kJ/mol
# Density = 1.577754 g / cm^3
# Si number density = 15.813534 Si / 1000 Ang^3
#
#
#
# Elastic Constant Matrix: (Units=GPa)
#
#
# Indices 1 2 3 4 5 6 
#
# 1 79.4387 42.6950 61.2439 0.0000 0.0000 0.0000
# 2 42.6950 69.2858 51.2458 0.0000 0.0000 0.0000
# 3 61.2439 51.2458 143.0197 0.0000 0.0000 0.0000
# 4 0.0000 0.0000 0.0000 18.1909 0.0000 0.0000
# 5 0.0000 0.0000 0.0000 0.0000 17.4306 0.0000
# 6 0.0000 0.0000 0.0000 0.0000 0.0000 22.0933
#
#
#
# Elastic Compliance Matrix: (Units=1/GPa)
#
#
# Indices 1 2 3 4 5 6 
#
# 1 0.022343 -0.009104 -0.006305 0.000000 0.000000 0.000000
# 2 -0.009104 0.023347 -0.004467 0.000000 0.000000 0.000000
# 3 -0.006305 -0.004467 0.011293 0.000000 0.000000 0.000000
# 4 0.000000 0.000000 0.000000 0.054973 0.000000 0.000000
# 5 0.000000 0.000000 0.000000 0.000000 0.057370 0.000000
# 6 0.000000 0.000000 0.000000 0.000000 0.000000 0.045263
#
#
# Mechanical properties :
#
#
# Convention : Reuss Voigt Hill
#
# Bulk Modulus (GPa) = 58.04081 66.90148 62.47115
# Shear Modulus (GPa) = 19.22454 20.64691 19.93573
#
# Velocity S-wave (km/s) = 3.49047 3.61730 3.55445
# Velocity P-wave (km/s) = 7.28200 7.73594 7.51240
#
# Compressibility (1/GPa) = 0.01722926
#
# Stress axis : x y z
#
# Youngs Moduli (GPa) = 44.75736 42.83207 88.55277
#
# Poissons Ratio (x) = 0.38995 0.55836
# Poissons Ratio (y) = 0.40748 0.39556
# Poissons Ratio (z) = 0.28221 0.19133
#
# Static dielectric constant tensor:
#      x y z
#    x 1.525380 0.000000 0.000000 
#    y 0.000000 1.504640 0.000000 
#    z 0.000000 0.000000 1.528970 
# 
# From -- ./inp_files/17236.got.cif
#   From: 2010.05.17/outbox.cif.g08.bks.cpg/sg38_9_cif.got.tgz:17236.got - 2010.06.03 18:07:57.
