data_PCOD9358684
_publ_section_title
;
Structure prediction by ZEFSAII (Michael W. Deem and Ramdas Pophale) SiO2 
 PCOD9358684
Probable space group: A M M 2
;
_chemical_formula_sum "Si O2"
_cell_formula_units_Z 64
_cell_length_a 10.358195
_cell_length_b 7.614591
_cell_length_c 41.659752
_cell_angle_alpha 90.000000
_cell_angle_beta 90.000000
_cell_angle_gamma 90.000000
_cell_volume 3285.847051
_symmetry_space_group_name_H-M "A M M 2"
_symmetry_group_IT_number 38
_symmetry_cell_setting 'orthorhombic'
loop_
_space_group_symop_operation_xyz
x,y,z
-x,-y,z
-x,y,z
x,-y,z
x,1/2+y,1/2+z
-x,1/2-y,1/2+z
-x,1/2+y,1/2+z
x,1/2-y,1/2+z
loop_
_atom_site_type_symbol
_atom_site_label
_atom_site_fract_x
_atom_site_fract_y
_atom_site_fract_z
Si Si1 0.146521 0.710887 0.438540
Si Si2 0.645090 0.710695 0.136473
Si Si3 0.146569 0.210977 0.511801
Si Si4 0.647011 0.785319 0.813467
Si Si5 0.854418 0.792144 0.762560
Si Si6 0.352444 0.785372 0.563731
Si Si7 0.854624 0.291740 0.690226
Si Si8 0.352793 0.785576 0.886750
O O1 0.141751 0.500000 0.435224
O O2 0.184859 0.749504 0.475189
O O3 0.248980 0.777093 0.412595
O O4 0.000000 0.777853 0.433805
O O5 0.500000 0.774497 0.144675
O O6 0.638224 0.500000 0.134890
O O7 0.677089 0.771166 0.100267
O O8 0.752381 0.752471 0.162627
O O9 0.248777 0.277063 0.537830
O O10 0.000000 0.277630 0.516622
O O11 0.141983 0.000000 0.514946
O O12 0.500000 0.730498 0.806241
O O13 0.750566 0.720964 0.787663
O O14 0.677896 0.733716 0.850110
O O15 0.646933 0.000000 0.812853
O O16 0.814016 0.772467 0.725496
O O17 0.000000 0.718728 0.765671
O O18 0.863039 0.000000 0.768908
O O19 0.500000 0.733388 0.556303
O O20 0.350259 0.000000 0.563386
O O21 0.863632 0.500000 0.692558
O O22 0.000000 0.221987 0.683556
O O23 0.500000 0.731136 0.893997
O O24 0.352127 0.000000 0.887305
#
# Coordination Sequence:
#
# PCOD9358684 Si02
#       8
#     8   8   8   8   8   8   8   8
#     4   9  17  28  42  62  88 116 146 181 219 258
#     4   9  18  33  53  75  96 119 152 195 238 279
#     4   9  17  29  45  65  89 117 148 180 216 261
#     4   8  14  25  42  65  90 113 141 182 228 268
#     4   9  17  29  46  68  91 115 148 190 230 268
#     4   8  15  29  48  69  91 114 144 184 226 266
#     4  10  21  35  49  68  97 130 160 190 228 276
#     4   8  14  25  41  62  88 115 143 179 223 267
#
# _framework density 19.477473
#
# number of rings (size 3 to 8) (size 9 to 14) (size 15 to 20)
#    0.000    3.250    0.000    1.875    0.000    3.000 
#    0.000    5.625    0.000    3.000    0.000    5.250 
#    0.000    0.000    0.000    0.000    0.000    0.000 
#
# Total GULP energy -178390.977761 kJ/mol
# GULP energy per Si atom -5574.718055 kJ/mol
# Density = 1.943314 g / cm^3
# Si number density = 19.477473 Si / 1000 Ang^3
#
#
#
# Elastic Constant Matrix: (Units=GPa)
#
#
# Indices 1 2 3 4 5 6 
#
# 1 151.5274 4.8484 151.1979 0.0000 0.0000 0.0000
# 2 4.8484 38.6411 0.6889 0.0000 0.0000 0.0000
# 3 151.1979 0.6889 180.4487 0.0000 0.0000 0.0000
# 4 0.0000 0.0000 0.0000 7.6426 0.0000 0.0000
# 5 0.0000 0.0000 0.0000 0.0000 185.0831 0.0000
# 6 0.0000 0.0000 0.0000 0.0000 0.0000 4.3808
#
#
#
# Elastic Compliance Matrix: (Units=1/GPa)
#
#
# Indices 1 2 3 4 5 6 
#
# 1 0.041040 -0.004537 -0.034370 0.000000 0.000000 0.000000
# 2 -0.004537 0.026382 0.003701 0.000000 0.000000 0.000000
# 3 -0.034370 0.003701 0.034326 0.000000 0.000000 0.000000
# 4 0.000000 0.000000 0.000000 0.130846 0.000000 0.000000
# 5 0.000000 0.000000 0.000000 0.000000 0.005403 0.000000
# 6 0.000000 0.000000 0.000000 0.000000 0.000000 0.228271
#
#
# Mechanical properties :
#
#
# Convention : Reuss Voigt Hill
#
# Bulk Modulus (GPa) = 31.91185 76.00973 53.96079
# Shear Modulus (GPa) = 9.13866 53.68009 31.40938
#
# Velocity S-wave (km/s) = 2.16843 5.25547 4.02008
# Velocity P-wave (km/s) = 4.76330 8.71411 7.02228
#
# Compressibility (1/GPa) = 0.03133632
#
# Stress axis : x y z
#
# Youngs Moduli (GPa) = 24.36662 37.90403 29.13234
#
# Poissons Ratio (x) = 0.17196 1.00127
# Poissons Ratio (y) = 0.11054 -0.10781
# Poissons Ratio (z) = 0.83748 -0.14027
#
# Static dielectric constant tensor:
#      x y z
#    x 0.808160 0.000000 0.000000 
#    y 0.000000 1.766410 0.000000 
#    z 0.000000 0.000000 1.651540 
# 
# From -- ./inp_files/24936.got.cif
#   From: 2010.05.17/outbox.cif.g08.bks.cpg/sg38_13_cif.got.tgz:24936.got - 2010.06.03 18:07:57.
