data_PCOD9358977
_publ_section_title
;
Structure prediction by ZEFSAII (Michael W. Deem and Ramdas Pophale) SiO2 
 PCOD9358977
Probable space group: A M M 2
;
_chemical_formula_sum "Si O2"
_cell_formula_units_Z 48
_cell_length_a 7.972599
_cell_length_b 17.661123
_cell_length_c 17.178557
_cell_angle_alpha 90.000000
_cell_angle_beta 90.000000
_cell_angle_gamma 90.000000
_cell_volume 2418.827604
_symmetry_space_group_name_H-M "A M M 2"
_symmetry_group_IT_number 38
_symmetry_cell_setting 'orthorhombic'
loop_
_space_group_symop_operation_xyz
x,y,z
-x,-y,z
-x,y,z
x,-y,z
x,1/2+y,1/2+z
-x,1/2-y,1/2+z
-x,1/2+y,1/2+z
x,1/2-y,1/2+z
loop_
_atom_site_type_symbol
_atom_site_label
_atom_site_fract_x
_atom_site_fract_y
_atom_site_fract_z
Si Si1 0.702311 0.649814 0.662140
Si Si2 0.797654 0.183343 0.630256
Si Si3 0.202706 0.000000 0.893076
Si Si4 0.201354 0.585791 0.984844
Si Si5 0.700231 0.183022 0.336498
Si Si6 0.702717 0.500000 0.573452
Si Si7 0.797810 0.650106 0.304848
O O1 0.500000 0.646289 0.664494
O O2 0.750555 0.728737 0.621878
O O3 0.763473 0.655478 0.751611
O O4 0.763703 0.575773 0.617039
O O5 0.734220 0.132159 0.559580
O O6 0.737138 0.155833 0.715320
O O7 0.000000 0.178971 0.631190
O O8 0.263817 0.075971 0.849805
O O9 0.000000 0.000000 0.888122
O O10 0.249608 0.000000 0.983314
O O11 0.266743 0.500000 0.981855
O O12 0.237861 0.631370 0.906411
O O13 0.000000 0.581710 0.992872
O O14 0.500000 0.179207 0.335048
O O15 0.750872 0.270746 0.345090
O O16 0.500000 0.500000 0.578053
O O17 0.000000 0.646220 0.302471
#
# Coordination Sequence:
#
# PCOD9358977 Si02
#       7
#     8   8   4   8   8   4   8
#     4   9  20  38  58  79 107 145 185 225 273 325
#     4   9  19  36  59  82 108 144 182 222 272 327
#     4  10  22  36  56  85 112 142 182 227 270 324
#     4  10  22  37  56  84 115 144 180 225 273 324
#     4  10  21  37  59  82 109 146 186 225 273 327
#     4  10  22  38  56  79 110 146 182 225 274 324
#     4   9  19  37  59  82 111 144 182 226 274 324
#
# _framework density 19.844324
#
# number of rings (size 3 to 8) (size 9 to 14) (size 15 to 20)
#    0.000    2.500    0.000    0.500    4.667    3.000 
#    0.000    0.000    0.000    0.000    0.000    0.000 
#    0.000    0.000    0.000    0.000    0.000    0.000 
#
# Total GULP energy -133981.863079 kJ/mol
# GULP energy per Si atom -5582.577628 kJ/mol
# Density = 1.979916 g / cm^3
# Si number density = 19.844324 Si / 1000 Ang^3
#
#
#
# Elastic Constant Matrix: (Units=GPa)
#
#
# Indices 1 2 3 4 5 6 
#
# 1 15.2071 9.9190 5.8790 0.0000 0.0000 0.0000
# 2 9.9190 231.0249 141.3459 0.0000 0.0000 0.0000
# 3 5.8790 141.3459 132.1030 0.0000 0.0000 0.0000
# 4 0.0000 0.0000 0.0000 32.2831 0.0000 0.0000
# 5 0.0000 0.0000 0.0000 0.0000 21.0692 0.0000
# 6 0.0000 0.0000 0.0000 0.0000 0.0000 -42.2695
#
#
#
# Elastic Compliance Matrix: (Units=1/GPa)
#
#
# Indices 1 2 3 4 5 6 
#
# 1 0.067657 -0.003077 0.000281 0.000000 0.000000 0.000000
# 2 -0.003077 0.012673 -0.013423 0.000000 0.000000 0.000000
# 3 0.000281 -0.013423 0.021919 0.000000 0.000000 0.000000
# 4 0.000000 0.000000 0.000000 0.030976 0.000000 0.000000
# 5 0.000000 0.000000 0.000000 0.000000 0.047463 0.000000
# 6 0.000000 0.000000 0.000000 0.000000 0.000000 -0.023658
#
#
# Mechanical properties :
#
#
# Convention : Reuss Voigt Hill
#
# Bulk Modulus (GPa) = 14.32407 76.95809 45.64108
# Shear Modulus (GPa) = 23.50312 16.96262 20.23287
#
# Velocity S-wave (km/s) = 3.44521 2.92684 3.19655
# Velocity P-wave (km/s) = 4.80207 7.09133 6.05586
#
# Compressibility (1/GPa) = 0.06981254
#
# Stress axis : x y z
#
# Youngs Moduli (GPa) = 14.78040 78.90846 45.62222
#
# Poissons Ratio (x) = 0.24279 -0.01283
# Poissons Ratio (y) = 0.04548 0.61237
# Poissons Ratio (z) = -0.00416 1.05916
#
# Static dielectric constant tensor:
#      x y z
#    x 1.715350 0.000000 0.000000 
#    y 0.000000 1.676940 0.000000 
#    z 0.000000 0.000000 1.684180 
# 
# From -- ./inp_files/12053.got.cif
#   From: 2010.05.17/outbox.cif.g08.bks.cpg/sg38_7_cif.got.tgz:12053.got - 2010.06.03 18:07:57.
