data_PCOD9358600
_publ_section_title
;
Structure prediction by ZEFSAII (Michael W. Deem and Ramdas Pophale) SiO2 
 PCOD9358600
Probable space group: A M M 2
;
_chemical_formula_sum "Si O2"
_cell_formula_units_Z 56
_cell_length_a 21.545064
_cell_length_b 7.699753
_cell_length_c 16.109293
_cell_angle_alpha 90.000000
_cell_angle_beta 90.000000
_cell_angle_gamma 90.000000
_cell_volume 2672.397537
_symmetry_space_group_name_H-M "A M M 2"
_symmetry_group_IT_number 38
_symmetry_cell_setting 'orthorhombic'
loop_
_space_group_symop_operation_xyz
x,y,z
-x,-y,z
-x,y,z
x,-y,z
x,1/2+y,1/2+z
-x,1/2-y,1/2+z
-x,1/2+y,1/2+z
x,1/2-y,1/2+z
loop_
_atom_site_type_symbol
_atom_site_label
_atom_site_fract_x
_atom_site_fract_y
_atom_site_fract_z
Si Si1 0.849244 0.210948 0.470690
Si Si2 0.363563 0.703633 0.622977
Si Si3 0.500000 0.209308 0.569535
Si Si4 0.705252 0.704367 0.461211
Si Si5 0.929058 0.708600 0.813755
Si Si6 0.071006 0.791439 0.627520
Si Si7 0.500000 0.212633 0.376006
Si Si8 0.370658 0.295243 0.802016
O O1 0.778307 0.268095 0.469329
O O2 0.885717 0.271148 0.388285
O O3 0.885291 0.271308 0.553336
O O4 0.849845 0.000000 0.470672
O O5 0.346174 0.500000 0.623195
O O6 0.437306 0.722123 0.610735
O O7 0.329684 0.779956 0.542202
O O8 0.348607 0.778427 0.713740
O O9 0.500000 0.262180 0.472707
O O10 0.500000 0.000000 0.573923
O O11 0.691617 0.500000 0.456871
O O12 0.677731 0.779084 0.376435
O O13 0.931628 0.500000 0.820581
O O14 0.907033 0.749967 0.720648
O O15 0.000000 0.774519 0.821898
O O16 0.000000 0.725638 0.619151
O O17 0.068369 0.000000 0.620576
O O18 0.562794 0.275305 0.332178
O O19 0.500000 0.000000 0.375099
O O20 0.381066 0.500000 0.787670
#
# Coordination Sequence:
#
# PCOD9358600 Si02
#       8
#     8   8   4   8   8   8   4   8
#     4  10  21  37  57  78 107 151 190 219 265 329
#     4  10  22  39  59  81 109 146 183 224 276 330
#     4  11  20  33  59  90 113 137 176 228 275 322
#     4  11  24  39  54  80 113 144 184 235 278 314
#     4   9  18  34  57  84 111 140 179 225 271 323
#     4   9  18  34  57  85 114 143 179 224 273 324
#     4   9  17  31  57  86 107 133 174 222 265 318
#     4  10  20  39  62  81 107 146 186 219 268 336
#
# _framework density 20.954965000000001
#
# number of rings (size 3 to 8) (size 9 to 14) (size 15 to 20)
#    0.000    2.143    1.429    1.500    0.000    6.286 
#    0.000    4.643    0.000    4.286    0.000    0.000 
#    0.000    0.000    0.000    0.000    0.000    0.000 
#
# Total GULP energy -156375.682693 kJ/mol
# GULP energy per Si atom -5584.845810 kJ/mol
# Density = 2.090727 g / cm^3
# Si number density = 20.954965 Si / 1000 Ang^3
#
#
#
# Elastic Constant Matrix: (Units=GPa)
#
#
# Indices 1 2 3 4 5 6 
#
# 1 97.2736 -20.6614 76.7100 0.0000 0.0000 0.0000
# 2 -20.6614 29.9611 -9.4296 0.0000 0.0000 0.0000
# 3 76.7100 -9.4296 198.8858 0.0000 0.0000 0.0000
# 4 0.0000 0.0000 0.0000 14.6899 0.0000 0.0000
# 5 0.0000 0.0000 0.0000 0.0000 -6.8379 0.0000
# 6 0.0000 0.0000 0.0000 0.0000 0.0000 14.9098
#
#
#
# Elastic Compliance Matrix: (Units=1/GPa)
#
#
# Indices 1 2 3 4 5 6 
#
# 1 0.017281 0.009968 -0.006193 0.000000 0.000000 0.000000
# 2 0.009968 0.039632 -0.001966 0.000000 0.000000 0.000000
# 3 -0.006193 -0.001966 0.007323 0.000000 0.000000 0.000000
# 4 0.000000 0.000000 0.000000 0.068074 0.000000 0.000000
# 5 0.000000 0.000000 0.000000 0.000000 -0.146244 0.000000
# 6 0.000000 0.000000 0.000000 0.000000 0.000000 0.067070
#
#
# Mechanical properties :
#
#
# Convention : Reuss Voigt Hill
#
# Bulk Modulus (GPa) = 14.73704 46.59539 30.66621
# Shear Modulus (GPa) = 69.31342 23.18578 46.24960
#
# Velocity S-wave (km/s) = 5.75753 3.32995 4.70307
# Velocity P-wave (km/s) = 7.15869 6.08843 6.64514
#
# Compressibility (1/GPa) = 0.06785624
#
# Stress axis : x y z
#
# Youngs Moduli (GPa) = 57.86655 25.23205 136.54993
#
# Poissons Ratio (x) = -0.25152 0.84561
# Poissons Ratio (y) = -0.57682 0.26841
# Poissons Ratio (z) = 0.35835 0.04960
#
# Static dielectric constant tensor:
#      x y z
#    x 1.705070 0.000000 0.000000 
#    y 0.000000 1.778170 0.000000 
#    z 0.000000 0.000000 1.769100 
# 
# From -- ./inp_files/15592.got.cif
#   From: 2010.05.17/outbox.cif.g08.bks.cpg/sg38_8_cif.got.tgz:15592.got - 2010.06.03 18:07:57.
