data_PCOD9358316
_publ_section_title
;
Structure prediction by ZEFSAII (Michael W. Deem and Ramdas Pophale) SiO2 
 PCOD9358316
Probable space group: A M M 2
;
_chemical_formula_sum "Si O2"
_cell_formula_units_Z 48
_cell_length_a 8.994487
_cell_length_b 18.650329
_cell_length_c 15.317697
_cell_angle_alpha 90.000000
_cell_angle_beta 90.000000
_cell_angle_gamma 90.000000
_cell_volume 2569.545843
_symmetry_space_group_name_H-M "A M M 2"
_symmetry_group_IT_number 38
_symmetry_cell_setting 'orthorhombic'
loop_
_space_group_symop_operation_xyz
x,y,z
-x,-y,z
-x,y,z
x,-y,z
x,1/2+y,1/2+z
-x,1/2-y,1/2+z
-x,1/2+y,1/2+z
x,1/2-y,1/2+z
loop_
_atom_site_type_symbol
_atom_site_label
_atom_site_fract_x
_atom_site_fract_y
_atom_site_fract_z
Si Si1 0.321478 0.420478 0.327760
Si Si2 0.823995 0.000000 0.500468
Si Si3 0.181192 0.500000 0.802485
Si Si4 0.329217 0.104831 0.627308
Si Si5 0.179737 0.657034 0.737112
Si Si6 0.178607 0.727422 0.388646
Si Si7 0.673112 0.267077 0.576821
O O1 0.500000 0.410648 0.338792
O O2 0.282442 0.500000 0.362640
O O3 0.290967 0.420245 0.224161
O O4 0.235816 0.352121 0.364549
O O5 0.765377 0.000000 0.402364
O O6 0.770262 0.931725 0.554638
O O7 0.000000 0.000000 0.495795
O O8 0.225679 0.575619 0.759994
O O9 0.000000 0.500000 0.802489
O O10 0.500000 0.084454 0.610073
O O11 0.319323 0.189858 0.622957
O O12 0.222932 0.713559 0.814565
O O13 0.247984 0.679828 0.644527
O O14 0.000000 0.659760 0.731873
O O15 0.248271 0.741818 0.483502
O O16 0.000000 0.728739 0.393575
O O17 0.500000 0.286443 0.563978
#
# Coordination Sequence:
#
# PCOD9358316 Si02
#       7
#     8   4   4   8   8   8   8
#     4  10  20  38  61  84 118 157 195 241 294 355
#     4  11  21  33  57  90 123 154 193 243 300 366
#     4   9  20  39  59  84 119 158 193 241 304 352
#     4  10  20  36  57  84 120 156 193 240 297 357
#     4  10  21  40  64  87 119 158 200 251 301 354
#     4  11  23  39  62  91 122 155 200 252 303 361
#     4  11  23  39  62  88 118 159 204 247 298 359
#
# _framework density 18.680344000000002
#
# number of rings (size 3 to 8) (size 9 to 14) (size 15 to 20)
#    0.000    1.667    2.500    2.250    0.000    4.333 
#    1.500    2.083    0.000    0.000    0.000    0.000 
#    0.000    0.000    0.000    0.000    0.000    0.000 
#
# Total GULP energy -133945.850066 kJ/mol
# GULP energy per Si atom -5581.077086 kJ/mol
# Density = 1.863783 g / cm^3
# Si number density = 18.680344 Si / 1000 Ang^3
#
#
#
# Elastic Constant Matrix: (Units=GPa)
#
#
# Indices 1 2 3 4 5 6 
#
# 1 32.7299 26.7399 26.1386 0.0000 0.0000 0.0000
# 2 26.7399 113.7509 22.4563 0.0000 0.0000 0.0000
# 3 26.1386 22.4563 65.7077 0.0000 0.0000 0.0000
# 4 0.0000 0.0000 0.0000 -19.0461 0.0000 0.0000
# 5 0.0000 0.0000 0.0000 0.0000 25.2544 0.0000
# 6 0.0000 0.0000 0.0000 0.0000 0.0000 29.3480
#
#
#
# Elastic Compliance Matrix: (Units=1/GPa)
#
#
# Indices 1 2 3 4 5 6 
#
# 1 0.051699 -0.008679 -0.017600 0.000000 0.000000 0.000000
# 2 -0.008679 0.010884 -0.000267 0.000000 0.000000 0.000000
# 3 -0.017600 -0.000267 0.022312 0.000000 0.000000 0.000000
# 4 0.000000 0.000000 0.000000 -0.052504 0.000000 0.000000
# 5 0.000000 0.000000 0.000000 0.000000 0.039597 0.000000
# 6 0.000000 0.000000 0.000000 0.000000 0.000000 0.034074
#
#
# Mechanical properties :
#
#
# Convention : Reuss Voigt Hill
#
# Bulk Modulus (GPa) = 31.44380 40.31759 35.88069
# Shear Modulus (GPa) = 29.45445 16.23485 22.84465
#
# Velocity S-wave (km/s) = 3.97515 2.95123 3.50083
# Velocity P-wave (km/s) = 6.15940 5.76565 5.96578
#
# Compressibility (1/GPa) = 0.03180277
#
# Stress axis : x y z
#
# Youngs Moduli (GPa) = 19.34279 91.87769 44.81986
#
# Poissons Ratio (x) = 0.79737 0.78882
# Poissons Ratio (y) = 0.16787 0.01198
# Poissons Ratio (z) = 0.34043 0.02457
#
# Static dielectric constant tensor:
#      x y z
#    x 1.635330 0.000000 0.000000 
#    y 0.000000 1.676910 0.000000 
#    z 0.000000 0.000000 1.627650 
# 
# From -- ./inp_files/12078.got.cif
#   From: 2010.05.17/outbox.cif.g08.bks.cpg/sg38_7_cif.got.tgz:12078.got - 2010.06.03 18:07:57.
