data_PCOD9358100
_publ_section_title
;
Structure prediction by ZEFSAII (Michael W. Deem and Ramdas Pophale) SiO2 
 PCOD9358100
Probable space group: A M M 2
;
_chemical_formula_sum "Si O2"
_cell_formula_units_Z 64
_cell_length_a 7.713047
_cell_length_b 29.218604
_cell_length_c 13.124987
_cell_angle_alpha 90.000000
_cell_angle_beta 90.000000
_cell_angle_gamma 90.000000
_cell_volume 2957.905686
_symmetry_space_group_name_H-M "A M M 2"
_symmetry_group_IT_number 38
_symmetry_cell_setting 'orthorhombic'
loop_
_space_group_symop_operation_xyz
x,y,z
-x,-y,z
-x,y,z
x,-y,z
x,1/2+y,1/2+z
-x,1/2-y,1/2+z
-x,1/2+y,1/2+z
x,1/2-y,1/2+z
loop_
_atom_site_type_symbol
_atom_site_label
_atom_site_fract_x
_atom_site_fract_y
_atom_site_fract_z
Si Si1 0.199715 0.702700 0.329430
Si Si2 0.195809 0.570378 0.591586
Si Si3 0.295088 0.199880 0.259429
Si Si4 0.210935 0.119368 0.706004
Si Si5 0.698546 0.831345 0.045421
Si Si6 0.212397 0.947017 0.523584
Si Si7 0.788828 0.548840 0.375302
Si Si8 0.790808 0.595079 0.808302
O O1 0.210297 0.756489 0.310881
O O2 0.263203 0.671390 0.234135
O O3 0.290719 0.689956 0.434724
O O4 0.000000 0.689505 0.345248
O O5 0.189147 0.623476 0.558532
O O6 0.278914 0.549482 0.490654
O O7 0.275253 0.570917 0.704323
O O8 0.000000 0.552148 0.600866
O O9 0.500000 0.205986 0.270593
O O10 0.250006 0.200842 0.139259
O O11 0.250810 0.149242 0.301037
O O12 0.270551 0.090246 0.608079
O O13 0.266761 0.090363 0.805201
O O14 0.000000 0.118772 0.698392
O O15 0.500000 0.845595 0.065578
O O16 0.267162 0.928955 0.412083
O O17 0.000000 0.947285 0.525370
O O18 0.265614 0.000000 0.541442
O O19 0.746719 0.500000 0.326528
O O20 0.000000 0.551714 0.381283
O O21 0.000000 0.591845 0.805003
#
# Coordination Sequence:
#
# PCOD9358100 Si02
#       8
#     8   8   8   8   8   8   8   8
#     4  11  21  34  55  81 109 142 186 235 282 334
#     4   9  16  29  48  73 103 134 173 219 267 319
#     4  10  22  38  55  79 108 143 188 232 281 338
#     4   9  17  29  46  73 107 142 178 218 269 327
#     4  10  20  35  54  74 103 141 176 219 275 332
#     4   9  17  30  50  79 116 151 183 226 280 336
#     4   9  15  24  43  72 102 131 167 214 265 316
#     4   9  18  32  52  78 110 144 180 225 278 326
#
# _framework density 21.63693
#
# number of rings (size 3 to 8) (size 9 to 14) (size 15 to 20)
#    0.000    2.500    1.250    1.500    0.000    4.500 
#    0.000    3.750    0.000    1.500    0.000    3.500 
#    0.000    0.000    0.000    0.000    0.000    0.000 
#
# Total GULP energy -178406.700123 kJ/mol
# GULP energy per Si atom -5575.209379 kJ/mol
# Density = 2.158768 g / cm^3
# Si number density = 21.636930 Si / 1000 Ang^3
#
#
#
# Elastic Constant Matrix: (Units=GPa)
#
#
# Indices 1 2 3 4 5 6 
#
# 1 38.9009 0.8104 4.1899 0.0000 0.0000 0.0000
# 2 0.8104 62.3421 26.5771 0.0000 0.0000 0.0000
# 3 4.1899 26.5771 119.6042 0.0000 0.0000 0.0000
# 4 0.0000 0.0000 0.0000 24.0912 0.0000 0.0000
# 5 0.0000 0.0000 0.0000 0.0000 8.3842 0.0000
# 6 0.0000 0.0000 0.0000 0.0000 0.0000 -32.5773
#
#
#
# Elastic Compliance Matrix: (Units=1/GPa)
#
#
# Indices 1 2 3 4 5 6 
#
# 1 0.025804 0.000055 -0.000916 0.000000 0.000000 0.000000
# 2 0.000055 0.017719 -0.003939 0.000000 0.000000 0.000000
# 3 -0.000916 -0.003939 0.009268 0.000000 0.000000 0.000000
# 4 0.000000 0.000000 0.000000 0.041509 0.000000 0.000000
# 5 0.000000 0.000000 0.000000 0.000000 0.119272 0.000000
# 6 0.000000 0.000000 0.000000 0.000000 0.000000 -0.030696
#
#
# Mechanical properties :
#
#
# Convention : Reuss Voigt Hill
#
# Bulk Modulus (GPa) = 23.15315 31.55580 27.35448
# Shear Modulus (GPa) = 24.16936 12.59761 18.38349
#
# Velocity S-wave (km/s) = 3.34584 2.41556 2.91801
# Velocity P-wave (km/s) = 5.06460 4.73242 4.90133
#
# Compressibility (1/GPa) = 0.04319066
#
# Stress axis : x y z
#
# Youngs Moduli (GPa) = 38.75390 56.43609 107.89406
#
# Poissons Ratio (x) = -0.00311 0.09885
# Poissons Ratio (y) = -0.00214 0.42503
# Poissons Ratio (z) = 0.03551 0.22232
#
# Static dielectric constant tensor:
#      x y z
#    x 1.802650 0.000000 0.000000 
#    y 0.000000 1.778100 0.000000 
#    z 0.000000 0.000000 1.801160 
# 
# From -- ./inp_files/8536.got.cif
#   From: 2010.05.17/outbox.cif.g08.bks.cpg/sg38_5_cif.got.tgz:8536.got - 2010.06.03 18:07:57.
