data_PCOD9358360
_publ_section_title
;
Structure prediction by ZEFSAII (Michael W. Deem and Ramdas Pophale) SiO2 
 PCOD9358360
Probable space group: A M M 2
;
_chemical_formula_sum "Si O2"
_cell_formula_units_Z 64
_cell_length_a 8.656208
_cell_length_b 28.505930
_cell_length_c 12.793804
_cell_angle_alpha 90.000000
_cell_angle_beta 90.000000
_cell_angle_gamma 90.000000
_cell_volume 3156.912836
_symmetry_space_group_name_H-M "A M M 2"
_symmetry_group_IT_number 38
_symmetry_cell_setting 'orthorhombic'
loop_
_space_group_symop_operation_xyz
x,y,z
-x,-y,z
-x,y,z
x,-y,z
x,1/2+y,1/2+z
-x,1/2-y,1/2+z
-x,1/2+y,1/2+z
x,1/2-y,1/2+z
loop_
_atom_site_type_symbol
_atom_site_label
_atom_site_fract_x
_atom_site_fract_y
_atom_site_fract_z
Si Si1 0.319995 0.289768 0.405730
Si Si2 0.322030 0.168023 0.675350
Si Si3 0.677583 0.552330 0.351612
Si Si4 0.820832 0.429375 0.137167
Si Si5 0.186226 0.590858 0.907505
Si Si6 0.180989 0.378639 0.511743
Si Si7 0.315093 0.446077 0.690128
Si Si8 0.817183 0.303483 0.974748
O O1 0.500000 0.279961 0.425167
O O2 0.306338 0.311599 0.290162
O O3 0.260493 0.328892 0.487297
O O4 0.224515 0.241864 0.408089
O O5 0.500000 0.151648 0.662629
O O6 0.202721 0.125893 0.657627
O O7 0.278515 0.202645 0.581886
O O8 0.500000 0.567763 0.364625
O O9 0.693005 0.500000 0.396555
O O10 0.719529 0.549747 0.229712
O O11 0.785581 0.588611 0.410888
O O12 0.000000 0.442730 0.148639
O O13 0.773448 0.435462 0.016443
O O14 0.264544 0.568974 0.806421
O O15 0.226079 0.646150 0.923554
O O16 0.000000 0.588092 0.896814
O O17 0.247167 0.408638 0.608259
O O18 0.000000 0.371340 0.525966
O O19 0.500000 0.445104 0.681176
O O20 0.263476 0.500000 0.669933
O O21 0.000000 0.305139 0.995240
#
# Coordination Sequence:
#
# PCOD9358360 Si02
#       8
#     8   8   8   8   8   8   8   8
#     4  11  23  39  62  91 124 163 209 258 316 381
#     4  10  20  36  59  84 118 159 198 249 310 368
#     4  11  23  38  58  87 123 159 198 248 305 368
#     4  10  20  36  60  88 119 156 199 249 306 366
#     4   9  21  41  63  90 125 165 209 259 315 373
#     4  12  25  41  64  90 121 162 209 262 319 379
#     4  11  25  44  66  92 126 170 218 270 326 387
#     4  10  22  39  61  91 126 164 209 261 316 376
#
# _framework density 20.272970999999998
#
# number of rings (size 3 to 8) (size 9 to 14) (size 15 to 20)
#    0.000    1.500    1.250    4.500    0.000    9.500 
#    0.000    5.000    0.000    0.000    0.000    0.000 
#    0.000    0.000    0.000    0.000    0.000    0.000 
#
# Total GULP energy -178747.069830 kJ/mol
# GULP energy per Si atom -5585.845932 kJ/mol
# Density = 2.022683 g / cm^3
# Si number density = 20.272971 Si / 1000 Ang^3
#
#
#
# Elastic Constant Matrix: (Units=GPa)
#
#
# Indices 1 2 3 4 5 6 
#
# 1 56.9173 13.3941 16.6834 0.0000 0.0000 0.0000
# 2 13.3941 51.3421 8.6119 0.0000 0.0000 0.0000
# 3 16.6834 8.6119 81.6011 0.0000 0.0000 0.0000
# 4 0.0000 0.0000 0.0000 16.2939 0.0000 0.0000
# 5 0.0000 0.0000 0.0000 0.0000 30.9298 0.0000
# 6 0.0000 0.0000 0.0000 0.0000 0.0000 23.5471
#
#
#
# Elastic Compliance Matrix: (Units=1/GPa)
#
#
# Indices 1 2 3 4 5 6 
#
# 1 0.019676 -0.004539 -0.003544 0.000000 0.000000 0.000000
# 2 -0.004539 0.020875 -0.001275 0.000000 0.000000 0.000000
# 3 -0.003544 -0.001275 0.013114 0.000000 0.000000 0.000000
# 4 0.000000 0.000000 0.000000 0.061373 0.000000 0.000000
# 5 0.000000 0.000000 0.000000 0.000000 0.032331 0.000000
# 6 0.000000 0.000000 0.000000 0.000000 0.000000 0.042468
#
#
# Mechanical properties :
#
#
# Convention : Reuss Voigt Hill
#
# Bulk Modulus (GPa) = 28.61242 29.69325 29.15284
# Shear Modulus (GPa) = 22.70638 24.23224 23.46931
#
# Velocity S-wave (km/s) = 3.35032 3.46106 3.40614
# Velocity P-wave (km/s) = 5.39541 5.53628 5.46630
#
# Compressibility (1/GPa) = 0.03494986
#
# Stress axis : x y z
#
# Youngs Moduli (GPa) = 50.82294 47.90388 76.25527
#
# Poissons Ratio (x) = 0.21742 0.27023
# Poissons Ratio (y) = 0.23067 0.09724
# Poissons Ratio (z) = 0.18011 0.06108
#
# Static dielectric constant tensor:
#      x y z
#    x 1.687640 0.000000 0.000000 
#    y 0.000000 1.762290 0.000000 
#    z 0.000000 0.000000 1.726220 
# 
# From -- ./inp_files/8551.got.cif
#   From: 2010.05.17/outbox.cif.g08.bks.cpg/sg38_5_cif.got.tgz:8551.got - 2010.06.03 18:07:57.
