data_PCOD9358400
_publ_section_title
;
Structure prediction by ZEFSAII (Michael W. Deem and Ramdas Pophale) SiO2 
 PCOD9358400
Probable space group: A M M 2
;
_chemical_formula_sum "Si O2"
_cell_formula_units_Z 48
_cell_length_a 7.477875
_cell_length_b 27.977488
_cell_length_c 9.817096
_cell_angle_alpha 90.000000
_cell_angle_beta 90.000000
_cell_angle_gamma 90.000000
_cell_volume 2053.855840
_symmetry_space_group_name_H-M "A M M 2"
_symmetry_group_IT_number 38
_symmetry_cell_setting 'orthorhombic'
loop_
_space_group_symop_operation_xyz
x,y,z
-x,-y,z
-x,y,z
x,-y,z
x,1/2+y,1/2+z
-x,1/2-y,1/2+z
-x,1/2+y,1/2+z
x,1/2-y,1/2+z
loop_
_atom_site_type_symbol
_atom_site_label
_atom_site_fract_x
_atom_site_fract_y
_atom_site_fract_z
Si Si1 0.780174 0.806073 0.471730
Si Si2 0.215865 0.585079 0.916333
Si Si3 0.216655 0.552108 0.210138
Si Si4 0.291653 0.552620 0.617914
Si Si5 0.794746 0.725743 0.269537
Si Si6 0.297176 0.631774 0.421753
O O1 0.727102 0.860050 0.437122
O O2 0.717426 0.769793 0.354685
O O3 0.719002 0.789462 0.622464
O O4 0.000000 0.805889 0.474925
O O5 0.283751 0.562133 0.778133
O O6 0.000000 0.584243 0.908244
O O7 0.266760 0.557265 0.052734
O O8 0.270021 0.500000 0.262580
O O9 0.294967 0.595304 0.295220
O O10 0.000000 0.555880 0.218783
O O11 0.500000 0.551334 0.575836
O O12 0.213866 0.500000 0.588131
O O13 0.213950 0.598894 0.540649
O O14 0.792483 0.679980 0.369608
O O15 0.000000 0.739048 0.241534
O O16 0.500000 0.645014 0.459493
#
# Coordination Sequence:
#
# PCOD9358400 Si02
#       6
#     8   8   8   8   8   8
#     4   9  19  35  60  88 114 145 185 233 290 343
#     4  10  20  37  60  88 116 145 187 240 291 344
#     4  10  20  36  60  87 115 148 188 239 293 346
#     4  10  23  41  57  79 116 158 196 235 283 341
#     4  10  20  38  61  87 116 149 190 239 289 346
#     4  11  23  39  58  83 117 158 196 237 286 342
#
# _framework density 23.370674000000001
#
# number of rings (size 3 to 8) (size 9 to 14) (size 15 to 20)
#    0.000    2.000    1.667    1.500    2.333    4.000 
#    0.000    1.667    0.000    0.000    0.000    0.000 
#    0.000    0.000    0.000    0.000    0.000    0.000 
#
# Total GULP energy -134144.937488 kJ/mol
# GULP energy per Si atom -5589.372395 kJ/mol
# Density = 2.331748 g / cm^3
# Si number density = 23.370674 Si / 1000 Ang^3
#
#
#
# Elastic Constant Matrix: (Units=GPa)
#
#
# Indices 1 2 3 4 5 6 
#
# 1 64.9438 -2.6536 -6.3286 0.0000 0.0000 0.0000
# 2 -2.6536 108.4000 9.6036 0.0000 0.0000 0.0000
# 3 -6.3286 9.6036 91.6808 0.0000 0.0000 0.0000
# 4 0.0000 0.0000 0.0000 47.3159 0.0000 0.0000
# 5 0.0000 0.0000 0.0000 0.0000 16.1430 0.0000
# 6 0.0000 0.0000 0.0000 0.0000 0.0000 -9.8653
#
#
#
# Elastic Compliance Matrix: (Units=1/GPa)
#
#
# Indices 1 2 3 4 5 6 
#
# 1 0.015511 0.000288 0.001041 0.000000 0.000000 0.000000
# 2 0.000288 0.009317 -0.000956 0.000000 0.000000 0.000000
# 3 0.001041 -0.000956 0.011079 0.000000 0.000000 0.000000
# 4 0.000000 0.000000 0.000000 0.021135 0.000000 0.000000
# 5 0.000000 0.000000 0.000000 0.000000 0.061947 0.000000
# 6 0.000000 0.000000 0.000000 0.000000 0.000000 -0.101365
#
#
# Mechanical properties :
#
#
# Convention : Reuss Voigt Hill
#
# Bulk Modulus (GPa) = 27.28414 29.58527 28.43470
# Shear Modulus (GPa) = 171.84294 28.34558 100.09426
#
# Velocity S-wave (km/s) = 8.58423 3.48641 6.55149
# Velocity P-wave (km/s) = 10.48579 5.37525 8.33202
#
# Compressibility (1/GPa) = 0.03665133
#
# Stress axis : x y z
#
# Youngs Moduli (GPa) = 64.47001 107.33254 90.25769
#
# Poissons Ratio (x) = -0.03086 -0.09392
# Poissons Ratio (y) = -0.01854 0.08629
# Poissons Ratio (z) = -0.06709 0.10262
#
# Static dielectric constant tensor:
#      x y z
#    x 1.931890 0.000000 0.000000 
#    y 0.000000 1.807200 0.000000 
#    z 0.000000 0.000000 1.854350 
# 
# From -- ./inp_files/3730.got.cif
#   From: 2010.05.17/outbox.cif.g08.bks.cpg/sg38_2_cif.got.tgz:3730.got - 2010.06.03 18:07:57.
