data_PCOD9358404
_publ_section_title
;
Structure prediction by ZEFSAII (Michael W. Deem and Ramdas Pophale) SiO2 
 PCOD9358404
Probable space group: A M M 2
;
_chemical_formula_sum "Si O2"
_cell_formula_units_Z 48
_cell_length_a 8.839414
_cell_length_b 17.287562
_cell_length_c 17.289255
_cell_angle_alpha 90.000000
_cell_angle_beta 90.000000
_cell_angle_gamma 90.000000
_cell_volume 2642.004210
_symmetry_space_group_name_H-M "A M M 2"
_symmetry_group_IT_number 38
_symmetry_cell_setting 'orthorhombic'
loop_
_space_group_symop_operation_xyz
x,y,z
-x,-y,z
-x,y,z
x,-y,z
x,1/2+y,1/2+z
-x,1/2-y,1/2+z
-x,1/2+y,1/2+z
x,1/2-y,1/2+z
loop_
_atom_site_type_symbol
_atom_site_label
_atom_site_fract_x
_atom_site_fract_y
_atom_site_fract_z
Si Si1 0.683659 0.500000 0.859270
Si Si2 0.683952 0.650033 0.763129
Si Si3 0.681304 0.142464 0.621826
Si Si4 0.179535 0.500000 0.030080
Si Si5 0.317782 0.323403 0.298709
Si Si6 0.682215 0.680170 0.588944
Si Si7 0.181082 0.910370 0.944717
O O1 0.500000 0.500000 0.862388
O O2 0.732725 0.576638 0.812728
O O3 0.746890 0.500000 0.945345
O O4 0.500000 0.650375 0.762607
O O5 0.729691 0.733067 0.797858
O O6 0.729935 0.647794 0.673117
O O7 0.500000 0.131596 0.614523
O O8 0.764889 0.075396 0.576430
O O9 0.717342 0.143683 0.713333
O O10 0.717037 0.228181 0.589833
O O11 0.000000 0.500000 0.023601
O O12 0.500000 0.325668 0.307521
O O13 0.242769 0.370622 0.367167
O O14 0.500000 0.673072 0.583486
O O15 0.756753 0.635499 0.518651
O O16 0.000000 0.907712 0.944664
O O17 0.229602 0.000000 0.947944
#
# Coordination Sequence:
#
# PCOD9358404 Si02
#       7
#     4   8   8   4   8   8   8
#     4  10  20  36  60  87 118 149 184 233 288 337
#     4   8  17  35  61  90 112 139 184 240 291 331
#     4   9  20  40  63  86 113 146 190 245 294 333
#     4  12  26  38  54  85 122 155 194 231 276 349
#     4   9  19  38  62  86 110 143 194 243 285 335
#     4   9  19  38  64  89 111 142 191 242 285 337
#     4  11  25  39  53  82 123 157 187 228 283 344
#
# _framework density 18.168025
#
# number of rings (size 3 to 8) (size 9 to 14) (size 15 to 20)
#    0.000    2.500    0.000    3.250    4.667    2.667 
#    0.000    3.333    0.000    0.000    0.000    0.000 
#    0.000    0.000    0.000    0.000    0.000    0.000 
#
# Total GULP energy -133969.241463 kJ/mol
# GULP energy per Si atom -5582.051728 kJ/mol
# Density = 1.812667 g / cm^3
# Si number density = 18.168025 Si / 1000 Ang^3
#
#
#
# Elastic Constant Matrix: (Units=GPa)
#
#
# Indices 1 2 3 4 5 6 
#
# 1 31.7207 57.7506 57.0334 0.0000 0.0000 0.0000
# 2 57.7506 155.2587 135.1834 0.0000 0.0000 0.0000
# 3 57.0334 135.1834 162.1372 0.0000 0.0000 0.0000
# 4 0.0000 0.0000 0.0000 27.9061 0.0000 0.0000
# 5 0.0000 0.0000 0.0000 0.0000 -26.7378 0.0000
# 6 0.0000 0.0000 0.0000 0.0000 0.0000 11.7481
#
#
#
# Elastic Compliance Matrix: (Units=1/GPa)
#
#
# Indices 1 2 3 4 5 6 
#
# 1 0.108528 -0.026013 -0.016487 0.000000 0.000000 0.000000
# 2 -0.026013 0.029738 -0.015644 0.000000 0.000000 0.000000
# 3 -0.016487 -0.015644 0.025010 0.000000 0.000000 0.000000
# 4 0.000000 0.000000 0.000000 0.035834 0.000000 0.000000
# 5 0.000000 0.000000 0.000000 0.000000 -0.037400 0.000000
# 6 0.000000 0.000000 0.000000 0.000000 0.000000 0.085120
#
#
# Mechanical properties :
#
#
# Convention : Reuss Voigt Hill
#
# Bulk Modulus (GPa) = 21.28198 94.33906 57.81052
# Shear Modulus (GPa) = 13.20019 9.19322 11.19670
#
# Velocity S-wave (km/s) = 2.69840 2.25191 2.48520
# Velocity P-wave (km/s) = 4.63119 7.66812 6.33435
#
# Compressibility (1/GPa) = 0.04698810
#
# Stress axis : x y z
#
# Youngs Moduli (GPa) = 9.21418 33.62709 39.98355
#
# Poissons Ratio (x) = 0.87475 0.65921
# Poissons Ratio (y) = 0.23969 0.62550
# Poissons Ratio (z) = 0.15191 0.52606
#
# Static dielectric constant tensor:
#      x y z
#    x 1.602650 0.000000 0.000000 
#    y 0.000000 1.613840 0.000000 
#    z 0.000000 0.000000 1.594920 
# 
# From -- ./inp_files/12121.got.cif
#   From: 2010.05.17/outbox.cif.g08.bks.cpg/sg38_7_cif.got.tgz:12121.got - 2010.06.03 18:07:57.
