data_PCOD9358087
_publ_section_title
;
Structure prediction by ZEFSAII (Michael W. Deem and Ramdas Pophale) SiO2 
 PCOD9358087
Probable space group: A M M 2
;
_chemical_formula_sum "Si O2"
_cell_formula_units_Z 64
_cell_length_a 8.396929
_cell_length_b 29.205839
_cell_length_c 14.634985
_cell_angle_alpha 90.000000
_cell_angle_beta 90.000000
_cell_angle_gamma 90.000000
_cell_volume 3589.074303
_symmetry_space_group_name_H-M "A M M 2"
_symmetry_group_IT_number 38
_symmetry_cell_setting 'orthorhombic'
loop_
_space_group_symop_operation_xyz
x,y,z
-x,-y,z
-x,y,z
x,-y,z
x,1/2+y,1/2+z
-x,1/2-y,1/2+z
-x,1/2+y,1/2+z
x,1/2-y,1/2+z
loop_
_atom_site_type_symbol
_atom_site_label
_atom_site_fract_x
_atom_site_fract_y
_atom_site_fract_z
Si Si1 0.192756 0.552406 0.590280
Si Si2 0.309487 0.698002 0.092440
Si Si3 0.192469 0.947687 0.598723
Si Si4 0.692397 0.375775 0.241248
Si Si5 0.309039 0.872939 0.950341
Si Si6 0.805912 0.624066 0.741708
Si Si7 0.807518 0.873875 0.450052
Si Si8 0.809358 0.198691 0.096051
O O1 0.247460 0.500000 0.589086
O O2 0.251683 0.582203 0.504860
O O3 0.242456 0.580148 0.681349
O O4 0.000000 0.552566 0.588531
O O5 0.500000 0.697440 0.090836
O O6 0.255254 0.667408 0.179274
O O7 0.247281 0.671463 0.003110
O O8 0.251703 0.749805 0.097687
O O9 0.249052 0.920866 0.688580
O O10 0.245254 0.916941 0.512184
O O11 0.000000 0.948011 0.598386
O O12 0.248330 0.000000 0.594735
O O13 0.500000 0.376208 0.241449
O O14 0.747440 0.372902 0.345629
O O15 0.500000 0.872089 0.950637
O O16 0.247982 0.829451 0.007603
O O17 0.750020 0.623748 0.845881
O O18 0.756040 0.668732 0.683916
O O19 0.000000 0.624077 0.743734
O O20 0.000000 0.874206 0.448746
O O21 0.000000 0.198953 0.095813
#
# Coordination Sequence:
#
# PCOD9358087 Si02
#       8
#     8   8   8   8   8   8   8   8
#     4   9  18  33  52  75 103 134 167 203 245 293
#     4  10  20  35  52  72  99 130 165 204 247 293
#     4   9  18  31  49  75 103 130 164 206 248 290
#     4   9  20  36  52  71  98 133 169 204 245 294
#     4  10  20  35  53  74 100 130 167 208 248 290
#     4   8  16  31  51  74  99 128 163 201 241 290
#     4   9  17  32  52  74 101 131 164 203 247 293
#     4  10  20  35  53  75 101 129 163 201 247 298
#
# _framework density 17.831894999999999
#
# number of rings (size 3 to 8) (size 9 to 14) (size 15 to 20)
#    0.000    2.750    0.000    1.875    0.000    4.000 
#    0.000   10.625    0.000    0.000    0.000    5.250 
#    0.000    0.000    0.000    0.000    0.000    0.000 
#
# Total GULP energy -178450.062431 kJ/mol
# GULP energy per Si atom -5576.564451 kJ/mol
# Density = 1.779131 g / cm^3
# Si number density = 17.831895 Si / 1000 Ang^3
#
#
#
# Elastic Constant Matrix: (Units=GPa)
#
#
# Indices 1 2 3 4 5 6 
#
# 1 12.9028 17.5239 18.8347 0.0000 0.0000 0.0000
# 2 17.5239 178.4290 90.0907 0.0000 0.0000 0.0000
# 3 18.8347 90.0907 183.5948 0.0000 0.0000 0.0000
# 4 0.0000 0.0000 0.0000 5.8874 0.0000 0.0000
# 5 0.0000 0.0000 0.0000 0.0000 18.8093 0.0000
# 6 0.0000 0.0000 0.0000 0.0000 0.0000 18.4927
#
#
#
# Elastic Compliance Matrix: (Units=1/GPa)
#
#
# Indices 1 2 3 4 5 6 
#
# 1 0.095606 -0.005899 -0.006913 0.000000 0.000000 0.000000
# 2 -0.005899 0.007814 -0.003229 0.000000 0.000000 0.000000
# 3 -0.006913 -0.003229 0.007741 0.000000 0.000000 0.000000
# 4 0.000000 0.000000 0.000000 0.169854 0.000000 0.000000
# 5 0.000000 0.000000 0.000000 0.000000 0.053165 0.000000
# 6 0.000000 0.000000 0.000000 0.000000 0.000000 0.054075
#
#
# Mechanical properties :
#
#
# Convention : Reuss Voigt Hill
#
# Bulk Modulus (GPa) = 12.64578 69.75836 41.20207
# Shear Modulus (GPa) = 11.19322 25.20302 18.19812
#
# Velocity S-wave (km/s) = 2.50813 3.76356 3.19805
# Velocity P-wave (km/s) = 3.93633 7.62173 6.06570
#
# Compressibility (1/GPa) = 0.07907778
#
# Stress axis : x y z
#
# Youngs Moduli (GPa) = 10.45954 127.96940 129.18756
#
# Poissons Ratio (x) = 0.75490 0.89313
# Poissons Ratio (y) = 0.06170 0.41719
# Poissons Ratio (z) = 0.07231 0.41326
#
# Static dielectric constant tensor:
#      x y z
#    x 1.616700 0.000000 0.000000 
#    y 0.000000 1.588700 0.000000 
#    z 0.000000 0.000000 1.602000 
# 
# From -- ./inp_files/13091.got.cif
#   From: 2010.05.17/outbox.cif.g08.bks.cpg/sg38_7_cif.got.tgz:13091.got - 2010.06.03 18:07:57.
