data_PCOD9358657
_publ_section_title
;
Structure prediction by ZEFSAII (Michael W. Deem and Ramdas Pophale) SiO2 
 PCOD9358657
Probable space group: A M M 2
;
_chemical_formula_sum "Si O2"
_cell_formula_units_Z 58
_cell_length_a 15.250049
_cell_length_b 7.439401
_cell_length_c 24.847618
_cell_angle_alpha 90.000000
_cell_angle_beta 90.000000
_cell_angle_gamma 90.000000
_cell_volume 2818.992819
_symmetry_space_group_name_H-M "A M M 2"
_symmetry_group_IT_number 38
_symmetry_cell_setting 'orthorhombic'
loop_
_space_group_symop_operation_xyz
x,y,z
-x,-y,z
-x,y,z
x,-y,z
x,1/2+y,1/2+z
-x,1/2-y,1/2+z
-x,1/2+y,1/2+z
x,1/2-y,1/2+z
loop_
_atom_site_type_symbol
_atom_site_label
_atom_site_fract_x
_atom_site_fract_y
_atom_site_fract_z
Si Si1 0.900040 0.715745 0.608760
Si Si2 0.598983 0.286187 0.106643
Si Si3 0.244676 0.204496 0.810118
Si Si4 0.099958 0.284259 0.230366
Si Si5 0.598985 0.786161 0.232384
Si Si6 0.335030 0.277193 0.419557
Si Si7 0.500000 0.000000 0.419590
Si Si8 0.244622 0.704482 0.528968
O O1 0.902829 0.500000 0.603600
O O2 0.867397 0.750014 0.669562
O O3 0.834897 0.787852 0.563149
O O4 0.000000 0.783545 0.604878
O O5 0.500000 0.222207 0.094459
O O6 0.600640 0.500000 0.097996
O O7 0.615546 0.250097 0.169518
O O8 0.672502 0.204493 0.069143
O O9 0.165117 0.287852 0.775969
O O10 0.327513 0.204544 0.769913
O O11 0.279708 0.275108 0.866533
O O12 0.218057 0.000000 0.821824
O O13 0.097162 0.500000 0.235533
O O14 0.000000 0.216446 0.234247
O O15 0.500000 0.722236 0.244585
O O16 0.600654 0.000000 0.240977
O O17 0.349224 0.500000 0.419562
O O18 0.423194 0.159786 0.419586
O O19 0.279622 0.224898 0.472547
O O20 0.217975 0.500000 0.517265
#
# Coordination Sequence:
#
# PCOD9358657 Si02
#       8
#     8   8   8   8   8   8   2   8
#     4   9  18  34  57  86 117 152 194 241 300 365
#     4  10  21  34  51  76 107 143 185 230 289 356
#     4  10  21  37  56  80 114 150 192 247 298 353
#     4   9  18  34  57  86 117 152 194 241 300 365
#     4  10  21  34  51  76 107 143 185 230 289 356
#     4  10  25  43  62  90 121 158 210 258 305 357
#     4  12  26  44  68  86 118 164 218 260 300 360
#     4  10  21  37  56  80 114 150 192 247 298 353
#
# _framework density 20.574724
#
# number of rings (size 3 to 8) (size 9 to 14) (size 15 to 20)
#    0.000    2.207    0.000    1.862    3.862    4.966 
#    0.000    0.690    0.000    4.138    0.000    0.966 
#    0.000    0.000    0.000    0.000    0.000    0.276 
#
# Total GULP energy -161562.801297 kJ/mol
# GULP energy per Si atom -5571.131079 kJ/mol
# Density = 2.052790 g / cm^3
# Si number density = 20.574724 Si / 1000 Ang^3
#
#
#
# Elastic Constant Matrix: (Units=GPa)
#
#
# Indices 1 2 3 4 5 6 
#
# 1 121.2572 14.2548 104.1428 0.0000 0.0000 0.0000
# 2 14.2548 91.6162 9.9681 0.0000 0.0000 0.0000
# 3 104.1428 9.9681 135.8182 0.0000 0.0000 0.0000
# 4 0.0000 0.0000 0.0000 13.5612 0.0000 0.0000
# 5 0.0000 0.0000 0.0000 0.0000 -6.8179 0.0000
# 6 0.0000 0.0000 0.0000 0.0000 0.0000 11.0803
#
#
#
# Elastic Compliance Matrix: (Units=1/GPa)
#
#
# Indices 1 2 3 4 5 6 
#
# 1 0.024437 -0.001778 -0.018607 0.000000 0.000000 0.000000
# 2 -0.001778 0.011132 0.000546 0.000000 0.000000 0.000000
# 3 -0.018607 0.000546 0.021590 0.000000 0.000000 0.000000
# 4 0.000000 0.000000 0.000000 0.073740 0.000000 0.000000
# 5 0.000000 0.000000 0.000000 0.000000 -0.146672 0.000000
# 6 0.000000 0.000000 0.000000 0.000000 0.000000 0.090250
#
#
# Mechanical properties :
#
#
# Convention : Reuss Voigt Hill
#
# Bulk Modulus (GPa) = 57.20236 67.26923 62.23580
# Shear Modulus (GPa) = 41.67285 18.25312 29.96299
#
# Velocity S-wave (km/s) = 4.50537 2.98176 3.82029
# Velocity P-wave (km/s) = 7.41128 6.67986 7.05506
#
# Compressibility (1/GPa) = 0.01748180
#
# Stress axis : x y z
#
# Youngs Moduli (GPa) = 40.92163 89.82887 46.31682
#
# Poissons Ratio (x) = 0.15969 0.86183
# Poissons Ratio (y) = 0.07275 -0.02529
# Poissons Ratio (z) = 0.76144 -0.04905
#
# Static dielectric constant tensor:
#      x y z
#    x 1.733790 0.000000 0.000000 
#    y 0.000000 1.847650 0.000000 
#    z 0.000000 0.000000 1.710590 
# 
# From -- ./inp_files/22806.got.cif
#   From: 2010.05.17/outbox.cif.g08.bks.cpg/sg38_12_cif.got.tgz:22806.got - 2010.06.03 18:07:57.
