data_PCOD9358130
_publ_section_title
;
Structure prediction by ZEFSAII (Michael W. Deem and Ramdas Pophale) SiO2 
 PCOD9358130
Probable space group: A M M 2
;
_chemical_formula_sum "Si O2"
_cell_formula_units_Z 56
_cell_length_a 21.033666
_cell_length_b 8.320437
_cell_length_c 15.447991
_cell_angle_alpha 90.000000
_cell_angle_beta 90.000000
_cell_angle_gamma 90.000000
_cell_volume 2703.541981
_symmetry_space_group_name_H-M "A M M 2"
_symmetry_group_IT_number 38
_symmetry_cell_setting 'orthorhombic'
loop_
_space_group_symop_operation_xyz
x,y,z
-x,-y,z
-x,y,z
x,-y,z
x,1/2+y,1/2+z
-x,1/2-y,1/2+z
-x,1/2+y,1/2+z
x,1/2-y,1/2+z
loop_
_atom_site_type_symbol
_atom_site_label
_atom_site_fract_x
_atom_site_fract_y
_atom_site_fract_z
Si Si1 0.072745 0.305368 0.471500
Si Si2 0.567760 0.184173 0.383014
Si Si3 0.840068 0.196353 0.815868
Si Si4 0.299520 0.316191 0.652596
Si Si5 0.430322 0.313615 0.091012
Si Si6 0.171514 0.307554 0.115087
Si Si7 0.295768 0.819744 0.835277
O O1 0.073417 0.500000 0.473624
O O2 0.103444 0.255466 0.379484
O O3 0.117347 0.244063 0.548621
O O4 0.000000 0.251134 0.480098
O O5 0.500000 0.260568 0.354168
O O6 0.566884 0.185353 0.487061
O O7 0.635826 0.250702 0.357554
O O8 0.566837 0.000000 0.353145
O O9 0.844894 0.243424 0.714748
O O10 0.772818 0.256244 0.856755
O O11 0.837029 0.000000 0.815610
O O12 0.293192 0.500000 0.682894
O O13 0.369585 0.289660 0.615852
O O14 0.239550 0.273786 0.592496
O O15 0.293440 0.191840 0.731355
O O16 0.500000 0.258117 0.122789
O O17 0.421659 0.500000 0.118958
O O18 0.178349 0.500000 0.113339
O O19 0.295399 0.000000 0.869157
#
# Coordination Sequence:
#
# PCOD9358130 Si02
#       7
#     8   8   8   8   8   8   8
#     4  10  21  38  61  90 121 154 191 232 286 351
#     4   9  19  35  53  76 108 144 184 232 286 341
#     4   8  18  37  58  82 115 153 194 235 282 341
#     4  11  22  36  56  81 110 146 190 237 289 345
#     4   9  19  36  55  77 109 147 187 234 288 341
#     4  10  21  39  61  87 119 155 196 244 293 346
#     4  10  20  35  55  79 108 144 190 237 282 338
#
# _framework density 20.713567000000001
#
# number of rings (size 3 to 8) (size 9 to 14) (size 15 to 20)
#    0.000    2.429    0.000    3.857    2.000    2.571 
#    0.000    6.429    0.000    0.000    0.000    0.000 
#    0.000    0.000    0.000    0.000    0.000    0.000 
#
# Total GULP energy -156053.998367 kJ/mol
# GULP energy per Si atom -5573.357085 kJ/mol
# Density = 2.066642 g / cm^3
# Si number density = 20.713567 Si / 1000 Ang^3
#
#
#
# Elastic Constant Matrix: (Units=GPa)
#
#
# Indices 1 2 3 4 5 6 
#
# 1 181.8128 28.2069 41.5645 0.0000 0.0000 0.0000
# 2 28.2069 32.6751 3.2296 0.0000 0.0000 0.0000
# 3 41.5645 3.2296 47.3893 0.0000 0.0000 0.0000
# 4 0.0000 0.0000 0.0000 13.9347 0.0000 0.0000
# 5 0.0000 0.0000 0.0000 0.0000 59.7275 0.0000
# 6 0.0000 0.0000 0.0000 0.0000 0.0000 26.7337
#
#
#
# Elastic Compliance Matrix: (Units=1/GPa)
#
#
# Indices 1 2 3 4 5 6 
#
# 1 0.007967 -0.006229 -0.006563 0.000000 0.000000 0.000000
# 2 -0.006229 0.035682 0.003031 0.000000 0.000000 0.000000
# 3 -0.006563 0.003031 0.026652 0.000000 0.000000 0.000000
# 4 0.000000 0.000000 0.000000 0.071763 0.000000 0.000000
# 5 0.000000 0.000000 0.000000 0.000000 0.016743 0.000000
# 6 0.000000 0.000000 0.000000 0.000000 0.000000 0.037406
#
#
# Mechanical properties :
#
#
# Convention : Reuss Voigt Hill
#
# Bulk Modulus (GPa) = 19.69309 45.31993 32.50651
# Shear Modulus (GPa) = 21.49060 32.67092 27.08076
#
# Velocity S-wave (km/s) = 3.22454 3.97580 3.61971
# Velocity P-wave (km/s) = 4.83648 6.55765 5.76170
#
# Compressibility (1/GPa) = 0.05077924
#
# Stress axis : x y z
#
# Youngs Moduli (GPa) = 125.51888 28.02555 37.52110
#
# Poissons Ratio (x) = 0.17456 0.24626
# Poissons Ratio (y) = 0.78183 -0.11374
# Poissons Ratio (z) = 0.82380 -0.08496
#
# Static dielectric constant tensor:
#      x y z
#    x 1.807670 0.000000 0.000000 
#    y 0.000000 1.760750 0.000000 
#    z 0.000000 0.000000 1.746980 
# 
# From -- ./inp_files/15461.got.cif
#   From: 2010.05.17/outbox.cif.g08.bks.cpg/sg38_8_cif.got.tgz:15461.got - 2010.06.03 18:07:57.
