data_PCOD9358901
_publ_section_title
;
Structure prediction by ZEFSAII (Michael W. Deem and Ramdas Pophale) SiO2 
 PCOD9358901
Probable space group: A M M 2
;
_chemical_formula_sum "Si O2"
_cell_formula_units_Z 34
_cell_length_a 19.390045
_cell_length_b 7.434993
_cell_length_c 9.919656
_cell_angle_alpha 90.000000
_cell_angle_beta 90.000000
_cell_angle_gamma 90.000000
_cell_volume 1430.065708
_symmetry_space_group_name_H-M "A M M 2"
_symmetry_group_IT_number 38
_symmetry_cell_setting 'orthorhombic'
loop_
_space_group_symop_operation_xyz
x,y,z
-x,-y,z
-x,y,z
x,-y,z
x,1/2+y,1/2+z
-x,1/2-y,1/2+z
-x,1/2+y,1/2+z
x,1/2-y,1/2+z
loop_
_atom_site_type_symbol
_atom_site_label
_atom_site_fract_x
_atom_site_fract_y
_atom_site_fract_z
Si Si1 0.661772 0.291193 0.340370
Si Si2 0.000000 0.000000 0.171160
Si Si3 0.577529 0.281921 0.093544
Si Si4 0.884320 0.795484 0.731406
Si Si5 0.797601 0.783564 0.986703
O O1 0.678629 0.500000 0.315257
O O2 0.634308 0.214035 0.200254
O O3 0.599127 0.278779 0.445546
O O4 0.727772 0.213291 0.417974
O O5 0.060115 0.156703 0.177689
O O6 0.500000 0.224508 0.128028
O O7 0.578600 0.500000 0.096691
O O8 0.858731 0.744174 0.880603
O O9 0.818515 0.790495 0.631568
O O10 0.910396 0.000000 0.736168
O O11 0.792557 0.000000 0.999793
#
# Coordination Sequence:
#
# PCOD9358901 Si02
#       5
#     8   2   8   8   8
#     4  10  21  38  63  89 122 167 209 264 317 366
#     4  12  26  48  68 100 136 168 212 262 324 394
#     4  10  21  37  56  88 129 167 211 263 316 375
#     4  11  25  45  69  97 131 173 210 269 322 382
#     4  10  22  43  65  97 130 162 221 272 314 385
#
# _framework density 23.775131999999999
#
# number of rings (size 3 to 8) (size 9 to 14) (size 15 to 20)
#    0.000    1.647    1.176    2.471    1.647    6.118 
#    0.000    0.000    0.000    0.000    0.000    0.000 
#    0.000    0.000    0.000    0.000    0.000    0.000 
#
# Total GULP energy -94860.674687 kJ/mol
# GULP energy per Si atom -5580.039687 kJ/mol
# Density = 2.372102 g / cm^3
# Si number density = 23.775132 Si / 1000 Ang^3
#
#
#
# Elastic Constant Matrix: (Units=GPa)
#
#
# Indices 1 2 3 4 5 6 
#
# 1 72.7471 19.0283 -19.6703 0.0000 0.0000 0.0000
# 2 19.0283 93.7191 -8.1124 0.0000 0.0000 0.0000
# 3 -19.6703 -8.1124 81.5097 0.0000 0.0000 0.0000
# 4 0.0000 0.0000 0.0000 -0.4506 0.0000 0.0000
# 5 0.0000 0.0000 0.0000 0.0000 -45.6094 0.0000
# 6 0.0000 0.0000 0.0000 0.0000 0.0000 25.1047
#
#
#
# Elastic Compliance Matrix: (Units=1/GPa)
#
#
# Indices 1 2 3 4 5 6 
#
# 1 0.015417 -0.002833 0.003439 0.000000 0.000000 0.000000
# 2 -0.002833 0.011283 0.000439 0.000000 0.000000 0.000000
# 3 0.003439 0.000439 0.013142 0.000000 0.000000 0.000000
# 4 0.000000 0.000000 0.000000 -2.219211 0.000000 0.000000
# 5 0.000000 0.000000 0.000000 0.000000 -0.021925 0.000000
# 6 0.000000 0.000000 0.000000 0.000000 0.000000 0.039833
#
#
# Mechanical properties :
#
#
# Convention : Reuss Voigt Hill
#
# Bulk Modulus (GPa) = 23.84746 25.60745 24.72746
# Shear Modulus (GPa) = -2.32604 12.92428 5.29912
#
# Velocity S-wave (km/s) = -0.99019 2.33406 1.49455
# Velocity P-wave (km/s) = 2.95718 4.24946 3.66079
#
# Compressibility (1/GPa) = 0.04193319
#
# Stress axis : x y z
#
# Youngs Moduli (GPa) = 64.86386 88.62633 76.09178
#
# Poissons Ratio (x) = 0.25104 -0.26165
# Poissons Ratio (y) = 0.18373 -0.03344
# Poissons Ratio (z) = -0.22304 -0.03895
#
# Static dielectric constant tensor:
#      x y z
#    x 1.909910 0.000000 0.000000 
#    y 0.000000 1.866450 0.000000 
#    z 0.000000 0.000000 1.849650 
# 
# From -- ./inp_files/6613.got.cif
#   From: 2010.05.17/outbox.cif.g08.bks.cpg/sg38_4_cif.got.tgz:6613.got - 2010.06.03 18:07:57.
