data_PCOD9358835
_publ_section_title
;
Structure prediction by ZEFSAII (Michael W. Deem and Ramdas Pophale) SiO2 
 PCOD9358835
Probable space group: A M M 2
;
_chemical_formula_sum "Si O2"
_cell_formula_units_Z 48
_cell_length_a 17.871506
_cell_length_b 8.976527
_cell_length_c 15.865097
_cell_angle_alpha 90.000000
_cell_angle_beta 90.000000
_cell_angle_gamma 90.000000
_cell_volume 2545.143212
_symmetry_space_group_name_H-M "A M M 2"
_symmetry_group_IT_number 38
_symmetry_cell_setting 'orthorhombic'
loop_
_space_group_symop_operation_xyz
x,y,z
-x,-y,z
-x,y,z
x,-y,z
x,1/2+y,1/2+z
-x,1/2-y,1/2+z
-x,1/2+y,1/2+z
x,1/2-y,1/2+z
loop_
_atom_site_type_symbol
_atom_site_label
_atom_site_fract_x
_atom_site_fract_y
_atom_site_fract_z
Si Si1 0.500000 0.175074 0.243011
Si Si2 0.500000 0.325083 0.422499
Si Si3 0.187218 0.680435 0.184345
Si Si4 0.354638 0.168184 0.681098
Si Si5 0.087275 0.179959 0.330258
Si Si6 0.813090 0.318422 0.988333
Si Si7 0.350637 0.332510 0.980222
O O1 0.500000 0.269676 0.327523
O O2 0.576136 0.224611 0.197493
O O3 0.500000 0.000000 0.258567
O O4 0.500000 0.500000 0.430907
O O5 0.576201 0.260119 0.460461
O O6 0.182806 0.500000 0.186174
O O7 0.272747 0.719934 0.210733
O O8 0.130369 0.749905 0.250918
O O9 0.174245 0.727392 0.086098
O O10 0.345975 0.155054 0.580861
O O11 0.370190 0.000000 0.714106
O O12 0.125955 0.225356 0.418915
O O13 0.000000 0.220690 0.329495
O O14 0.092856 0.000000 0.324939
O O15 0.809958 0.500000 0.990439
O O16 0.730654 0.269330 0.956270
O O17 0.359610 0.500000 0.944418
#
# Coordination Sequence:
#
# PCOD9358835 Si02
#       7
#     4   4   8   8   8   8   8
#     4  12  25  36  51  77 109 149 193 228 269 332
#     4  12  25  36  49  77 115 147 183 232 279 320
#     4   9  19  37  61  86 112 147 190 233 282 340
#     4   9  19  37  58  80 110 143 179 233 288 328
#     4  10  21  36  56  85 118 149 185 234 286 334
#     4   8  17  36  60  83 110 149 191 229 275 338
#     4   9  18  36  59  79 104 143 187 227 276 335
#
# _framework density 18.859449999999999
#
# number of rings (size 3 to 8) (size 9 to 14) (size 15 to 20)
#    0.000    2.500    0.000    4.000    2.333    4.333 
#    0.000    5.000    0.000    0.000    0.000    0.000 
#    0.000    0.000    0.000    0.000    0.000    0.000 
#
# Total GULP energy -133799.157331 kJ/mol
# GULP energy per Si atom -5574.964889 kJ/mol
# Density = 1.881653 g / cm^3
# Si number density = 18.859450 Si / 1000 Ang^3
#
#
#
# Elastic Constant Matrix: (Units=GPa)
#
#
# Indices 1 2 3 4 5 6 
#
# 1 181.9667 42.7984 69.5791 0.0000 0.0000 0.0000
# 2 42.7984 25.4686 10.7301 0.0000 0.0000 0.0000
# 3 69.5791 10.7301 74.8914 0.0000 0.0000 0.0000
# 4 0.0000 0.0000 0.0000 27.2667 0.0000 0.0000
# 5 0.0000 0.0000 0.0000 0.0000 37.6598 0.0000
# 6 0.0000 0.0000 0.0000 0.0000 0.0000 17.5027
#
#
#
# Elastic Compliance Matrix: (Units=1/GPa)
#
#
# Indices 1 2 3 4 5 6 
#
# 1 0.013834 -0.018977 -0.010133 0.000000 0.000000 0.000000
# 2 -0.018977 0.067820 0.007914 0.000000 0.000000 0.000000
# 3 -0.010133 0.007914 0.021633 0.000000 0.000000 0.000000
# 4 0.000000 0.000000 0.000000 0.036675 0.000000 0.000000
# 5 0.000000 0.000000 0.000000 0.000000 0.026554 0.000000
# 6 0.000000 0.000000 0.000000 0.000000 0.000000 0.057134
#
#
# Mechanical properties :
#
#
# Convention : Reuss Voigt Hill
#
# Bulk Modulus (GPa) = 16.42196 58.72688 37.57442
# Shear Modulus (GPa) = 17.46171 27.10044 22.28108
#
# Velocity S-wave (km/s) = 3.04614 3.79485 3.44092
# Velocity P-wave (km/s) = 4.59330 7.09986 5.97940
#
# Compressibility (1/GPa) = 0.06089406
#
# Stress axis : x y z
#
# Youngs Moduli (GPa) = 72.28701 14.74489 46.22484
#
# Poissons Ratio (x) = 0.27982 0.46842
# Poissons Ratio (y) = 1.37182 -0.36584
# Poissons Ratio (z) = 0.73252 -0.11670
#
# Static dielectric constant tensor:
#      x y z
#    x 1.779920 0.000000 0.000000 
#    y 0.000000 1.646530 0.000000 
#    z 0.000000 0.000000 1.678810 
# 
# From -- ./inp_files/15058.got.cif
#   From: 2010.05.17/outbox.cif.g08.bks.cpg/sg38_8_cif.got.tgz:15058.got - 2010.06.03 18:07:57.
