data_PCOD9358391
_publ_section_title
;
Structure prediction by ZEFSAII (Michael W. Deem and Ramdas Pophale) SiO2 
 PCOD9358391
Probable space group: A M M 2
;
_chemical_formula_sum "Si O2"
_cell_formula_units_Z 48
_cell_length_a 7.619463
_cell_length_b 14.395374
_cell_length_c 19.110470
_cell_angle_alpha 90.000000
_cell_angle_beta 90.000000
_cell_angle_gamma 90.000000
_cell_volume 2096.132276
_symmetry_space_group_name_H-M "A M M 2"
_symmetry_group_IT_number 38
_symmetry_cell_setting 'orthorhombic'
loop_
_space_group_symop_operation_xyz
x,y,z
-x,-y,z
-x,y,z
x,-y,z
x,1/2+y,1/2+z
-x,1/2-y,1/2+z
-x,1/2+y,1/2+z
x,1/2-y,1/2+z
loop_
_atom_site_type_symbol
_atom_site_label
_atom_site_fract_x
_atom_site_fract_y
_atom_site_fract_z
Si Si1 0.285160 0.698013 0.834200
Si Si2 0.289914 0.101302 0.197255
Si Si3 0.700457 0.101066 0.810850
Si Si4 0.210650 0.100519 0.970430
Si Si5 0.791978 0.752928 0.080338
Si Si6 0.291626 0.894964 0.477227
O O1 0.500000 0.706116 0.836497
O O2 0.238302 0.620647 0.777376
O O3 0.219327 0.796561 0.802155
O O4 0.223958 0.668283 0.911915
O O5 0.500000 0.096080 0.195621
O O6 0.246977 0.192074 0.151259
O O7 0.220254 0.000000 0.173821
O O8 0.500000 0.102380 0.784250
O O9 0.700793 0.099577 0.895338
O O10 0.778203 0.000000 0.789301
O O11 0.000000 0.110943 0.959437
O O12 0.238604 0.000000 0.003960
O O13 0.281355 0.178965 0.020383
O O14 0.000000 0.751852 0.074636
O O15 0.734031 0.652282 0.053261
O O16 0.500000 0.900255 0.465876
O O17 0.221344 0.000000 0.474333
#
# Coordination Sequence:
#
# PCOD9358391 Si02
#       6
#     8   8   8   8   8   8
#     4   9  17  33  56  83 115 146 184 235 287 336
#     4  10  21  37  58  83 112 151 195 236 282 338
#     4   9  16  27  48  78 107 135 172 221 274 326
#     4   9  17  29  46  70 102 138 174 214 262 316
#     4  11  22  36  54  79 114 151 186 230 285 341
#     4  10  20  36  60  86 111 145 191 240 288 339
#
# _framework density 22.899317
#
# number of rings (size 3 to 8) (size 9 to 14) (size 15 to 20)
#    0.000    2.333    1.667    1.500    0.000    4.000 
#    0.000    4.167    0.000    5.000    0.000    0.000 
#    0.000    0.000    0.000    0.000    0.000    0.000 
#
# Total GULP energy -133696.522147 kJ/mol
# GULP energy per Si atom -5570.688423 kJ/mol
# Density = 2.284720 g / cm^3
# Si number density = 22.899317 Si / 1000 Ang^3
#
#
#
# Elastic Constant Matrix: (Units=GPa)
#
#
# Indices 1 2 3 4 5 6 
#
# 1 49.1353 10.5513 -6.2237 0.0000 0.0000 0.0000
# 2 10.5513 156.1543 36.7993 0.0000 0.0000 0.0000
# 3 -6.2237 36.7993 72.3101 0.0000 0.0000 0.0000
# 4 0.0000 0.0000 0.0000 18.9251 0.0000 0.0000
# 5 0.0000 0.0000 0.0000 0.0000 29.2970 0.0000
# 6 0.0000 0.0000 0.0000 0.0000 0.0000 1.4173
#
#
#
# Elastic Compliance Matrix: (Units=1/GPa)
#
#
# Indices 1 2 3 4 5 6 
#
# 1 0.021173 -0.002114 0.002898 0.000000 0.000000 0.000000
# 2 -0.002114 0.007488 -0.003992 0.000000 0.000000 0.000000
# 3 0.002898 -0.003992 0.016111 0.000000 0.000000 0.000000
# 4 0.000000 0.000000 0.000000 0.052840 0.000000 0.000000
# 5 0.000000 0.000000 0.000000 0.000000 0.034133 0.000000
# 6 0.000000 0.000000 0.000000 0.000000 0.000000 0.705558
#
#
# Mechanical properties :
#
#
# Convention : Reuss Voigt Hill
#
# Bulk Modulus (GPa) = 26.07224 39.98374 33.02799
# Shear Modulus (GPa) = 5.83769 25.69276 15.76522
#
# Velocity S-wave (km/s) = 1.59838 3.35324 2.62670
# Velocity P-wave (km/s) = 3.84925 5.70008 4.86352
#
# Compressibility (1/GPa) = 0.03835497
#
# Stress axis : x y z
#
# Youngs Moduli (GPa) = 47.23019 133.55431 62.07113
#
# Poissons Ratio (x) = 0.28228 -0.17988
# Poissons Ratio (y) = 0.09983 0.24781
# Poissons Ratio (z) = -0.13687 0.53321
#
# Static dielectric constant tensor:
#      x y z
#    x 1.845120 0.000000 0.000000 
#    y 0.000000 2.002420 0.000000 
#    z 0.000000 0.000000 1.832830 
# 
# From -- ./inp_files/16641.got.cif
#   From: 2010.05.17/outbox.cif.g08.bks.cpg/sg38_9_cif.got.tgz:16641.got - 2010.06.03 18:07:57.
