data_PCOD9358467
_publ_section_title
;
Structure prediction by ZEFSAII (Michael W. Deem and Ramdas Pophale) SiO2 
 PCOD9358467
Probable space group: A M M 2
;
_chemical_formula_sum "Si O2"
_cell_formula_units_Z 64
_cell_length_a 19.271784
_cell_length_b 7.670484
_cell_length_c 20.618384
_cell_angle_alpha 90.000000
_cell_angle_beta 90.000000
_cell_angle_gamma 90.000000
_cell_volume 3047.890158
_symmetry_space_group_name_H-M "A M M 2"
_symmetry_group_IT_number 38
_symmetry_cell_setting 'orthorhombic'
loop_
_space_group_symop_operation_xyz
x,y,z
-x,-y,z
-x,y,z
x,-y,z
x,1/2+y,1/2+z
-x,1/2-y,1/2+z
-x,1/2+y,1/2+z
x,1/2-y,1/2+z
loop_
_atom_site_type_symbol
_atom_site_label
_atom_site_fract_x
_atom_site_fract_y
_atom_site_fract_z
Si Si1 0.080675 0.287340 0.468690
Si Si2 0.652385 0.293524 0.651293
Si Si3 0.328490 0.205813 0.396533
Si Si4 0.580507 0.288752 0.521166
Si Si5 0.080261 0.789015 0.114509
Si Si6 0.422016 0.213607 0.278685
Si Si7 0.798295 0.703967 0.212660
Si Si8 0.181078 0.798758 0.858366
O O1 0.085549 0.500000 0.468820
O O2 0.102117 0.231950 0.541608
O O3 0.125282 0.220687 0.408206
O O4 0.000000 0.242405 0.461062
O O5 0.639775 0.500000 0.648369
O O6 0.624976 0.224520 0.582920
O O7 0.605075 0.224579 0.709555
O O8 0.732103 0.273077 0.672734
O O9 0.377919 0.234397 0.457457
O O10 0.369425 0.271447 0.333669
O O11 0.253765 0.293641 0.396515
O O12 0.315718 0.000000 0.389352
O O13 0.500000 0.229973 0.522325
O O14 0.578920 0.500000 0.521785
O O15 0.132932 0.728691 0.169697
O O16 0.000000 0.734551 0.124905
O O17 0.080951 0.000000 0.114895
O O18 0.500000 0.269457 0.292204
O O19 0.421548 0.000000 0.278986
O O20 0.783957 0.500000 0.220596
O O21 0.807686 0.778046 0.285929
O O22 0.159909 0.000000 0.847566
#
# Coordination Sequence:
#
# PCOD9358467 Si02
#       8
#     8   8   8   8   8   8   8   8
#     4   8  16  34  60  85 106 138 188 235 271 319
#     4  10  20  37  59  80 107 147 192 235 276 333
#     4  11  22  36  56  83 116 150 184 230 283 337
#     4  10  22  39  59  83 110 143 187 238 287 337
#     4   9  19  37  61  86 111 144 190 236 275 328
#     4   9  17  32  56  81 103 137 187 233 273 322
#     4  11  23  36  54  84 121 152 183 233 288 334
#     4  10  21  37  57  82 114 151 191 232 275 332
#
# _framework density 20.998134
#
# number of rings (size 3 to 8) (size 9 to 14) (size 15 to 20)
#    0.000    2.250    1.250    2.250    1.750    4.000 
#    0.000    1.250    0.000    3.000    0.000    0.000 
#    0.000    0.000    0.000    0.000    0.000    0.000 
#
# Total GULP energy -178612.733591 kJ/mol
# GULP energy per Si atom -5581.647925 kJ/mol
# Density = 2.095034 g / cm^3
# Si number density = 20.998134 Si / 1000 Ang^3
#
#
#
# Elastic Constant Matrix: (Units=GPa)
#
#
# Indices 1 2 3 4 5 6 
#
# 1 81.2288 -11.4423 37.2823 0.0000 0.0000 0.0000
# 2 -11.4423 36.2001 -0.1779 0.0000 0.0000 0.0000
# 3 37.2823 -0.1779 111.2768 0.0000 0.0000 0.0000
# 4 0.0000 0.0000 0.0000 11.4431 0.0000 0.0000
# 5 0.0000 0.0000 0.0000 0.0000 41.5952 0.0000
# 6 0.0000 0.0000 0.0000 0.0000 0.0000 12.5684
#
#
#
# Elastic Compliance Matrix: (Units=1/GPa)
#
#
# Indices 1 2 3 4 5 6 
#
# 1 0.015347 0.004826 -0.005134 0.000000 0.000000 0.000000
# 2 0.004826 0.029142 -0.001570 0.000000 0.000000 0.000000
# 3 -0.005134 -0.001570 0.010704 0.000000 0.000000 0.000000
# 4 0.000000 0.000000 0.000000 0.087389 0.000000 0.000000
# 5 0.000000 0.000000 0.000000 0.000000 0.024041 0.000000
# 6 0.000000 0.000000 0.000000 0.000000 0.000000 0.079564
#
#
# Mechanical properties :
#
#
# Convention : Reuss Voigt Hill
#
# Bulk Modulus (GPa) = 19.44167 31.11445 25.27806
# Shear Modulus (GPa) = 18.72026 26.65758 22.68892
#
# Velocity S-wave (km/s) = 2.98907 3.56690 3.29069
# Velocity P-wave (km/s) = 4.60343 5.64035 5.14807
#
# Compressibility (1/GPa) = 0.05143591
#
# Stress axis : x y z
#
# Youngs Moduli (GPa) = 65.15856 34.31489 93.42076
#
# Poissons Ratio (x) = -0.16560 0.47964
# Poissons Ratio (y) = -0.31444 0.14669
# Poissons Ratio (z) = 0.33454 0.05388
#
# Static dielectric constant tensor:
#      x y z
#    x 1.745410 0.000000 0.000000 
#    y 0.000000 1.808160 0.000000 
#    z 0.000000 0.000000 1.759590 
# 
# From -- ./inp_files/21387.got.cif
#   From: 2010.05.17/outbox.cif.g08.bks.cpg/sg38_11_cif.got.tgz:21387.got - 2010.06.03 18:07:57.
