data_PCOD9358225
_publ_section_title
;
Structure prediction by ZEFSAII (Michael W. Deem and Ramdas Pophale) SiO2 
 PCOD9358225
Probable space group: A M M 2
;
_chemical_formula_sum "Si O2"
_cell_formula_units_Z 64
_cell_length_a 24.515537
_cell_length_b 8.394142
_cell_length_c 15.988623
_cell_angle_alpha 90.000000
_cell_angle_beta 90.000000
_cell_angle_gamma 90.000000
_cell_volume 3290.249143
_symmetry_space_group_name_H-M "A M M 2"
_symmetry_group_IT_number 38
_symmetry_cell_setting 'orthorhombic'
loop_
_space_group_symop_operation_xyz
x,y,z
-x,-y,z
-x,y,z
x,-y,z
x,1/2+y,1/2+z
-x,1/2-y,1/2+z
-x,1/2+y,1/2+z
x,1/2-y,1/2+z
loop_
_atom_site_type_symbol
_atom_site_label
_atom_site_fract_x
_atom_site_fract_y
_atom_site_fract_z
Si Si1 0.824962 0.691057 0.752760
Si Si2 0.244143 0.692812 0.594297
Si Si3 0.059584 0.806843 0.497995
Si Si4 0.176429 0.193169 0.436116
Si Si5 0.939719 0.691754 0.195718
Si Si6 0.563038 0.190671 0.759018
Si Si7 0.563118 0.309276 0.941699
Si Si8 0.630591 0.809362 0.100332
O O1 0.820423 0.500000 0.751882
O O2 0.790243 0.752519 0.674363
O O3 0.805818 0.746788 0.843897
O O4 0.888283 0.734028 0.741236
O O5 0.243681 0.500000 0.595833
O O6 0.214601 0.747599 0.510126
O O7 0.306714 0.746669 0.598551
O O8 0.062975 0.500000 0.202309
O O9 0.114147 0.751003 0.452618
O O10 0.064375 0.768917 0.596741
O O11 0.000000 0.749044 0.468291
O O12 0.176209 0.000000 0.438173
O O13 0.941109 0.500000 0.992107
O O14 0.000000 0.743607 0.224894
O O15 0.500000 0.244413 0.746781
O O16 0.581391 0.253930 0.849624
O O17 0.599515 0.247826 0.682332
O O18 0.563307 0.000000 0.761157
O O19 0.500000 0.255419 0.952162
O O20 0.563819 0.500000 0.944456
O O21 0.599401 0.244733 0.016915
O O22 0.630671 0.000000 0.103089
#
# Coordination Sequence:
#
# PCOD9358225 Si02
#       8
#     8   8   8   8   8   8   8   8
#     4  10  21  36  55  80 109 139 178 230 282 329
#     4  10  23  41  55  76 113 149 184 234 285 325
#     4   8  14  27  49  76 104 133 170 218 269 327
#     4  10  20  35  58  82 103 140 188 228 274 334
#     4   9  17  31  53  79 107 139 175 218 271 334
#     4  10  21  38  61  91 125 157 191 232 281 342
#     4  10  21  38  61  90 122 153 188 236 292 345
#     4  11  23  38  58  83 116 159 202 243 288 336
#
# _framework density 19.451414
#
# number of rings (size 3 to 8) (size 9 to 14) (size 15 to 20)
#    0.000    2.250    1.250    2.250    0.000    6.250 
#    0.000    2.500    0.000    0.375    0.000    0.000 
#    0.000    0.000    0.000    0.000    0.000    0.000 
#
# Total GULP energy -178645.611973 kJ/mol
# GULP energy per Si atom -5582.675374 kJ/mol
# Density = 1.940714 g / cm^3
# Si number density = 19.451414 Si / 1000 Ang^3
#
#
#
# Elastic Constant Matrix: (Units=GPa)
#
#
# Indices 1 2 3 4 5 6 
#
# 1 121.5025 14.9593 92.9083 0.0000 0.0000 0.0000
# 2 14.9593 13.8025 19.9592 0.0000 0.0000 0.0000
# 3 92.9083 19.9592 165.7710 0.0000 0.0000 0.0000
# 4 0.0000 0.0000 0.0000 27.1610 0.0000 0.0000
# 5 0.0000 0.0000 0.0000 0.0000 -5.0885 0.0000
# 6 0.0000 0.0000 0.0000 0.0000 0.0000 25.0173
#
#
#
# Elastic Compliance Matrix: (Units=1/GPa)
#
#
# Indices 1 2 3 4 5 6 
#
# 1 0.014667 -0.004854 -0.007636 0.000000 0.000000 0.000000
# 2 -0.004854 0.089331 -0.008035 0.000000 0.000000 0.000000
# 3 -0.007636 -0.008035 0.011279 0.000000 0.000000 0.000000
# 4 0.000000 0.000000 0.000000 0.036818 0.000000 0.000000
# 5 0.000000 0.000000 0.000000 0.000000 -0.196523 0.000000
# 6 0.000000 0.000000 0.000000 0.000000 0.000000 0.039972
#
#
# Mechanical properties :
#
#
# Convention : Reuss Voigt Hill
#
# Bulk Modulus (GPa) = 13.47215 61.85882 37.66549
# Shear Modulus (GPa) = 81.51836 20.96791 51.24314
#
# Velocity S-wave (km/s) = 6.48072 3.28680 5.13823
# Velocity P-wave (km/s) = 7.93352 6.80256 7.38970
#
# Compressibility (1/GPa) = 0.07422721
#
# Stress axis : x y z
#
# Youngs Moduli (GPa) = 68.18218 11.19430 88.65804
#
# Poissons Ratio (x) = 0.05434 0.67696
# Poissons Ratio (y) = 0.33098 0.71236
# Poissons Ratio (z) = 0.52061 0.08995
#
# Static dielectric constant tensor:
#      x y z
#    x 1.675640 0.000000 0.000000 
#    y 0.000000 1.668190 0.000000 
#    z 0.000000 0.000000 1.671590 
# 
# From -- ./inp_files/15762.got.cif
#   From: 2010.05.17/outbox.cif.g08.bks.cpg/sg38_8_cif.got.tgz:15762.got - 2010.06.03 18:07:57.
