data_PCOD9358557
_publ_section_title
;
Structure prediction by ZEFSAII (Michael W. Deem and Ramdas Pophale) SiO2 
 PCOD9358557
Probable space group: A M M 2
;
_chemical_formula_sum "Si O2"
_cell_formula_units_Z 40
_cell_length_a 8.091740
_cell_length_b 7.842378
_cell_length_c 29.838095
_cell_angle_alpha 90.000000
_cell_angle_beta 90.000000
_cell_angle_gamma 90.000000
_cell_volume 1893.480267
_symmetry_space_group_name_H-M "A M M 2"
_symmetry_group_IT_number 38
_symmetry_cell_setting 'orthorhombic'
loop_
_space_group_symop_operation_xyz
x,y,z
-x,-y,z
-x,y,z
x,-y,z
x,1/2+y,1/2+z
-x,1/2-y,1/2+z
-x,1/2+y,1/2+z
x,1/2-y,1/2+z
loop_
_atom_site_type_symbol
_atom_site_label
_atom_site_fract_x
_atom_site_fract_y
_atom_site_fract_z
Si Si1 0.818875 0.790845 0.739520
Si Si2 0.309823 0.295388 0.335084
Si Si3 0.500000 0.301950 0.586586
Si Si4 0.817738 0.793490 0.527900
Si Si5 0.309650 0.204752 0.432637
Si Si6 0.500000 0.301088 0.187385
O O1 0.785870 0.738050 0.790945
O O2 0.667239 0.729345 0.709145
O O3 0.000000 0.734424 0.724533
O O4 0.819871 0.000000 0.738602
O O5 0.500000 0.231391 0.332985
O O6 0.316148 0.500000 0.332880
O O7 0.240427 0.249709 0.383842
O O8 0.500000 0.500000 0.597100
O O9 0.336492 0.260402 0.558029
O O10 0.500000 0.208896 0.634115
O O11 0.785480 0.735278 0.476708
O O12 0.000000 0.736386 0.543009
O O13 0.817936 0.000000 0.527893
O O14 0.500000 0.268394 0.434669
O O15 0.315177 0.000000 0.435117
O O16 0.500000 0.500000 0.200608
#
# Coordination Sequence:
#
# PCOD9358557 Si02
#       6
#     8   8   4   8   8   4
#     4   9  17  31  54  82 108 139 183 231 275 324
#     4   9  16  28  48  76 110 147 184 223 270 326
#     4  12  26  42  61  86 119 151 182 237 305 362
#     4  10  21  40  65  88 113 151 200 244 281 336
#     4   9  17  31  52  80 114 149 186 229 275 328
#     4  10  20  38  61  80 103 139 188 239 281 336
#
# _framework density 21.125122000000001
#
# number of rings (size 3 to 8) (size 9 to 14) (size 15 to 20)
#    0.000    2.400    2.000    0.900    0.000    2.800 
#    0.000    3.000    0.000    1.200    0.000    0.000 
#    0.000    0.000    0.000    0.000    0.000    0.000 
#
# Total GULP energy -111623.522889 kJ/mol
# GULP energy per Si atom -5581.176144 kJ/mol
# Density = 2.107704 g / cm^3
# Si number density = 21.125122 Si / 1000 Ang^3
#
#
#
# Elastic Constant Matrix: (Units=GPa)
#
#
# Indices 1 2 3 4 5 6 
#
# 1 167.2138 4.9208 76.4310 0.0000 0.0000 0.0000
# 2 4.9208 18.7940 -12.9481 0.0000 0.0000 0.0000
# 3 76.4310 -12.9481 113.7804 0.0000 0.0000 0.0000
# 4 0.0000 0.0000 0.0000 22.9765 0.0000 0.0000
# 5 0.0000 0.0000 0.0000 0.0000 -2.1590 0.0000
# 6 0.0000 0.0000 0.0000 0.0000 0.0000 4.4073
#
#
#
# Elastic Compliance Matrix: (Units=1/GPa)
#
#
# Indices 1 2 3 4 5 6 
#
# 1 0.009509 -0.007477 -0.007238 0.000000 0.000000 0.000000
# 2 -0.007477 0.063613 0.012261 0.000000 0.000000 0.000000
# 3 -0.007238 0.012261 0.015047 0.000000 0.000000 0.000000
# 4 0.000000 0.000000 0.000000 0.043523 0.000000 0.000000
# 5 0.000000 0.000000 0.000000 0.000000 -0.463183 0.000000
# 6 0.000000 0.000000 0.000000 0.000000 0.000000 0.226899
#
#
# Mechanical properties :
#
#
# Convention : Reuss Voigt Hill
#
# Bulk Modulus (GPa) = 12.01030 48.51063 30.26046
# Shear Modulus (GPa) = -69.51067 20.47059 -24.52004
#
# Velocity S-wave (km/s) = -5.74245 3.11628 -3.41061
# Velocity P-wave (km/s) = 6.18627 5.99680 1.07432
#
# Compressibility (1/GPa) = 0.08326187
#
# Stress axis : x y z
#
# Youngs Moduli (GPa) = 105.16416 15.71996 66.46055
#
# Poissons Ratio (x) = 0.11753 0.48107
# Poissons Ratio (y) = 0.78627 -0.81490
# Poissons Ratio (z) = 0.76122 -0.19275
#
# Static dielectric constant tensor:
#      x y z
#    x 1.778410 0.000000 0.000000 
#    y 0.000000 1.766620 0.000000 
#    z 0.000000 0.000000 1.737070 
# 
# From -- ./inp_files/23266.got.cif
#   From: 2010.05.17/outbox.cif.g08.bks.cpg/sg38_12_cif.got.tgz:23266.got - 2010.06.03 18:07:57.
