data_PCOD9358237
_publ_section_title
;
Structure prediction by ZEFSAII (Michael W. Deem and Ramdas Pophale) SiO2 
 PCOD9358237
Probable space group: A M M 2
;
_chemical_formula_sum "Si O2"
_cell_formula_units_Z 48
_cell_length_a 14.364411
_cell_length_b 8.884174
_cell_length_c 21.020485
_cell_angle_alpha 90.000000
_cell_angle_beta 90.000000
_cell_angle_gamma 90.000000
_cell_volume 2682.548674
_symmetry_space_group_name_H-M "A M M 2"
_symmetry_group_IT_number 38
_symmetry_cell_setting 'orthorhombic'
loop_
_space_group_symop_operation_xyz
x,y,z
-x,-y,z
-x,y,z
x,-y,z
x,1/2+y,1/2+z
-x,1/2-y,1/2+z
-x,1/2+y,1/2+z
x,1/2-y,1/2+z
loop_
_atom_site_type_symbol
_atom_site_label
_atom_site_fract_x
_atom_site_fract_y
_atom_site_fract_z
Si Si1 0.607046 0.320450 0.882490
Si Si2 0.604996 0.819712 0.021975
Si Si3 0.787800 0.320866 0.333350
Si Si4 0.889046 0.677462 0.954560
Si Si5 0.109413 0.181454 0.212545
Si Si6 0.798040 0.818887 0.079034
O O1 0.500000 0.284998 0.865396
O O2 0.618991 0.500000 0.881175
O O3 0.683249 0.242862 0.838409
O O4 0.621356 0.261589 0.954627
O O5 0.500000 0.782377 0.043753
O O6 0.688765 0.782673 0.069612
O O7 0.608390 0.000000 0.010688
O O8 0.786787 0.500000 0.332874
O O9 0.840037 0.262157 0.396471
O O10 0.841067 0.257326 0.272249
O O11 0.867591 0.500000 0.950017
O O12 0.000000 0.696651 0.950532
O O13 0.852049 0.741996 0.021021
O O14 0.159524 0.225373 0.146737
O O15 0.000000 0.219736 0.210218
O O16 0.116483 0.000000 0.219057
O O17 0.808477 0.000000 0.073192
#
# Coordination Sequence:
#
# PCOD9358237 Si02
#       6
#     8   8   8   8   8   8
#     4  10  20  35  58  87 117 150 188 233 287 345
#     4   9  17  31  54  86 120 151 185 228 281 340
#     4  12  24  38  58  84 114 151 195 242 291 346
#     4  11  23  37  56  83 114 147 189 243 295 344
#     4  10  22  40  59  80 114 158 200 243 291 345
#     4  10  20  36  59  86 115 152 193 236 288 344
#
# _framework density 17.893429999999999
#
# number of rings (size 3 to 8) (size 9 to 14) (size 15 to 20)
#    0.000    1.667    1.667    3.500    0.000    6.000 
#    0.000    0.833    0.000    3.000    0.000    0.000 
#    0.000    0.000    0.000    0.000    0.000    0.000 
#
# Total GULP energy -134071.766405 kJ/mol
# GULP energy per Si atom -5586.323600 kJ/mol
# Density = 1.785270 g / cm^3
# Si number density = 17.893430 Si / 1000 Ang^3
#
#
#
# Elastic Constant Matrix: (Units=GPa)
#
#
# Indices 1 2 3 4 5 6 
#
# 1 161.6605 72.0478 93.5345 0.0000 0.0000 0.0000
# 2 72.0478 60.0876 60.9754 0.0000 0.0000 0.0000
# 3 93.5345 60.9754 139.1226 0.0000 0.0000 0.0000
# 4 0.0000 0.0000 0.0000 30.1350 0.0000 0.0000
# 5 0.0000 0.0000 0.0000 0.0000 33.4832 0.0000
# 6 0.0000 0.0000 0.0000 0.0000 0.0000 25.7945
#
#
#
# Elastic Compliance Matrix: (Units=1/GPa)
#
#
# Indices 1 2 3 4 5 6 
#
# 1 0.014312 -0.013321 -0.003784 0.000000 0.000000 0.000000
# 2 -0.013321 0.042372 -0.009615 0.000000 0.000000 0.000000
# 3 -0.003784 -0.009615 0.013946 0.000000 0.000000 0.000000
# 4 0.000000 0.000000 0.000000 0.033184 0.000000 0.000000
# 5 0.000000 0.000000 0.000000 0.000000 0.029866 0.000000
# 6 0.000000 0.000000 0.000000 0.000000 0.000000 0.038768
#
#
# Mechanical properties :
#
#
# Convention : Reuss Voigt Hill
#
# Bulk Modulus (GPa) = 58.17277 90.44292 74.30784
# Shear Modulus (GPa) = 21.58739 26.83675 24.21207
#
# Velocity S-wave (km/s) = 3.47716 3.87694 3.68248
# Velocity P-wave (km/s) = 6.97869 8.40809 7.72651
#
# Compressibility (1/GPa) = 0.01719017
#
# Stress axis : x y z
#
# Youngs Moduli (GPa) = 69.87266 23.60055 71.70541
#
# Poissons Ratio (x) = 0.31438 0.27131
# Poissons Ratio (y) = 0.93076 0.68946
# Poissons Ratio (z) = 0.26438 0.22692
#
# Static dielectric constant tensor:
#      x y z
#    x 1.631440 0.000000 0.000000 
#    y 0.000000 1.598780 0.000000 
#    z 0.000000 0.000000 1.565750 
# 
# From -- ./inp_files/18140.got.cif
#   From: 2010.05.17/outbox.cif.g08.bks.cpg/sg38_10_cif.got.tgz:18140.got - 2010.06.03 18:07:57.
