data_PCOD9358944
_publ_section_title
;
Structure prediction by ZEFSAII (Michael W. Deem and Ramdas Pophale) SiO2 
 PCOD9358944
Probable space group: A M M 2
;
_chemical_formula_sum "Si O2"
_cell_formula_units_Z 58
_cell_length_a 25.393161
_cell_length_b 7.487040
_cell_length_c 14.518092
_cell_angle_alpha 90.000000
_cell_angle_beta 90.000000
_cell_angle_gamma 90.000000
_cell_volume 2760.174020
_symmetry_space_group_name_H-M "A M M 2"
_symmetry_group_IT_number 38
_symmetry_cell_setting 'orthorhombic'
loop_
_space_group_symop_operation_xyz
x,y,z
-x,-y,z
-x,y,z
x,-y,z
x,1/2+y,1/2+z
-x,1/2-y,1/2+z
-x,1/2+y,1/2+z
x,1/2-y,1/2+z
loop_
_atom_site_type_symbol
_atom_site_label
_atom_site_fract_x
_atom_site_fract_y
_atom_site_fract_z
Si Si1 0.647592 0.214036 0.521230
Si Si2 0.355743 0.784343 0.728893
Si Si3 0.559504 0.285735 0.374758
Si Si4 0.060146 0.216615 0.461780
Si Si5 0.000000 0.000000 0.237017
Si Si6 0.731893 0.288195 0.876263
Si Si7 0.152902 0.283362 0.826195
Si Si8 0.081298 0.206014 0.675022
O O1 0.645471 0.282797 0.624865
O O2 0.594082 0.247818 0.465106
O O3 0.696289 0.284647 0.459934
O O4 0.653768 0.000000 0.526074
O O5 0.405470 0.719257 0.788905
O O6 0.303439 0.737361 0.785483
O O7 0.358972 0.000000 0.726470
O O8 0.500000 0.216674 0.378024
O O9 0.556624 0.500000 0.366326
O O10 0.105568 0.279589 0.393187
O O11 0.075882 0.256143 0.567442
O O12 0.000000 0.279791 0.445205
O O13 0.057901 0.000000 0.452706
O O14 0.954861 0.843857 0.229824
O O15 0.737324 0.500000 0.892172
O O16 0.790572 0.217908 0.861076
O O17 0.153726 0.500000 0.827828
O O18 0.137997 0.223390 0.723046
O O19 0.064173 0.000000 0.682163
#
# Coordination Sequence:
#
# PCOD9358944 Si02
#       8
#     8   8   8   8   2   8   8   8
#     4   9  18  33  54  77 103 143 189 225 269 323
#     4   9  18  33  55  77 104 143 184 224 271 322
#     4   9  18  32  49  75 111 144 176 223 276 324
#     4   9  19  35  57  81 111 144 180 223 279 334
#     4  12  22  40  64  82 120 150 182 236 286 338
#     4   9  19  35  53  78 110 143 181 225 274 322
#     4  10  21  37  58  82 115 151 181 231 290 332
#     4  11  23  40  61  87 113 150 191 229 281 347
#
# _framework density 21.013168
#
# number of rings (size 3 to 8) (size 9 to 14) (size 15 to 20)
#    0.000    2.483    1.379    0.207    0.966    3.034 
#    1.241    4.138    0.000    0.000    0.000    0.000 
#    0.000    0.000    0.000    0.000    0.000    0.000 
#
# Total GULP energy -161640.573416 kJ/mol
# GULP energy per Si atom -5573.812876 kJ/mol
# Density = 2.096534 g / cm^3
# Si number density = 21.013168 Si / 1000 Ang^3
#
#
#
# Elastic Constant Matrix: (Units=GPa)
#
#
# Indices 1 2 3 4 5 6 
#
# 1 170.6378 1.9288 92.3986 0.0000 0.0000 0.0000
# 2 1.9288 77.0002 1.2593 0.0000 0.0000 0.0000
# 3 92.3986 1.2593 136.7429 0.0000 0.0000 0.0000
# 4 0.0000 0.0000 0.0000 -9.0799 0.0000 0.0000
# 5 0.0000 0.0000 0.0000 0.0000 6.2194 0.0000
# 6 0.0000 0.0000 0.0000 0.0000 0.0000 17.0687
#
#
#
# Elastic Compliance Matrix: (Units=1/GPa)
#
#
# Indices 1 2 3 4 5 6 
#
# 1 0.009243 -0.000129 -0.006245 0.000000 0.000000 0.000000
# 2 -0.000129 0.012991 -0.000032 0.000000 0.000000 0.000000
# 3 -0.006245 -0.000032 0.011533 0.000000 0.000000 0.000000
# 4 0.000000 0.000000 0.000000 -0.110134 0.000000 0.000000
# 5 0.000000 0.000000 0.000000 0.000000 0.160788 0.000000
# 6 0.000000 0.000000 0.000000 0.000000 0.000000 0.058587
#
#
# Mechanical properties :
#
#
# Convention : Reuss Voigt Hill
#
# Bulk Modulus (GPa) = 47.72252 63.95047 55.83650
# Shear Modulus (GPa) = 30.71160 22.09458 26.40309
#
# Velocity S-wave (km/s) = 3.82716 3.24615 3.54856
# Velocity P-wave (km/s) = 6.50304 6.67454 6.58935
#
# Compressibility (1/GPa) = 0.02095447
#
# Stress axis : x y z
#
# Youngs Moduli (GPa) = 108.18798 76.97782 86.70941
#
# Poissons Ratio (x) = 0.00996 0.54146
# Poissons Ratio (y) = 0.01400 0.00279
# Poissons Ratio (z) = 0.67558 0.00248
#
# Static dielectric constant tensor:
#      x y z
#    x 1.734430 0.000000 0.000000 
#    y 0.000000 1.789600 0.000000 
#    z 0.000000 0.000000 1.771770 
# 
# From -- ./inp_files/15903.got.cif
#   From: 2010.05.17/outbox.cif.g08.bks.cpg/sg38_8_cif.got.tgz:15903.got - 2010.06.03 18:07:57.
