data_PCOD9358711
_publ_section_title
;
Structure prediction by ZEFSAII (Michael W. Deem and Ramdas Pophale) SiO2 
 PCOD9358711
Probable space group: A M M 2
;
_chemical_formula_sum "Si O2"
_cell_formula_units_Z 56
_cell_length_a 21.464994
_cell_length_b 7.328444
_cell_length_c 15.414558
_cell_angle_alpha 90.000000
_cell_angle_beta 90.000000
_cell_angle_gamma 90.000000
_cell_volume 2424.787146
_symmetry_space_group_name_H-M "A M M 2"
_symmetry_group_IT_number 38
_symmetry_cell_setting 'orthorhombic'
loop_
_space_group_symop_operation_xyz
x,y,z
-x,-y,z
-x,y,z
x,-y,z
x,1/2+y,1/2+z
-x,1/2-y,1/2+z
-x,1/2+y,1/2+z
x,1/2-y,1/2+z
loop_
_atom_site_type_symbol
_atom_site_label
_atom_site_fract_x
_atom_site_fract_y
_atom_site_fract_z
Si Si1 0.335679 0.218635 0.628380
Si Si2 0.335773 0.723886 0.929081
Si Si3 0.202273 0.293084 0.137470
Si Si4 0.570281 0.716864 0.782125
Si Si5 0.200913 0.206934 0.430273
Si Si6 0.066663 0.781549 0.385201
Si Si7 0.932889 0.783346 0.679646
O O1 0.346708 0.280303 0.529150
O O2 0.268761 0.289224 0.664347
O O3 0.391464 0.256196 0.693641
O O4 0.328290 0.000000 0.623771
O O5 0.334053 0.500000 0.928674
O O6 0.388286 0.785834 0.862419
O O7 0.266601 0.786159 0.899540
O O8 0.198733 0.500000 0.174202
O O9 0.134511 0.208007 0.153068
O O10 0.208404 0.304338 0.033710
O O11 0.500000 0.789296 0.778497
O O12 0.565844 0.500000 0.794977
O O13 0.133335 0.292014 0.415127
O O14 0.197386 0.000000 0.394207
O O15 0.065173 0.744871 0.282756
O O16 0.000000 0.713915 0.420958
O O17 0.067140 0.000000 0.401901
O O18 0.000000 0.713514 0.645750
O O19 0.932096 0.000000 0.658405
#
# Coordination Sequence:
#
# PCOD9358711 Si02
#       7
#     8   8   8   8   8   8   8
#     4   9  18  34  55  77 101 130 167 209 246 288
#     4   8  16  32  52  73  99 132 167 200 239 293
#     4   8  15  28  46  69  93 118 156 201 237 273
#     4  10  21  35  52  77 104 130 163 200 243 299
#     4   8  14  26  45  67  89 117 155 196 234 272
#     4   9  17  27  41  65  93 119 152 195 236 273
#     4   9  17  28  42  62  91 126 157 187 232 285
#
# _framework density 23.094811
#
# number of rings (size 3 to 8) (size 9 to 14) (size 15 to 20)
#    0.000    3.286    0.000    1.714    2.000    1.429 
#    0.000    5.000    0.000    4.286    0.000    4.000 
#    0.000    0.000    0.000    0.000    0.000    0.000 
#
# Total GULP energy -156046.848840 kJ/mol
# GULP energy per Si atom -5573.101744 kJ/mol
# Density = 2.304225 g / cm^3
# Si number density = 23.094811 Si / 1000 Ang^3
#
#
#
# Elastic Constant Matrix: (Units=GPa)
#
#
# Indices 1 2 3 4 5 6 
#
# 1 304.7126 14.3684 87.4323 0.0000 0.0000 0.0000
# 2 14.3684 94.7072 -4.4923 0.0000 0.0000 0.0000
# 3 87.4323 -4.4923 73.2928 0.0000 0.0000 0.0000
# 4 0.0000 0.0000 0.0000 7.4350 0.0000 0.0000
# 5 0.0000 0.0000 0.0000 0.0000 55.7013 0.0000
# 6 0.0000 0.0000 0.0000 0.0000 0.0000 -29.7031
#
#
#
# Elastic Compliance Matrix: (Units=1/GPa)
#
#
# Indices 1 2 3 4 5 6 
#
# 1 0.005094 -0.001064 -0.006143 0.000000 0.000000 0.000000
# 2 -0.001064 0.010812 0.001932 0.000000 0.000000 0.000000
# 3 -0.006143 0.001932 0.021090 0.000000 0.000000 0.000000
# 4 0.000000 0.000000 0.000000 0.134499 0.000000 0.000000
# 5 0.000000 0.000000 0.000000 0.000000 0.017953 0.000000
# 6 0.000000 0.000000 0.000000 0.000000 0.000000 -0.033666
#
#
# Mechanical properties :
#
#
# Convention : Reuss Voigt Hill
#
# Bulk Modulus (GPa) = 37.81106 74.14771 55.97938
# Shear Modulus (GPa) = 28.54746 31.71358 30.13052
#
# Velocity S-wave (km/s) = 3.51963 3.70968 3.61591
# Velocity P-wave (km/s) = 5.73801 7.10805 6.45946
#
# Compressibility (1/GPa) = 0.02644729
#
# Stress axis : x y z
#
# Youngs Moduli (GPa) = 196.29186 92.49001 47.41620
#
# Poissons Ratio (x) = 0.09843 0.29125
# Poissons Ratio (y) = 0.20891 -0.09162
# Poissons Ratio (z) = 1.20572 -0.17872
#
# Static dielectric constant tensor:
#      x y z
#    x 1.930890 0.000000 0.000000 
#    y 0.000000 1.698560 0.000000 
#    z 0.000000 0.000000 1.813550 
# 
# From -- ./inp_files/15489.got.cif
#   From: 2010.05.17/outbox.cif.g08.bks.cpg/sg38_8_cif.got.tgz:15489.got - 2010.06.03 18:07:57.
