data_PCOD9358844
_publ_section_title
;
Structure prediction by ZEFSAII (Michael W. Deem and Ramdas Pophale) SiO2 
 PCOD9358844
Probable space group: A M M 2
;
_chemical_formula_sum "Si O2"
_cell_formula_units_Z 48
_cell_length_a 20.708299
_cell_length_b 12.707258
_cell_length_c 8.390881
_cell_angle_alpha 90.000000
_cell_angle_beta 90.000000
_cell_angle_gamma 90.000000
_cell_volume 2208.024239
_symmetry_space_group_name_H-M "A M M 2"
_symmetry_group_IT_number 38
_symmetry_cell_setting 'orthorhombic'
loop_
_space_group_symop_operation_xyz
x,y,z
-x,-y,z
-x,y,z
x,-y,z
x,1/2+y,1/2+z
-x,1/2-y,1/2+z
-x,1/2+y,1/2+z
x,1/2-y,1/2+z
loop_
_atom_site_type_symbol
_atom_site_label
_atom_site_fract_x
_atom_site_fract_y
_atom_site_fract_z
Si Si1 0.657493 0.873737 0.044650
Si Si2 0.571508 0.871906 0.353807
Si Si3 0.245617 0.310637 0.091080
Si Si4 0.922797 0.619191 0.553603
Si Si5 0.848898 0.787721 0.337775
Si Si6 0.381183 0.617758 0.197831
O O1 0.621727 0.847081 0.211729
O O2 0.721020 0.801303 0.043982
O O3 0.669804 0.000000 0.041467
O O4 0.617747 0.847378 0.882527
O O5 0.500000 0.834578 0.308385
O O6 0.586334 0.839800 0.536128
O O7 0.571427 0.000000 0.355184
O O8 0.194541 0.286908 0.227105
O O9 0.305296 0.379073 0.150396
O O10 0.203706 0.350073 0.943087
O O11 0.906843 0.500000 0.500085
O O12 0.892185 0.710327 0.444736
O O13 0.892544 0.639367 0.727469
O O14 0.000000 0.629231 0.557205
O O15 0.407022 0.500000 0.208175
#
# Coordination Sequence:
#
# PCOD9358844 Si02
#       6
#     8   8   8   8   8   8
#     4  10  21  37  60  84 115 159 201 252 318 379
#     4   9  19  36  57  82 111 150 204 258 311 376
#     4  11  20  37  58  86 123 150 193 253 301 368
#     4  10  22  42  65  91 128 169 209 257 310 369
#     4  10  22  36  62  93 121 163 206 253 309 368
#     4  10  21  36  57  83 115 155 194 248 314 373
#
# _framework density 21.738892
#
# number of rings (size 3 to 8) (size 9 to 14) (size 15 to 20)
#    0.000    2.000    1.667    1.500    0.000    4.667 
#    0.000    6.667    0.000    9.000    0.000    0.000 
#    0.000    0.000    0.000    0.000    0.000    0.000 
#
# Total GULP energy -133902.915224 kJ/mol
# GULP energy per Si atom -5579.288134 kJ/mol
# Density = 2.168941 g / cm^3
# Si number density = 21.738892 Si / 1000 Ang^3
#
#
#
# Elastic Constant Matrix: (Units=GPa)
#
#
# Indices 1 2 3 4 5 6 
#
# 1 78.5855 3.4500 25.8683 0.0000 0.0000 0.0000
# 2 3.4500 74.5546 25.7707 0.0000 0.0000 0.0000
# 3 25.8683 25.7707 117.6119 0.0000 0.0000 0.0000
# 4 0.0000 0.0000 0.0000 -22.6471 0.0000 0.0000
# 5 0.0000 0.0000 0.0000 0.0000 36.0209 0.0000
# 6 0.0000 0.0000 0.0000 0.0000 0.0000 15.9147
#
#
#
# Elastic Compliance Matrix: (Units=1/GPa)
#
#
# Indices 1 2 3 4 5 6 
#
# 1 0.013732 0.000442 -0.003117 0.000000 0.000000 0.000000
# 2 0.000442 0.014526 -0.003280 0.000000 0.000000 0.000000
# 3 -0.003117 -0.003280 0.009907 0.000000 0.000000 0.000000
# 4 0.000000 0.000000 0.000000 -0.044156 0.000000 0.000000
# 5 0.000000 0.000000 0.000000 0.000000 0.027762 0.000000
# 6 0.000000 0.000000 0.000000 0.000000 0.000000 0.062835
#
#
# Mechanical properties :
#
#
# Convention : Reuss Voigt Hill
#
# Bulk Modulus (GPa) = 38.08883 42.32556 40.20719
# Shear Modulus (GPa) = 47.49797 20.23525 33.86661
#
# Velocity S-wave (km/s) = 4.67940 3.05426 3.95128
# Velocity P-wave (km/s) = 6.83774 5.65246 6.27316
#
# Compressibility (1/GPa) = 0.02625442
#
# Stress axis : x y z
#
# Youngs Moduli (GPa) = 72.82441 68.84032 100.94003
#
# Poissons Ratio (x) = -0.03043 0.31464
# Poissons Ratio (y) = -0.03219 0.33110
# Poissons Ratio (z) = 0.22700 0.22581
#
# Static dielectric constant tensor:
#      x y z
#    x 1.759380 0.000000 0.000000 
#    y 0.000000 1.845460 0.000000 
#    z 0.000000 0.000000 1.825120 
# 
# From -- ./inp_files/6191.got.cif
#   From: 2010.05.17/outbox.cif.g08.bks.cpg/sg38_4_cif.got.tgz:6191.got - 2010.06.03 18:07:57.
