data_PCOD9358450
_publ_section_title
;
Structure prediction by ZEFSAII (Michael W. Deem and Ramdas Pophale) SiO2 
 PCOD9358450
Probable space group: A M M 2
;
_chemical_formula_sum "Si O2"
_cell_formula_units_Z 64
_cell_length_a 7.908809
_cell_length_b 32.058343
_cell_length_c 12.113887
_cell_angle_alpha 90.000000
_cell_angle_beta 90.000000
_cell_angle_gamma 90.000000
_cell_volume 3071.395027
_symmetry_space_group_name_H-M "A M M 2"
_symmetry_group_IT_number 38
_symmetry_cell_setting 'orthorhombic'
loop_
_space_group_symop_operation_xyz
x,y,z
-x,-y,z
-x,y,z
x,-y,z
x,1/2+y,1/2+z
-x,1/2-y,1/2+z
-x,1/2+y,1/2+z
x,1/2-y,1/2+z
loop_
_atom_site_type_symbol
_atom_site_label
_atom_site_fract_x
_atom_site_fract_y
_atom_site_fract_z
Si Si1 0.203374 0.932513 0.940840
Si Si2 0.697213 0.372966 0.071506
Si Si3 0.702181 0.045107 0.695707
Si Si4 0.206441 0.836035 0.933860
Si Si5 0.699948 0.045669 0.186181
Si Si6 0.198615 0.626516 0.821928
Si Si7 0.798735 0.204888 0.708944
Si Si8 0.207439 0.201733 0.165873
O O1 0.264558 0.951864 0.826353
O O2 0.256581 0.884139 0.937719
O O3 0.000000 0.935188 0.943753
O O4 0.270391 0.951071 0.054864
O O5 0.500000 0.370794 0.099592
O O6 0.770918 0.413450 0.135456
O O7 0.772396 0.329417 0.114158
O O8 0.717579 0.378286 0.940930
O O9 0.500000 0.045043 0.677848
O O10 0.768178 0.000000 0.655909
O O11 0.268853 0.814291 0.822855
O O12 0.000000 0.835680 0.932009
O O13 0.260625 0.813093 0.044735
O O14 0.500000 0.047470 0.207501
O O15 0.779309 0.085351 0.247091
O O16 0.763566 0.000000 0.223287
O O17 0.262035 0.667041 0.754710
O O18 0.000000 0.632752 0.842070
O O19 0.732896 0.251299 0.687217
O O20 0.000000 0.209552 0.722471
O O21 0.000000 0.201367 0.166912
#
# Coordination Sequence:
#
# PCOD9358450 Si02
#       8
#     8   8   8   8   8   8   8   8
#     4  11  20  35  60  91 124 152 191 248 299 344
#     4  11  24  41  59  84 121 159 197 246 304 363
#     4  10  22  40  60  82 113 156 200 240 294 363
#     4   9  17  32  56  89 121 148 188 243 295 341
#     4  11  24  41  61  87 122 162 199 238 296 365
#     4  11  23  41  64  89 117 154 204 256 300 351
#     4  10  20  36  63  90 116 154 200 244 292 352
#     4   9  19  35  60  91 118 150 194 245 297 350
#
# _framework density 20.837434999999999
#
# number of rings (size 3 to 8) (size 9 to 14) (size 15 to 20)
#    0.000    1.750    2.500    1.875    1.750    3.750 
#    0.000    2.500    0.000    0.000    0.000    0.000 
#    0.000    0.000    0.000    0.000    0.000    0.000 
#
# Total GULP energy -178765.559293 kJ/mol
# GULP energy per Si atom -5586.423728 kJ/mol
# Density = 2.079001 g / cm^3
# Si number density = 20.837435 Si / 1000 Ang^3
#
#
#
# Elastic Constant Matrix: (Units=GPa)
#
#
# Indices 1 2 3 4 5 6 
#
# 1 19.0948 0.5685 -16.2300 0.0000 0.0000 0.0000
# 2 0.5685 183.0579 51.5074 0.0000 0.0000 0.0000
# 3 -16.2300 51.5074 98.3445 0.0000 0.0000 0.0000
# 4 0.0000 0.0000 0.0000 -117.3272 0.0000 0.0000
# 5 0.0000 0.0000 0.0000 0.0000 22.5989 0.0000
# 6 0.0000 0.0000 0.0000 0.0000 0.0000 20.9634
#
#
#
# Elastic Compliance Matrix: (Units=1/GPa)
#
#
# Indices 1 2 3 4 5 6 
#
# 1 0.062935 -0.003657 0.012302 0.000000 0.000000 0.000000
# 2 -0.003657 0.006619 -0.004070 0.000000 0.000000 0.000000
# 3 0.012302 -0.004070 0.014330 0.000000 0.000000 0.000000
# 4 0.000000 0.000000 0.000000 -0.008523 0.000000 0.000000
# 5 0.000000 0.000000 0.000000 0.000000 0.044250 0.000000
# 6 0.000000 0.000000 0.000000 0.000000 0.000000 0.047702
#
#
# Mechanical properties :
#
#
# Convention : Reuss Voigt Hill
#
# Bulk Modulus (GPa) = 10.74877 41.35433 26.05155
# Shear Modulus (GPa) = 26.43036 2.89045 14.66041
#
# Velocity S-wave (km/s) = 3.56533 1.17905 2.65535
# Velocity P-wave (km/s) = 4.70302 4.66292 4.68301
#
# Compressibility (1/GPa) = 0.09303386
#
# Stress axis : x y z
#
# Youngs Moduli (GPa) = 15.88934 151.07126 69.78216
#
# Poissons Ratio (x) = 0.55243 -0.85843
# Poissons Ratio (y) = 0.05810 0.28404
# Poissons Ratio (z) = -0.19546 0.61491
#
# Static dielectric constant tensor:
#      x y z
#    x 1.757380 0.000000 0.000000 
#    y 0.000000 1.759330 0.000000 
#    z 0.000000 0.000000 1.702080 
# 
# From -- ./inp_files/8543.got.cif
#   From: 2010.05.17/outbox.cif.g08.bks.cpg/sg38_5_cif.got.tgz:8543.got - 2010.06.03 18:07:57.
