data_PCOD9358420
_publ_section_title
;
Structure prediction by ZEFSAII (Michael W. Deem and Ramdas Pophale) SiO2 
 PCOD9358420
Probable space group: A M M 2
;
_chemical_formula_sum "Si O2"
_cell_formula_units_Z 58
_cell_length_a 17.083733
_cell_length_b 13.024659
_cell_length_c 13.218902
_cell_angle_alpha 90.000000
_cell_angle_beta 90.000000
_cell_angle_gamma 90.000000
_cell_volume 2941.335198
_symmetry_space_group_name_H-M "A M M 2"
_symmetry_group_IT_number 38
_symmetry_cell_setting 'orthorhombic'
loop_
_space_group_symop_operation_xyz
x,y,z
-x,-y,z
-x,y,z
x,-y,z
x,1/2+y,1/2+z
-x,1/2-y,1/2+z
-x,1/2+y,1/2+z
x,1/2-y,1/2+z
loop_
_atom_site_type_symbol
_atom_site_label
_atom_site_fract_x
_atom_site_fract_y
_atom_site_fract_z
Si Si1 0.358940 0.829307 0.154070
Si Si2 0.589286 0.887975 0.573107
Si Si3 0.500000 0.500000 0.631436
Si Si4 0.178299 0.383322 0.001756
Si Si5 0.816747 0.669487 0.603756
Si Si6 0.907724 0.612328 0.402810
Si Si7 0.334370 0.116508 0.372388
Si Si8 0.908307 0.825190 0.305443
O O1 0.374391 0.715350 0.113824
O O2 0.429869 0.908873 0.133779
O O3 0.274367 0.860581 0.109474
O O4 0.347558 0.817508 0.274522
O O5 0.500000 0.890144 0.606260
O O6 0.595223 0.880759 0.451587
O O7 0.625600 0.000000 0.599055
O O8 0.180616 0.500000 0.040851
O O9 0.258015 0.361212 0.938759
O O10 0.113217 0.375968 0.913211
O O11 0.172565 0.292591 0.083271
O O12 0.858922 0.622578 0.505854
O O13 0.857570 0.639960 0.709606
O O14 0.894793 0.500000 0.357632
O O15 0.889811 0.705383 0.327759
O O16 0.000000 0.622313 0.428510
O O17 0.325980 0.000000 0.333960
O O18 0.000000 0.837925 0.283421
#
# Coordination Sequence:
#
# PCOD9358420 Si02
#       8
#     8   8   2   8   8   8   8   8
#     4  12  23  39  63  90 125 156 205 255 307 368
#     4  10  22  39  64  89 117 156 200 250 309 367
#     4  12  28  40  58 100 122 162 200 266 312 368
#     4  10  21  38  59  90 121 153 201 252 299 354
#     4  11  22  36  62  88 118 159 199 249 299 356
#     4   9  20  38  58  83 119 159 199 239 288 358
#     4  10  20  36  61  87 113 152 200 243 290 363
#     4  10  21  38  58  87 123 157 196 247 304 356
#
# _framework density 19.718934999999998
#
# number of rings (size 3 to 8) (size 9 to 14) (size 15 to 20)
#    0.000    1.655    4.138    0.414    1.931    1.931 
#    0.000    0.000    1.517    0.000    0.000    0.000 
#    0.000    0.000    0.000    0.000    0.000    0.000 
#
# Total GULP energy -161453.969233 kJ/mol
# GULP energy per Si atom -5567.378249 kJ/mol
# Density = 1.967405 g / cm^3
# Si number density = 19.718935 Si / 1000 Ang^3
#
#
#
# Elastic Constant Matrix: (Units=GPa)
#
#
# Indices 1 2 3 4 5 6 
#
# 1 80.8143 12.8093 9.6574 0.0000 0.0000 0.0000
# 2 12.8093 90.7507 8.8786 0.0000 0.0000 0.0000
# 3 9.6574 8.8786 44.9420 0.0000 0.0000 0.0000
# 4 0.0000 0.0000 0.0000 9.2664 0.0000 0.0000
# 5 0.0000 0.0000 0.0000 0.0000 15.2149 0.0000
# 6 0.0000 0.0000 0.0000 0.0000 0.0000 4.5547
#
#
#
# Elastic Compliance Matrix: (Units=1/GPa)
#
#
# Indices 1 2 3 4 5 6 
#
# 1 0.012919 -0.001583 -0.002464 0.000000 0.000000 0.000000
# 2 -0.001583 0.011430 -0.001918 0.000000 0.000000 0.000000
# 3 -0.002464 -0.001918 0.023159 0.000000 0.000000 0.000000
# 4 0.000000 0.000000 0.000000 0.107916 0.000000 0.000000
# 5 0.000000 0.000000 0.000000 0.000000 0.065725 0.000000
# 6 0.000000 0.000000 0.000000 0.000000 0.000000 0.219552
#
#
# Mechanical properties :
#
#
# Convention : Reuss Voigt Hill
#
# Bulk Modulus (GPa) = 28.10528 31.02195 29.56361
# Shear Modulus (GPa) = 10.76450 18.15133 14.45791
#
# Velocity S-wave (km/s) = 2.33898 3.03727 2.71070
# Velocity P-wave (km/s) = 4.64524 5.29776 4.98219
#
# Compressibility (1/GPa) = 0.03558051
#
# Stress axis : x y z
#
# Youngs Moduli (GPa) = 77.40379 87.48732 43.17934
#
# Poissons Ratio (x) = 0.13845 0.10637
# Poissons Ratio (y) = 0.12249 0.08282
# Poissons Ratio (z) = 0.19069 0.16781
#
# Static dielectric constant tensor:
#      x y z
#    x 1.737030 0.000000 0.000000 
#    y 0.000000 1.729030 0.000000 
#    z 0.000000 0.000000 1.665020 
# 
# From -- ./inp_files/10573.got.cif
#   From: 2010.05.17/outbox.cif.g08.bks.cpg/sg38_6_cif.got.tgz:10573.got - 2010.06.03 18:07:57.
