data_PCOD9358505
_publ_section_title
;
Structure prediction by ZEFSAII (Michael W. Deem and Ramdas Pophale) SiO2 
 PCOD9358505
Probable space group: A M M 2
;
_chemical_formula_sum "Si O2"
_cell_formula_units_Z 56
_cell_length_a 17.033717
_cell_length_b 7.542283
_cell_length_c 19.600560
_cell_angle_alpha 90.000000
_cell_angle_beta 90.000000
_cell_angle_gamma 90.000000
_cell_volume 2518.144982
_symmetry_space_group_name_H-M "A M M 2"
_symmetry_group_IT_number 38
_symmetry_cell_setting 'orthorhombic'
loop_
_space_group_symop_operation_xyz
x,y,z
-x,-y,z
-x,y,z
x,-y,z
x,1/2+y,1/2+z
-x,1/2-y,1/2+z
-x,1/2+y,1/2+z
x,1/2-y,1/2+z
loop_
_atom_site_type_symbol
_atom_site_label
_atom_site_fract_x
_atom_site_fract_y
_atom_site_fract_z
Si Si1 0.589501 0.212493 0.735900
Si Si2 0.322069 0.792064 0.373429
Si Si3 0.852102 0.217264 0.347805
Si Si4 0.000000 0.787699 0.437237
Si Si5 0.587445 0.293574 0.503290
Si Si6 0.147557 0.782742 0.189232
Si Si7 0.696504 0.298234 0.615013
Si Si8 0.000000 0.287496 0.598781
O O1 0.500000 0.267672 0.748202
O O2 0.644773 0.265501 0.798052
O O3 0.625419 0.296102 0.668451
O O4 0.591116 0.000000 0.728404
O O5 0.232937 0.723752 0.375177
O O6 0.383185 0.710259 0.426032
O O7 0.319774 0.000000 0.388697
O O8 0.922640 0.276400 0.396826
O O9 0.861107 0.272122 0.268377
O O10 0.851559 0.000000 0.347526
O O11 0.000000 0.752413 0.518189
O O12 0.000000 0.000000 0.430037
O O13 0.500000 0.216553 0.511249
O O14 0.582190 0.500000 0.523966
O O15 0.657759 0.212840 0.548345
O O16 0.228605 0.720731 0.154296
O O17 0.076459 0.725716 0.140460
O O18 0.148893 0.000000 0.191406
O O19 0.720378 0.500000 0.597444
O O20 0.000000 0.500000 0.603936
#
# Coordination Sequence:
#
# PCOD9358505 Si02
#       8
#     8   8   8   4   8   8   8   4
#     4  11  23  38  57  84 117 149 186 238 293 341
#     4  11  22  37  59  85 112 148 197 240 280 340
#     4   9  18  35  59  85 110 143 189 233 275 329
#     4  10  21  37  59  85 117 152 182 224 280 336
#     4  10  22  38  55  80 116 155 192 235 291 344
#     4   9  17  34  59  86 113 143 187 234 275 327
#     4  10  20  37  61  85 112 151 196 236 280 340
#     4  10  21  35  59  91 117 146 184 228 276 334
#
# _framework density 22.238592000000001
#
# number of rings (size 3 to 8) (size 9 to 14) (size 15 to 20)
#    0.000    2.000    1.429    2.143    2.000    6.000 
#    0.000    1.429    0.000    0.857    0.000    0.000 
#    0.000    0.000    0.000    0.000    0.000    0.000 
#
# Total GULP energy -156386.634296 kJ/mol
# GULP energy per Si atom -5585.236939 kJ/mol
# Density = 2.218798 g / cm^3
# Si number density = 22.238592 Si / 1000 Ang^3
#
#
#
# Elastic Constant Matrix: (Units=GPa)
#
#
# Indices 1 2 3 4 5 6 
#
# 1 131.4716 10.4743 15.6406 0.0000 0.0000 0.0000
# 2 10.4743 58.7709 -0.5446 0.0000 0.0000 0.0000
# 3 15.6406 -0.5446 81.8941 0.0000 0.0000 0.0000
# 4 0.0000 0.0000 0.0000 34.4004 0.0000 0.0000
# 5 0.0000 0.0000 0.0000 0.0000 37.4563 0.0000
# 6 0.0000 0.0000 0.0000 0.0000 0.0000 -14.3612
#
#
#
# Elastic Compliance Matrix: (Units=1/GPa)
#
#
# Indices 1 2 3 4 5 6 
#
# 1 0.007900 -0.001422 -0.001518 0.000000 0.000000 0.000000
# 2 -0.001422 0.017272 0.000386 0.000000 0.000000 0.000000
# 3 -0.001518 0.000386 0.012503 0.000000 0.000000 0.000000
# 4 0.000000 0.000000 0.000000 0.029069 0.000000 0.000000
# 5 0.000000 0.000000 0.000000 0.000000 0.026698 0.000000
# 6 0.000000 0.000000 0.000000 0.000000 0.000000 -0.069632
#
#
# Mechanical properties :
#
#
# Convention : Reuss Voigt Hill
#
# Bulk Modulus (GPa) = 30.70491 35.91968 33.31230
# Shear Modulus (GPa) = 125.70750 27.93685 76.82217
#
# Velocity S-wave (km/s) = 7.52658 3.54818 5.88384
# Velocity P-wave (km/s) = 9.45355 5.74223 7.82121
#
# Compressibility (1/GPa) = 0.03256808
#
# Stress axis : x y z
#
# Youngs Moduli (GPa) = 126.58034 57.89633 79.97809
#
# Poissons Ratio (x) = 0.08233 0.12143
# Poissons Ratio (y) = 0.18000 -0.03091
# Poissons Ratio (z) = 0.19218 -0.02237
#
# Static dielectric constant tensor:
#      x y z
#    x 1.829840 0.000000 0.000000 
#    y 0.000000 1.863700 0.000000 
#    z 0.000000 0.000000 1.755530 
# 
# From -- ./inp_files/21147.got.cif
#   From: 2010.05.17/outbox.cif.g08.bks.cpg/sg38_11_cif.got.tgz:21147.got - 2010.06.03 18:07:57.
