data_PCOD9358503
_publ_section_title
;
Structure prediction by ZEFSAII (Michael W. Deem and Ramdas Pophale) SiO2 
 PCOD9358503
Probable space group: A M M 2
;
_chemical_formula_sum "Si O2"
_cell_formula_units_Z 48
_cell_length_a 14.015159
_cell_length_b 17.963595
_cell_length_c 9.612979
_cell_angle_alpha 90.000000
_cell_angle_beta 90.000000
_cell_angle_gamma 90.000000
_cell_volume 2420.188973
_symmetry_space_group_name_H-M "A M M 2"
_symmetry_group_IT_number 38
_symmetry_cell_setting 'orthorhombic'
loop_
_space_group_symop_operation_xyz
x,y,z
-x,-y,z
-x,y,z
x,-y,z
x,1/2+y,1/2+z
-x,1/2-y,1/2+z
-x,1/2+y,1/2+z
x,1/2-y,1/2+z
loop_
_atom_site_type_symbol
_atom_site_label
_atom_site_fract_x
_atom_site_fract_y
_atom_site_fract_z
Si Si1 0.889188 0.587844 0.681920
Si Si2 0.605578 0.588076 0.947820
Si Si3 0.298896 0.910199 0.726001
Si Si4 0.897137 0.911334 0.847819
Si Si5 0.613218 0.302429 0.426262
Si Si6 0.701194 0.174906 0.229853
O O1 0.867535 0.500000 0.715312
O O2 0.885096 0.594833 0.513851
O O3 0.810533 0.646094 0.736431
O O4 0.000000 0.601254 0.723465
O O5 0.500000 0.618761 0.970382
O O6 0.601849 0.500000 0.963187
O O7 0.672747 0.615664 0.072087
O O8 0.641854 0.606965 0.795804
O O9 0.194201 0.881710 0.768038
O O10 0.299036 0.000000 0.730948
O O11 0.371393 0.878197 0.839256
O O12 0.000000 0.879014 0.808141
O O13 0.900359 0.000000 0.819553
O O14 0.500000 0.287902 0.440658
O O15 0.667694 0.241386 0.331348
O O16 0.665059 0.308552 0.574848
#
# Coordination Sequence:
#
# PCOD9358503 Si02
#       6
#     8   8   8   8   8   8
#     4   9  18  37  67  99 128 158 198 253 313 372
#     4  10  21  37  58  84 119 160 203 258 315 366
#     4  10  20  37  60  90 122 159 205 256 315 374
#     4   8  14  29  57  91 122 152 188 237 298 362
#     4  12  25  39  59  85 119 165 214 265 311 365
#     4  12  24  42  61  86 121 165 212 254 311 375
#
# _framework density 19.833162000000002
#
# number of rings (size 3 to 8) (size 9 to 14) (size 15 to 20)
#    0.000    1.833    1.667    4.500    0.000    1.667 
#    0.000    2.500    0.000    3.000    0.000    0.000 
#    0.000    0.000    0.000    0.000    0.000    0.000 
#
# Total GULP energy -133818.683823 kJ/mol
# GULP energy per Si atom -5575.778493 kJ/mol
# Density = 1.978802 g / cm^3
# Si number density = 19.833162 Si / 1000 Ang^3
#
#
#
# Elastic Constant Matrix: (Units=GPa)
#
#
# Indices 1 2 3 4 5 6 
#
# 1 153.8291 48.9346 38.0770 0.0000 0.0000 0.0000
# 2 48.9346 42.7277 26.9073 0.0000 0.0000 0.0000
# 3 38.0770 26.9073 91.7390 0.0000 0.0000 0.0000
# 4 0.0000 0.0000 0.0000 28.4496 0.0000 0.0000
# 5 0.0000 0.0000 0.0000 0.0000 26.0258 0.0000
# 6 0.0000 0.0000 0.0000 0.0000 0.0000 25.8485
#
#
#
# Elastic Compliance Matrix: (Units=1/GPa)
#
#
# Indices 1 2 3 4 5 6 
#
# 1 0.010301 -0.011167 -0.001000 0.000000 0.000000 0.000000
# 2 -0.011167 0.040813 -0.007336 0.000000 0.000000 0.000000
# 3 -0.001000 -0.007336 0.013467 0.000000 0.000000 0.000000
# 4 0.000000 0.000000 0.000000 0.035150 0.000000 0.000000
# 5 0.000000 0.000000 0.000000 0.000000 0.038423 0.000000
# 6 0.000000 0.000000 0.000000 0.000000 0.000000 0.038687
#
#
# Mechanical properties :
#
#
# Convention : Reuss Voigt Hill
#
# Bulk Modulus (GPa) = 39.10035 57.34819 48.22427
# Shear Modulus (GPa) = 22.28445 27.68990 24.98717
#
# Velocity S-wave (km/s) = 3.35564 3.74055 3.55331
# Velocity P-wave (km/s) = 5.89671 6.90172 6.41891
#
# Compressibility (1/GPa) = 0.02557522
#
# Stress axis : x y z
#
# Youngs Moduli (GPa) = 97.08098 24.50196 74.25526
#
# Poissons Ratio (x) = 0.27362 0.07425
# Poissons Ratio (y) = 1.08413 0.54470
# Poissons Ratio (z) = 0.09708 0.17973
#
# Static dielectric constant tensor:
#      x y z
#    x 1.741240 0.000000 0.000000 
#    y 0.000000 1.762920 0.000000 
#    z 0.000000 0.000000 1.666600 
# 
# From -- ./inp_files/5465.got.cif
#   From: 2010.05.17/outbox.cif.g08.bks.cpg/sg38_3_cif.got.tgz:5465.got - 2010.06.03 18:07:57.
