data_PCOD9358164
_publ_section_title
;
Structure prediction by ZEFSAII (Michael W. Deem and Ramdas Pophale) SiO2 
 PCOD9358164
Probable space group: A M M 2
;
_chemical_formula_sum "Si O2"
_cell_formula_units_Z 64
_cell_length_a 9.008429
_cell_length_b 21.115281
_cell_length_c 17.026253
_cell_angle_alpha 90.000000
_cell_angle_beta 90.000000
_cell_angle_gamma 90.000000
_cell_volume 3238.657393
_symmetry_space_group_name_H-M "A M M 2"
_symmetry_group_IT_number 38
_symmetry_cell_setting 'orthorhombic'
loop_
_space_group_symop_operation_xyz
x,y,z
-x,-y,z
-x,y,z
x,-y,z
x,1/2+y,1/2+z
-x,1/2-y,1/2+z
-x,1/2+y,1/2+z
x,1/2-y,1/2+z
loop_
_atom_site_type_symbol
_atom_site_label
_atom_site_fract_x
_atom_site_fract_y
_atom_site_fract_z
Si Si1 0.321072 0.075006 0.484470
Si Si2 0.178225 0.244472 0.215078
Si Si3 0.838587 0.068906 0.221680
Si Si4 0.334908 0.426305 0.302354
Si Si5 0.176894 0.385394 0.149846
Si Si6 0.327574 0.860522 0.104693
Si Si7 0.830953 0.669647 0.860393
Si Si8 0.176639 0.924566 0.959426
O O1 0.500000 0.077448 0.484413
O O2 0.256270 0.093479 0.569851
O O3 0.259948 0.130732 0.426273
O O4 0.280412 0.000000 0.466760
O O5 0.206161 0.313534 0.179420
O O6 0.253551 0.196322 0.153818
O O7 0.225146 0.229388 0.306358
O O8 0.000000 0.234809 0.215066
O O9 0.705958 0.080840 0.162614
O O10 0.838797 0.118573 0.290599
O O11 0.000000 0.073976 0.179433
O O12 0.829222 0.000000 0.257184
O O13 0.500000 0.397664 0.294842
O O14 0.353149 0.500000 0.320336
O O15 0.244371 0.423271 0.222386
O O16 0.241891 0.402012 0.376094
O O17 0.000000 0.393814 0.141531
O O18 0.500000 0.849167 0.092394
O O19 0.246899 0.879962 0.025258
O O20 0.000000 0.682860 0.889082
O O21 0.000000 0.919460 0.958903
O O22 0.211259 0.000000 0.973566
#
# Coordination Sequence:
#
# PCOD9358164 Si02
#       8
#     8   8   8   8   8   8   8   8
#     4  11  24  40  60  91 129 162 196 248 310 364
#     4   9  21  42  62  82 114 156 202 247 292 351
#     4   9  17  30  50  76 109 151 194 237 289 349
#     4  10  21  38  60  87 119 150 184 236 299 354
#     4  11  23  41  65  89 113 153 203 248 297 357
#     4  11  21  32  51  80 114 152 193 240 294 346
#     4   9  18  36  60  84 113 151 197 245 294 352
#     4  10  20  35  56  82 114 153 197 241 285 341
#
# _framework density 19.761275000000001
#
# number of rings (size 3 to 8) (size 9 to 14) (size 15 to 20)
#    0.000    2.000    0.000    4.500    0.000    9.250 
#    2.250    0.000    0.000    0.000    0.000    0.000 
#    0.000    0.000    0.000    0.000    0.000    0.000 
#
# Total GULP energy -178220.873726 kJ/mol
# GULP energy per Si atom -5569.402304 kJ/mol
# Density = 1.971630 g / cm^3
# Si number density = 19.761275 Si / 1000 Ang^3
#
#
#
# Elastic Constant Matrix: (Units=GPa)
#
#
# Indices 1 2 3 4 5 6 
#
# 1 77.4286 34.4858 54.6302 0.0000 0.0000 0.0000
# 2 34.4858 50.1099 17.4518 0.0000 0.0000 0.0000
# 3 54.6302 17.4518 127.3797 0.0000 0.0000 0.0000
# 4 0.0000 0.0000 0.0000 34.6754 0.0000 0.0000
# 5 0.0000 0.0000 0.0000 0.0000 76.9808 0.0000
# 6 0.0000 0.0000 0.0000 0.0000 0.0000 22.9256
#
#
#
# Elastic Compliance Matrix: (Units=1/GPa)
#
#
# Indices 1 2 3 4 5 6 
#
# 1 0.025826 -0.014613 -0.009074 0.000000 0.000000 0.000000
# 2 -0.014613 0.029225 0.002263 0.000000 0.000000 0.000000
# 3 -0.009074 0.002263 0.011432 0.000000 0.000000 0.000000
# 4 0.000000 0.000000 0.000000 0.028839 0.000000 0.000000
# 5 0.000000 0.000000 0.000000 0.000000 0.012990 0.000000
# 6 0.000000 0.000000 0.000000 0.000000 0.000000 0.043619
#
#
# Mechanical properties :
#
#
# Convention : Reuss Voigt Hill
#
# Bulk Modulus (GPa) = 42.31041 52.00596 47.15819
# Shear Modulus (GPa) = 24.67215 36.80638 30.73927
#
# Velocity S-wave (km/s) = 3.53726 4.32041 3.94830
# Velocity P-wave (km/s) = 6.17577 7.15976 6.68589
#
# Compressibility (1/GPa) = 0.02363485
#
# Stress axis : x y z
#
# Youngs Moduli (GPa) = 38.72075 34.21753 87.47295
#
# Poissons Ratio (x) = 0.50003 0.79373
# Poissons Ratio (y) = 0.56584 -0.19798
# Poissons Ratio (z) = 0.35135 -0.07745
#
# Static dielectric constant tensor:
#      x y z
#    x 1.700380 0.000000 0.000000 
#    y 0.000000 1.781560 0.000000 
#    z 0.000000 0.000000 1.683760 
# 
# From -- ./inp_files/12783.got.cif
#   From: 2010.05.17/outbox.cif.g08.bks.cpg/sg38_7_cif.got.tgz:12783.got - 2010.06.03 18:07:57.
