data_PCOD9358399
_publ_section_title
;
Structure prediction by ZEFSAII (Michael W. Deem and Ramdas Pophale) SiO2 
 PCOD9358399
Probable space group: A M M 2
;
_chemical_formula_sum "Si O2"
_cell_formula_units_Z 48
_cell_length_a 7.744043
_cell_length_b 9.036376
_cell_length_c 35.531054
_cell_angle_alpha 90.000000
_cell_angle_beta 90.000000
_cell_angle_gamma 90.000000
_cell_volume 2486.395092
_symmetry_space_group_name_H-M "A M M 2"
_symmetry_group_IT_number 38
_symmetry_cell_setting 'orthorhombic'
loop_
_space_group_symop_operation_xyz
x,y,z
-x,-y,z
-x,y,z
x,-y,z
x,1/2+y,1/2+z
-x,1/2-y,1/2+z
-x,1/2+y,1/2+z
x,1/2-y,1/2+z
loop_
_atom_site_type_symbol
_atom_site_label
_atom_site_fract_x
_atom_site_fract_y
_atom_site_fract_z
Si Si1 0.500000 0.179504 0.555110
Si Si2 0.294935 0.665296 0.771109
Si Si3 0.500000 0.677372 0.473145
Si Si4 0.794215 0.665696 0.346660
Si Si5 0.792520 0.668098 0.194967
Si Si6 0.801670 0.319897 0.112231
Si Si7 0.206299 0.823800 0.422972
O O1 0.500000 0.259600 0.515339
O O2 0.331510 0.220328 0.579727
O O3 0.500000 0.000000 0.550111
O O4 0.500000 0.655910 0.773284
O O5 0.220849 0.500000 0.774682
O O6 0.239260 0.765857 0.805945
O O7 0.251181 0.734890 0.730873
O O8 0.500000 0.500000 0.472364
O O9 0.330159 0.740072 0.451980
O O10 0.720823 0.500000 0.349885
O O11 0.739519 0.769041 0.381256
O O12 0.000000 0.655006 0.350292
O O13 0.726384 0.500000 0.200286
O O14 0.738142 0.726649 0.153899
O O15 0.000000 0.659627 0.192558
O O16 0.804887 0.500000 0.113942
O O17 0.000000 0.271038 0.105907
O O18 0.000000 0.793311 0.428369
O O19 0.229987 0.000000 0.426207
#
# Coordination Sequence:
#
# PCOD9358399 Si02
#       7
#     4   8   4   8   8   8   8
#     4  10  20  36  60  87 114 151 194 238 293 352
#     4  11  24  36  48  75 114 155 196 239 283 336
#     4  12  26  42  62  91 128 165 196 240 299 362
#     4  10  21  38  60  85 113 148 191 239 292 350
#     4   9  18  34  56  81 108 142 188 241 292 341
#     4   8  16  32  56  86 115 144 187 242 294 348
#     4  10  22  42  68  94 121 157 201 250 301 356
#
# _framework density 19.305057999999999
#
# number of rings (size 3 to 8) (size 9 to 14) (size 15 to 20)
#    0.000    2.167    0.000    3.750    2.333    6.333 
#    0.000    2.500    0.000    1.000    0.000    0.000 
#    0.000    0.000    0.000    0.000    0.000    0.000 
#
# Total GULP energy -133956.881809 kJ/mol
# GULP energy per Si atom -5581.536742 kJ/mol
# Density = 1.926112 g / cm^3
# Si number density = 19.305058 Si / 1000 Ang^3
#
#
#
# Elastic Constant Matrix: (Units=GPa)
#
#
# Indices 1 2 3 4 5 6 
#
# 1 72.3196 42.2822 57.0715 0.0000 0.0000 0.0000
# 2 42.2822 105.2120 69.5260 0.0000 0.0000 0.0000
# 3 57.0715 69.5260 172.2296 0.0000 0.0000 0.0000
# 4 0.0000 0.0000 0.0000 33.0957 0.0000 0.0000
# 5 0.0000 0.0000 0.0000 0.0000 35.9951 0.0000
# 6 0.0000 0.0000 0.0000 0.0000 0.0000 19.7531
#
#
#
# Elastic Compliance Matrix: (Units=1/GPa)
#
#
# Indices 1 2 3 4 5 6 
#
# 1 0.020573 -0.005132 -0.004746 0.000000 0.000000 0.000000
# 2 -0.005132 0.014243 -0.004049 0.000000 0.000000 0.000000
# 3 -0.004746 -0.004049 0.009013 0.000000 0.000000 0.000000
# 4 0.000000 0.000000 0.000000 0.030215 0.000000 0.000000
# 5 0.000000 0.000000 0.000000 0.000000 0.027782 0.000000
# 6 0.000000 0.000000 0.000000 0.000000 0.000000 0.050625
#
#
# Mechanical properties :
#
#
# Convention : Reuss Voigt Hill
#
# Bulk Modulus (GPa) = 62.59381 76.39118 69.49249
# Shear Modulus (GPa) = 26.93550 29.82755 28.38152
#
# Velocity S-wave (km/s) = 3.73936 3.93499 3.83843
# Velocity P-wave (km/s) = 7.15106 7.76544 7.46457
#
# Compressibility (1/GPa) = 0.01597602
#
# Stress axis : x y z
#
# Youngs Moduli (GPa) = 48.60770 70.21193 110.94784
#
# Poissons Ratio (x) = 0.36031 0.52651
# Poissons Ratio (y) = 0.24944 0.44923
# Poissons Ratio (z) = 0.23067 0.28429
#
# Static dielectric constant tensor:
#      x y z
#    x 1.687590 0.000000 0.000000 
#    y 0.000000 1.680210 0.000000 
#    z 0.000000 0.000000 1.668120 
# 
# From -- ./inp_files/24428.got.cif
#   From: 2010.05.17/outbox.cif.g08.bks.cpg/sg38_13_cif.got.tgz:24428.got - 2010.06.03 18:07:57.
