data_PCOD9358911
_publ_section_title
;
Structure prediction by ZEFSAII (Michael W. Deem and Ramdas Pophale) SiO2 
 PCOD9358911
Probable space group: A M M 2
;
_chemical_formula_sum "Si O2"
_cell_formula_units_Z 40
_cell_length_a 7.446598
_cell_length_b 19.370779
_cell_length_c 11.148408
_cell_angle_alpha 90.000000
_cell_angle_beta 90.000000
_cell_angle_gamma 90.000000
_cell_volume 1608.117766
_symmetry_space_group_name_H-M "A M M 2"
_symmetry_group_IT_number 38
_symmetry_cell_setting 'orthorhombic'
loop_
_space_group_symop_operation_xyz
x,y,z
-x,-y,z
-x,y,z
x,-y,z
x,1/2+y,1/2+z
-x,1/2-y,1/2+z
-x,1/2+y,1/2+z
x,1/2-y,1/2+z
loop_
_atom_site_type_symbol
_atom_site_label
_atom_site_fract_x
_atom_site_fract_y
_atom_site_fract_z
Si Si1 0.721325 0.215426 0.971570
Si Si2 0.708474 0.717495 0.213944
Si Si3 0.708266 0.923016 0.076005
Si Si4 0.790685 0.916389 0.342959
Si Si5 0.217668 0.079332 0.605905
O O1 0.500000 0.217265 0.969637
O O2 0.783381 0.241218 0.841766
O O3 0.786726 0.254643 0.089828
O O4 0.782079 0.136564 0.992190
O O5 0.500000 0.737528 0.213283
O O6 0.720896 0.634619 0.202691
O O7 0.500000 0.929448 0.044728
O O8 0.713097 0.896557 0.214303
O O9 0.788918 0.000000 0.070610
O O10 0.716613 0.895923 0.473224
O O11 0.000000 0.898938 0.338926
O O12 0.775317 0.000000 0.346109
O O13 0.000000 0.079169 0.601848
O O14 0.274079 0.000000 0.626382
#
# Coordination Sequence:
#
# PCOD9358911 Si02
#       5
#     8   8   8   8   8
#     4   9  20  36  54  79 112 145 178 225 277 318
#     4  10  21  37  57  80 109 147 186 223 269 327
#     4   9  17  30  51  78 107 140 180 224 269 318
#     4   8  15  29  49  75 107 139 169 210 267 320
#     4   9  19  36  56  80 112 144 177 227 282 322
#
# _framework density 24.873801
#
# number of rings (size 3 to 8) (size 9 to 14) (size 15 to 20)
#    0.000    3.000    0.000    1.200    2.800    2.000 
#    0.000    7.000    0.000    2.400    0.000    0.000 
#    0.000    0.000    0.000    0.000    0.000    0.000 
#
# Total GULP energy -111691.513178 kJ/mol
# GULP energy per Si atom -5584.575659 kJ/mol
# Density = 2.481719 g / cm^3
# Si number density = 24.873801 Si / 1000 Ang^3
#
#
#
# Elastic Constant Matrix: (Units=GPa)
#
#
# Indices 1 2 3 4 5 6 
#
# 1 74.6383 -9.4808 4.6342 0.0000 0.0000 0.0000
# 2 -9.4808 77.2746 63.2989 0.0000 0.0000 0.0000
# 3 4.6342 63.2989 187.8433 0.0000 0.0000 0.0000
# 4 0.0000 0.0000 0.0000 42.9963 0.0000 0.0000
# 5 0.0000 0.0000 0.0000 0.0000 42.7079 0.0000
# 6 0.0000 0.0000 0.0000 0.0000 0.0000 0.7098
#
#
#
# Elastic Compliance Matrix: (Units=1/GPa)
#
#
# Indices 1 2 3 4 5 6 
#
# 1 0.013823 0.002728 -0.001260 0.000000 0.000000 0.000000
# 2 0.002728 0.018413 -0.006272 0.000000 0.000000 0.000000
# 3 -0.001260 -0.006272 0.007468 0.000000 0.000000 0.000000
# 4 0.000000 0.000000 0.000000 0.023258 0.000000 0.000000
# 5 0.000000 0.000000 0.000000 0.000000 0.023415 0.000000
# 6 0.000000 0.000000 0.000000 0.000000 0.000000 1.408832
#
#
# Mechanical properties :
#
#
# Convention : Reuss Voigt Hill
#
# Bulk Modulus (GPa) = 33.22704 50.74008 41.98356
# Shear Modulus (GPa) = 3.30066 36.03640 19.66853
#
# Velocity S-wave (km/s) = 1.15319 3.81040 2.81505
# Velocity P-wave (km/s) = 3.89363 6.30889 5.24226
#
# Compressibility (1/GPa) = 0.03009597
#
# Stress axis : x y z
#
# Youngs Moduli (GPa) = 72.34438 54.30815 133.89979
#
# Poissons Ratio (x) = -0.14817 0.16877
# Poissons Ratio (y) = -0.19738 0.83985
# Poissons Ratio (z) = 0.09118 0.34063
#
# Static dielectric constant tensor:
#      x y z
#    x 1.919750 0.000000 0.000000 
#    y 0.000000 2.003800 0.000000 
#    z 0.000000 0.000000 1.974620 
# 
# From -- ./inp_files/4280.got.cif
#   From: 2010.05.17/outbox.cif.g08.bks.cpg/sg38_3_cif.got.tgz:4280.got - 2010.06.03 18:07:57.
