data_PCOD9358216
_publ_section_title
;
Structure prediction by ZEFSAII (Michael W. Deem and Ramdas Pophale) SiO2 
 PCOD9358216
Probable space group: A M M 2
;
_chemical_formula_sum "Si O2"
_cell_formula_units_Z 64
_cell_length_a 24.163538
_cell_length_b 7.831761
_cell_length_c 15.925495
_cell_angle_alpha 90.000000
_cell_angle_beta 90.000000
_cell_angle_gamma 90.000000
_cell_volume 3013.789319
_symmetry_space_group_name_H-M "A M M 2"
_symmetry_group_IT_number 38
_symmetry_cell_setting 'orthorhombic'
loop_
_space_group_symop_operation_xyz
x,y,z
-x,-y,z
-x,y,z
x,-y,z
x,1/2+y,1/2+z
-x,1/2-y,1/2+z
-x,1/2+y,1/2+z
x,1/2-y,1/2+z
loop_
_atom_site_type_symbol
_atom_site_label
_atom_site_fract_x
_atom_site_fract_y
_atom_site_fract_z
Si Si1 0.241031 0.197995 0.987660
Si Si2 0.740058 0.207338 0.794952
Si Si3 0.063032 0.793272 0.384309
Si Si4 0.436866 0.709139 0.893750
Si Si5 0.858394 0.294756 0.229748
Si Si6 0.123901 0.802329 0.548733
Si Si7 0.378676 0.699206 0.725090
Si Si8 0.357166 0.699111 0.043017
O O1 0.255085 0.255967 0.892960
O O2 0.224441 0.000000 0.982810
O O3 0.188714 0.295479 0.024691
O O4 0.297044 0.214804 0.040638
O O5 0.796177 0.265547 0.749519
O O6 0.684768 0.279403 0.754368
O O7 0.736643 0.000000 0.790723
O O8 0.101922 0.743236 0.307246
O O9 0.089500 0.727441 0.471363
O O10 0.000000 0.734947 0.373773
O O11 0.062970 0.000000 0.387212
O O12 0.500000 0.761338 0.908151
O O13 0.435441 0.500000 0.893816
O O14 0.415036 0.766717 0.802731
O O15 0.396003 0.766321 0.968102
O O16 0.854288 0.500000 0.221989
O O17 0.880854 0.225061 0.141430
O O18 0.106308 0.000000 0.554903
O O19 0.391554 0.500000 0.714981
O O20 0.384624 0.782150 0.634023
O O21 0.346901 0.500000 0.026688
#
# Coordination Sequence:
#
# PCOD9358216 Si02
#       8
#     8   8   8   8   8   8   8   8
#     4  11  21  35  59  89 120 150 188 237 286 341
#     4  10  20  35  57  86 121 151 185 236 288 342
#     4  10  22  39  57  81 114 151 192 237 282 333
#     4   9  20  39  60  82 113 154 197 239 285 341
#     4  10  21  38  59  85 112 147 189 232 283 337
#     4  10  21  37  60  86 116 152 189 230 283 346
#     4  11  22  37  60  89 117 151 193 236 288 344
#     4  11  22  38  60  86 117 154 193 234 287 346
#
# _framework density 21.235723
#
# number of rings (size 3 to 8) (size 9 to 14) (size 15 to 20)
#    0.000    1.750    2.500    1.875    0.000    3.750 
#    0.000    1.250    0.000    5.250    0.000    0.000 
#    0.000    0.000    0.000    0.000    0.000    0.000 
#
# Total GULP energy -178836.850071 kJ/mol
# GULP energy per Si atom -5588.651565 kJ/mol
# Density = 2.118739 g / cm^3
# Si number density = 21.235723 Si / 1000 Ang^3
#
#
#
# Elastic Constant Matrix: (Units=GPa)
#
#
# Indices 1 2 3 4 5 6 
#
# 1 70.8210 -14.6598 -2.3073 0.0000 0.0000 0.0000
# 2 -14.6598 25.7152 -7.1357 0.0000 0.0000 0.0000
# 3 -2.3073 -7.1357 99.5402 0.0000 0.0000 0.0000
# 4 0.0000 0.0000 0.0000 19.1016 0.0000 0.0000
# 5 0.0000 0.0000 0.0000 0.0000 5.6820 0.0000
# 6 0.0000 0.0000 0.0000 0.0000 0.0000 -5.2398
#
#
#
# Elastic Compliance Matrix: (Units=1/GPa)
#
#
# Indices 1 2 3 4 5 6 
#
# 1 0.016117 0.009480 0.001053 0.000000 0.000000 0.000000
# 2 0.009480 0.045253 0.003464 0.000000 0.000000 0.000000
# 3 0.001053 0.003464 0.010319 0.000000 0.000000 0.000000
# 4 0.000000 0.000000 0.000000 0.052352 0.000000 0.000000
# 5 0.000000 0.000000 0.000000 0.000000 0.175994 0.000000
# 6 0.000000 0.000000 0.000000 0.000000 0.000000 -0.190846
#
#
# Mechanical properties :
#
#
# Convention : Reuss Voigt Hill
#
# Bulk Modulus (GPa) = 10.03183 16.43012 13.23098
# Shear Modulus (GPa) = 43.69790 18.58736 31.14263
#
# Velocity S-wave (km/s) = 4.54117 2.96174 3.83367
# Velocity P-wave (km/s) = 5.67720 4.41018 5.08332
#
# Compressibility (1/GPa) = 0.09968268
#
# Stress axis : x y z
#
# Youngs Moduli (GPa) = 62.04722 22.09799 96.90949
#
# Poissons Ratio (x) = -0.20949 -0.10206
# Poissons Ratio (y) = -0.58821 -0.33567
# Poissons Ratio (z) = -0.06535 -0.07654
#
# Static dielectric constant tensor:
#      x y z
#    x 1.722280 0.000000 0.000000 
#    y 0.000000 1.786880 0.000000 
#    z 0.000000 0.000000 1.774460 
# 
# From -- ./inp_files/15780.got.cif
#   From: 2010.05.17/outbox.cif.g08.bks.cpg/sg38_8_cif.got.tgz:15780.got - 2010.06.03 18:07:57.
