data_PCOD9358300
_publ_section_title
;
Structure prediction by ZEFSAII (Michael W. Deem and Ramdas Pophale) SiO2 
 PCOD9358300
Probable space group: A M M 2
;
_chemical_formula_sum "Si O2"
_cell_formula_units_Z 64
_cell_length_a 24.536521
_cell_length_b 7.665347
_cell_length_c 16.049358
_cell_angle_alpha 90.000000
_cell_angle_beta 90.000000
_cell_angle_gamma 90.000000
_cell_volume 3018.578462
_symmetry_space_group_name_H-M "A M M 2"
_symmetry_group_IT_number 38
_symmetry_cell_setting 'orthorhombic'
loop_
_space_group_symop_operation_xyz
x,y,z
-x,-y,z
-x,y,z
x,-y,z
x,1/2+y,1/2+z
-x,1/2-y,1/2+z
-x,1/2+y,1/2+z
x,1/2-y,1/2+z
loop_
_atom_site_type_symbol
_atom_site_label
_atom_site_fract_x
_atom_site_fract_y
_atom_site_fract_z
Si Si1 0.239753 0.701499 0.994640
Si Si2 0.940770 0.207603 0.385480
Si Si3 0.636002 0.295165 0.501563
Si Si4 0.172537 0.295307 0.653448
Si Si5 0.437184 0.210900 0.343429
Si Si6 0.562843 0.786997 0.155035
Si Si7 0.940195 0.788590 0.081694
Si Si8 0.822479 0.713893 0.832820
O O1 0.223420 0.500000 0.998953
O O2 0.304599 0.713891 0.993093
O O3 0.213421 0.776755 0.910281
O O4 0.213687 0.781488 0.077089
O O5 0.935885 0.237528 0.484629
O O6 0.885182 0.271205 0.344579
O O7 0.000000 0.278903 0.359049
O O8 0.942021 0.000000 0.370340
O O9 0.644788 0.500000 0.515830
O O10 0.601238 0.272813 0.417426
O O11 0.601787 0.226202 0.580827
O O12 0.162621 0.500000 0.667297
O O13 0.113307 0.221166 0.628461
O O14 0.195165 0.227421 0.741059
O O15 0.500000 0.266031 0.357552
O O16 0.421458 0.265920 0.249264
O O17 0.436340 0.000000 0.344302
O O18 0.500000 0.733689 0.140659
O O19 0.563108 0.000000 0.153782
O O20 0.000000 0.730595 0.112343
O O21 0.939823 0.000000 0.084970
O O22 0.820316 0.500000 0.836432
#
# Coordination Sequence:
#
# PCOD9358300 Si02
#       8
#     8   8   8   8   8   8   8   8
#     4  11  23  40  56  74 106 143 184 230 275 320
#     4   9  16  29  52  78 103 134 174 215 258 319
#     4  11  22  36  57  83 111 145 187 228 268 315
#     4  10  20  36  57  78 102 136 179 223 269 325
#     4   9  18  35  59  86 115 146 179 215 261 316
#     4   8  16  33  57  83 112 146 179 212 258 318
#     4   9  17  29  49  78 108 133 160 208 272 326
#     4   9  19  35  55  77 102 137 178 220 271 326
#
# _framework density 21.202033
#
# number of rings (size 3 to 8) (size 9 to 14) (size 15 to 20)
#    0.000    2.500    1.250    1.875    0.000    2.250 
#    0.000   10.625    0.000    1.500    0.000    3.500 
#    0.000    0.000    0.000    0.000    0.000    0.000 
#
# Total GULP energy -178583.359039 kJ/mol
# GULP energy per Si atom -5580.729970 kJ/mol
# Density = 2.115378 g / cm^3
# Si number density = 21.202033 Si / 1000 Ang^3
#
#
#
# Elastic Constant Matrix: (Units=GPa)
#
#
# Indices 1 2 3 4 5 6 
#
# 1 106.4734 -10.2221 82.0197 0.0000 0.0000 0.0000
# 2 -10.2221 33.0137 -9.2276 0.0000 0.0000 0.0000
# 3 82.0197 -9.2276 156.6583 0.0000 0.0000 0.0000
# 4 0.0000 0.0000 0.0000 9.8628 0.0000 0.0000
# 5 0.0000 0.0000 0.0000 0.0000 37.4207 0.0000
# 6 0.0000 0.0000 0.0000 0.0000 0.0000 22.3268
#
#
#
# Elastic Compliance Matrix: (Units=1/GPa)
#
#
# Indices 1 2 3 4 5 6 
#
# 1 0.015965 0.002651 -0.008203 0.000000 0.000000 0.000000
# 2 0.002651 0.031238 0.000452 0.000000 0.000000 0.000000
# 3 -0.008203 0.000452 0.010704 0.000000 0.000000 0.000000
# 4 0.000000 0.000000 0.000000 0.101391 0.000000 0.000000
# 5 0.000000 0.000000 0.000000 0.000000 0.026723 0.000000
# 6 0.000000 0.000000 0.000000 0.000000 0.000000 0.044789
#
#
# Mechanical properties :
#
#
# Convention : Reuss Voigt Hill
#
# Bulk Modulus (GPa) = 20.96093 46.80949 33.88521
# Shear Modulus (GPa) = 19.46190 29.49377 24.47783
#
# Velocity S-wave (km/s) = 3.03302 3.73377 3.40149
# Velocity P-wave (km/s) = 4.70886 6.38074 5.60746
#
# Compressibility (1/GPa) = 0.04770781
#
# Stress axis : x y z
#
# Youngs Moduli (GPa) = 62.63625 32.01273 93.41876
#
# Poissons Ratio (x) = -0.08485 0.76627
# Poissons Ratio (y) = -0.16603 -0.04225
# Poissons Ratio (z) = 0.51378 -0.01448
#
# Static dielectric constant tensor:
#      x y z
#    x 1.738290 0.000000 0.000000 
#    y 0.000000 1.908680 0.000000 
#    z 0.000000 0.000000 1.765970 
# 
# From -- ./inp_files/15802.got.cif
#   From: 2010.05.17/outbox.cif.g08.bks.cpg/sg38_8_cif.got.tgz:15802.got - 2010.06.03 18:07:57.
