data_PCOD9358896
_publ_section_title
;
Structure prediction by ZEFSAII (Michael W. Deem and Ramdas Pophale) SiO2 
 PCOD9358896
Probable space group: A M M 2
;
_chemical_formula_sum "Si O2"
_cell_formula_units_Z 64
_cell_length_a 14.273830
_cell_length_b 8.852330
_cell_length_c 26.770304
_cell_angle_alpha 90.000000
_cell_angle_beta 90.000000
_cell_angle_gamma 90.000000
_cell_volume 3382.606027
_symmetry_space_group_name_H-M "A M M 2"
_symmetry_group_IT_number 38
_symmetry_cell_setting 'orthorhombic'
loop_
_space_group_symop_operation_xyz
x,y,z
-x,-y,z
-x,y,z
x,-y,z
x,1/2+y,1/2+z
-x,1/2-y,1/2+z
-x,1/2+y,1/2+z
x,1/2-y,1/2+z
loop_
_atom_site_type_symbol
_atom_site_label
_atom_site_fract_x
_atom_site_fract_y
_atom_site_fract_z
Si Si1 0.287027 0.320917 0.545630
Si Si2 0.113696 0.327640 0.690975
Si Si3 0.707385 0.684108 0.848305
Si Si4 0.609397 0.317174 0.950507
Si Si5 0.106247 0.184054 0.302129
Si Si6 0.387413 0.677458 0.745229
Si Si7 0.613058 0.676721 0.140745
Si Si8 0.109080 0.820757 0.587129
O O1 0.288796 0.500000 0.542729
O O2 0.338001 0.249684 0.498026
O O3 0.340299 0.266392 0.595588
O O4 0.180907 0.261679 0.550843
O O5 0.147181 0.500000 0.682904
O O6 0.140369 0.273228 0.746259
O O7 0.136853 0.225987 0.643687
O O8 0.000000 0.333906 0.693207
O O9 0.703780 0.500000 0.848608
O O10 0.657619 0.734062 0.898862
O O11 0.815769 0.729528 0.841926
O O12 0.655157 0.732032 0.797524
O O13 0.500000 0.275503 0.950942
O O14 0.614645 0.500000 0.952753
O O15 0.000000 0.237180 0.310720
O O16 0.103152 0.000000 0.301085
O O17 0.500000 0.689034 0.748603
O O18 0.363500 0.500000 0.739598
O O19 0.357055 0.762818 0.695120
O O20 0.500000 0.693526 0.137776
O O21 0.635611 0.500000 0.135661
O O22 0.000000 0.777292 0.580057
O O23 0.116730 0.000000 0.581425
#
# Coordination Sequence:
#
# PCOD9358896 Si02
#       8
#     8   8   8   8   8   8   8   8
#     4  12  25  39  59  83 110 147 193 241 290 346
#     4   8  14  26  46  74 110 151 190 227 269 319
#     4   9  17  30  52  79 108 146 192 235 284 341
#     4  10  21  39  61  83 110 146 191 247 302 348
#     4   8  14  25  44  75 113 147 184 229 271 321
#     4   9  17  30  50  79 112 144 182 227 277 339
#     4  10  21  37  56  81 115 150 184 231 293 354
#     4  10  21  37  57  83 116 151 189 233 282 339
#
# _framework density 18.920324999999998
#
# number of rings (size 3 to 8) (size 9 to 14) (size 15 to 20)
#    0.000    2.500    0.000    3.375    1.750    4.750 
#    0.000    1.250    0.000    4.500    0.000    0.000 
#    0.000    0.000    0.000    0.000    0.000    0.000 
#
# Total GULP energy -178634.336306 kJ/mol
# GULP energy per Si atom -5582.323010 kJ/mol
# Density = 1.887726 g / cm^3
# Si number density = 18.920325 Si / 1000 Ang^3
#
#
#
# Elastic Constant Matrix: (Units=GPa)
#
#
# Indices 1 2 3 4 5 6 
#
# 1 117.9499 39.4490 87.8351 0.0000 0.0000 0.0000
# 2 39.4490 37.1246 36.5031 0.0000 0.0000 0.0000
# 3 87.8351 36.5031 148.2893 0.0000 0.0000 0.0000
# 4 0.0000 0.0000 0.0000 25.9543 0.0000 0.0000
# 5 0.0000 0.0000 0.0000 0.0000 36.9240 0.0000
# 6 0.0000 0.0000 0.0000 0.0000 0.0000 16.7952
#
#
#
# Elastic Compliance Matrix: (Units=1/GPa)
#
#
# Indices 1 2 3 4 5 6 
#
# 1 0.018305 -0.011597 -0.007988 0.000000 0.000000 0.000000
# 2 -0.011597 0.042885 -0.003687 0.000000 0.000000 0.000000
# 3 -0.007988 -0.003687 0.012383 0.000000 0.000000 0.000000
# 4 0.000000 0.000000 0.000000 0.038529 0.000000 0.000000
# 5 0.000000 0.000000 0.000000 0.000000 0.027083 0.000000
# 6 0.000000 0.000000 0.000000 0.000000 0.000000 0.059541
#
#
# Mechanical properties :
#
#
# Convention : Reuss Voigt Hill
#
# Bulk Modulus (GPa) = 36.99831 70.10422 53.55127
# Shear Modulus (GPa) = 19.66330 25.23980 22.45155
#
# Velocity S-wave (km/s) = 3.22727 3.65637 3.44850
# Velocity P-wave (km/s) = 5.78656 7.41337 6.64990
#
# Compressibility (1/GPa) = 0.02702826
#
# Stress axis : x y z
#
# Youngs Moduli (GPa) = 54.62868 23.31800 80.75808
#
# Poissons Ratio (x) = 0.27043 0.64509
# Poissons Ratio (y) = 0.63355 0.29778
# Poissons Ratio (z) = 0.43637 0.08598
#
# Static dielectric constant tensor:
#      x y z
#    x 1.699720 0.000000 0.000000 
#    y 0.000000 1.637360 0.000000 
#    z 0.000000 0.000000 1.630980 
# 
# From -- ./inp_files/23009.got.cif
#   From: 2010.05.17/outbox.cif.g08.bks.cpg/sg38_12_cif.got.tgz:23009.got - 2010.06.03 18:07:57.
