data_PCOD9358312
_publ_section_title
;
Structure prediction by ZEFSAII (Michael W. Deem and Ramdas Pophale) SiO2 
 PCOD9358312
Probable space group: A M M 2
;
_chemical_formula_sum "Si O2"
_cell_formula_units_Z 48
_cell_length_a 8.861703
_cell_length_b 16.864588
_cell_length_c 18.753120
_cell_angle_alpha 90.000000
_cell_angle_beta 90.000000
_cell_angle_gamma 90.000000
_cell_volume 2802.634470
_symmetry_space_group_name_H-M "A M M 2"
_symmetry_group_IT_number 38
_symmetry_cell_setting 'orthorhombic'
loop_
_space_group_symop_operation_xyz
x,y,z
-x,-y,z
-x,y,z
x,-y,z
x,1/2+y,1/2+z
-x,1/2-y,1/2+z
-x,1/2+y,1/2+z
x,1/2-y,1/2+z
loop_
_atom_site_type_symbol
_atom_site_label
_atom_site_fract_x
_atom_site_fract_y
_atom_site_fract_z
Si Si1 0.818163 0.591042 0.898850
Si Si2 0.820606 0.164512 0.844818
Si Si3 0.820382 0.240304 0.490971
Si Si4 0.680183 0.686403 0.770121
Si Si5 0.679449 0.652763 0.605506
Si Si6 0.320274 0.000000 0.873879
Si Si7 0.179556 0.500000 0.531701
O O1 0.778375 0.500000 0.913674
O O2 0.743825 0.622275 0.826066
O O3 0.000000 0.596567 0.890682
O O4 0.777342 0.653713 0.960847
O O5 0.754644 0.230252 0.791895
O O6 0.000000 0.157394 0.835978
O O7 0.742204 0.079886 0.838299
O O8 0.793632 0.199739 0.924514
O O9 0.730269 0.272051 0.558493
O O10 0.000000 0.241063 0.505819
O O11 0.500000 0.691776 0.778321
O O12 0.714231 0.664502 0.688692
O O13 0.500000 0.640122 0.597794
O O14 0.767282 0.577547 0.574081
O O15 0.500000 0.000000 0.874676
O O16 0.257264 0.000000 0.954530
O O17 0.000000 0.500000 0.522033
#
# Coordination Sequence:
#
# PCOD9358312 Si02
#       7
#     8   8   8   8   8   4   4
#     4   9  19  36  57  81 107 138 179 229 277 325
#     4  10  20  36  57  82 110 144 187 227 267 325
#     4   9  18  33  55  79 106 140 181 226 270 324
#     4  10  22  37  54  79 112 147 182 224 276 329
#     4  11  23  37  54  79 114 148 182 225 275 329
#     4  12  22  34  58  86 114 143 178 227 278 326
#     4  12  24  36  54  82 114 147 184 225 272 328
#
# _framework density 17.126742
#
# number of rings (size 3 to 8) (size 9 to 14) (size 15 to 20)
#    0.000    1.833    1.667    4.000    1.167    5.667 
#    0.000    0.000    1.833    0.000    0.000    0.000 
#    0.000    0.000    0.000    0.000    0.000    0.000 
#
# Total GULP energy -134024.248261 kJ/mol
# GULP energy per Si atom -5584.343678 kJ/mol
# Density = 1.708776 g / cm^3
# Si number density = 17.126742 Si / 1000 Ang^3
#
#
#
# Elastic Constant Matrix: (Units=GPa)
#
#
# Indices 1 2 3 4 5 6 
#
# 1 48.3259 41.1144 23.0150 0.0000 0.0000 0.0000
# 2 41.1144 138.7509 32.6541 0.0000 0.0000 0.0000
# 3 23.0150 32.6541 56.5149 0.0000 0.0000 0.0000
# 4 0.0000 0.0000 0.0000 13.7420 0.0000 0.0000
# 5 0.0000 0.0000 0.0000 0.0000 -26.5371 0.0000
# 6 0.0000 0.0000 0.0000 0.0000 0.0000 20.8511
#
#
#
# Elastic Compliance Matrix: (Units=1/GPa)
#
#
# Indices 1 2 3 4 5 6 
#
# 1 0.030770 -0.007140 -0.008406 0.000000 0.000000 0.000000
# 2 -0.007140 0.009998 -0.002869 0.000000 0.000000 0.000000
# 3 -0.008406 -0.002869 0.022775 0.000000 0.000000 0.000000
# 4 0.000000 0.000000 0.000000 0.072769 0.000000 0.000000
# 5 0.000000 0.000000 0.000000 0.000000 -0.037683 0.000000
# 6 0.000000 0.000000 0.000000 0.000000 0.000000 0.047959
#
#
# Mechanical properties :
#
#
# Convention : Reuss Voigt Hill
#
# Bulk Modulus (GPa) = 37.43261 48.57318 43.00290
# Shear Modulus (GPa) = 25.99800 11.39842 18.69821
#
# Velocity S-wave (km/s) = 3.90035 2.58259 3.30776
# Velocity P-wave (km/s) = 6.49518 6.10865 6.30488
#
# Compressibility (1/GPa) = 0.02671467
#
# Stress axis : x y z
#
# Youngs Moduli (GPa) = 32.49917 100.01986 43.90705
#
# Poissons Ratio (x) = 0.71409 0.36906
# Poissons Ratio (y) = 0.23203 0.12598
# Poissons Ratio (z) = 0.27317 0.28699
#
# Static dielectric constant tensor:
#      x y z
#    x 1.571360 0.000000 0.000000 
#    y 0.000000 1.583630 0.000000 
#    z 0.000000 0.000000 1.552860 
# 
# From -- ./inp_files/16704.got.cif
#   From: 2010.05.17/outbox.cif.g08.bks.cpg/sg38_9_cif.got.tgz:16704.got - 2010.06.03 18:07:57.
