data_PCOD9358969
_publ_section_title
;
Structure prediction by ZEFSAII (Michael W. Deem and Ramdas Pophale) SiO2 
 PCOD9358969
Probable space group: A M M 2
;
_chemical_formula_sum "Si O2"
_cell_formula_units_Z 48
_cell_length_a 17.711828
_cell_length_b 14.137500
_cell_length_c 9.392281
_cell_angle_alpha 90.000000
_cell_angle_beta 90.000000
_cell_angle_gamma 90.000000
_cell_volume 2351.836257
_symmetry_space_group_name_H-M "A M M 2"
_symmetry_group_IT_number 38
_symmetry_cell_setting 'orthorhombic'
loop_
_space_group_symop_operation_xyz
x,y,z
-x,-y,z
-x,y,z
x,-y,z
x,1/2+y,1/2+z
-x,1/2-y,1/2+z
-x,1/2+y,1/2+z
x,1/2-y,1/2+z
loop_
_atom_site_type_symbol
_atom_site_label
_atom_site_fract_x
_atom_site_fract_y
_atom_site_fract_z
Si Si1 0.658105 0.750000 0.291220
Si Si2 0.222759 0.398227 0.886551
Si Si3 0.777241 0.898227 0.695889
Si Si4 0.082492 0.349288 0.372472
Si Si5 0.409493 0.114475 0.041220
Si Si6 0.917508 0.650713 0.709967
O O1 0.715317 0.818146 0.374842
O O2 0.715317 0.681854 0.207598
O O3 0.615995 0.821344 0.179526
O O4 0.615995 0.678656 0.402914
O O5 0.261602 0.500000 0.878300
O O6 0.158035 0.395570 0.768906
O O7 0.184436 0.390154 0.041220
O O8 0.841965 0.895570 0.813534
O O9 0.738398 0.000000 0.704139
O O10 0.088547 0.337181 0.541220
O O11 0.081668 0.250000 0.291220
O O12 0.000000 0.393972 0.344062
O O13 0.500000 0.111074 0.041220
O O14 0.384428 0.000000 0.041220
O O15 0.000000 0.606028 0.738377
#
# Coordination Sequence:
#
# PCOD9358969 Si02
#       6
#     8   8   8   8   8   8
#     4  12  23  46  69 100 142 176 214 282 333 394
#     4  11  24  40  62  94 130 174 223 271 336 404
#     4  11  24  40  62  94 130 174 223 271 336 404
#     4  10  21  37  58  86 123 171 226 284 343 397
#     4  11  26  48  77 109 138 179 227 269 335 416
#     4  10  21  37  58  86 123 171 226 284 343 397
#
# _framework density 20.409585
#
# number of rings (size 3 to 8) (size 9 to 14) (size 15 to 20)
#    0.000    1.167    3.333    2.500    2.333    3.333 
#    0.000    3.333    0.000    4.000    0.000    0.000 
#    0.000    0.000    0.000    0.000    0.000    0.000 
#
# Total GULP energy -133651.522085 kJ/mol
# GULP energy per Si atom -5568.813420 kJ/mol
# Density = 2.036313 g / cm^3
# Si number density = 20.409585 Si / 1000 Ang^3
#
#
#
# Elastic Constant Matrix: (Units=GPa)
#
#
# Indices 1 2 3 4 5 6 
#
# 1 88.5388 51.7454 49.1451 0.0000 0.0000 0.0000
# 2 51.7454 168.3324 48.8916 0.0000 0.0000 0.0000
# 3 49.1451 48.8916 130.4169 0.0000 0.0000 0.0000
# 4 0.0000 0.0000 0.0000 17.9943 0.0000 0.0000
# 5 0.0000 0.0000 0.0000 0.0000 36.3774 0.0000
# 6 0.0000 0.0000 0.0000 0.0000 0.0000 109.3278
#
#
#
# Elastic Compliance Matrix: (Units=1/GPa)
#
#
# Indices 1 2 3 4 5 6 
#
# 1 0.015970 -0.003548 -0.004688 0.000000 0.000000 0.000000
# 2 -0.003548 0.007455 -0.001458 0.000000 0.000000 0.000000
# 3 -0.004688 -0.001458 0.009981 0.000000 0.000000 0.000000
# 4 0.000000 0.000000 0.000000 0.055573 0.000000 0.000000
# 5 0.000000 0.000000 0.000000 0.000000 0.027490 0.000000
# 6 0.000000 0.000000 0.000000 0.000000 0.000000 0.009147
#
#
# Mechanical properties :
#
#
# Convention : Reuss Voigt Hill
#
# Bulk Modulus (GPa) = 71.33387 76.31693 73.82540
# Shear Modulus (GPa) = 33.40579 48.57363 40.98971
#
# Velocity S-wave (km/s) = 4.05009 4.88376 4.48633
# Velocity P-wave (km/s) = 7.54308 8.32318 7.94271
#
# Compressibility (1/GPa) = 0.01401859
#
# Stress axis : x y z
#
# Youngs Moduli (GPa) = 62.61745 134.14620 100.19208
#
# Poissons Ratio (x) = 0.47589 0.46971
# Poissons Ratio (y) = 0.22214 0.14606
# Poissons Ratio (z) = 0.29355 0.19556
#
# Static dielectric constant tensor:
#      x y z
#    x 1.705300 0.000000 0.000000 
#    y 0.000000 1.786910 0.000000 
#    z 0.000000 0.000000 1.747120 
# 
# From -- ./inp_files/6181.got.cif
#   From: 2010.05.17/outbox.cif.g08.bks.cpg/sg38_4_cif.got.tgz:6181.got - 2010.06.03 18:07:57.
