data_PCOD9358285
_publ_section_title
;
Structure prediction by ZEFSAII (Michael W. Deem and Ramdas Pophale) SiO2 
 PCOD9358285
Probable space group: A M M 2
;
_chemical_formula_sum "Si O2"
_cell_formula_units_Z 64
_cell_length_a 11.637844
_cell_length_b 29.738583
_cell_length_c 9.472646
_cell_angle_alpha 90.000000
_cell_angle_beta 90.000000
_cell_angle_gamma 90.000000
_cell_volume 3278.416375
_symmetry_space_group_name_H-M "A M M 2"
_symmetry_group_IT_number 38
_symmetry_cell_setting 'orthorhombic'
loop_
_space_group_symop_operation_xyz
x,y,z
-x,-y,z
-x,y,z
x,-y,z
x,1/2+y,1/2+z
-x,1/2-y,1/2+z
-x,1/2+y,1/2+z
x,1/2-y,1/2+z
loop_
_atom_site_type_symbol
_atom_site_label
_atom_site_fract_x
_atom_site_fract_y
_atom_site_fract_z
Si Si1 0.626781 0.675653 0.565580
Si Si2 0.367106 0.415313 0.730567
Si Si3 0.712890 0.610715 0.023599
Si Si4 0.374713 0.825092 0.754218
Si Si5 0.799712 0.249098 0.166098
Si Si6 0.135926 0.053041 0.739009
Si Si7 0.133468 0.554076 0.566423
Si Si8 0.122652 0.811072 0.422222
O O1 0.500000 0.696417 0.575192
O O2 0.633508 0.636472 0.679443
O O3 0.637763 0.654467 0.410053
O O4 0.719650 0.713881 0.584735
O O5 0.500000 0.431894 0.696500
O O6 0.248512 0.433942 0.657381
O O7 0.348945 0.416495 0.899243
O O8 0.634469 0.637766 0.133679
O O9 0.793966 0.580489 0.122837
O O10 0.784162 0.650468 0.946522
O O11 0.500000 0.803359 0.746243
O O12 0.279871 0.787028 0.736346
O O13 0.860171 0.219451 0.284732
O O14 0.872692 0.276856 0.053799
O O15 0.000000 0.057775 0.711626
O O16 0.164834 0.000000 0.731400
O O17 0.153686 0.068096 0.902422
O O18 0.126951 0.500000 0.567420
O O19 0.000000 0.569470 0.605984
O O20 0.000000 0.834206 0.415448
#
# Coordination Sequence:
#
# PCOD9358285 Si02
#       8
#     8   8   8   8   8   8   8   8
#     4  10  20  36  55  79 110 148 195 242 293 354
#     4  11  23  38  59  90 126 160 200 253 308 369
#     4  11  22  37  59  86 126 157 200 246 316 361
#     4  10  21  36  58  81 108 148 195 244 292 356
#     4  11  20  38  54  78 109 146 199 242 302 354
#     4   9  19  39  66  92 120 159 210 258 302 368
#     4   9  20  41  67  93 121 158 205 253 306 374
#     4  11  23  37  55  78 115 157 201 253 305 364
#
# _framework density 19.521619000000001
#
# number of rings (size 3 to 8) (size 9 to 14) (size 15 to 20)
#    0.000    1.750    2.500    3.000    0.000    1.750 
#    0.000    1.875    0.000    2.625    0.000    0.000 
#    0.000    0.000    0.000    0.000    0.000    0.000 
#
# Total GULP energy -178256.113679 kJ/mol
# GULP energy per Si atom -5570.503552 kJ/mol
# Density = 1.947719 g / cm^3
# Si number density = 19.521619 Si / 1000 Ang^3
#
#
#
# Elastic Constant Matrix: (Units=GPa)
#
#
# Indices 1 2 3 4 5 6 
#
# 1 115.7929 23.7885 47.9316 0.0000 0.0000 0.0000
# 2 23.7885 32.7295 11.9429 0.0000 0.0000 0.0000
# 3 47.9316 11.9429 109.5584 0.0000 0.0000 0.0000
# 4 0.0000 0.0000 0.0000 11.4226 0.0000 0.0000
# 5 0.0000 0.0000 0.0000 0.0000-1222.4099 0.0000
# 6 0.0000 0.0000 0.0000 0.0000 0.0000 -305.3208
#
#
#
# Elastic Compliance Matrix: (Units=1/GPa)
#
#
# Indices 1 2 3 4 5 6 
#
# 1 0.011925 -0.007044 -0.004449 0.000000 0.000000 0.000000
# 2 -0.007044 0.035980 -0.000841 0.000000 0.000000 0.000000
# 3 -0.004449 -0.000841 0.011166 0.000000 0.000000 0.000000
# 4 0.000000 0.000000 0.000000 0.087546 0.000000 0.000000
# 5 0.000000 0.000000 0.000000 0.000000 -0.000818 0.000000
# 6 0.000000 0.000000 0.000000 0.000000 0.000000 -0.003275
#
#
# Mechanical properties :
#
#
# Convention : Reuss Voigt Hill
#
# Bulk Modulus (GPa) = 29.06701 47.26743 38.16722
# Shear Modulus (GPa) = 27.98645 -291.63377 -131.82366
#
# Velocity S-wave (km/s) = 3.79042 -12.23579 -8.22640
# Velocity P-wave (km/s) = 5.83766 13.24212 8.40463
#
# Compressibility (1/GPa) = 0.03440326
#
# Stress axis : x y z
#
# Youngs Moduli (GPa) = 83.85799 27.79345 89.55969
#
# Poissons Ratio (x) = 0.19577 0.39848
# Poissons Ratio (y) = 0.59067 0.07528
# Poissons Ratio (z) = 0.37311 0.02336
#
# Static dielectric constant tensor:
#      x y z
#    x 2.130890 0.000000 0.000000 
#    y 0.000000 1.639400 0.000000 
#    z 0.000000 0.000000 1.702350 
# 
# From -- ./inp_files/4947.got.cif
#   From: 2010.05.17/outbox.cif.g08.bks.cpg/sg38_3_cif.got.tgz:4947.got - 2010.06.03 18:07:57.
