data_PCOD9358691
_publ_section_title
;
Structure prediction by ZEFSAII (Michael W. Deem and Ramdas Pophale) SiO2 
 PCOD9358691
Probable space group: A M M 2
;
_chemical_formula_sum "Si O2"
_cell_formula_units_Z 40
_cell_length_a 7.567988
_cell_length_b 9.934401
_cell_length_c 26.293145
_cell_angle_alpha 90.000000
_cell_angle_beta 90.000000
_cell_angle_gamma 90.000000
_cell_volume 1976.808762
_symmetry_space_group_name_H-M "A M M 2"
_symmetry_group_IT_number 38
_symmetry_cell_setting 'orthorhombic'
loop_
_space_group_symop_operation_xyz
x,y,z
-x,-y,z
-x,y,z
x,-y,z
x,1/2+y,1/2+z
-x,1/2-y,1/2+z
-x,1/2+y,1/2+z
x,1/2-y,1/2+z
loop_
_atom_site_type_symbol
_atom_site_label
_atom_site_fract_x
_atom_site_fract_y
_atom_site_fract_z
Si Si1 0.213019 0.346861 0.760740
Si Si2 0.711219 0.653450 0.941397
Si Si3 0.784312 0.653946 0.645606
Si Si4 0.710096 0.652345 0.353396
Si Si5 0.787265 0.346945 0.056295
O O1 0.273630 0.500000 0.773115
O O2 0.271577 0.312811 0.703256
O O3 0.265725 0.237476 0.802034
O O4 0.000000 0.350929 0.760125
O O5 0.500000 0.645474 0.934487
O O6 0.780818 0.500000 0.935661
O O7 0.782431 0.757084 0.899725
O O8 0.743921 0.698933 0.999205
O O9 0.732665 0.500000 0.635293
O O10 0.721475 0.752695 0.601533
O O11 0.000000 0.657608 0.645540
O O12 0.500000 0.640981 0.361648
O O13 0.781156 0.500000 0.350678
O O14 0.721434 0.500000 0.061481
O O15 0.000000 0.350382 0.059907
#
# Coordination Sequence:
#
# PCOD9358691 Si02
#       5
#     8   8   8   8   8
#     4   9  18  33  53  75  98 127 164 202 239 285
#     4   9  18  33  50  66  90 127 163 194 236 288
#     4   8  15  29  48  70  96 124 153 188 233 282
#     4  10  21  35  50  71  99 129 162 202 247 291
#     4   9  17  29  47  71  95 120 154 194 233 277
#
# _framework density 20.234632000000001
#
# number of rings (size 3 to 8) (size 9 to 14) (size 15 to 20)
#    0.000    3.000    0.000    1.800    0.000    4.000 
#    0.000    5.000    0.000    3.600    0.000    0.000 
#    0.000    0.000    0.000    0.000    0.000    0.000 
#
# Total GULP energy -111569.016642 kJ/mol
# GULP energy per Si atom -5578.450832 kJ/mol
# Density = 2.018858 g / cm^3
# Si number density = 20.234632 Si / 1000 Ang^3
#
#
#
# Elastic Constant Matrix: (Units=GPa)
#
#
# Indices 1 2 3 4 5 6 
#
# 1 45.8710 5.5262 -1.9097 0.0000 0.0000 0.0000
# 2 5.5262 150.9047 144.9452 0.0000 0.0000 0.0000
# 3 -1.9097 144.9452 193.9671 0.0000 0.0000 0.0000
# 4 0.0000 0.0000 0.0000 36.8575 0.0000 0.0000
# 5 0.0000 0.0000 0.0000 0.0000 26.6084 0.0000
# 6 0.0000 0.0000 0.0000 0.0000 0.0000 12.3396
#
#
#
# Elastic Compliance Matrix: (Units=1/GPa)
#
#
# Indices 1 2 3 4 5 6 
#
# 1 0.022363 -0.003651 0.002948 0.000000 0.000000 0.000000
# 2 -0.003651 0.024075 -0.018026 0.000000 0.000000 0.000000
# 3 0.002948 -0.018026 0.018655 0.000000 0.000000 0.000000
# 4 0.000000 0.000000 0.000000 0.027132 0.000000 0.000000
# 5 0.000000 0.000000 0.000000 0.000000 0.037582 0.000000
# 6 0.000000 0.000000 0.000000 0.000000 0.000000 0.081040
#
#
# Mechanical properties :
#
#
# Convention : Reuss Voigt Hill
#
# Bulk Modulus (GPa) = 36.18591 76.42958 56.30775
# Shear Modulus (GPa) = 19.41637 31.30650 25.36143
#
# Velocity S-wave (km/s) = 3.10104 3.93768 3.54413
# Velocity P-wave (km/s) = 5.54472 7.65032 6.68099
#
# Compressibility (1/GPa) = 0.02763506
#
# Stress axis : x y z
#
# Youngs Moduli (GPa) = 44.71708 41.53758 53.60541
#
# Poissons Ratio (x) = 0.15165 -0.15805
# Poissons Ratio (y) = 0.16325 0.96630
# Poissons Ratio (z) = -0.13184 0.74876
#
# Static dielectric constant tensor:
#      x y z
#    x 1.762930 0.000000 0.000000 
#    y 0.000000 1.712020 0.000000 
#    z 0.000000 0.000000 1.691600 
# 
# From -- ./inp_files/17465.got.cif
#   From: 2010.05.17/outbox.cif.g08.bks.cpg/sg38_9_cif.got.tgz:17465.got - 2010.06.03 18:07:57.
