data_PCOD9358091
_publ_section_title
;
Structure prediction by ZEFSAII (Michael W. Deem and Ramdas Pophale) SiO2 
 PCOD9358091
Probable space group: A M M 2
;
_chemical_formula_sum "Si O2"
_cell_formula_units_Z 40
_cell_length_a 7.636233
_cell_length_b 26.982161
_cell_length_c 9.525790
_cell_angle_alpha 90.000000
_cell_angle_beta 90.000000
_cell_angle_gamma 90.000000
_cell_volume 1962.713473
_symmetry_space_group_name_H-M "A M M 2"
_symmetry_group_IT_number 38
_symmetry_cell_setting 'orthorhombic'
loop_
_space_group_symop_operation_xyz
x,y,z
-x,-y,z
-x,y,z
x,-y,z
x,1/2+y,1/2+z
-x,1/2-y,1/2+z
-x,1/2+y,1/2+z
x,1/2-y,1/2+z
loop_
_atom_site_type_symbol
_atom_site_label
_atom_site_fract_x
_atom_site_fract_y
_atom_site_fract_z
Si Si1 0.708370 0.500000 0.508250
Si Si2 0.711512 0.299394 0.010101
Si Si3 0.794353 0.590192 0.987354
Si Si4 0.704345 0.403319 0.662788
Si Si5 0.714595 0.705602 0.686979
Si Si6 0.212306 0.000000 0.680076
O O1 0.500000 0.500000 0.539108
O O2 0.781483 0.450031 0.580156
O O3 0.731160 0.500000 0.341406
O O4 0.500000 0.299507 0.014295
O O5 0.768968 0.354768 0.048844
O O6 0.774124 0.253752 0.103401
O O7 0.765827 0.291060 0.849370
O O8 0.727798 0.548255 0.093070
O O9 0.000000 0.581475 0.966264
O O10 0.713892 0.588586 0.831122
O O11 0.500000 0.400603 0.623610
O O12 0.777039 0.348239 0.633646
O O13 0.500000 0.705076 0.682558
O O14 0.000000 0.000000 0.681600
#
# Coordination Sequence:
#
# PCOD9358091 Si02
#       6
#     4   8   8   8   8   4
#     4  10  21  34  54  82 104 124 163 214 256 292
#     4   9  17  31  50  72  97 129 166 206 247 291
#     4  10  20  35  53  73  98 135 175 206 241 296
#     4   9  18  34  54  78 103 129 165 209 251 298
#     4   8  15  28  48  71  97 128 160 194 244 299
#     4  10  23  38  50  70 104 138 167 200 250 308
#
# _framework density 20.379950000000001
#
# number of rings (size 3 to 8) (size 9 to 14) (size 15 to 20)
#    0.000    2.800    0.000    2.400    0.000    4.000 
#    0.000    8.000    0.000    0.000    0.000    0.000 
#    0.000    0.000    0.000    0.000    0.000    0.000 
#
# Total GULP energy -111562.680001 kJ/mol
# GULP energy per Si atom -5578.134000 kJ/mol
# Density = 2.033356 g / cm^3
# Si number density = 20.379950 Si / 1000 Ang^3
#
#
#
# Elastic Constant Matrix: (Units=GPa)
#
#
# Indices 1 2 3 4 5 6 
#
# 1 34.9899 -5.9913 -13.4238 0.0000 0.0000 0.0000
# 2 -5.9913 227.1541 103.1010 0.0000 0.0000 0.0000
# 3 -13.4238 103.1010 72.1707 0.0000 0.0000 0.0000
# 4 0.0000 0.0000 0.0000 41.7008 0.0000 0.0000
# 5 0.0000 0.0000 0.0000 0.0000 113.4132 0.0000
# 6 0.0000 0.0000 0.0000 0.0000 0.0000 4.0644
#
#
#
# Elastic Compliance Matrix: (Units=1/GPa)
#
#
# Indices 1 2 3 4 5 6 
#
# 1 0.032986 -0.005446 0.013915 0.000000 0.000000 0.000000
# 2 -0.005446 0.013420 -0.020184 0.000000 0.000000 0.000000
# 3 0.013915 -0.020184 0.045279 0.000000 0.000000 0.000000
# 4 0.000000 0.000000 0.000000 0.023980 0.000000 0.000000
# 5 0.000000 0.000000 0.000000 0.000000 0.008817 0.000000
# 6 0.000000 0.000000 0.000000 0.000000 0.000000 0.246038
#
#
# Mechanical properties :
#
#
# Convention : Reuss Voigt Hill
#
# Bulk Modulus (GPa) = 14.65105 55.74294 35.19700
# Shear Modulus (GPa) = 11.99899 48.54426 30.27162
#
# Velocity S-wave (km/s) = 2.42908 4.88583 3.85822
# Velocity P-wave (km/s) = 3.88224 7.69673 6.09555
#
# Compressibility (1/GPa) = 0.06825448
#
# Stress axis : x y z
#
# Youngs Moduli (GPa) = 30.31617 74.51644 22.08544
#
# Poissons Ratio (x) = 0.40580 -0.30732
# Poissons Ratio (y) = 0.16509 0.44578
# Poissons Ratio (z) = -0.42185 1.50405
#
# Static dielectric constant tensor:
#      x y z
#    x 1.698050 0.000000 0.000000 
#    y 0.000000 1.746910 0.000000 
#    z 0.000000 0.000000 1.670230 
# 
# From -- ./inp_files/3503.got.cif
#   From: 2010.05.17/outbox.cif.g08.bks.cpg/sg38_2_cif.got.tgz:3503.got - 2010.06.03 18:07:57.
