data_PCOD9358895
_publ_section_title
;
Structure prediction by ZEFSAII (Michael W. Deem and Ramdas Pophale) SiO2 
 PCOD9358895
Probable space group: A M M 2
;
_chemical_formula_sum "Si O2"
_cell_formula_units_Z 48
_cell_length_a 7.951343
_cell_length_b 21.034366
_cell_length_c 14.828339
_cell_angle_alpha 90.000000
_cell_angle_beta 90.000000
_cell_angle_gamma 90.000000
_cell_volume 2480.061330
_symmetry_space_group_name_H-M "A M M 2"
_symmetry_group_IT_number 38
_symmetry_cell_setting 'orthorhombic'
loop_
_space_group_symop_operation_xyz
x,y,z
-x,-y,z
-x,y,z
x,-y,z
x,1/2+y,1/2+z
-x,1/2-y,1/2+z
-x,1/2+y,1/2+z
x,1/2-y,1/2+z
loop_
_atom_site_type_symbol
_atom_site_label
_atom_site_fract_x
_atom_site_fract_y
_atom_site_fract_z
Si Si1 0.697585 0.760930 0.643920
Si Si2 0.205714 0.572456 0.827983
Si Si3 0.195800 0.117439 0.131057
Si Si4 0.800292 0.183174 0.460071
Si Si5 0.295723 0.695381 0.340650
Si Si6 0.698563 0.569989 0.439205
O O1 0.500000 0.746222 0.652408
O O2 0.787297 0.693628 0.627835
O O3 0.723353 0.805969 0.558256
O O4 0.755244 0.791923 0.737639
O O5 0.255815 0.500000 0.845872
O O6 0.261067 0.593785 0.727958
O O7 0.263113 0.622937 0.902712
O O8 0.000000 0.574908 0.827238
O O9 0.000000 0.099717 0.125347
O O10 0.282946 0.087280 0.044428
O O11 0.764490 0.246143 0.401545
O O12 0.000000 0.176625 0.471161
O O13 0.500000 0.695113 0.344591
O O14 0.232135 0.628942 0.381580
O O15 0.500000 0.567130 0.419045
O O16 0.771455 0.500000 0.421767
#
# Coordination Sequence:
#
# PCOD9358895 Si02
#       6
#     8   8   8   8   8   8
#     4  11  22  36  55  82 115 148 186 228 278 329
#     4   9  19  35  54  80 115 148 179 223 280 332
#     4  11  20  33  56  85 114 144 183 230 281 330
#     4  11  21  35  58  84 110 144 187 232 275 326
#     4  10  21  37  57  79 110 149 184 227 274 328
#     4  10  21  37  56  81 113 149 185 225 281 338
#
# _framework density 19.354358000000001
#
# number of rings (size 3 to 8) (size 9 to 14) (size 15 to 20)
#    0.000    1.667    3.333    2.000    0.000    1.667 
#    0.000    0.833    0.000    6.000    0.000    0.000 
#    0.000    0.000    0.000    0.000    0.000    0.000 
#
# Total GULP energy -134063.646067 kJ/mol
# GULP energy per Si atom -5585.985253 kJ/mol
# Density = 1.931031 g / cm^3
# Si number density = 19.354358 Si / 1000 Ang^3
#
#
#
# Elastic Constant Matrix: (Units=GPa)
#
#
# Indices 1 2 3 4 5 6 
#
# 1 18.0632 -6.6504 -6.6259 0.0000 0.0000 0.0000
# 2 -6.6504 129.7330 38.6600 0.0000 0.0000 0.0000
# 3 -6.6259 38.6600 103.4161 0.0000 0.0000 0.0000
# 4 0.0000 0.0000 0.0000 20.3420 0.0000 0.0000
# 5 0.0000 0.0000 0.0000 0.0000 6.1649 0.0000
# 6 0.0000 0.0000 0.0000 0.0000 0.0000 5.3351
#
#
#
# Elastic Compliance Matrix: (Units=1/GPa)
#
#
# Indices 1 2 3 4 5 6 
#
# 1 0.057184 0.002070 0.002890 0.000000 0.000000 0.000000
# 2 0.002070 0.008749 -0.003138 0.000000 0.000000 0.000000
# 3 0.002890 -0.003138 0.011028 0.000000 0.000000 0.000000
# 4 0.000000 0.000000 0.000000 0.049159 0.000000 0.000000
# 5 0.000000 0.000000 0.000000 0.000000 0.162210 0.000000
# 6 0.000000 0.000000 0.000000 0.000000 0.000000 0.187438
#
#
# Mechanical properties :
#
#
# Convention : Reuss Voigt Hill
#
# Bulk Modulus (GPa) = 12.40621 33.55329 22.97975
# Shear Modulus (GPa) = 10.02018 21.42362 15.72190
#
# Velocity S-wave (km/s) = 2.27782 3.33064 2.85321
# Velocity P-wave (km/s) = 3.65266 5.67140 4.77005
#
# Compressibility (1/GPa) = 0.08060480
#
# Stress axis : x y z
#
# Youngs Moduli (GPa) = 17.48754 114.29334 90.67856
#
# Poissons Ratio (x) = -0.23661 -0.26205
# Poissons Ratio (y) = -0.03620 0.28456
# Poissons Ratio (z) = -0.05054 0.35867
#
# Static dielectric constant tensor:
#      x y z
#    x 1.709980 0.000000 0.000000 
#    y 0.000000 1.670170 0.000000 
#    z 0.000000 0.000000 1.652920 
# 
# From -- ./inp_files/12031.got.cif
#   From: 2010.05.17/outbox.cif.g08.bks.cpg/sg38_7_cif.got.tgz:12031.got - 2010.06.03 18:07:57.
