data_PCOD9358788
_publ_section_title
;
Structure prediction by ZEFSAII (Michael W. Deem and Ramdas Pophale) SiO2 
 PCOD9358788
Probable space group: A M M 2
;
_chemical_formula_sum "Si O2"
_cell_formula_units_Z 64
_cell_length_a 20.285989
_cell_length_b 8.551429
_cell_length_c 20.787319
_cell_angle_alpha 90.000000
_cell_angle_beta 90.000000
_cell_angle_gamma 90.000000
_cell_volume 3606.063422
_symmetry_space_group_name_H-M "A M M 2"
_symmetry_group_IT_number 38
_symmetry_cell_setting 'orthorhombic'
loop_
_space_group_symop_operation_xyz
x,y,z
-x,-y,z
-x,y,z
x,-y,z
x,1/2+y,1/2+z
-x,1/2-y,1/2+z
-x,1/2+y,1/2+z
x,1/2-y,1/2+z
loop_
_atom_site_type_symbol
_atom_site_label
_atom_site_fract_x
_atom_site_fract_y
_atom_site_fract_z
Si Si1 0.698346 0.310534 0.960890
Si Si2 0.667819 0.689517 0.100070
Si Si3 0.812773 0.314358 0.635142
Si Si4 0.321300 0.312186 0.817623
Si Si5 0.153108 0.688303 0.000954
Si Si6 0.924486 0.189106 0.375893
Si Si7 0.820453 0.685581 0.272928
Si Si8 0.575288 0.689027 0.215144
O O1 0.696253 0.500000 0.959053
O O2 0.673887 0.255584 0.891655
O O3 0.774976 0.267877 0.972091
O O4 0.660559 0.260935 0.025621
O O5 0.672034 0.500000 0.101228
O O6 0.737892 0.753466 0.124643
O O7 0.610459 0.738237 0.148531
O O8 0.812182 0.500000 0.640930
O O9 0.851765 0.263217 0.571138
O O10 0.838401 0.240141 0.701066
O O11 0.323764 0.500000 0.816673
O O12 0.250106 0.260333 0.791055
O O13 0.378816 0.246986 0.772864
O O14 0.152767 0.500000 0.008553
O O15 0.099604 0.732552 0.947664
O O16 0.874711 0.259643 0.324066
O O17 0.000000 0.235271 0.364935
O O18 0.919862 0.000000 0.371773
O O19 0.813440 0.500000 0.274416
O O20 0.500000 0.743656 0.219774
O O21 0.575072 0.500000 0.215957
#
# Coordination Sequence:
#
# PCOD9358788 Si02
#       8
#     8   8   8   8   8   8   8   8
#     4   8  15  29  52  79 106 135 176 225 275 325
#     4   9  17  33  54  77 106 143 181 226 280 336
#     4  11  21  33  54  84 112 142 187 240 283 326
#     4  11  20  34  56  83 112 145 186 238 288 335
#     4   9  17  34  56  81 113 146 179 224 282 342
#     4  10  21  39  62  86 115 152 191 233 284 341
#     4  12  23  36  56  83 116 154 192 236 286 340
#     4  10  21  36  54  78 111 151 191 232 286 350
#
# _framework density 17.747885
#
# number of rings (size 3 to 8) (size 9 to 14) (size 15 to 20)
#    0.000    2.000    2.500    3.375    0.000    1.000 
#    0.000    1.875    0.000    4.500    0.000    0.000 
#    0.000    0.000    0.000    0.000    0.000    0.000 
#
# Total GULP energy -178568.949901 kJ/mol
# GULP energy per Si atom -5580.279684 kJ/mol
# Density = 1.770749 g / cm^3
# Si number density = 17.747885 Si / 1000 Ang^3
#
#
#
# Elastic Constant Matrix: (Units=GPa)
#
#
# Indices 1 2 3 4 5 6 
#
# 1 86.9731 20.1276 51.8586 0.0000 0.0000 0.0000
# 2 20.1276 26.1845 20.4985 0.0000 0.0000 0.0000
# 3 51.8586 20.4985 141.0425 0.0000 0.0000 0.0000
# 4 0.0000 0.0000 0.0000 29.5113 0.0000 0.0000
# 5 0.0000 0.0000 0.0000 0.0000 25.1502 0.0000
# 6 0.0000 0.0000 0.0000 0.0000 0.0000 19.8081
#
#
#
# Elastic Compliance Matrix: (Units=1/GPa)
#
#
# Indices 1 2 3 4 5 6 
#
# 1 0.016374 -0.008884 -0.004729 0.000000 0.000000 0.000000
# 2 -0.008884 0.047914 -0.003697 0.000000 0.000000 0.000000
# 3 -0.004729 -0.003697 0.009366 0.000000 0.000000 0.000000
# 4 0.000000 0.000000 0.000000 0.033885 0.000000 0.000000
# 5 0.000000 0.000000 0.000000 0.000000 0.039761 0.000000
# 6 0.000000 0.000000 0.000000 0.000000 0.000000 0.050484
#
#
# Mechanical properties :
#
#
# Convention : Reuss Voigt Hill
#
# Bulk Modulus (GPa) = 25.61919 48.79661 37.20790
# Shear Modulus (GPa) = 20.37360 25.67494 23.02427
#
# Velocity S-wave (km/s) = 3.39181 3.80761 3.60571
# Velocity P-wave (km/s) = 5.45945 6.84723 6.19234
#
# Compressibility (1/GPa) = 0.03903324
#
# Stress axis : x y z
#
# Youngs Moduli (GPa) = 61.07425 20.87082 106.76707
#
# Poissons Ratio (x) = 0.18541 0.50491
# Poissons Ratio (y) = 0.54258 0.39473
# Poissons Ratio (z) = 0.28883 0.07716
#
# Static dielectric constant tensor:
#      x y z
#    x 1.576860 0.000000 0.000000 
#    y 0.000000 1.606910 0.000000 
#    z 0.000000 0.000000 1.625460 
# 
# From -- ./inp_files/21403.got.cif
#   From: 2010.05.17/outbox.cif.g08.bks.cpg/sg38_11_cif.got.tgz:21403.got - 2010.06.03 18:07:57.
