data_PCOD9358158
_publ_section_title
;
Structure prediction by ZEFSAII (Michael W. Deem and Ramdas Pophale) SiO2 
 PCOD9358158
Probable space group: A M M 2
;
_chemical_formula_sum "Si O2"
_cell_formula_units_Z 64
_cell_length_a 25.580911
_cell_length_b 7.720904
_cell_length_c 14.737727
_cell_angle_alpha 90.000000
_cell_angle_beta 90.000000
_cell_angle_gamma 90.000000
_cell_volume 2910.815419
_symmetry_space_group_name_H-M "A M M 2"
_symmetry_group_IT_number 38
_symmetry_cell_setting 'orthorhombic'
loop_
_space_group_symop_operation_xyz
x,y,z
-x,-y,z
-x,y,z
x,-y,z
x,1/2+y,1/2+z
-x,1/2-y,1/2+z
-x,1/2+y,1/2+z
x,1/2-y,1/2+z
loop_
_atom_site_type_symbol
_atom_site_label
_atom_site_fract_x
_atom_site_fract_y
_atom_site_fract_z
Si Si1 0.941869 0.297641 0.597650
Si Si2 0.257406 0.206932 0.274770
Si Si3 0.238648 0.802020 0.981685
Si Si4 0.648949 0.708776 0.497243
Si Si5 0.629737 0.208025 0.793442
Si Si6 0.146637 0.788353 0.231375
Si Si7 0.558288 0.208574 0.638316
Si Si8 0.125791 0.299585 0.937295
O O1 0.945917 0.500000 0.621861
O O2 0.897215 0.221549 0.663159
O O3 0.918554 0.287915 0.496820
O O4 0.000000 0.221822 0.604707
O O5 0.250994 0.296099 0.373195
O O6 0.315781 0.246740 0.243674
O O7 0.207350 0.260422 0.215277
O O8 0.253495 0.000000 0.289627
O O9 0.292495 0.727111 0.022245
O O10 0.181971 0.716721 0.987248
O O11 0.231938 0.000000 0.013031
O O12 0.654424 0.500000 0.492652
O O13 0.634072 0.773794 0.396333
O O14 0.602141 0.748974 0.564497
O O15 0.581287 0.271934 0.734438
O O16 0.626418 0.000000 0.798280
O O17 0.133222 0.734533 0.334599
O O18 0.145931 0.000000 0.228170
O O19 0.500000 0.274264 0.618718
O O20 0.555500 0.000000 0.642675
O O21 0.112049 0.500000 0.930635
#
# Coordination Sequence:
#
# PCOD9358158 Si02
#       8
#     8   8   8   8   8   8   8   8
#     4  10  21  37  55  75 102 141 186 222 257 311
#     4   9  16  29  52  81 109 135 170 217 266 314
#     4   9  17  32  54  80 110 141 173 209 259 324
#     4   9  19  35  56  80 105 137 174 214 261 314
#     4   9  19  36  55  76 105 140 174 210 262 324
#     4   8  17  34  54  76 104 139 174 210 259 318
#     4  10  22  38  54  75 105 141 182 225 266 311
#     4  10  20  35  56  82 110 139 173 218 270 315
#
# _framework density 21.986965999999999
#
# number of rings (size 3 to 8) (size 9 to 14) (size 15 to 20)
#    0.000    2.750    0.000    2.625    0.000    5.500 
#    0.000   10.000    0.000    0.000    0.000    0.000 
#    0.000    0.000    0.000    0.000    0.000    0.000 
#
# Total GULP energy -178532.248959 kJ/mol
# GULP energy per Si atom -5579.132780 kJ/mol
# Density = 2.193692 g / cm^3
# Si number density = 21.986966 Si / 1000 Ang^3
#
#
#
# Elastic Constant Matrix: (Units=GPa)
#
#
# Indices 1 2 3 4 5 6 
#
# 1 128.4718 -5.5221 29.6821 0.0000 0.0000 0.0000
# 2 -5.5221 33.3786 -3.9072 0.0000 0.0000 0.0000
# 3 29.6821 -3.9072 53.5041 0.0000 0.0000 0.0000
# 4 0.0000 0.0000 0.0000 -3.4622 0.0000 0.0000
# 5 0.0000 0.0000 0.0000 0.0000 23.4013 0.0000
# 6 0.0000 0.0000 0.0000 0.0000 0.0000 19.4829
#
#
#
# Elastic Compliance Matrix: (Units=1/GPa)
#
#
# Indices 1 2 3 4 5 6 
#
# 1 0.008955 0.000908 -0.004902 0.000000 0.000000 0.000000
# 2 0.000908 0.030310 0.001710 0.000000 0.000000 0.000000
# 3 -0.004902 0.001710 0.021534 0.000000 0.000000 0.000000
# 4 0.000000 0.000000 0.000000 -0.288831 0.000000 0.000000
# 5 0.000000 0.000000 0.000000 0.000000 0.042733 0.000000
# 6 0.000000 0.000000 0.000000 0.000000 0.000000 0.051327
#
#
# Mechanical properties :
#
#
# Convention : Reuss Voigt Hill
#
# Bulk Modulus (GPa) = 17.78384 28.42891 23.10637
# Shear Modulus (GPa) = -45.18345 20.89116 -12.14614
#
# Velocity S-wave (km/s) = -4.53814 3.08581 -2.35292
# Velocity P-wave (km/s) = 4.39929 5.06501 1.77490
#
# Compressibility (1/GPa) = 0.05623083
#
# Stress axis : x y z
#
# Youngs Moduli (GPa) = 111.66529 32.99280 46.43742
#
# Poissons Ratio (x) = -0.02995 0.22763
# Poissons Ratio (y) = -0.10137 -0.07940
# Poissons Ratio (z) = 0.54736 -0.05641
#
# Static dielectric constant tensor:
#      x y z
#    x 1.821930 0.000000 0.000000 
#    y 0.000000 1.819310 0.000000 
#    z 0.000000 0.000000 1.823270 
# 
# From -- ./inp_files/15835.got.cif
#   From: 2010.05.17/outbox.cif.g08.bks.cpg/sg38_8_cif.got.tgz:15835.got - 2010.06.03 18:07:57.
