data_PCOD9358307
_publ_section_title
;
Structure prediction by ZEFSAII (Michael W. Deem and Ramdas Pophale) SiO2 
 PCOD9358307
Probable space group: A M M 2
;
_chemical_formula_sum "Si O2"
_cell_formula_units_Z 48
_cell_length_a 15.589732
_cell_length_b 8.629014
_cell_length_c 19.170972
_cell_angle_alpha 90.000000
_cell_angle_beta 90.000000
_cell_angle_gamma 90.000000
_cell_volume 2578.956138
_symmetry_space_group_name_H-M "A M M 2"
_symmetry_group_IT_number 38
_symmetry_cell_setting 'orthorhombic'
loop_
_space_group_symop_operation_xyz
x,y,z
-x,-y,z
-x,y,z
x,-y,z
x,1/2+y,1/2+z
-x,1/2-y,1/2+z
-x,1/2+y,1/2+z
x,1/2-y,1/2+z
loop_
_atom_site_type_symbol
_atom_site_label
_atom_site_fract_x
_atom_site_fract_y
_atom_site_fract_z
Si Si1 0.500000 0.818895 0.134771
Si Si2 0.691061 0.184358 0.615249
Si Si3 0.099542 0.811970 0.369303
Si Si4 0.785072 0.825113 0.248156
Si Si5 0.500000 0.327733 0.281395
Si Si6 0.760023 0.684903 0.475868
Si Si7 0.640868 0.673077 0.866266
O O1 0.592242 0.747156 0.111980
O O2 0.500000 0.793608 0.218502
O O3 0.500000 0.000000 0.117093
O O4 0.737645 0.229961 0.687913
O O5 0.749924 0.257865 0.554747
O O6 0.687844 0.000000 0.608336
O O7 0.133479 0.762786 0.292032
O O8 0.157733 0.741708 0.431185
O O9 0.000000 0.773014 0.378201
O O10 0.108755 0.000000 0.371565
O O11 0.717541 0.838628 0.311117
O O12 0.802998 0.000000 0.221634
O O13 0.500000 0.500000 0.251074
O O14 0.578939 0.295722 0.331311
O O15 0.755441 0.500000 0.472300
O O16 0.679323 0.763909 0.437287
O O17 0.603719 0.500000 0.874142
#
# Coordination Sequence:
#
# PCOD9358307 Si02
#       7
#     4   8   8   8   4   8   8
#     4  12  24  39  58  83 118 159 201 249 299 349
#     4  12  24  39  59  85 119 160 205 248 294 351
#     4   9  19  39  66  92 119 152 192 240 298 362
#     4   9  18  34  58  85 115 149 188 235 292 350
#     4  12  22  33  54  85 114 149 199 247 289 341
#     4  11  23  39  59  85 119 156 196 243 297 358
#     4  10  20  36  57  80 111 150 193 240 291 343
#
# _framework density 18.612179999999999
#
# number of rings (size 3 to 8) (size 9 to 14) (size 15 to 20)
#    0.000    1.500    1.667    6.000    0.000    3.667 
#    0.000    4.167    0.000    3.000    0.000    0.000 
#    0.000    0.000    0.000    0.000    0.000    0.000 
#
# Total GULP energy -133810.616530 kJ/mol
# GULP energy per Si atom -5575.442355 kJ/mol
# Density = 1.856982 g / cm^3
# Si number density = 18.612180 Si / 1000 Ang^3
#
#
#
# Elastic Constant Matrix: (Units=GPa)
#
#
# Indices 1 2 3 4 5 6 
#
# 1 95.9658 25.1467 30.4185 0.0000 0.0000 0.0000
# 2 25.1467 97.6525 28.6537 0.0000 0.0000 0.0000
# 3 30.4185 28.6537 86.9124 0.0000 0.0000 0.0000
# 4 0.0000 0.0000 0.0000 28.0295 0.0000 0.0000
# 5 0.0000 0.0000 0.0000 0.0000 29.8296 0.0000
# 6 0.0000 0.0000 0.0000 0.0000 0.0000 21.9660
#
#
#
# Elastic Compliance Matrix: (Units=1/GPa)
#
#
# Indices 1 2 3 4 5 6 
#
# 1 0.012088 -0.002072 -0.003548 0.000000 0.000000 0.000000
# 2 -0.002072 0.011692 -0.003130 0.000000 0.000000 0.000000
# 3 -0.003548 -0.003130 0.013779 0.000000 0.000000 0.000000
# 4 0.000000 0.000000 0.000000 0.035677 0.000000 0.000000
# 5 0.000000 0.000000 0.000000 0.000000 0.033524 0.000000
# 6 0.000000 0.000000 0.000000 0.000000 0.000000 0.045525
#
#
# Mechanical properties :
#
#
# Convention : Reuss Voigt Hill
#
# Bulk Modulus (GPa) = 49.84739 49.88538 49.86639
# Shear Modulus (GPa) = 28.33349 29.05247 28.69298
#
# Velocity S-wave (km/s) = 3.90591 3.95516 3.93061
# Velocity P-wave (km/s) = 6.86890 6.90785 6.88840
#
# Compressibility (1/GPa) = 0.02006123
#
# Stress axis : x y z
#
# Youngs Moduli (GPa) = 82.72844 85.52693 72.57293
#
# Poissons Ratio (x) = 0.17719 0.25746
# Poissons Ratio (y) = 0.17140 0.22713
# Poissons Ratio (z) = 0.29348 0.26767
#
# Static dielectric constant tensor:
#      x y z
#    x 1.621460 0.000000 0.000000 
#    y 0.000000 1.643250 0.000000 
#    z 0.000000 0.000000 1.615320 
# 
# From -- ./inp_files/18192.got.cif
#   From: 2010.05.17/outbox.cif.g08.bks.cpg/sg38_10_cif.got.tgz:18192.got - 2010.06.03 18:07:57.
