data_PCOD9358937
_publ_section_title
;
Structure prediction by ZEFSAII (Michael W. Deem and Ramdas Pophale) SiO2 
 PCOD9358937
Probable space group: A M M 2
;
_chemical_formula_sum "Si O2"
_cell_formula_units_Z 58
_cell_length_a 7.820431
_cell_length_b 15.526077
_cell_length_c 24.574463
_cell_angle_alpha 90.000000
_cell_angle_beta 90.000000
_cell_angle_gamma 90.000000
_cell_volume 2983.846383
_symmetry_space_group_name_H-M "A M M 2"
_symmetry_group_IT_number 38
_symmetry_cell_setting 'orthorhombic'
loop_
_space_group_symop_operation_xyz
x,y,z
-x,-y,z
-x,y,z
x,-y,z
x,1/2+y,1/2+z
-x,1/2-y,1/2+z
-x,1/2+y,1/2+z
x,1/2-y,1/2+z
loop_
_atom_site_type_symbol
_atom_site_label
_atom_site_fract_x
_atom_site_fract_y
_atom_site_fract_z
Si Si1 0.204116 0.263906 0.494540
Si Si2 0.699425 0.096651 0.789776
Si Si3 0.790245 0.347798 0.610049
Si Si4 0.704679 0.903869 0.432812
Si Si5 0.706921 0.900978 0.309784
Si Si6 0.199418 0.256480 0.722615
Si Si7 0.500000 0.500000 0.609219
Si Si8 0.798484 0.097029 0.909833
O O1 0.242977 0.293256 0.555394
O O2 0.256057 0.169180 0.476006
O O3 0.276529 0.333824 0.451467
O O4 0.000000 0.265839 0.489534
O O5 0.500000 0.090400 0.802155
O O6 0.719334 0.168536 0.744128
O O7 0.782575 0.124049 0.846979
O O8 0.762533 0.000000 0.775624
O O9 0.751069 0.291919 0.663736
O O10 0.654773 0.425654 0.609666
O O11 0.000000 0.369531 0.610979
O O12 0.500000 0.908989 0.428637
O O13 0.765475 0.881071 0.371502
O O14 0.768726 0.000000 0.446112
O O15 0.500000 0.898549 0.308736
O O16 0.768932 0.832246 0.266332
O O17 0.757571 0.000000 0.297109
O O18 0.000000 0.238335 0.720646
O O19 0.000000 0.090432 0.921823
O O20 0.725791 0.000000 0.915319
#
# Coordination Sequence:
#
# PCOD9358937 Si02
#       8
#     8   8   8   8   8   8   2   8
#     4  10  21  38  58  82 119 155 192 250 299 348
#     4  10  21  37  57  84 116 150 192 250 298 351
#     4  10  26  45  62  94 127 154 207 254 291 358
#     4   9  19  36  56  83 116 152 194 247 298 353
#     4   9  19  34  56  85 119 153 192 241 295 357
#     4  11  23  38  58  82 117 157 194 248 298 350
#     4  12  26  44  72  90 114 180 198 244 308 352
#     4   9  18  33  56  84 115 155 191 229 299 365
#
# _framework density 19.437998
#
# number of rings (size 3 to 8) (size 9 to 14) (size 15 to 20)
#    0.000    2.207    0.000    2.690    4.828    4.690 
#    0.000    2.069    0.000    4.138    0.000    0.000 
#    0.000    0.000    0.000    0.000    0.000    0.000 
#
# Total GULP energy -161475.117822 kJ/mol
# GULP energy per Si atom -5568.107511 kJ/mol
# Density = 1.939376 g / cm^3
# Si number density = 19.437998 Si / 1000 Ang^3
#
#
#
# Elastic Constant Matrix: (Units=GPa)
#
#
# Indices 1 2 3 4 5 6 
#
# 1 36.9942 27.8650 32.2876 0.0000 0.0000 0.0000
# 2 27.8650 125.9841 97.4630 0.0000 0.0000 0.0000
# 3 32.2876 97.4630 117.9971 0.0000 0.0000 0.0000
# 4 0.0000 0.0000 0.0000 -25.4237 0.0000 0.0000
# 5 0.0000 0.0000 0.0000 0.0000 107.1737 0.0000
# 6 0.0000 0.0000 0.0000 0.0000 0.0000 79.8800
#
#
#
# Elastic Compliance Matrix: (Units=1/GPa)
#
#
# Indices 1 2 3 4 5 6 
#
# 1 0.035552 -0.000935 -0.008956 0.000000 0.000000 0.000000
# 2 -0.000935 0.022011 -0.017925 0.000000 0.000000 0.000000
# 3 -0.008956 -0.017925 0.025731 0.000000 0.000000 0.000000
# 4 0.000000 0.000000 0.000000 -0.039333 0.000000 0.000000
# 5 0.000000 0.000000 0.000000 0.000000 0.009331 0.000000
# 6 0.000000 0.000000 0.000000 0.000000 0.000000 0.012519
#
#
# Mechanical properties :
#
#
# Convention : Reuss Voigt Hill
#
# Bulk Modulus (GPa) = 36.14981 66.24518 51.19750
# Shear Modulus (GPa) = 38.26629 40.54998 39.40813
#
# Velocity S-wave (km/s) = 4.44174 4.57236 4.50752
# Velocity P-wave (km/s) = 6.70398 7.87588 7.31344
#
# Compressibility (1/GPa) = 0.02766266
#
# Stress axis : x y z
#
# Youngs Moduli (GPa) = 28.12784 45.43097 38.86342
#
# Poissons Ratio (x) = 0.04248 0.34806
# Poissons Ratio (y) = 0.02630 0.69663
# Poissons Ratio (z) = 0.25191 0.81436
#
# Static dielectric constant tensor:
#      x y z
#    x 1.688380 0.000000 0.000000 
#    y 0.000000 1.708360 0.000000 
#    z 0.000000 0.000000 1.674580 
# 
# From -- ./inp_files/22022.got.cif
#   From: 2010.05.17/outbox.cif.g08.bks.cpg/sg38_12_cif.got.tgz:22022.got - 2010.06.03 18:07:57.
