data_PCOD9358894
_publ_section_title
;
Structure prediction by ZEFSAII (Michael W. Deem and Ramdas Pophale) SiO2 
 PCOD9358894
Probable space group: A M M 2
;
_chemical_formula_sum "Si O2"
_cell_formula_units_Z 64
_cell_length_a 20.464275
_cell_length_b 9.002222
_cell_length_c 19.084874
_cell_angle_alpha 90.000000
_cell_angle_beta 90.000000
_cell_angle_gamma 90.000000
_cell_volume 3515.890809
_symmetry_space_group_name_H-M "A M M 2"
_symmetry_group_IT_number 38
_symmetry_cell_setting 'orthorhombic'
loop_
_space_group_symop_operation_xyz
x,y,z
-x,-y,z
-x,y,z
x,-y,z
x,1/2+y,1/2+z
-x,1/2-y,1/2+z
-x,1/2+y,1/2+z
x,1/2-y,1/2+z
loop_
_atom_site_type_symbol
_atom_site_label
_atom_site_fract_x
_atom_site_fract_y
_atom_site_fract_z
Si Si1 0.684115 0.178241 0.830400
Si Si2 0.813479 0.177927 0.577020
Si Si3 0.423369 0.823251 0.424918
Si Si4 0.190152 0.821637 0.925191
Si Si5 0.685816 0.178611 0.667716
Si Si6 0.076612 0.177171 0.170426
Si Si7 0.576501 0.822740 0.074407
Si Si8 0.924051 0.177489 0.819797
O O1 0.622364 0.257767 0.864981
O O2 0.748002 0.214437 0.876179
O O3 0.693238 0.218870 0.749205
O O4 0.675003 0.000000 0.833883
O O5 0.805940 0.240272 0.499017
O O6 0.750172 0.218945 0.623507
O O7 0.876785 0.246937 0.614102
O O8 0.818419 0.000000 0.576010
O O9 0.500000 0.792469 0.411404
O O10 0.406137 0.747881 0.499142
O O11 0.414864 0.000000 0.430721
O O12 0.124825 0.781964 0.882082
O O13 0.189764 0.000000 0.936640
O O14 0.623461 0.255488 0.632843
O O15 0.678188 0.000000 0.663453
O O16 0.092576 0.239617 0.247717
O O17 0.000000 0.210915 0.157581
O O18 0.084844 0.000000 0.168894
O O19 0.500000 0.788760 0.087868
O O20 0.583864 0.000000 0.070713
O O21 0.000000 0.207833 0.836736
O O22 0.917224 0.000000 0.807710
#
# Coordination Sequence:
#
# PCOD9358894 Si02
#       8
#     8   8   8   8   8   8   8   8
#     4  10  21  37  57  80 109 145 183 226 274 326
#     4  11  23  38  57  82 112 146 186 230 275 326
#     4  10  21  37  57  81 110 143 180 225 275 327
#     4  10  21  37  56  81 113 146 183 227 274 324
#     4  10  22  39  58  82 112 146 185 228 275 328
#     4  10  21  37  58  84 113 145 183 227 274 326
#     4  10  21  37  58  84 113 146 185 227 272 325
#     4   9  18  35  59  83 110 146 183 221 269 324
#
# _framework density 18.203068999999999
#
# number of rings (size 3 to 8) (size 9 to 14) (size 15 to 20)
#    0.000    2.000    0.000    3.000    0.000    9.750 
#    0.000    5.000    0.000    0.000    0.000    0.000 
#    0.000    0.000    0.000    0.000    0.000    0.000 
#
# Total GULP energy -178784.021015 kJ/mol
# GULP energy per Si atom -5587.000657 kJ/mol
# Density = 1.816164 g / cm^3
# Si number density = 18.203069 Si / 1000 Ang^3
#
#
#
# Elastic Constant Matrix: (Units=GPa)
#
#
# Indices 1 2 3 4 5 6 
#
# 1 96.9172 54.3833 102.7498 0.0000 0.0000 0.0000
# 2 54.3833 40.9583 69.7533 0.0000 0.0000 0.0000
# 3 102.7498 69.7533 185.6880 0.0000 0.0000 0.0000
# 4 0.0000 0.0000 0.0000 37.8282 0.0000 0.0000
# 5 0.0000 0.0000 0.0000 0.0000 41.5439 0.0000
# 6 0.0000 0.0000 0.0000 0.0000 0.0000 26.4714
#
#
#
# Elastic Compliance Matrix: (Units=1/GPa)
#
#
# Indices 1 2 3 4 5 6 
#
# 1 0.043153 -0.046164 -0.006537 0.000000 0.000000 0.000000
# 2 -0.046164 0.117158 -0.018465 0.000000 0.000000 0.000000
# 3 -0.006537 -0.018465 0.015939 0.000000 0.000000 0.000000
# 4 0.000000 0.000000 0.000000 0.026435 0.000000 0.000000
# 5 0.000000 0.000000 0.000000 0.000000 0.024071 0.000000
# 6 0.000000 0.000000 0.000000 0.000000 0.000000 0.037777
#
#
# Mechanical properties :
#
#
# Convention : Reuss Voigt Hill
#
# Bulk Modulus (GPa) = 29.48426 86.37071 57.92748
# Shear Modulus (GPa) = 11.95687 27.61382 19.78534
#
# Velocity S-wave (km/s) = 2.56571 3.89908 3.30043
# Velocity P-wave (km/s) = 5.00097 8.23540 6.81291
#
# Compressibility (1/GPa) = 0.03391640
#
# Stress axis : x y z
#
# Youngs Moduli (GPa) = 23.17361 8.53552 62.74001
#
# Poissons Ratio (x) = 0.39404 0.41011
# Poissons Ratio (y) = 1.06980 1.15850
# Poissons Ratio (z) = 0.15148 0.15761
#
# Static dielectric constant tensor:
#      x y z
#    x 1.616110 0.000000 0.000000 
#    y 0.000000 1.607900 0.000000 
#    z 0.000000 0.000000 1.587820 
# 
# From -- ./inp_files/18957.got.cif
#   From: 2010.05.17/outbox.cif.g08.bks.cpg/sg38_10_cif.got.tgz:18957.got - 2010.06.03 18:07:57.
