data_PCOD9358987
_publ_section_title
;
Structure prediction by ZEFSAII (Michael W. Deem and Ramdas Pophale) SiO2 
 PCOD9358987
Probable space group: A M M 2
;
_chemical_formula_sum "Si O2"
_cell_formula_units_Z 64
_cell_length_a 17.327906
_cell_length_b 20.552080
_cell_length_c 9.125590
_cell_angle_alpha 90.000000
_cell_angle_beta 90.000000
_cell_angle_gamma 90.000000
_cell_volume 3249.846270
_symmetry_space_group_name_H-M "A M M 2"
_symmetry_group_IT_number 38
_symmetry_cell_setting 'orthorhombic'
loop_
_space_group_symop_operation_xyz
x,y,z
-x,-y,z
-x,y,z
x,-y,z
x,1/2+y,1/2+z
-x,1/2-y,1/2+z
-x,1/2+y,1/2+z
x,1/2-y,1/2+z
loop_
_atom_site_type_symbol
_atom_site_label
_atom_site_fract_x
_atom_site_fract_y
_atom_site_fract_z
Si Si1 0.335878 0.699627 0.688210
Si Si2 0.793200 0.929499 0.712642
Si Si3 0.182976 0.285943 0.224464
Si Si4 0.615880 0.426582 0.159022
Si Si5 0.089972 0.068005 0.441331
Si Si6 0.088801 0.293751 0.930596
Si Si7 0.587455 0.307676 0.377894
Si Si8 0.412280 0.577013 0.822194
O O1 0.254157 0.735144 0.722104
O O2 0.354906 0.696990 0.515588
O O3 0.395660 0.747600 0.770061
O O4 0.352252 0.627503 0.751341
O O5 0.797372 0.858172 0.784241
O O6 0.708334 0.928602 0.643171
O O7 0.857612 0.930215 0.585854
O O8 0.800031 0.000000 0.792512
O O9 0.111972 0.260374 0.317717
O O10 0.150440 0.290959 0.060623
O O11 0.590761 0.500000 0.199326
O O12 0.596509 0.373185 0.281019
O O13 0.585812 0.410678 0.997211
O O14 0.100171 0.135158 0.357526
O O15 0.000000 0.067463 0.485799
O O16 0.106492 0.000000 0.362219
O O17 0.000000 0.288116 0.979468
O O18 0.500000 0.304585 0.433763
O O19 0.500000 0.587581 0.765057
O O20 0.393479 0.500000 0.802068
#
# Coordination Sequence:
#
# PCOD9358987 Si02
#       8
#     8   8   8   8   8   8   8   8
#     4  12  25  40  60  88 121 158 202 253 305 364
#     4   9  18  34  57  82 113 147 190 241 294 346
#     4  11  22  37  61  87 120 154 193 246 298 359
#     4  10  21  38  62  89 117 152 199 252 305 362
#     4   8  15  29  53  85 115 146 189 236 283 341
#     4  10  21  37  59  88 120 158 196 240 295 357
#     4  12  24  39  59  85 118 159 202 250 303 359
#     4  10  22  41  63  88 119 158 205 258 311 367
#
# _framework density 19.693239999999999
#
# number of rings (size 3 to 8) (size 9 to 14) (size 15 to 20)
#    0.000    1.750    1.250    3.375    3.500    1.750 
#    0.000    0.000    0.000    0.750    0.000    0.000 
#    0.000    0.000    0.000    0.000    0.000    0.000 
#
# Total GULP energy -178268.889028 kJ/mol
# GULP energy per Si atom -5570.902782 kJ/mol
# Density = 1.964842 g / cm^3
# Si number density = 19.693240 Si / 1000 Ang^3
#
#
#
# Elastic Constant Matrix: (Units=GPa)
#
#
# Indices 1 2 3 4 5 6 
#
# 1 57.1697 44.0766 -4.3004 0.0000 0.0000 0.0000
# 2 44.0766 146.3572 38.0320 0.0000 0.0000 0.0000
# 3 -4.3004 38.0320 49.5062 0.0000 0.0000 0.0000
# 4 0.0000 0.0000 0.0000 25.2174 0.0000 0.0000
# 5 0.0000 0.0000 0.0000 0.0000 23.3359 0.0000
# 6 0.0000 0.0000 0.0000 0.0000 0.0000 57.2545
#
#
#
# Elastic Compliance Matrix: (Units=1/GPa)
#
#
# Indices 1 2 3 4 5 6 
#
# 1 0.026573 -0.010748 0.010565 0.000000 0.000000 0.000000
# 2 -0.010748 0.012884 -0.010832 0.000000 0.000000 0.000000
# 3 0.010565 -0.010832 0.029438 0.000000 0.000000 0.000000
# 4 0.000000 0.000000 0.000000 0.039655 0.000000 0.000000
# 5 0.000000 0.000000 0.000000 0.000000 0.042852 0.000000
# 6 0.000000 0.000000 0.000000 0.000000 0.000000 0.017466
#
#
# Mechanical properties :
#
#
# Convention : Reuss Voigt Hill
#
# Bulk Modulus (GPa) = 21.33706 45.40548 33.37127
# Shear Modulus (GPa) = 24.21069 32.84322 28.52695
#
# Velocity S-wave (km/s) = 3.51007 4.08823 3.81013
# Velocity P-wave (km/s) = 5.22357 6.73730 6.02814
#
# Compressibility (1/GPa) = 0.04686682
#
# Stress axis : x y z
#
# Youngs Moduli (GPa) = 37.63196 77.61459 33.96923
#
# Poissons Ratio (x) = 0.83422 -0.35890
# Poissons Ratio (y) = 0.40448 0.36794
# Poissons Ratio (z) = -0.39759 0.84069
#
# Static dielectric constant tensor:
#      x y z
#    x 1.705080 0.000000 0.000000 
#    y 0.000000 1.766640 0.000000 
#    z 0.000000 0.000000 1.645850 
# 
# From -- ./inp_files/6477.got.cif
#   From: 2010.05.17/outbox.cif.g08.bks.cpg/sg38_4_cif.got.tgz:6477.got - 2010.06.03 18:07:57.
