data_PCOD9358698
_publ_section_title
;
Structure prediction by ZEFSAII (Michael W. Deem and Ramdas Pophale) SiO2 
 PCOD9358698
Probable space group: A M M 2
;
_chemical_formula_sum "Si O2"
_cell_formula_units_Z 56
_cell_length_a 20.726563
_cell_length_b 8.826196
_cell_length_c 15.708064
_cell_angle_alpha 90.000000
_cell_angle_beta 90.000000
_cell_angle_gamma 90.000000
_cell_volume 2873.581508
_symmetry_space_group_name_H-M "A M M 2"
_symmetry_group_IT_number 38
_symmetry_cell_setting 'orthorhombic'
loop_
_space_group_symop_operation_xyz
x,y,z
-x,-y,z
-x,y,z
x,-y,z
x,1/2+y,1/2+z
-x,1/2-y,1/2+z
-x,1/2+y,1/2+z
x,1/2-y,1/2+z
loop_
_atom_site_type_symbol
_atom_site_label
_atom_site_fract_x
_atom_site_fract_y
_atom_site_fract_z
Si Si1 0.344306 0.316794 0.413550
Si Si2 0.423738 0.819633 0.260264
Si Si3 0.346331 0.678041 0.103770
Si Si4 0.930384 0.822931 0.351420
Si Si5 0.069540 0.173397 0.673860
Si Si6 0.203311 0.674035 0.076647
Si Si7 0.202432 0.172982 0.905243
O O1 0.344525 0.500000 0.419857
O O2 0.395387 0.259831 0.344617
O O3 0.353636 0.247618 0.508399
O O4 0.273076 0.268874 0.378143
O O5 0.500000 0.790329 0.253518
O O6 0.388193 0.758717 0.175788
O O7 0.413646 0.000000 0.267303
O O8 0.362739 0.500000 0.100035
O O9 0.269962 0.688177 0.128045
O O10 0.930753 0.789761 0.250963
O O11 0.863511 0.754008 0.381596
O O12 0.000000 0.761091 0.384030
O O13 0.929496 0.000000 0.370324
O O14 0.135155 0.189973 0.622570
O O15 0.000000 0.188237 0.627277
O O16 0.070788 0.000000 0.708261
O O17 0.204949 0.500000 0.040514
O O18 0.206504 0.803157 0.006209
O O19 0.197139 0.000000 0.878042
#
# Coordination Sequence:
#
# PCOD9358698 Si02
#       7
#     8   8   8   8   8   8   8
#     4  10  22  41  64  91 124 161 203 251 302 358
#     4  11  25  43  64  93 125 159 201 245 297 362
#     4  10  21  39  63  91 125 162 202 249 298 355
#     4  10  21  35  51  75 108 147 191 237 286 340
#     4   9  18  33  52  75 107 146 186 232 285 337
#     4   9  19  35  55  81 112 146 188 233 283 341
#     4  10  21  36  56  82 111 145 189 236 287 343
#
# _framework density 19.487877000000001
#
# number of rings (size 3 to 8) (size 9 to 14) (size 15 to 20)
#    0.000    2.143    0.000    2.143    2.000    6.000 
#    0.000    1.429    0.000    0.000    0.000    0.000 
#    0.000    0.000    0.000    0.000    0.000    0.000 
#
# Total GULP energy -156019.830401 kJ/mol
# GULP energy per Si atom -5572.136800 kJ/mol
# Density = 1.944352 g / cm^3
# Si number density = 19.487877 Si / 1000 Ang^3
#
#
#
# Elastic Constant Matrix: (Units=GPa)
#
#
# Indices 1 2 3 4 5 6 
#
# 1 150.2485 54.6611 54.2840 0.0000 0.0000 0.0000
# 2 54.6611 45.7071 20.2369 0.0000 0.0000 0.0000
# 3 54.2840 20.2369 58.2915 0.0000 0.0000 0.0000
# 4 0.0000 0.0000 0.0000 35.4050 0.0000 0.0000
# 5 0.0000 0.0000 0.0000 0.0000 46.8086 0.0000
# 6 0.0000 0.0000 0.0000 0.0000 0.0000 29.6234
#
#
#
# Elastic Compliance Matrix: (Units=1/GPa)
#
#
# Indices 1 2 3 4 5 6 
#
# 1 0.015030 -0.013916 -0.009165 0.000000 0.000000 0.000000
# 2 -0.013916 0.038737 -0.000489 0.000000 0.000000 0.000000
# 3 -0.009165 -0.000489 0.025860 0.000000 0.000000 0.000000
# 4 0.000000 0.000000 0.000000 0.028245 0.000000 0.000000
# 5 0.000000 0.000000 0.000000 0.000000 0.021364 0.000000
# 6 0.000000 0.000000 0.000000 0.000000 0.000000 0.033757
#
#
# Mechanical properties :
#
#
# Convention : Reuss Voigt Hill
#
# Bulk Modulus (GPa) = 30.78207 56.95677 43.86942
# Shear Modulus (GPa) = 22.62840 30.70508 26.66674
#
# Velocity S-wave (km/s) = 3.41127 3.97369 3.70317
# Velocity P-wave (km/s) = 5.59870 7.09534 6.39098
#
# Compressibility (1/GPa) = 0.03248645
#
# Stress axis : x y z
#
# Youngs Moduli (GPa) = 66.53480 25.81504 38.66976
#
# Poissons Ratio (x) = 0.35924 0.35442
# Poissons Ratio (y) = 0.92591 0.01890
# Poissons Ratio (z) = 0.60981 0.01262
#
# Static dielectric constant tensor:
#      x y z
#    x 1.738450 0.000000 0.000000 
#    y 0.000000 1.674940 0.000000 
#    z 0.000000 0.000000 1.673360 
# 
# From -- ./inp_files/15450.got.cif
#   From: 2010.05.17/outbox.cif.g08.bks.cpg/sg38_8_cif.got.tgz:15450.got - 2010.06.03 18:07:57.
