data_PCOD9358065
_publ_section_title
;
Structure prediction by ZEFSAII (Michael W. Deem and Ramdas Pophale) SiO2 
 PCOD9358065
Probable space group: A M M 2
;
_chemical_formula_sum "Si O2"
_cell_formula_units_Z 64
_cell_length_a 24.406536
_cell_length_b 8.621190
_cell_length_c 15.908522
_cell_angle_alpha 90.000000
_cell_angle_beta 90.000000
_cell_angle_gamma 90.000000
_cell_volume 3347.365950
_symmetry_space_group_name_H-M "A M M 2"
_symmetry_group_IT_number 38
_symmetry_cell_setting 'orthorhombic'
loop_
_space_group_symop_operation_xyz
x,y,z
-x,-y,z
-x,y,z
x,-y,z
x,1/2+y,1/2+z
-x,1/2-y,1/2+z
-x,1/2+y,1/2+z
x,1/2-y,1/2+z
loop_
_atom_site_type_symbol
_atom_site_label
_atom_site_fract_x
_atom_site_fract_y
_atom_site_fract_z
Si Si1 0.864696 0.814278 0.049660
Si Si2 0.325282 0.316095 0.399228
Si Si3 0.329667 0.187160 0.713127
Si Si4 0.936103 0.812929 0.701809
Si Si5 0.062918 0.188937 0.892755
Si Si6 0.561843 0.184815 0.453638
Si Si7 0.561323 0.184367 0.141614
Si Si8 0.742513 0.814958 0.554078
O O1 0.897538 0.758246 0.131465
O O2 0.802813 0.755238 0.051011
O O3 0.864657 0.000000 0.047943
O O4 0.896682 0.757933 0.965980
O O5 0.318511 0.500000 0.410139
O O6 0.307333 0.272155 0.305125
O O7 0.389154 0.272369 0.408101
O O8 0.291932 0.231999 0.472170
O O9 0.389459 0.259238 0.699258
O O10 0.290831 0.238112 0.636791
O O11 0.334767 0.000000 0.709584
O O12 0.922178 0.764251 0.797559
O O13 0.000000 0.771992 0.686961
O O14 0.932055 0.000000 0.698128
O O15 0.000000 0.237047 0.909402
O O16 0.063089 0.000000 0.893051
O O17 0.500000 0.226765 0.426440
O O18 0.566176 0.228944 0.552203
O O19 0.568640 0.000000 0.443958
O O20 0.500000 0.214628 0.175276
O O21 0.566077 0.000000 0.126841
O O22 0.746720 0.000000 0.558356
#
# Coordination Sequence:
#
# PCOD9358065 Si02
#       8
#     8   8   8   8   8   8   8   8
#     4  11  22  36  58  86 116 151 193 241 287 335
#     4  11  23  40  62  87 112 145 192 244 293 346
#     4  10  23  41  61  83 112 151 192 236 294 356
#     4   9  18  35  59  86 117 153 191 230 276 336
#     4   8  16  33  57  84 116 154 190 225 276 341
#     4  10  20  35  57  85 118 153 185 224 284 352
#     4  10  20  34  57  88 118 148 186 236 288 340
#     4  11  24  43  61  80 112 154 197 241 290 346
#
# _framework density 19.119509999999998
#
# number of rings (size 3 to 8) (size 9 to 14) (size 15 to 20)
#    0.000    2.000    1.250    3.000    0.000    5.250 
#    0.000    8.750    0.000    1.500    0.000    0.000 
#    0.000    0.000    0.000    0.000    0.000    0.000 
#
# Total GULP energy -178717.684838 kJ/mol
# GULP energy per Si atom -5584.927651 kJ/mol
# Density = 1.907599 g / cm^3
# Si number density = 19.119510 Si / 1000 Ang^3
#
#
#
# Elastic Constant Matrix: (Units=GPa)
#
#
# Indices 1 2 3 4 5 6 
#
# 1 116.9385 22.9836 77.7204 0.0000 0.0000 0.0000
# 2 22.9836 20.4804 21.5249 0.0000 0.0000 0.0000
# 3 77.7204 21.5249 127.9677 0.0000 0.0000 0.0000
# 4 0.0000 0.0000 0.0000 25.9124 0.0000 0.0000
# 5 0.0000 0.0000 0.0000 0.0000 -3.8585 0.0000
# 6 0.0000 0.0000 0.0000 0.0000 0.0000 21.9028
#
#
#
# Elastic Compliance Matrix: (Units=1/GPa)
#
#
# Indices 1 2 3 4 5 6 
#
# 1 0.015647 -0.009198 -0.007956 0.000000 0.000000 0.000000
# 2 -0.009198 0.064719 -0.005300 0.000000 0.000000 0.000000
# 3 -0.007956 -0.005300 0.013538 0.000000 0.000000 0.000000
# 4 0.000000 0.000000 0.000000 0.038592 0.000000 0.000000
# 5 0.000000 0.000000 0.000000 0.000000 -0.259169 0.000000
# 6 0.000000 0.000000 0.000000 0.000000 0.000000 0.045656
#
#
# Mechanical properties :
#
#
# Convention : Reuss Voigt Hill
#
# Bulk Modulus (GPa) = 20.40941 56.64939 38.52940
# Shear Modulus (GPa) = -252.81912 18.33520 -117.24196
#
# Velocity S-wave (km/s) = -11.51165 3.10010 -7.83924
# Velocity P-wave (km/s) = 12.88382 6.51978 7.85765
#
# Compressibility (1/GPa) = 0.04899702
#
# Stress axis : x y z
#
# Youngs Moduli (GPa) = 63.90970 15.45130 73.86614
#
# Poissons Ratio (x) = 0.14212 0.58768
# Poissons Ratio (y) = 0.58783 0.39149
# Poissons Ratio (z) = 0.50847 0.08189
#
# Static dielectric constant tensor:
#      x y z
#    x 1.639560 0.000000 0.000000 
#    y 0.000000 1.647200 0.000000 
#    z 0.000000 0.000000 1.674370 
# 
# From -- ./inp_files/15805.got.cif
#   From: 2010.05.17/outbox.cif.g08.bks.cpg/sg38_8_cif.got.tgz:15805.got - 2010.06.03 18:07:57.
