data_PCOD9358110
_publ_section_title
;
Structure prediction by ZEFSAII (Michael W. Deem and Ramdas Pophale) SiO2 
 PCOD9358110
Probable space group: A M M 2
;
_chemical_formula_sum "Si O2"
_cell_formula_units_Z 52
_cell_length_a 14.744523
_cell_length_b 20.077356
_cell_length_c 9.519074
_cell_angle_alpha 90.000000
_cell_angle_beta 90.000000
_cell_angle_gamma 90.000000
_cell_volume 2817.941351
_symmetry_space_group_name_H-M "A M M 2"
_symmetry_group_IT_number 38
_symmetry_cell_setting 'orthorhombic'
loop_
_space_group_symop_operation_xyz
x,y,z
-x,-y,z
-x,y,z
x,-y,z
x,1/2+y,1/2+z
-x,1/2-y,1/2+z
-x,1/2+y,1/2+z
x,1/2-y,1/2+z
loop_
_atom_site_type_symbol
_atom_site_label
_atom_site_fract_x
_atom_site_fract_y
_atom_site_fract_z
Si Si1 0.281482 0.576946 0.226740
Si Si2 0.287104 0.787316 0.369962
Si Si3 0.844891 0.833193 0.904602
Si Si4 0.000000 0.683638 0.175987
Si Si5 0.000000 0.170344 0.110724
Si Si6 0.000000 0.603855 0.899981
Si Si7 0.605907 0.299692 0.150451
Si Si8 0.795301 0.572388 0.911654
O O1 0.304234 0.500000 0.251964
O O2 0.222113 0.609238 0.351022
O O3 0.365515 0.626860 0.204250
O O4 0.225489 0.579928 0.079064
O O5 0.210980 0.735237 0.426226
O O6 0.332805 0.752632 0.236480
O O7 0.363006 0.794983 0.489528
O O8 0.244939 0.860282 0.344340
O O9 0.913119 0.819577 0.775499
O O10 0.908878 0.854329 0.033954
O O11 0.000000 0.750960 0.087714
O O12 0.000000 0.627172 0.060337
O O13 0.000000 0.158533 0.276182
O O14 0.097565 0.570323 0.883221
O O15 0.500000 0.287255 0.168457
O O16 0.756046 0.500000 0.869242
#
# Coordination Sequence:
#
# PCOD9358110 Si02
#       8
#     8   8   8   4   4   4   8   8
#     4   9  19  37  59  80 107 146 190 227 271 331
#     4  10  21  36  60  83 112 144 183 227 280 337
#     4  10  21  36  53  80 111 152 191 229 274 322
#     4  11  19  34  51  79 111 151 197 236 266 312
#     4  11  23  30  50  79 118 146 187 240 276 313
#     4  12  21  32  53  78 115 151 193 234 267 315
#     4  10  21  37  61  89 112 137 175 231 292 342
#     4  10  20  35  54  80 111 150 191 227 267 316
#
# _framework density 18.453187
#
# number of rings (size 3 to 8) (size 9 to 14) (size 15 to 20)
#    0.000    1.846    1.538    3.462    6.462    0.308 
#    0.000    3.077    0.000    1.385    0.000    0.000 
#    0.000    0.000    0.000    0.000    0.000    0.000 
#
# Total GULP energy -145009.423640 kJ/mol
# GULP energy per Si atom -5577.285525 kJ/mol
# Density = 1.841119 g / cm^3
# Si number density = 18.453187 Si / 1000 Ang^3
#
#
#
# Elastic Constant Matrix: (Units=GPa)
#
#
# Indices 1 2 3 4 5 6 
#
# 1 84.8477 30.8071 16.1530 0.0000 0.0000 0.0000
# 2 30.8071 130.0766 10.7356 0.0000 0.0000 0.0000
# 3 16.1530 10.7356 35.6331 0.0000 0.0000 0.0000
# 4 0.0000 0.0000 0.0000 17.4166 0.0000 0.0000
# 5 0.0000 0.0000 0.0000 0.0000 13.8363 0.0000
# 6 0.0000 0.0000 0.0000 0.0000 0.0000 8.3532
#
#
#
# Elastic Compliance Matrix: (Units=1/GPa)
#
#
# Indices 1 2 3 4 5 6 
#
# 1 0.013847 -0.002832 -0.005424 0.000000 0.000000 0.000000
# 2 -0.002832 0.008463 -0.001266 0.000000 0.000000 0.000000
# 3 -0.005424 -0.001266 0.030904 0.000000 0.000000 0.000000
# 4 0.000000 0.000000 0.000000 0.057417 0.000000 0.000000
# 5 0.000000 0.000000 0.000000 0.000000 0.072273 0.000000
# 6 0.000000 0.000000 0.000000 0.000000 0.000000 0.119714
#
#
# Mechanical properties :
#
#
# Convention : Reuss Voigt Hill
#
# Bulk Modulus (GPa) = 29.26511 40.66097 34.96304
# Shear Modulus (GPa) = 15.01272 20.77868 17.89570
#
# Velocity S-wave (km/s) = 2.85539 3.35926 3.11752
# Velocity P-wave (km/s) = 5.17344 6.09333 5.65213
#
# Compressibility (1/GPa) = 0.03417038
#
# Stress axis : x y z
#
# Youngs Moduli (GPa) = 72.22024 118.16230 32.35842
#
# Poissons Ratio (x) = 0.33461 0.17550
# Poissons Ratio (y) = 0.20451 0.04097
# Poissons Ratio (z) = 0.39170 0.14960
#
# Static dielectric constant tensor:
#      x y z
#    x 1.626550 0.000000 0.000000 
#    y 0.000000 1.654950 0.000000 
#    z 0.000000 0.000000 1.625640 
# 
# From -- ./inp_files/5675.got.cif
#   From: 2010.05.17/outbox.cif.g08.bks.cpg/sg38_3_cif.got.tgz:5675.got - 2010.06.03 18:07:57.
