data_PCOD9358102
_publ_section_title
;
Structure prediction by ZEFSAII (Michael W. Deem and Ramdas Pophale) SiO2 
 PCOD9358102
Probable space group: A M M 2
;
_chemical_formula_sum "Si O2"
_cell_formula_units_Z 32
_cell_length_a 7.493157
_cell_length_b 8.901012
_cell_length_c 25.333678
_cell_angle_alpha 90.000000
_cell_angle_beta 90.000000
_cell_angle_gamma 90.000000
_cell_volume 1689.672224
_symmetry_space_group_name_H-M "A M M 2"
_symmetry_group_IT_number 38
_symmetry_cell_setting 'orthorhombic'
loop_
_space_group_symop_operation_xyz
x,y,z
-x,-y,z
-x,y,z
x,-y,z
x,1/2+y,1/2+z
-x,1/2-y,1/2+z
-x,1/2+y,1/2+z
x,1/2-y,1/2+z
loop_
_atom_site_type_symbol
_atom_site_label
_atom_site_fract_x
_atom_site_fract_y
_atom_site_fract_z
Si Si1 0.000000 0.681920 0.710740
Si Si2 0.000000 0.821404 0.594988
Si Si3 0.711759 0.677902 0.519612
Si Si4 0.704295 0.683098 0.794263
Si Si5 0.282873 0.327014 0.910263
O O1 0.000000 0.754197 0.653571
O O2 0.170351 0.726465 0.746131
O O3 0.000000 0.500000 0.705551
O O4 0.171439 0.762495 0.562769
O O5 0.000000 0.000000 0.596626
O O6 0.500000 0.709705 0.525335
O O7 0.738300 0.500000 0.524791
O O8 0.767856 0.731530 0.461090
O O9 0.500000 0.732551 0.787148
O O10 0.703641 0.500000 0.796408
O O11 0.772665 0.729671 0.852376
O O12 0.500000 0.328575 0.908092
O O13 0.224509 0.500000 0.917304
#
# Coordination Sequence:
#
# PCOD9358102 Si02
#       5
#     4   4   8   8   8
#     4  10  20  35  54  75 101 138 188 232 265 312
#     4  12  26  41  56  77 109 148 192 236 277 328
#     4  10  21  38  60  85 113 145 182 227 279 331
#     4   8  15  29  51  79 109 140 174 215 264 320
#     4   8  14  28  52  82 113 142 175 215 263 324
#
# _framework density 18.938586000000001
#
# number of rings (size 3 to 8) (size 9 to 14) (size 15 to 20)
#    0.000    2.750    0.000    3.375    0.000    3.500 
#    0.000    6.250    0.000    1.500    0.000    0.000 
#    0.000    0.000    0.000    0.000    0.000    0.000 
#
# Total GULP energy -89285.419766 kJ/mol
# GULP energy per Si atom -5580.338735 kJ/mol
# Density = 1.889548 g / cm^3
# Si number density = 18.938586 Si / 1000 Ang^3
#
#
#
# Elastic Constant Matrix: (Units=GPa)
#
#
# Indices 1 2 3 4 5 6 
#
# 1 96.1751 45.5401 84.8599 0.0000 0.0000 0.0000
# 2 45.5401 66.6178 70.7001 0.0000 0.0000 0.0000
# 3 84.8599 70.7001 214.7868 0.0000 0.0000 0.0000
# 4 0.0000 0.0000 0.0000 35.2556 0.0000 0.0000
# 5 0.0000 0.0000 0.0000 0.0000 30.1913 0.0000
# 6 0.0000 0.0000 0.0000 0.0000 0.0000 14.9320
#
#
#
# Elastic Compliance Matrix: (Units=1/GPa)
#
#
# Indices 1 2 3 4 5 6 
#
# 1 0.018019 -0.007320 -0.004710 0.000000 0.000000 0.000000
# 2 -0.007320 0.026044 -0.005681 0.000000 0.000000 0.000000
# 3 -0.004710 -0.005681 0.008387 0.000000 0.000000 0.000000
# 4 0.000000 0.000000 0.000000 0.028364 0.000000 0.000000
# 5 0.000000 0.000000 0.000000 0.000000 0.033122 0.000000
# 6 0.000000 0.000000 0.000000 0.000000 0.000000 0.066970
#
#
# Mechanical properties :
#
#
# Convention : Reuss Voigt Hill
#
# Bulk Modulus (GPa) = 58.72328 86.64219 72.68274
# Shear Modulus (GPa) = 22.52225 27.84109 25.18167
#
# Velocity S-wave (km/s) = 3.45226 3.83831 3.65039
# Velocity P-wave (km/s) = 6.85312 8.09270 7.49857
#
# Compressibility (1/GPa) = 0.01702902
#
# Stress axis : x y z
#
# Youngs Moduli (GPa) = 55.49573 38.39728 119.23916
#
# Poissons Ratio (x) = 0.28105 0.56161
# Poissons Ratio (y) = 0.40620 0.67736
# Poissons Ratio (z) = 0.26138 0.21812
#
# Static dielectric constant tensor:
#      x y z
#    x 1.689230 0.000000 0.000000 
#    y 0.000000 1.632540 0.000000 
#    z 0.000000 0.000000 1.637920 
# 
# From -- ./inp_files/21630.got.cif
#   From: 2010.05.17/outbox.cif.g08.bks.cpg/sg38_11_cif.got.tgz:21630.got - 2010.06.03 18:07:57.
