data_PCOD9358747
_publ_section_title
;
Structure prediction by ZEFSAII (Michael W. Deem and Ramdas Pophale) SiO2 
 PCOD9358747
Probable space group: A M M 2
;
_chemical_formula_sum "Si O2"
_cell_formula_units_Z 64
_cell_length_a 10.738138
_cell_length_b 30.929591
_cell_length_c 10.522960
_cell_angle_alpha 90.000000
_cell_angle_beta 90.000000
_cell_angle_gamma 90.000000
_cell_volume 3494.950891
_symmetry_space_group_name_H-M "A M M 2"
_symmetry_group_IT_number 38
_symmetry_cell_setting 'orthorhombic'
loop_
_space_group_symop_operation_xyz
x,y,z
-x,-y,z
-x,y,z
x,-y,z
x,1/2+y,1/2+z
-x,1/2-y,1/2+z
-x,1/2+y,1/2+z
x,1/2-y,1/2+z
loop_
_atom_site_type_symbol
_atom_site_label
_atom_site_fract_x
_atom_site_fract_y
_atom_site_fract_z
Si Si1 0.152391 0.229332 0.461260
Si Si2 0.854841 0.883096 0.795854
Si Si3 0.640892 0.050302 0.717360
Si Si4 0.859987 0.391636 0.585651
Si Si5 0.367474 0.549600 0.645807
Si Si6 0.280017 0.548476 0.929676
Si Si7 0.854262 0.363063 0.863764
Si Si8 0.150902 0.711613 0.234324
O O1 0.196250 0.181454 0.420324
O O2 0.196403 0.264603 0.360422
O O3 0.189200 0.236265 0.606738
O O4 0.000000 0.229401 0.457096
O O5 0.753853 0.920145 0.768034
O O6 0.817492 0.838967 0.725702
O O7 0.000000 0.894786 0.763997
O O8 0.855044 0.871507 0.946148
O O9 0.500000 0.063534 0.755517
O O10 0.649376 0.051367 0.563242
O O11 0.658201 0.000000 0.755216
O O12 0.752417 0.426814 0.593138
O O13 0.840311 0.362429 0.710271
O O14 0.000000 0.410287 0.600256
O O15 0.500000 0.569222 0.607006
O O16 0.364896 0.500000 0.605015
O O17 0.358603 0.549850 0.799501
O O18 0.218762 0.500000 0.928744
O O19 0.197572 0.591658 0.916514
O O20 0.000000 0.363396 0.892621
O O21 0.000000 0.712163 0.239266
#
# Coordination Sequence:
#
# PCOD9358747 Si02
#       8
#     8   8   8   8   8   8   8   8
#     4   9  17  28  46  73 104 136 172 217 266 315
#     4  10  21  36  52  73 106 140 176 218 267 317
#     4  10  21  36  54  76 102 136 179 221 261 313
#     4   9  19  32  47  69  98 136 169 207 258 312
#     4   9  17  30  49  72  98 129 168 214 258 303
#     4   9  17  30  49  73 101 132 171 217 263 312
#     4   9  17  29  47  73 108 139 171 213 263 316
#     4   9  18  30  48  75 105 137 174 218 267 318
#
# _framework density 18.312131999999998
#
# number of rings (size 3 to 8) (size 9 to 14) (size 15 to 20)
#    0.000    2.750    0.000    1.125    1.750    4.750 
#    0.000    6.250    0.000    0.000    0.000    7.000 
#    0.000    0.000    0.000    0.000    0.000    0.000 
#
# Total GULP energy -178142.844325 kJ/mol
# GULP energy per Si atom -5566.963885 kJ/mol
# Density = 1.827045 g / cm^3
# Si number density = 18.312132 Si / 1000 Ang^3
#
#
#
# Elastic Constant Matrix: (Units=GPa)
#
#
# Indices 1 2 3 4 5 6 
#
# 1 57.9994 31.6709 24.8700 0.0000 0.0000 0.0000
# 2 31.6709 71.6852 23.8505 0.0000 0.0000 0.0000
# 3 24.8700 23.8505 70.9620 0.0000 0.0000 0.0000
# 4 0.0000 0.0000 0.0000 20.8251 0.0000 0.0000
# 5 0.0000 0.0000 0.0000 0.0000 2.0235 0.0000
# 6 0.0000 0.0000 0.0000 0.0000 0.0000 -29.4964
#
#
#
# Elastic Compliance Matrix: (Units=1/GPa)
#
#
# Indices 1 2 3 4 5 6 
#
# 1 0.024541 -0.008986 -0.005581 0.000000 0.000000 0.000000
# 2 -0.008986 0.018996 -0.003235 0.000000 0.000000 0.000000
# 3 -0.005581 -0.003235 0.017135 0.000000 0.000000 0.000000
# 4 0.000000 0.000000 0.000000 0.048019 0.000000 0.000000
# 5 0.000000 0.000000 0.000000 0.000000 0.494197 0.000000
# 6 0.000000 0.000000 0.000000 0.000000 0.000000 -0.033902
#
#
# Mechanical properties :
#
#
# Convention : Reuss Voigt Hill
#
# Bulk Modulus (GPa) = 39.88998 40.15883 40.02440
# Shear Modulus (GPa) = 8.15731 6.68744 7.42237
#
# Velocity S-wave (km/s) = 2.11288 1.91307 2.01545
# Velocity P-wave (km/s) = 5.27096 5.18243 5.22688
#
# Compressibility (1/GPa) = 0.02506895
#
# Stress axis : x y z
#
# Youngs Moduli (GPa) = 40.74766 52.64188 58.35857
#
# Poissons Ratio (x) = 0.47302 0.32569
# Poissons Ratio (y) = 0.36614 0.18882
# Poissons Ratio (z) = 0.22741 0.17032
#
# Static dielectric constant tensor:
#      x y z
#    x 1.611960 0.000000 0.000000 
#    y 0.000000 1.631050 0.000000 
#    z 0.000000 0.000000 1.686360 
# 
# From -- ./inp_files/9642.got.cif
#   From: 2010.05.17/outbox.cif.g08.bks.cpg/sg38_5_cif.got.tgz:9642.got - 2010.06.03 18:07:57.
