data_PCOD9358573
_publ_section_title
;
Structure prediction by ZEFSAII (Michael W. Deem and Ramdas Pophale) SiO2 
 PCOD9358573
Probable space group: A M M 2
;
_chemical_formula_sum "Si O2"
_cell_formula_units_Z 64
_cell_length_a 25.224159
_cell_length_b 8.597225
_cell_length_c 14.886922
_cell_angle_alpha 90.000000
_cell_angle_beta 90.000000
_cell_angle_gamma 90.000000
_cell_volume 3228.344712
_symmetry_space_group_name_H-M "A M M 2"
_symmetry_group_IT_number 38
_symmetry_cell_setting 'orthorhombic'
loop_
_space_group_symop_operation_xyz
x,y,z
-x,-y,z
-x,y,z
x,-y,z
x,1/2+y,1/2+z
-x,1/2-y,1/2+z
-x,1/2+y,1/2+z
x,1/2-y,1/2+z
loop_
_atom_site_type_symbol
_atom_site_label
_atom_site_fract_x
_atom_site_fract_y
_atom_site_fract_z
Si Si1 0.828792 0.687420 0.723410
Si Si2 0.943250 0.317846 0.741809
Si Si3 0.560525 0.814927 0.048175
Si Si4 0.830119 0.183428 0.521930
Si Si5 0.941846 0.681945 0.523170
Si Si6 0.246484 0.316055 0.372712
Si Si7 0.636121 0.683715 0.895493
Si Si8 0.561089 0.315535 0.246721
O O1 0.831898 0.500000 0.714905
O O2 0.885189 0.744823 0.765857
O O3 0.823520 0.759836 0.624549
O O4 0.781156 0.734857 0.787521
O O5 0.944241 0.500000 0.767699
O O6 0.942693 0.312950 0.632472
O O7 0.000000 0.246944 0.770521
O O8 0.500000 0.783636 0.016540
O O9 0.567596 0.728675 0.142724
O O10 0.565126 0.000000 0.061852
O O11 0.603091 0.758043 0.976909
O O12 0.890665 0.223007 0.494065
O O13 0.789407 0.271821 0.458139
O O14 0.821245 0.000000 0.515090
O O15 0.935842 0.500000 0.498897
O O16 0.000000 0.737240 0.492652
O O17 0.246583 0.500000 0.359079
O O18 0.305783 0.256068 0.387209
O O19 0.640378 0.500000 0.908321
O O20 0.602206 0.722935 0.807025
O O21 0.500000 0.277996 0.271275
O O22 0.568683 0.500000 0.260020
#
# Coordination Sequence:
#
# PCOD9358573 Si02
#       8
#     8   8   8   8   8   8   8   8
#     4  10  20  38  62  87 116 152 194 242 297 354
#     4   7  11  23  48  80 110 141 178 223 280 345
#     4  10  21  39  64  95 129 163 199 240 289 345
#     4  11  22  38  60  87 118 154 196 242 297 357
#     4   8  14  28  52  81 112 148 190 236 290 351
#     4  12  26  44  62  83 114 155 205 253 297 349
#     4  12  25  41  62  89 121 158 201 248 298 349
#     4  10  21  39  64  95 129 163 199 239 286 343
#
# _framework density 19.824400000000001
#
# number of rings (size 3 to 8) (size 9 to 14) (size 15 to 20)
#    0.000    2.000    0.000    6.375    0.000    4.250 
#    0.000    5.625    0.000    3.375    0.000    0.000 
#    0.000    0.000    0.000    0.000    0.000    0.000 
#
# Total GULP energy -178759.170054 kJ/mol
# GULP energy per Si atom -5586.224064 kJ/mol
# Density = 1.977928 g / cm^3
# Si number density = 19.824400 Si / 1000 Ang^3
#
#
#
# Elastic Constant Matrix: (Units=GPa)
#
#
# Indices 1 2 3 4 5 6 
#
# 1 109.6178 4.3324 21.4659 0.0000 0.0000 0.0000
# 2 4.3324 44.2851 -14.9937 0.0000 0.0000 0.0000
# 3 21.4659 -14.9937 45.8012 0.0000 0.0000 0.0000
# 4 0.0000 0.0000 0.0000 29.5775 0.0000 0.0000
# 5 0.0000 0.0000 0.0000 0.0000 95.1002 0.0000
# 6 0.0000 0.0000 0.0000 0.0000 0.0000 20.6826
#
#
#
# Elastic Compliance Matrix: (Units=1/GPa)
#
#
# Indices 1 2 3 4 5 6 
#
# 1 0.010386 -0.002996 -0.005849 0.000000 0.000000 0.000000
# 2 -0.002996 0.026260 0.010001 0.000000 0.000000 0.000000
# 3 -0.005849 0.010001 0.027849 0.000000 0.000000 0.000000
# 4 0.000000 0.000000 0.000000 0.033810 0.000000 0.000000
# 5 0.000000 0.000000 0.000000 0.000000 0.010515 0.000000
# 6 0.000000 0.000000 0.000000 0.000000 0.000000 0.048350
#
#
# Mechanical properties :
#
#
# Convention : Reuss Voigt Hill
#
# Bulk Modulus (GPa) = 14.96849 24.59035 19.77942
# Shear Modulus (GPa) = 28.22836 41.66535 34.94685
#
# Velocity S-wave (km/s) = 3.77758 4.58943 4.20315
# Velocity P-wave (km/s) = 5.15691 6.36512 5.79260
#
# Compressibility (1/GPa) = 0.06680700
#
# Stress axis : x y z
#
# Youngs Moduli (GPa) = 96.28015 38.08048 35.90845
#
# Poissons Ratio (x) = 0.11410 0.21002
# Poissons Ratio (y) = 0.28849 -0.35912
# Poissons Ratio (z) = 0.56312 -0.38084
#
# Static dielectric constant tensor:
#      x y z
#    x 1.699900 0.000000 0.000000 
#    y 0.000000 1.656100 0.000000 
#    z 0.000000 0.000000 1.696990 
# 
# From -- ./inp_files/15880.got.cif
#   From: 2010.05.17/outbox.cif.g08.bks.cpg/sg38_8_cif.got.tgz:15880.got - 2010.06.03 18:07:57.
