data_PCOD9358756
_publ_section_title
;
Structure prediction by ZEFSAII (Michael W. Deem and Ramdas Pophale) SiO2 
 PCOD9358756
Probable space group: A M M 2
;
_chemical_formula_sum "Si O2"
_cell_formula_units_Z 64
_cell_length_a 8.971809
_cell_length_b 14.405632
_cell_length_c 24.830294
_cell_angle_alpha 90.000000
_cell_angle_beta 90.000000
_cell_angle_gamma 90.000000
_cell_volume 3209.180890
_symmetry_space_group_name_H-M "A M M 2"
_symmetry_group_IT_number 38
_symmetry_cell_setting 'orthorhombic'
loop_
_space_group_symop_operation_xyz
x,y,z
-x,-y,z
-x,y,z
x,-y,z
x,1/2+y,1/2+z
-x,1/2-y,1/2+z
-x,1/2+y,1/2+z
x,1/2-y,1/2+z
loop_
_atom_site_type_symbol
_atom_site_label
_atom_site_fract_x
_atom_site_fract_y
_atom_site_fract_z
Si Si1 0.679270 0.218114 0.614050
Si Si2 0.318349 0.392751 0.220359
Si Si3 0.178301 0.289940 0.002412
Si Si4 0.320877 0.893374 0.177442
Si Si5 0.326832 0.112167 0.400990
Si Si6 0.178881 0.395101 0.448303
Si Si7 0.328586 0.386744 0.336768
Si Si8 0.171632 0.886592 0.290273
O O1 0.500000 0.211153 0.608614
O O2 0.725772 0.161471 0.667165
O O3 0.754354 0.183296 0.559777
O O4 0.719107 0.324096 0.629351
O O5 0.500000 0.390262 0.222999
O O6 0.273376 0.500000 0.215360
O O7 0.268030 0.355207 0.278678
O O8 0.000000 0.296464 0.003353
O O9 0.240816 0.348189 0.952368
O O10 0.223790 0.182975 0.990649
O O11 0.500000 0.889526 0.184040
O O12 0.249702 0.861946 0.233997
O O13 0.277603 0.000000 0.167146
O O14 0.500000 0.138756 0.403726
O O15 0.257245 0.144133 0.344093
O O16 0.318155 0.000000 0.402071
O O17 0.233773 0.500000 0.459011
O O18 0.236306 0.364135 0.389658
O O19 0.000000 0.397761 0.446937
O O20 0.500000 0.356571 0.343437
O O21 0.330278 0.500000 0.333393
O O22 0.000000 0.856751 0.291539
O O23 0.173810 0.000000 0.291398
#
# Coordination Sequence:
#
# PCOD9358756 Si02
#       8
#     8   8   8   8   8   8   8   8
#     4  10  21  36  53  74 100 136 184 227 262 310
#     4   8  15  30  52  76 101 127 158 203 257 308
#     4  11  24  39  54  76 107 142 182 228 274 321
#     4   9  18  33  52  76 109 145 179 220 269 319
#     4  10  21  38  60  83 108 141 179 220 269 326
#     4   9  19  36  55  76 106 142 175 211 261 318
#     4   8  14  27  50  79 105 129 163 208 257 310
#     4   9  17  31  54  84 114 141 172 214 267 326
#
# _framework density 19.942784
#
# number of rings (size 3 to 8) (size 9 to 14) (size 15 to 20)
#    0.000    2.750    0.000    1.875    0.000    5.750 
#    0.000    3.125    0.000    0.750    0.000    0.000 
#    0.000    0.000    0.000    0.000    0.000    0.000 
#
# Total GULP energy -178597.224755 kJ/mol
# GULP energy per Si atom -5581.163274 kJ/mol
# Density = 1.989739 g / cm^3
# Si number density = 19.942784 Si / 1000 Ang^3
#
#
#
# Elastic Constant Matrix: (Units=GPa)
#
#
# Indices 1 2 3 4 5 6 
#
# 1 22.4303 3.7150 12.1337 0.0000 0.0000 0.0000
# 2 3.7150 33.9365 2.4253 0.0000 0.0000 0.0000
# 3 12.1337 2.4253 82.3472 0.0000 0.0000 0.0000
# 4 0.0000 0.0000 0.0000 27.7244 0.0000 0.0000
# 5 0.0000 0.0000 0.0000 0.0000 36.8490 0.0000
# 6 0.0000 0.0000 0.0000 0.0000 0.0000 14.2946
#
#
#
# Elastic Compliance Matrix: (Units=1/GPa)
#
#
# Indices 1 2 3 4 5 6 
#
# 1 0.049238 -0.004882 -0.007111 0.000000 0.000000 0.000000
# 2 -0.004882 0.030013 -0.000165 0.000000 0.000000 0.000000
# 3 -0.007111 -0.000165 0.013196 0.000000 0.000000 0.000000
# 4 0.000000 0.000000 0.000000 0.036069 0.000000 0.000000
# 5 0.000000 0.000000 0.000000 0.000000 0.027138 0.000000
# 6 0.000000 0.000000 0.000000 0.000000 0.000000 0.069956
#
#
# Mechanical properties :
#
#
# Convention : Reuss Voigt Hill
#
# Bulk Modulus (GPa) = 14.67746 19.47355 17.07550
# Shear Modulus (GPa) = 18.33941 23.80294 21.07117
#
# Velocity S-wave (km/s) = 3.03578 3.45854 3.25404
# Velocity P-wave (km/s) = 4.43438 5.07293 4.76436
#
# Compressibility (1/GPa) = 0.06813170
#
# Stress axis : x y z
#
# Youngs Moduli (GPa) = 20.30956 33.31892 75.77827
#
# Poissons Ratio (x) = 0.16266 0.53888
# Poissons Ratio (y) = 0.09915 0.01247
# Poissons Ratio (z) = 0.14443 0.00548
#
# Static dielectric constant tensor:
#      x y z
#    x 1.669190 0.000000 0.000000 
#    y 0.000000 1.761260 0.000000 
#    z 0.000000 0.000000 1.665420 
# 
# From -- ./inp_files/22149.got.cif
#   From: 2010.05.17/outbox.cif.g08.bks.cpg/sg38_12_cif.got.tgz:22149.got - 2010.06.03 18:07:57.
