data_PCOD9358387
_publ_section_title
;
Structure prediction by ZEFSAII (Michael W. Deem and Ramdas Pophale) SiO2 
 PCOD9358387
Probable space group: A M M 2
;
_chemical_formula_sum "Si O2"
_cell_formula_units_Z 24
_cell_length_a 7.847374
_cell_length_b 13.214470
_cell_length_c 13.256972
_cell_angle_alpha 90.000000
_cell_angle_beta 90.000000
_cell_angle_gamma 90.000000
_cell_volume 1374.733259
_symmetry_space_group_name_H-M "A M M 2"
_symmetry_group_IT_number 38
_symmetry_cell_setting 'orthorhombic'
loop_
_space_group_symop_operation_xyz
x,y,z
-x,-y,z
-x,y,z
x,-y,z
x,1/2+y,1/2+z
-x,1/2-y,1/2+z
-x,1/2+y,1/2+z
x,1/2-y,1/2+z
loop_
_atom_site_type_symbol
_atom_site_label
_atom_site_fract_x
_atom_site_fract_y
_atom_site_fract_z
Si Si1 0.806596 0.172689 0.097500
Si Si2 0.500000 0.500000 0.924142
Si Si3 0.500000 0.829862 0.593717
Si Si4 0.500000 0.500000 0.261473
Si Si5 0.305588 0.000000 0.957531
Si Si6 0.802921 0.500000 0.765129
O O1 0.665688 0.258820 0.094539
O O2 0.779509 0.097686 0.192811
O O3 0.000000 0.211303 0.101185
O O4 0.784202 0.099047 0.000901
O O5 0.666098 0.500000 0.853334
O O6 0.500000 0.402183 0.996306
O O7 0.500000 0.902329 0.691010
O O8 0.339611 0.500000 0.338384
O O9 0.500000 0.000000 0.001205
O O10 0.000000 0.500000 0.799951
#
# Coordination Sequence:
#
# PCOD9358387 Si02
#       6
#     8   2   4   2   4   4
#     4  10  20  36  60  85 109 137 178 229 274 321
#     4  11  24  35  56  76 112 155 178 223 264 320
#     4  11  22  39  52  78 114 149 184 217 270 318
#     4   9  22  37  56  74 112 153 182 219 266 322
#     4   9  17  35  59  86 101 140 177 220 277 312
#     4   9  20  37  58  85 108 136 179 227 275 321
#
# _framework density 17.457930999999999
#
# number of rings (size 3 to 8) (size 9 to 14) (size 15 to 20)
#    0.500    1.667    1.667    2.500    2.333    6.667 
#    0.000    9.167    0.000    0.000    0.000    0.000 
#    0.000    0.000    0.000    0.000    0.000    0.000 
#
# Total GULP energy -66925.969736 kJ/mol
# GULP energy per Si atom -5577.164145 kJ/mol
# Density = 1.741820 g / cm^3
# Si number density = 17.457931 Si / 1000 Ang^3
#
#
#
# Elastic Constant Matrix: (Units=GPa)
#
#
# Indices 1 2 3 4 5 6 
#
# 1 165.1631 94.3212 78.6973 0.0000 0.0000 0.0000
# 2 94.3212 133.5802 64.6789 0.0000 0.0000 0.0000
# 3 78.6973 64.6789 133.2982 0.0000 0.0000 0.0000
# 4 0.0000 0.0000 0.0000 2.4916 0.0000 0.0000
# 5 0.0000 0.0000 0.0000 0.0000 -2.9404 0.0000
# 6 0.0000 0.0000 0.0000 0.0000 0.0000 0.8367
#
#
#
# Elastic Compliance Matrix: (Units=1/GPa)
#
#
# Indices 1 2 3 4 5 6 
#
# 1 0.011381 -0.006251 -0.003686 0.000000 0.000000 0.000000
# 2 -0.006251 0.013219 -0.002723 0.000000 0.000000 0.000000
# 3 -0.003686 -0.002723 0.010999 0.000000 0.000000 0.000000
# 4 0.000000 0.000000 0.000000 0.401341 0.000000 0.000000
# 5 0.000000 0.000000 0.000000 0.000000 -0.340091 0.000000
# 6 0.000000 0.000000 0.000000 0.000000 0.000000 1.195217
#
#
# Mechanical properties :
#
#
# Convention : Reuss Voigt Hill
#
# Bulk Modulus (GPa) = 97.29395 100.82628 99.06012
# Shear Modulus (GPa) = 3.78555 13.03386 8.40971
#
# Velocity S-wave (km/s) = 1.47414 2.73534 2.19718
# Velocity P-wave (km/s) = 7.66479 8.23744 7.95626
#
# Compressibility (1/GPa) = 0.01027813
#
# Stress axis : x y z
#
# Youngs Moduli (GPa) = 87.86656 75.64929 90.91384
#
# Poissons Ratio (x) = 0.47292 0.33509
# Poissons Ratio (y) = 0.54929 0.24759
# Poissons Ratio (z) = 0.32386 0.20602
#
# Static dielectric constant tensor:
#      x y z
#    x 1.602510 0.000000 0.000000 
#    y 0.000000 1.565640 0.000000 
#    z 0.000000 0.000000 1.582030 
# 
# From -- ./inp_files/7449.got.cif
#   From: 2010.05.17/outbox.cif.g08.bks.cpg/sg38_4_cif.got.tgz:7449.got - 2010.06.03 18:07:57.
