data_PCOD9358637
_publ_section_title
;
Structure prediction by ZEFSAII (Michael W. Deem and Ramdas Pophale) SiO2 
 PCOD9358637
Probable space group: A M M 2
;
_chemical_formula_sum "Si O2"
_cell_formula_units_Z 48
_cell_length_a 17.914591
_cell_length_b 9.109353
_cell_length_c 15.707584
_cell_angle_alpha 90.000000
_cell_angle_beta 90.000000
_cell_angle_gamma 90.000000
_cell_volume 2563.325868
_symmetry_space_group_name_H-M "A M M 2"
_symmetry_group_IT_number 38
_symmetry_cell_setting 'orthorhombic'
loop_
_space_group_symop_operation_xyz
x,y,z
-x,-y,z
-x,y,z
x,-y,z
x,1/2+y,1/2+z
-x,1/2-y,1/2+z
-x,1/2+y,1/2+z
x,1/2-y,1/2+z
loop_
_atom_site_type_symbol
_atom_site_label
_atom_site_fract_x
_atom_site_fract_y
_atom_site_fract_z
Si Si1 0.836715 0.663722 0.626680
Si Si2 0.311149 0.175996 0.825982
Si Si3 0.000000 0.673929 0.881235
Si Si4 0.687789 0.175096 0.626857
Si Si5 0.000000 0.673802 0.555566
Si Si6 0.839260 0.833319 0.329933
Si Si7 0.412925 0.322974 0.483718
O O1 0.819421 0.500000 0.592574
O O2 0.771510 0.774354 0.600904
O O3 0.922144 0.697743 0.603939
O O4 0.833929 0.657568 0.728420
O O5 0.324518 0.219442 0.726747
O O6 0.232362 0.241661 0.857429
O O7 0.374137 0.219323 0.893974
O O8 0.305662 0.000000 0.825600
O O9 0.079292 0.732771 0.848578
O O10 0.000000 0.500000 0.860694
O O11 0.000000 0.712032 0.979495
O O12 0.630503 0.250515 0.562388
O O13 0.681457 0.000000 0.621935
O O14 0.000000 0.500000 0.529579
O O15 0.835899 0.000000 0.365003
O O16 0.500000 0.283053 0.484127
O O17 0.407226 0.500000 0.490960
#
# Coordination Sequence:
#
# PCOD9358637 Si02
#       7
#     8   8   4   8   4   8   8
#     4   9  18  35  56  76 103 144 190 228 268 323
#     4   9  20  38  59  83 112 147 186 227 275 331
#     4  10  21  33  47  75 111 144 178 225 277 319
#     4  10  21  37  59  87 116 146 183 231 284 330
#     4  10  21  33  49  75 105 144 188 227 265 317
#     4   9  18  34  55  76 103 142 184 226 272 320
#     4  10  22  40  61  84 112 148 185 223 274 338
#
# _framework density 18.725671999999999
#
# number of rings (size 3 to 8) (size 9 to 14) (size 15 to 20)
#    0.000    2.500    0.000    1.000    2.333    5.667 
#    0.000    1.667    0.000    5.000    0.000    0.000 
#    0.000    0.000    0.000    0.000    0.000    0.000 
#
# Total GULP energy -133745.649860 kJ/mol
# GULP energy per Si atom -5572.735411 kJ/mol
# Density = 1.868305 g / cm^3
# Si number density = 18.725672 Si / 1000 Ang^3
#
#
#
# Elastic Constant Matrix: (Units=GPa)
#
#
# Indices 1 2 3 4 5 6 
#
# 1 176.7147 46.6131 67.0177 0.0000 0.0000 0.0000
# 2 46.6131 18.2732 30.4249 0.0000 0.0000 0.0000
# 3 67.0177 30.4249 68.6563 0.0000 0.0000 0.0000
# 4 0.0000 0.0000 0.0000 21.9212 0.0000 0.0000
# 5 0.0000 0.0000 0.0000 0.0000 38.7100 0.0000
# 6 0.0000 0.0000 0.0000 0.0000 0.0000 28.3704
#
#
#
# Elastic Compliance Matrix: (Units=1/GPa)
#
#
# Indices 1 2 3 4 5 6 
#
# 1 0.019389 -0.068459 0.011411 0.000000 0.000000 0.000000
# 2 -0.068459 0.450461 -0.132796 0.000000 0.000000 0.000000
# 3 0.011411 -0.132796 0.062275 0.000000 0.000000 0.000000
# 4 0.000000 0.000000 0.000000 0.045618 0.000000 0.000000
# 5 0.000000 0.000000 0.000000 0.000000 0.025833 0.000000
# 6 0.000000 0.000000 0.000000 0.000000 0.000000 0.035248
#
#
# Mechanical properties :
#
#
# Convention : Reuss Voigt Hill
#
# Bulk Modulus (GPa) = 6.56007 61.30619 33.93313
# Shear Modulus (GPa) = 4.67586 25.77291 15.22438
#
# Velocity S-wave (km/s) = 1.58191 3.71393 2.85445
# Velocity P-wave (km/s) = 2.61676 7.15550 5.38742
#
# Compressibility (1/GPa) = 0.15243741
#
# Stress axis : x y z
#
# Youngs Moduli (GPa) = 51.57549 2.21995 16.05789
#
# Poissons Ratio (x) = 0.15198 -0.18324
# Poissons Ratio (y) = 3.53080 2.13242
# Poissons Ratio (z) = -0.58853 0.29480
#
# Static dielectric constant tensor:
#      x y z
#    x 1.668060 0.000000 0.000000 
#    y 0.000000 1.662790 0.000000 
#    z 0.000000 0.000000 1.653800 
# 
# From -- ./inp_files/15004.got.cif
#   From: 2010.05.17/outbox.cif.g08.bks.cpg/sg38_8_cif.got.tgz:15004.got - 2010.06.03 18:07:57.
