data_PCOD9358568
_publ_section_title
;
Structure prediction by ZEFSAII (Michael W. Deem and Ramdas Pophale) SiO2 
 PCOD9358568
Probable space group: A M M 2
;
_chemical_formula_sum "Si O2"
_cell_formula_units_Z 48
_cell_length_a 8.420536
_cell_length_b 10.251958
_cell_length_c 28.880950
_cell_angle_alpha 90.000000
_cell_angle_beta 90.000000
_cell_angle_gamma 90.000000
_cell_volume 2493.205234
_symmetry_space_group_name_H-M "A M M 2"
_symmetry_group_IT_number 38
_symmetry_cell_setting 'orthorhombic'
loop_
_space_group_symop_operation_xyz
x,y,z
-x,-y,z
-x,y,z
x,-y,z
x,1/2+y,1/2+z
-x,1/2-y,1/2+z
-x,1/2+y,1/2+z
x,1/2-y,1/2+z
loop_
_atom_site_type_symbol
_atom_site_label
_atom_site_fract_x
_atom_site_fract_y
_atom_site_fract_z
Si Si1 0.190037 0.652653 0.629540
Si Si2 0.692166 0.000000 0.472695
Si Si3 0.689939 0.152814 0.709436
Si Si4 0.189827 0.246327 0.808553
Si Si5 0.807946 0.000000 0.366213
Si Si6 0.307525 0.754196 0.030152
Si Si7 0.307073 0.000000 0.970601
Si Si8 0.308226 0.500000 0.364861
O O1 0.246834 0.500000 0.632989
O O2 0.248810 0.750045 0.669636
O O3 0.243409 0.716570 0.581079
O O4 0.000000 0.648133 0.631331
O O5 0.742565 0.124592 0.503021
O O6 0.500000 0.000000 0.470393
O O7 0.750160 0.000000 0.419487
O O8 0.500000 0.147791 0.706656
O O9 0.738887 0.217094 0.758210
O O10 0.746694 0.000000 0.706520
O O11 0.244113 0.374581 0.836355
O O12 0.240164 0.125408 0.839786
O O13 0.000000 0.253766 0.803517
O O14 0.000000 0.000000 0.367932
O O15 0.500000 0.752229 0.033156
O O16 0.255248 0.873489 0.998063
O O17 0.500000 0.000000 0.970473
O O18 0.256640 0.000000 0.917927
O O19 0.500000 0.500000 0.362007
#
# Coordination Sequence:
#
# PCOD9358568 Si02
#       8
#     8   4   8   8   4   8   4   4
#     4  11  25  43  64  93 127 164 205 252 310 376
#     4  10  22  38  61  92 125 164 210 257 307 360
#     4  11  25  44  67  95 123 157 206 259 311 374
#     4  11  23  41  63  90 126 166 205 254 312 368
#     4  10  24  42  61  90 129 170 211 253 306 370
#     4  10  20  38  61  88 123 162 206 256 305 359
#     4   9  18  33  58  85 116 159 202 251 305 351
#     4  11  21  37  62  93 124 159 207 257 304 367
#
# _framework density 19.252326
#
# number of rings (size 3 to 8) (size 9 to 14) (size 15 to 20)
#    0.000    1.500    1.667    2.750    2.333    5.333 
#    0.000    1.667    0.000    0.000    0.000    0.000 
#    0.000    0.000    0.000    0.000    0.000    0.000 
#
# Total GULP energy -134026.936285 kJ/mol
# GULP energy per Si atom -5584.455679 kJ/mol
# Density = 1.920851 g / cm^3
# Si number density = 19.252326 Si / 1000 Ang^3
#
#
#
# Elastic Constant Matrix: (Units=GPa)
#
#
# Indices 1 2 3 4 5 6 
#
# 1 32.5293 32.7618 28.4996 0.0000 0.0000 0.0000
# 2 32.7618 224.5286 131.3856 0.0000 0.0000 0.0000
# 3 28.4996 131.3856 230.1394 0.0000 0.0000 0.0000
# 4 0.0000 0.0000 0.0000 41.3105 0.0000 0.0000
# 5 0.0000 0.0000 0.0000 0.0000 91.8366 0.0000
# 6 0.0000 0.0000 0.0000 0.0000 0.0000 35.8783
#
#
#
# Elastic Compliance Matrix: (Units=1/GPa)
#
#
# Indices 1 2 3 4 5 6 
#
# 1 0.036790 -0.004058 -0.002239 0.000000 0.000000 0.000000
# 2 -0.004058 0.007136 -0.003571 0.000000 0.000000 0.000000
# 3 -0.002239 -0.003571 0.006661 0.000000 0.000000 0.000000
# 4 0.000000 0.000000 0.000000 0.024207 0.000000 0.000000
# 5 0.000000 0.000000 0.000000 0.000000 0.010889 0.000000
# 6 0.000000 0.000000 0.000000 0.000000 0.000000 0.027872
#
#
# Mechanical properties :
#
#
# Convention : Reuss Voigt Hill
#
# Bulk Modulus (GPa) = 32.41445 96.94347 64.67896
# Shear Modulus (GPa) = 34.82496 53.44177 44.13336
#
# Velocity S-wave (km/s) = 4.25770 5.27436 4.79306
# Velocity P-wave (km/s) = 6.40654 9.35710 8.01870
#
# Compressibility (1/GPa) = 0.03085044
#
# Stress axis : x y z
#
# Youngs Moduli (GPa) = 27.18107 140.14276 150.12145
#
# Poissons Ratio (x) = 0.56867 0.33618
# Poissons Ratio (y) = 0.11030 0.53611
# Poissons Ratio (z) = 0.06087 0.50047
#
# Static dielectric constant tensor:
#      x y z
#    x 1.667930 0.000000 0.000000 
#    y 0.000000 1.692400 0.000000 
#    z 0.000000 0.000000 1.652680 
# 
# From -- ./inp_files/24496.got.cif
#   From: 2010.05.17/outbox.cif.g08.bks.cpg/sg38_13_cif.got.tgz:24496.got - 2010.06.03 18:07:57.
