data_PCOD9358942
_publ_section_title
;
Structure prediction by ZEFSAII (Michael W. Deem and Ramdas Pophale) SiO2 
 PCOD9358942
Probable space group: A M M 2
;
_chemical_formula_sum "Si O2"
_cell_formula_units_Z 56
_cell_length_a 20.582836
_cell_length_b 10.007792
_cell_length_c 14.064179
_cell_angle_alpha 90.000000
_cell_angle_beta 90.000000
_cell_angle_gamma 90.000000
_cell_volume 2897.062532
_symmetry_space_group_name_H-M "A M M 2"
_symmetry_group_IT_number 38
_symmetry_cell_setting 'orthorhombic'
loop_
_space_group_symop_operation_xyz
x,y,z
-x,-y,z
-x,y,z
x,-y,z
x,1/2+y,1/2+z
-x,1/2-y,1/2+z
-x,1/2+y,1/2+z
x,1/2-y,1/2+z
loop_
_atom_site_type_symbol
_atom_site_label
_atom_site_fract_x
_atom_site_fract_y
_atom_site_fract_z
Si Si1 0.679669 0.346166 0.208840
Si Si2 0.928310 0.352308 0.431368
Si Si3 0.572239 0.160954 0.864605
Si Si4 0.334671 0.840229 0.026038
Si Si5 0.877867 0.347193 0.082528
Si Si6 0.821817 0.222116 0.777773
Si Si7 0.759200 0.141358 0.437892
O O1 0.665240 0.500000 0.180461
O O2 0.627095 0.301467 0.287943
O O3 0.673409 0.242620 0.122389
O O4 0.753586 0.345900 0.247974
O O5 0.923950 0.500000 0.475448
O O6 0.921324 0.239917 0.511786
O O7 0.870723 0.342768 0.354447
O O8 0.000000 0.339513 0.386220
O O9 0.500000 0.214715 0.846879
O O10 0.569458 0.000000 0.858136
O O11 0.598134 0.188302 0.970818
O O12 0.326381 0.000000 0.036850
O O13 0.281606 0.774522 0.955791
O O14 0.900270 0.500000 0.101087
O O15 0.862032 0.271597 0.180378
O O16 0.811059 0.359024 0.022880
O O17 0.796340 0.348638 0.837646
O O18 0.722123 0.000000 0.441929
#
# Coordination Sequence:
#
# PCOD9358942 Si02
#       7
#     8   8   8   8   8   8   8
#     4  11  21  37  61  89 119 155 199 251 299 354
#     4  10  23  41  60  85 119 155 196 247 296 351
#     4   9  20  39  60  83 117 162 204 242 296 361
#     4  11  22  36  58  88 121 160 199 245 299 353
#     4  10  21  37  59  85 117 154 192 238 295 357
#     4  11  21  37  63  92 115 152 198 248 298 355
#     4  10  21  37  57  88 123 153 190 243 298 352
#
# _framework density 19.329924999999999
#
# number of rings (size 3 to 8) (size 9 to 14) (size 15 to 20)
#    0.000    1.714    2.857    1.714    0.000    5.429 
#    0.000    0.000    0.000    3.000    0.000    0.000 
#    0.000    0.000    0.000    0.000    0.000    0.000 
#
# Total GULP energy -155885.425947 kJ/mol
# GULP energy per Si atom -5567.336641 kJ/mol
# Density = 1.928593 g / cm^3
# Si number density = 19.329925 Si / 1000 Ang^3
#
#
#
# Elastic Constant Matrix: (Units=GPa)
#
#
# Indices 1 2 3 4 5 6 
#
# 1 112.2198 35.1095 40.1182 0.0000 0.0000 0.0000
# 2 35.1095 91.1906 51.7812 0.0000 0.0000 0.0000
# 3 40.1182 51.7812 124.9991 0.0000 0.0000 0.0000
# 4 0.0000 0.0000 0.0000 4.6205 0.0000 0.0000
# 5 0.0000 0.0000 0.0000 0.0000 19.4659 0.0000
# 6 0.0000 0.0000 0.0000 0.0000 0.0000 17.1119
#
#
#
# Elastic Compliance Matrix: (Units=1/GPa)
#
#
# Indices 1 2 3 4 5 6 
#
# 1 0.010589 -0.002807 -0.002235 0.000000 0.000000 0.000000
# 2 -0.002807 0.015083 -0.005347 0.000000 0.000000 0.000000
# 3 -0.002235 -0.005347 0.010933 0.000000 0.000000 0.000000
# 4 0.000000 0.000000 0.000000 0.216426 0.000000 0.000000
# 5 0.000000 0.000000 0.000000 0.000000 0.051372 0.000000
# 6 0.000000 0.000000 0.000000 0.000000 0.000000 0.058439
#
#
# Mechanical properties :
#
#
# Convention : Reuss Voigt Hill
#
# Bulk Modulus (GPa) = 63.19373 64.71414 63.95394
# Shear Modulus (GPa) = 12.85690 21.66637 17.26164
#
# Velocity S-wave (km/s) = 2.58181 3.35157 2.99155
# Velocity P-wave (km/s) = 6.45374 6.96626 6.71489
#
# Compressibility (1/GPa) = 0.01582435
#
# Stress axis : x y z
#
# Youngs Moduli (GPa) = 94.44146 66.29856 91.46941
#
# Poissons Ratio (x) = 0.18613 0.20447
# Poissons Ratio (y) = 0.26513 0.48911
# Poissons Ratio (z) = 0.21112 0.35452
#
# Static dielectric constant tensor:
#      x y z
#    x 1.702860 0.000000 0.000000 
#    y 0.000000 1.687290 0.000000 
#    z 0.000000 0.000000 1.688650 
# 
# From -- ./inp_files/15500.got.cif
#   From: 2010.05.17/outbox.cif.g08.bks.cpg/sg38_8_cif.got.tgz:15500.got - 2010.06.03 18:07:57.
