data_PCOD9358615
_publ_section_title
;
Structure prediction by ZEFSAII (Michael W. Deem and Ramdas Pophale) SiO2 
 PCOD9358615
Probable space group: A M M 2
;
_chemical_formula_sum "Si O2"
_cell_formula_units_Z 40
_cell_length_a 13.348328
_cell_length_b 15.282960
_cell_length_c 9.479609
_cell_angle_alpha 90.000000
_cell_angle_beta 90.000000
_cell_angle_gamma 90.000000
_cell_volume 1933.858843
_symmetry_space_group_name_H-M "A M M 2"
_symmetry_group_IT_number 38
_symmetry_cell_setting 'orthorhombic'
loop_
_space_group_symop_operation_xyz
x,y,z
-x,-y,z
-x,y,z
x,-y,z
x,1/2+y,1/2+z
-x,1/2-y,1/2+z
-x,1/2+y,1/2+z
x,1/2-y,1/2+z
loop_
_atom_site_type_symbol
_atom_site_label
_atom_site_fract_x
_atom_site_fract_y
_atom_site_fract_z
Si Si1 0.387824 0.146491 0.901540
Si Si2 0.880804 0.500000 0.388944
Si Si3 0.694227 0.500000 0.198064
Si Si4 0.392128 0.000000 0.142879
Si Si5 0.184204 0.687533 0.506128
Si Si6 0.886675 0.331149 0.811658
Si Si7 0.234445 0.500000 0.890697
O O1 0.500000 0.183030 0.883595
O O2 0.358421 0.084645 0.769143
O O3 0.388661 0.081887 0.036973
O O4 0.294337 0.207078 0.941143
O O5 0.810036 0.500000 0.251095
O O6 0.847070 0.412503 0.471403
O O7 0.000000 0.500000 0.364979
O O8 0.698444 0.500000 0.030893
O O9 0.500000 0.000000 0.216428
O O10 0.303773 0.000000 0.252742
O O11 0.174081 0.697948 0.672698
O O12 0.113078 0.753059 0.423273
O O13 0.834339 0.414418 0.881673
O O14 0.000000 0.352737 0.767022
#
# Coordination Sequence:
#
# PCOD9358615 Si02
#       7
#     8   4   4   4   8   8   4
#     4   9  18  40  68  92 124 169 211 261 326 387
#     4  10  20  39  66  89 121 170 223 260 314 393
#     4   9  21  33  61  95 129 161 210 269 311 375
#     4   9  17  36  67  93 119 162 212 259 317 378
#     4  11  24  43  66  97 127 168 219 268 324 389
#     4  12  26  43  65  94 133 175 216 270 326 382
#     4  12  24  42  62  95 133 169 221 268 316 382
#
# _framework density 20.684032999999999
#
# number of rings (size 3 to 8) (size 9 to 14) (size 15 to 20)
#    0.000    1.600    2.000    4.200    5.600    1.600 
#    0.000    2.000    0.000    0.000    0.000    0.000 
#    0.000    0.000    0.000    0.000    0.000    0.000 
#
# Total GULP energy -111710.436124 kJ/mol
# GULP energy per Si atom -5585.521806 kJ/mol
# Density = 2.063696 g / cm^3
# Si number density = 20.684033 Si / 1000 Ang^3
#
#
#
# Elastic Constant Matrix: (Units=GPa)
#
#
# Indices 1 2 3 4 5 6 
#
# 1 144.9802 9.5992 13.1935 0.0000 0.0000 0.0000
# 2 9.5992 68.2667 32.2499 0.0000 0.0000 0.0000
# 3 13.1935 32.2499 105.2935 0.0000 0.0000 0.0000
# 4 0.0000 0.0000 0.0000 8.5687 0.0000 0.0000
# 5 0.0000 0.0000 0.0000 0.0000 18.8937 0.0000
# 6 0.0000 0.0000 0.0000 0.0000 0.0000 -71.0345
#
#
#
# Elastic Compliance Matrix: (Units=1/GPa)
#
#
# Indices 1 2 3 4 5 6 
#
# 1 0.007003 -0.000667 -0.000673 0.000000 0.000000 0.000000
# 2 -0.000667 0.017190 -0.005182 0.000000 0.000000 0.000000
# 3 -0.000673 -0.005182 0.011169 0.000000 0.000000 0.000000
# 4 0.000000 0.000000 0.000000 0.116703 0.000000 0.000000
# 5 0.000000 0.000000 0.000000 0.000000 0.052928 0.000000
# 6 0.000000 0.000000 0.000000 0.000000 0.000000 -0.014078
#
#
# Mechanical properties :
#
#
# Convention : Reuss Voigt Hill
#
# Bulk Modulus (GPa) = 44.80558 47.62505 46.21531
# Shear Modulus (GPa) = 23.65216 8.85211 16.25214
#
# Velocity S-wave (km/s) = 3.38523 2.07098 2.80613
# Velocity P-wave (km/s) = 6.08183 5.36597 5.73508
#
# Compressibility (1/GPa) = 0.02231865
#
# Stress axis : x y z
#
# Youngs Moduli (GPa) = 142.79790 58.17347 89.53633
#
# Poissons Ratio (x) = 0.03878 0.06028
# Poissons Ratio (y) = 0.09519 0.46393
# Poissons Ratio (z) = 0.09615 0.30143
#
# Static dielectric constant tensor:
#      x y z
#    x 1.793900 0.000000 0.000000 
#    y 0.000000 1.721340 0.000000 
#    z 0.000000 0.000000 1.706110 
# 
# From -- ./inp_files/5296.got.cif
#   From: 2010.05.17/outbox.cif.g08.bks.cpg/sg38_3_cif.got.tgz:5296.got - 2010.06.03 18:07:57.
