data_PCOD9358249
_publ_section_title
;
Structure prediction by ZEFSAII (Michael W. Deem and Ramdas Pophale) SiO2 
 PCOD9358249
Probable space group: A M M 2
;
_chemical_formula_sum "Si O2"
_cell_formula_units_Z 64
_cell_length_a 24.370247
_cell_length_b 8.490242
_cell_length_c 15.799698
_cell_angle_alpha 90.000000
_cell_angle_beta 90.000000
_cell_angle_gamma 90.000000
_cell_volume 3269.104369
_symmetry_space_group_name_H-M "A M M 2"
_symmetry_group_IT_number 38
_symmetry_cell_setting 'orthorhombic'
loop_
_space_group_symop_operation_xyz
x,y,z
-x,-y,z
-x,y,z
x,-y,z
x,1/2+y,1/2+z
-x,1/2-y,1/2+z
-x,1/2+y,1/2+z
x,1/2-y,1/2+z
loop_
_atom_site_type_symbol
_atom_site_label
_atom_site_fract_x
_atom_site_fract_y
_atom_site_fract_z
Si Si1 0.436188 0.186680 0.493090
Si Si2 0.369145 0.313522 0.334869
Si Si3 0.937197 0.309801 0.002770
Si Si4 0.746087 0.190161 0.911619
Si Si5 0.132739 0.689872 0.346961
Si Si6 0.739700 0.312349 0.101719
Si Si7 0.376055 0.316124 0.655663
Si Si8 0.861102 0.307829 0.157490
O O1 0.500000 0.232326 0.492173
O O2 0.403207 0.272899 0.418724
O O3 0.409791 0.225360 0.583755
O O4 0.431942 0.000000 0.478182
O O5 0.370281 0.500000 0.319582
O O6 0.305976 0.267427 0.354057
O O7 0.391172 0.229076 0.251272
O O8 0.937509 0.500000 0.005619
O O9 0.907831 0.258130 0.916716
O O10 0.000000 0.254768 0.007300
O O11 0.900841 0.253620 0.082380
O O12 0.804539 0.231321 0.871046
O O13 0.744516 0.000000 0.923815
O O14 0.740275 0.272295 0.002259
O O15 0.128961 0.500000 0.349528
O O16 0.121288 0.742457 0.251109
O O17 0.734133 0.500000 0.114275
O O18 0.687665 0.229035 0.142883
O O19 0.798340 0.261064 0.139070
O O20 0.383830 0.500000 0.641015
O O21 0.861460 0.500000 0.156468
#
# Coordination Sequence:
#
# PCOD9358249 Si02
#       8
#     8   8   8   8   8   8   8   8
#     4  11  25  45  67  92 123 161 208 258 307 359
#     4  11  23  41  66  94 126 162 202 249 305 366
#     4  10  21  38  57  79 111 150 197 248 295 348
#     4  10  20  35  58  90 124 155 189 241 302 361
#     4  10  20  36  59  85 116 149 191 239 289 354
#     4  11  20  35  62  89 120 157 198 243 298 365
#     4  12  25  41  63  93 128 164 205 250 303 363
#     4   9  19  36  58  85 113 152 194 236 292 354
#
# _framework density 19.577227000000001
#
# number of rings (size 3 to 8) (size 9 to 14) (size 15 to 20)
#    0.000    1.500    2.500    3.000    0.000    4.750 
#    0.000    4.375    0.000    0.000    0.000    0.000 
#    0.000    0.000    0.000    0.000    0.000    0.000 
#
# Total GULP energy -178878.813000 kJ/mol
# GULP energy per Si atom -5589.962906 kJ/mol
# Density = 1.953267 g / cm^3
# Si number density = 19.577227 Si / 1000 Ang^3
#
#
#
# Elastic Constant Matrix: (Units=GPa)
#
#
# Indices 1 2 3 4 5 6 
#
# 1 89.4008 2.0061 9.8220 0.0000 0.0000 0.0000
# 2 2.0061 9.4975 -8.0829 0.0000 0.0000 0.0000
# 3 9.8220 -8.0829 90.6303 0.0000 0.0000 0.0000
# 4 0.0000 0.0000 0.0000 30.1235 0.0000 0.0000
# 5 0.0000 0.0000 0.0000 0.0000 -1.2701 0.0000
# 6 0.0000 0.0000 0.0000 0.0000 0.0000 4.5682
#
#
#
# Elastic Compliance Matrix: (Units=1/GPa)
#
#
# Indices 1 2 3 4 5 6 
#
# 1 0.011443 -0.003758 -0.001575 0.000000 0.000000 0.000000
# 2 -0.003758 0.115173 0.010679 0.000000 0.000000 0.000000
# 3 -0.001575 0.010679 0.012157 0.000000 0.000000 0.000000
# 4 0.000000 0.000000 0.000000 0.033197 0.000000 0.000000
# 5 0.000000 0.000000 0.000000 0.000000 -0.787320 0.000000
# 6 0.000000 0.000000 0.000000 0.000000 0.000000 0.218904
#
#
# Mechanical properties :
#
#
# Convention : Reuss Voigt Hill
#
# Bulk Modulus (GPa) = 6.69054 21.89099 14.29077
# Shear Modulus (GPa) = -13.99316 19.06987 2.53835
#
# Velocity S-wave (km/s) = -2.67641 3.12442 1.13991
# Velocity P-wave (km/s) = 2.47507 4.92160 3.00800
#
# Compressibility (1/GPa) = 0.14946474
#
# Stress axis : x y z
#
# Youngs Moduli (GPa) = 87.38992 8.68262 82.25739
#
# Poissons Ratio (x) = 0.03263 0.12958
# Poissons Ratio (y) = 0.32837 -0.87842
# Poissons Ratio (z) = 0.13766 -0.09272
#
# Static dielectric constant tensor:
#      x y z
#    x 1.670660 0.000000 0.000000 
#    y 0.000000 1.672060 0.000000 
#    z 0.000000 0.000000 1.668550 
# 
# From -- ./inp_files/15744.got.cif
#   From: 2010.05.17/outbox.cif.g08.bks.cpg/sg38_8_cif.got.tgz:15744.got - 2010.06.03 18:07:57.
