data_PCOD9358823
_publ_section_title
;
Structure prediction by ZEFSAII (Michael W. Deem and Ramdas Pophale) SiO2 
 PCOD9358823
Probable space group: A M M 2
;
_chemical_formula_sum "Si O2"
_cell_formula_units_Z 48
_cell_length_a 18.204433
_cell_length_b 7.705083
_cell_length_c 15.687906
_cell_angle_alpha 90.000000
_cell_angle_beta 90.000000
_cell_angle_gamma 90.000000
_cell_volume 2200.490290
_symmetry_space_group_name_H-M "A M M 2"
_symmetry_group_IT_number 38
_symmetry_cell_setting 'orthorhombic'
loop_
_space_group_symop_operation_xyz
x,y,z
-x,-y,z
-x,y,z
x,-y,z
x,1/2+y,1/2+z
-x,1/2-y,1/2+z
-x,1/2+y,1/2+z
x,1/2-y,1/2+z
loop_
_atom_site_type_symbol
_atom_site_label
_atom_site_fract_x
_atom_site_fract_y
_atom_site_fract_z
Si Si1 0.349663 0.202970 0.555560
Si Si2 0.500000 0.799637 0.146219
Si Si3 0.657582 0.304204 0.367429
Si Si4 0.916700 0.708623 0.732111
Si Si5 0.814119 0.709170 0.387170
Si Si6 0.192480 0.709754 0.584152
Si Si7 0.500000 0.194769 0.829955
O O1 0.425616 0.261229 0.596101
O O2 0.338369 0.309838 0.469472
O O3 0.275247 0.233551 0.608343
O O4 0.354266 0.000000 0.534663
O O5 0.500000 0.683479 0.229214
O O6 0.500000 0.000000 0.172210
O O7 0.653545 0.500000 0.330405
O O8 0.736740 0.223793 0.346633
O O9 0.578327 0.219697 0.350834
O O10 0.919357 0.500000 0.724252
O O11 0.879093 0.747845 0.822774
O O12 0.865875 0.772635 0.654003
O O13 0.000000 0.774869 0.727759
O O14 0.807001 0.500000 0.390366
O O15 0.822567 0.768673 0.485809
O O16 0.190583 0.500000 0.583547
O O17 0.500000 0.000000 0.870592
#
# Coordination Sequence:
#
# PCOD9358823 Si02
#       7
#     8   4   8   8   8   8   4
#     4  11  22  37  59  85 113 148 195 243 286 339
#     4  12  25  38  53  79 117 157 195 236 287 340
#     4   9  19  37  59  82 114 153 189 233 292 347
#     4  10  22  39  60  87 118 152 193 243 297 354
#     4   9  19  36  59  87 117 153 195 236 289 356
#     4   9  20  40  62  85 116 158 198 238 296 358
#     4  10  21  36  55  83 115 149 191 242 285 330
#
# _framework density 21.813320000000001
#
# number of rings (size 3 to 8) (size 9 to 14) (size 15 to 20)
#    0.000    2.167    0.000    3.750    2.333    5.667 
#    0.000    1.667    0.000    0.000    0.000    0.000 
#    0.000    0.000    0.000    0.000    0.000    0.000 
#
# Total GULP energy -133889.113865 kJ/mol
# GULP energy per Si atom -5578.713078 kJ/mol
# Density = 2.176367 g / cm^3
# Si number density = 21.813320 Si / 1000 Ang^3
#
#
#
# Elastic Constant Matrix: (Units=GPa)
#
#
# Indices 1 2 3 4 5 6 
#
# 1 212.1338 6.7521 70.2486 0.0000 0.0000 0.0000
# 2 6.7521 73.0609 0.3660 0.0000 0.0000 0.0000
# 3 70.2486 0.3660 73.5679 0.0000 0.0000 0.0000
# 4 0.0000 0.0000 0.0000 13.9937 0.0000 0.0000
# 5 0.0000 0.0000 0.0000 0.0000 43.8428 0.0000
# 6 0.0000 0.0000 0.0000 0.0000 0.0000 20.8988
#
#
#
# Elastic Compliance Matrix: (Units=1/GPa)
#
#
# Indices 1 2 3 4 5 6 
#
# 1 0.006921 -0.000607 -0.006605 0.000000 0.000000 0.000000
# 2 -0.000607 0.013741 0.000511 0.000000 0.000000 0.000000
# 3 -0.006605 0.000511 0.019898 0.000000 0.000000 0.000000
# 4 0.000000 0.000000 0.000000 0.071461 0.000000 0.000000
# 5 0.000000 0.000000 0.000000 0.000000 0.022809 0.000000
# 6 0.000000 0.000000 0.000000 0.000000 0.000000 0.047850
#
#
# Mechanical properties :
#
#
# Convention : Reuss Voigt Hill
#
# Bulk Modulus (GPa) = 36.82312 57.05511 46.93912
# Shear Modulus (GPa) = 24.37442 34.50677 29.44060
#
# Velocity S-wave (km/s) = 3.34639 3.98164 3.67776
# Velocity P-wave (km/s) = 5.64348 6.88119 6.29284
#
# Compressibility (1/GPa) = 0.02715685
#
# Stress axis : x y z
#
# Youngs Moduli (GPa) = 144.49361 72.77644 50.25690
#
# Poissons Ratio (x) = 0.04414 0.33197
# Poissons Ratio (y) = 0.08764 -0.02567
# Poissons Ratio (z) = 0.95445 -0.03717
#
# Static dielectric constant tensor:
#      x y z
#    x 1.836110 0.000000 0.000000 
#    y 0.000000 1.861020 0.000000 
#    z 0.000000 0.000000 1.773030 
# 
# From -- ./inp_files/15019.got.cif
#   From: 2010.05.17/outbox.cif.g08.bks.cpg/sg38_8_cif.got.tgz:15019.got - 2010.06.03 18:07:57.
