data_PCOD9358552
_publ_section_title
;
Structure prediction by ZEFSAII (Michael W. Deem and Ramdas Pophale) SiO2 
 PCOD9358552
Probable space group: A M M 2
;
_chemical_formula_sum "Si O2"
_cell_formula_units_Z 58
_cell_length_a 11.904210
_cell_length_b 26.991599
_cell_length_c 8.256246
_cell_angle_alpha 90.000000
_cell_angle_beta 90.000000
_cell_angle_gamma 90.000000
_cell_volume 2652.844643
_symmetry_space_group_name_H-M "A M M 2"
_symmetry_group_IT_number 38
_symmetry_cell_setting 'orthorhombic'
loop_
_space_group_symop_operation_xyz
x,y,z
-x,-y,z
-x,y,z
x,-y,z
x,1/2+y,1/2+z
-x,1/2-y,1/2+z
-x,1/2+y,1/2+z
x,1/2-y,1/2+z
loop_
_atom_site_type_symbol
_atom_site_label
_atom_site_fract_x
_atom_site_fract_y
_atom_site_fract_z
Si Si1 0.125047 0.557290 0.548320
Si Si2 0.159241 0.090381 0.699577
Si Si3 0.374368 0.941558 0.551562
Si Si4 0.375145 0.190374 0.006744
Si Si5 0.124105 0.691786 0.010395
Si Si6 0.000000 0.000000 0.610747
Si Si7 0.250587 0.750744 0.258853
Si Si8 0.631229 0.914613 0.184914
O O1 0.120386 0.500000 0.490612
O O2 0.127147 0.591016 0.388077
O O3 0.246314 0.561791 0.636446
O O4 0.000000 0.565396 0.630858
O O5 0.289982 0.078857 0.683023
O O6 0.134532 0.139414 0.598590
O O7 0.096023 0.043928 0.619450
O O8 0.500000 0.935695 0.612233
O O9 0.363357 0.913773 0.379930
O O10 0.355636 0.000000 0.519060
O O11 0.500000 0.195460 0.941021
O O12 0.350614 0.231045 0.145009
O O13 0.287704 0.204246 0.867188
O O14 0.364769 0.137536 0.092267
O O15 0.149569 0.733228 0.145373
O O16 0.213029 0.703717 0.870875
O O17 0.000000 0.696856 0.942592
O O18 0.500000 0.934610 0.152508
#
# Coordination Sequence:
#
# PCOD9358552 Si02
#       8
#     8   8   8   8   8   2   8   8
#     4  11  21  38  57  85 119 156 197 245 293 350
#     4  12  21  39  63  87 117 159 195 246 293 350
#     4  10  21  38  57  82 117 156 197 243 290 345
#     4  10  20  38  59  83 112 147 189 242 294 349
#     4  11  22  38  60  85 118 154 192 236 295 347
#     4  12  20  40  58  90 120 156 196 240 296 346
#     4  10  22  38  58  86 114 148 192 240 290 356
#     4  10  22  39  59  84 118 155 197 241 296 359
#
# _framework density 21.863323000000001
#
# number of rings (size 3 to 8) (size 9 to 14) (size 15 to 20)
#    0.000    1.379    2.759    2.897    0.000    1.379 
#    1.241    6.897    0.000    0.000    0.000    0.000 
#    0.000    0.000    0.000    0.000    0.000    0.000 
#
# Total GULP energy -161454.579152 kJ/mol
# GULP energy per Si atom -5567.399281 kJ/mol
# Density = 2.181356 g / cm^3
# Si number density = 21.863323 Si / 1000 Ang^3
#
#
#
# Elastic Constant Matrix: (Units=GPa)
#
#
# Indices 1 2 3 4 5 6 
#
# 1 144.5796 5.5583 18.5052 0.0000 0.0000 0.0000
# 2 5.5583 47.6611 -14.3777 0.0000 0.0000 0.0000
# 3 18.5052 -14.3777 20.7729 0.0000 0.0000 0.0000
# 4 0.0000 0.0000 0.0000 20.5200 0.0000 0.0000
# 5 0.0000 0.0000 0.0000 0.0000 15.3409 0.0000
# 6 0.0000 0.0000 0.0000 0.0000 0.0000 -8.0735
#
#
#
# Elastic Compliance Matrix: (Units=1/GPa)
#
#
# Indices 1 2 3 4 5 6 
#
# 1 0.008393 -0.004088 -0.010306 0.000000 0.000000 0.000000
# 2 -0.004088 0.028509 0.023374 0.000000 0.000000 0.000000
# 3 -0.010306 0.023374 0.073498 0.000000 0.000000 0.000000
# 4 0.000000 0.000000 0.000000 0.048733 0.000000 0.000000
# 5 0.000000 0.000000 0.000000 0.000000 0.065185 0.000000
# 6 0.000000 0.000000 0.000000 0.000000 0.000000 -0.123862
#
#
# Mechanical properties :
#
#
# Convention : Reuss Voigt Hill
#
# Bulk Modulus (GPa) = 7.79056 25.82058 16.80557
# Shear Modulus (GPa) = 39.90961 19.11265 29.51113
#
# Velocity S-wave (km/s) = 4.27712 2.95987 3.67795
# Velocity P-wave (km/s) = 5.28798 4.84941 5.07344
#
# Compressibility (1/GPa) = 0.12836047
#
# Stress axis : x y z
#
# Youngs Moduli (GPa) = 119.14921 35.07637 13.60579
#
# Poissons Ratio (x) = 0.14338 0.14022
# Poissons Ratio (y) = 0.48705 -0.31802
# Poissons Ratio (z) = 1.22793 -0.81987
#
# Static dielectric constant tensor:
#      x y z
#    x 1.886670 0.000000 0.000000 
#    y 0.000000 1.786910 0.000000 
#    z 0.000000 0.000000 1.785820 
# 
# From -- ./inp_files/4810.got.cif
#   From: 2010.05.17/outbox.cif.g08.bks.cpg/sg38_3_cif.got.tgz:4810.got - 2010.06.03 18:07:57.
