data_PCOD9358993
_publ_section_title
;
Structure prediction by ZEFSAII (Michael W. Deem and Ramdas Pophale) SiO2 
 PCOD9358993
Probable space group: A M M 2
;
_chemical_formula_sum "Si O2"
_cell_formula_units_Z 58
_cell_length_a 18.861568
_cell_length_b 17.213520
_cell_length_c 9.226317
_cell_angle_alpha 90.000000
_cell_angle_beta 90.000000
_cell_angle_gamma 90.000000
_cell_volume 2995.545043
_symmetry_space_group_name_H-M "A M M 2"
_symmetry_group_IT_number 38
_symmetry_cell_setting 'orthorhombic'
loop_
_space_group_symop_operation_xyz
x,y,z
-x,-y,z
-x,y,z
x,-y,z
x,1/2+y,1/2+z
-x,1/2-y,1/2+z
-x,1/2+y,1/2+z
x,1/2-y,1/2+z
loop_
_atom_site_type_symbol
_atom_site_label
_atom_site_fract_x
_atom_site_fract_y
_atom_site_fract_z
Si Si1 0.081172 0.406118 0.501850
Si Si2 0.418916 0.791213 0.805024
Si Si3 0.304878 0.088457 0.922134
Si Si4 0.836576 0.409114 0.226166
Si Si5 0.500000 0.500000 0.975843
Si Si6 0.609489 0.145016 0.489380
Si Si7 0.767034 0.824991 0.483470
Si Si8 0.782392 0.336228 0.644300
O O1 0.090525 0.500000 0.512256
O O2 0.102173 0.383876 0.336849
O O3 0.139414 0.364964 0.600998
O O4 0.000000 0.387474 0.534807
O O5 0.500000 0.807303 0.847282
O O6 0.365351 0.850636 0.882352
O O7 0.411538 0.806886 0.633948
O O8 0.400815 0.703955 0.854754
O O9 0.236839 0.101512 0.816948
O O10 0.329462 0.000000 0.901932
O O11 0.273579 0.100979 0.083154
O O12 0.845046 0.500000 0.198646
O O13 0.828446 0.365505 0.075773
O O14 0.561718 0.569018 0.978478
O O15 0.693189 0.129300 0.503895
O O16 0.761092 0.740381 0.554730
O O17 0.779619 0.820010 0.313412
#
# Coordination Sequence:
#
# PCOD9358993 Si02
#       8
#     8   8   8   8   2   8   8   8
#     4   9  19  40  67  94 133 174 203 252 321 384
#     4  12  23  42  65  90 124 166 213 266 337 401
#     4  10  21  37  60  89 124 161 212 269 318 387
#     4   9  19  36  61  95 122 160 212 261 311 383
#     4  12  28  48  64  98 126 172 226 270 348 416
#     4  12  26  44  68  91 128 173 220 272 340 401
#     4  12  23  39  64  91 124 166 217 272 326 376
#     4  11  22  39  62  93 126 168 220 263 321 388
#
# _framework density 19.362086000000001
#
# number of rings (size 3 to 8) (size 9 to 14) (size 15 to 20)
#    0.000    1.241    4.138    3.724    1.931    1.379 
#    0.000    3.448    0.000    2.483    0.000    0.000 
#    0.000    0.000    0.000    0.000    0.000    0.000 
#
# Total GULP energy -161724.207769 kJ/mol
# GULP energy per Si atom -5576.696820 kJ/mol
# Density = 1.931802 g / cm^3
# Si number density = 19.362086 Si / 1000 Ang^3
#
#
#
# Elastic Constant Matrix: (Units=GPa)
#
#
# Indices 1 2 3 4 5 6 
#
# 1 88.1261 18.6914 8.2818 0.0000 0.0000 0.0000
# 2 18.6914 86.5644 32.5809 0.0000 0.0000 0.0000
# 3 8.2818 32.5809 109.4217 0.0000 0.0000 0.0000
# 4 0.0000 0.0000 0.0000 17.9551 0.0000 0.0000
# 5 0.0000 0.0000 0.0000 0.0000 17.1941 0.0000
# 6 0.0000 0.0000 0.0000 0.0000 0.0000 25.0377
#
#
#
# Elastic Compliance Matrix: (Units=1/GPa)
#
#
# Indices 1 2 3 4 5 6 
#
# 1 0.011894 -0.002511 -0.000153 0.000000 0.000000 0.000000
# 2 -0.002511 0.013540 -0.003842 0.000000 0.000000 0.000000
# 3 -0.000153 -0.003842 0.010294 0.000000 0.000000 0.000000
# 4 0.000000 0.000000 0.000000 0.055694 0.000000 0.000000
# 5 0.000000 0.000000 0.000000 0.000000 0.058160 0.000000
# 6 0.000000 0.000000 0.000000 0.000000 0.000000 0.039940
#
#
# Mechanical properties :
#
#
# Convention : Reuss Voigt Hill
#
# Bulk Modulus (GPa) = 44.01673 44.80227 44.40950
# Shear Modulus (GPa) = 23.79755 27.00791 25.40273
#
# Velocity S-wave (km/s) = 3.50963 3.73887 3.62606
# Velocity P-wave (km/s) = 6.26148 6.46748 6.36531
#
# Compressibility (1/GPa) = 0.02271864
#
# Stress axis : x y z
#
# Youngs Moduli (GPa) = 84.07413 73.85453 97.14053
#
# Poissons Ratio (x) = 0.18544 0.01483
# Poissons Ratio (y) = 0.21110 0.37318
# Poissons Ratio (z) = 0.01283 0.28372
#
# Static dielectric constant tensor:
#      x y z
#    x 1.673400 0.000000 0.000000 
#    y 0.000000 1.695880 0.000000 
#    z 0.000000 0.000000 1.701220 
# 
# From -- ./inp_files/6378.got.cif
#   From: 2010.05.17/outbox.cif.g08.bks.cpg/sg38_4_cif.got.tgz:6378.got - 2010.06.03 18:07:57.
