data_PCOD9358445
_publ_section_title
;
Structure prediction by ZEFSAII (Michael W. Deem and Ramdas Pophale) SiO2 
 PCOD9358445
Probable space group: A M M 2
;
_chemical_formula_sum "Si O2"
_cell_formula_units_Z 64
_cell_length_a 18.605120
_cell_length_b 13.369772
_cell_length_c 12.869065
_cell_angle_alpha 90.000000
_cell_angle_beta 90.000000
_cell_angle_gamma 90.000000
_cell_volume 3201.131176
_symmetry_space_group_name_H-M "A M M 2"
_symmetry_group_IT_number 38
_symmetry_cell_setting 'orthorhombic'
loop_
_space_group_symop_operation_xyz
x,y,z
-x,-y,z
-x,y,z
x,-y,z
x,1/2+y,1/2+z
-x,1/2-y,1/2+z
-x,1/2+y,1/2+z
x,1/2-y,1/2+z
loop_
_atom_site_type_symbol
_atom_site_label
_atom_site_fract_x
_atom_site_fract_y
_atom_site_fract_z
Si Si1 0.081701 0.620941 0.135400
Si Si2 0.919378 0.121110 0.023614
Si Si3 0.180990 0.620195 0.706634
Si Si4 0.177544 0.879076 0.831709
Si Si5 0.336649 0.882051 0.765156
Si Si6 0.581642 0.118985 0.965726
Si Si7 0.298709 0.747135 0.580640
Si Si8 0.812149 0.120579 0.451558
O O1 0.078841 0.500000 0.143172
O O2 0.133909 0.653019 0.229275
O O3 0.000000 0.656767 0.145829
O O4 0.118826 0.641904 0.024927
O O5 0.889891 0.143919 0.138276
O O6 0.000000 0.157156 0.003352
O O7 0.921725 0.000000 0.016679
O O8 0.862854 0.153978 0.935734
O O9 0.192270 0.500000 0.697761
O O10 0.244726 0.677550 0.647462
O O11 0.177119 0.642791 0.829399
O O12 0.261144 0.853874 0.821593
O O13 0.175521 0.000000 0.833280
O O14 0.338233 0.820101 0.660897
O O15 0.332617 0.000000 0.742589
O O16 0.401108 0.863857 0.844282
O O17 0.500000 0.146844 0.991523
O O18 0.642118 0.179031 0.026396
O O19 0.590553 0.000000 0.983905
O O20 0.252553 0.816329 0.502288
O O21 0.798558 0.000000 0.460581
#
# Coordination Sequence:
#
# PCOD9358445 Si02
#       8
#     8   8   8   8   8   8   8   8
#     4   9  16  28  50  80 115 158 204 251 304 355
#     4   9  17  30  50  75 107 152 204 256 309 364
#     4  10  22  37  55  81 115 154 201 250 301 360
#     4   9  15  27  50  83 115 148 196 250 301 355
#     4  10  20  36  62  92 121 153 193 247 301 359
#     4  10  23  42  63  91 125 157 193 242 302 365
#     4  12  21  37  63  90 117 155 201 243 296 359
#     4  10  21  38  58  86 121 158 203 254 304 360
#
# _framework density 19.992933000000001
#
# number of rings (size 3 to 8) (size 9 to 14) (size 15 to 20)
#    0.000    2.125    1.250    2.625    0.000    4.500 
#    0.000    3.125    0.000    1.125    0.000    0.000 
#    0.000    0.000    0.000    0.000    0.000    0.000 
#
# Total GULP energy -178909.873413 kJ/mol
# GULP energy per Si atom -5590.933544 kJ/mol
# Density = 1.994743 g / cm^3
# Si number density = 19.992933 Si / 1000 Ang^3
#
#
#
# Elastic Constant Matrix: (Units=GPa)
#
#
# Indices 1 2 3 4 5 6 
#
# 1 101.6586 17.3370 42.8928 0.0000 0.0000 0.0000
# 2 17.3370 57.5910 32.5652 0.0000 0.0000 0.0000
# 3 42.8928 32.5652 131.1945 0.0000 0.0000 0.0000
# 4 0.0000 0.0000 0.0000 40.0718 0.0000 0.0000
# 5 0.0000 0.0000 0.0000 0.0000 21.0266 0.0000
# 6 0.0000 0.0000 0.0000 0.0000 0.0000 24.0285
#
#
#
# Elastic Compliance Matrix: (Units=1/GPa)
#
#
# Indices 1 2 3 4 5 6 
#
# 1 0.011530 -0.001558 -0.003383 0.000000 0.000000 0.000000
# 2 -0.001558 0.020409 -0.004557 0.000000 0.000000 0.000000
# 3 -0.003383 -0.004557 0.009859 0.000000 0.000000 0.000000
# 4 0.000000 0.000000 0.000000 0.024955 0.000000 0.000000
# 5 0.000000 0.000000 0.000000 0.000000 0.047559 0.000000
# 6 0.000000 0.000000 0.000000 0.000000 0.000000 0.041617
#
#
# Mechanical properties :
#
#
# Convention : Reuss Voigt Hill
#
# Bulk Modulus (GPa) = 43.85288 52.89267 48.37278
# Shear Modulus (GPa) = 27.39333 30.20199 28.79766
#
# Velocity S-wave (km/s) = 3.70557 3.89090 3.79937
# Velocity P-wave (km/s) = 6.34745 6.83364 6.59503
#
# Compressibility (1/GPa) = 0.02280352
#
# Stress axis : x y z
#
# Youngs Moduli (GPa) = 86.73112 48.99697 101.42697
#
# Poissons Ratio (x) = 0.07634 0.34311
# Poissons Ratio (y) = 0.13513 0.46217
# Poissons Ratio (z) = 0.29340 0.22326
#
# Static dielectric constant tensor:
#      x y z
#    x 1.658810 0.000000 0.000000 
#    y 0.000000 1.777060 0.000000 
#    z 0.000000 0.000000 1.694500 
# 
# From -- ./inp_files/10606.got.cif
#   From: 2010.05.17/outbox.cif.g08.bks.cpg/sg38_6_cif.got.tgz:10606.got - 2010.06.03 18:07:57.
