data_PCOD9358345
_publ_section_title
;
Structure prediction by ZEFSAII (Michael W. Deem and Ramdas Pophale) SiO2 
 PCOD9358345
Probable space group: A M M 2
;
_chemical_formula_sum "Si O2"
_cell_formula_units_Z 58
_cell_length_a 7.377710
_cell_length_b 20.118427
_cell_length_c 15.323378
_cell_angle_alpha 90.000000
_cell_angle_beta 90.000000
_cell_angle_gamma 90.000000
_cell_volume 2274.417125
_symmetry_space_group_name_H-M "A M M 2"
_symmetry_group_IT_number 38
_symmetry_cell_setting 'orthorhombic'
loop_
_space_group_symop_operation_xyz
x,y,z
-x,-y,z
-x,y,z
x,-y,z
x,1/2+y,1/2+z
-x,1/2-y,1/2+z
-x,1/2+y,1/2+z
x,1/2-y,1/2+z
loop_
_atom_site_type_symbol
_atom_site_label
_atom_site_fract_x
_atom_site_fract_y
_atom_site_fract_z
Si Si1 0.292876 0.573373 0.793140
Si Si2 0.217987 0.574416 0.408172
Si Si3 0.276409 0.720490 0.833495
Si Si4 0.714667 0.244954 0.024859
Si Si5 0.206365 0.108048 0.099608
Si Si6 0.285943 0.101704 0.570775
Si Si7 0.293944 0.155143 0.741456
Si Si8 0.000000 0.000000 0.500536
O O1 0.500000 0.571153 0.825259
O O2 0.210361 0.500000 0.812608
O O3 0.214840 0.643937 0.825866
O O4 0.296469 0.583709 0.688207
O O5 0.257688 0.500000 0.380050
O O6 0.283196 0.583532 0.507242
O O7 0.295526 0.623031 0.336560
O O8 0.000000 0.584064 0.410115
O O9 0.500000 0.718838 0.831655
O O10 0.215698 0.771269 0.757747
O O11 0.219282 0.752774 0.925129
O O12 0.500000 0.232064 0.023411
O O13 0.793087 0.187430 0.085082
O O14 0.741196 0.320129 0.054384
O O15 0.000000 0.084170 0.106387
O O16 0.500000 0.085101 0.559707
O O17 0.224201 0.100606 0.672689
O O18 0.159378 0.057484 0.511345
O O19 0.500000 0.166604 0.711359
#
# Coordination Sequence:
#
# PCOD9358345 Si02
#       8
#     8   8   8   8   8   8   8   2
#     4  10  21  38  62  91 121 160 213 259 312 386
#     4  10  22  36  53  81 120 163 206 255 312 376
#     4   9  18  37  64  92 121 158 202 258 318 375
#     4  10  20  40  66  91 122 157 206 264 315 370
#     4  11  22  37  60  88 124 164 206 254 314 387
#     4  10  24  42  64  95 126 167 215 267 321 377
#     4  10  20  36  58  87 122 158 206 257 311 377
#     4  12  26  44  68  86 128 172 214 272 316 398
#
# _framework density 25.50104
#
# number of rings (size 3 to 8) (size 9 to 14) (size 15 to 20)
#    0.000    1.931    1.379    1.862    2.897    3.862 
#    1.241    1.379    0.000    0.000    0.000    0.000 
#    0.000    0.000    0.000    0.000    0.000    0.000 
#
# Total GULP energy -161855.221403 kJ/mol
# GULP energy per Si atom -5581.214531 kJ/mol
# Density = 2.544300 g / cm^3
# Si number density = 25.501040 Si / 1000 Ang^3
#
#
#
# Elastic Constant Matrix: (Units=GPa)
#
#
# Indices 1 2 3 4 5 6 
#
# 1 103.3798 14.4907 -14.6390 0.0000 0.0000 0.0000
# 2 14.4907 141.6270 2.3970 0.0000 0.0000 0.0000
# 3 -14.6390 2.3970 65.4364 0.0000 0.0000 0.0000
# 4 0.0000 0.0000 0.0000 28.0504 0.0000 0.0000
# 5 0.0000 0.0000 0.0000 0.0000 202.0961 0.0000
# 6 0.0000 0.0000 0.0000 0.0000 0.0000 6.6137
#
#
#
# Elastic Compliance Matrix: (Units=1/GPa)
#
#
# Indices 1 2 3 4 5 6 
#
# 1 0.010151 -0.001078 0.002310 0.000000 0.000000 0.000000
# 2 -0.001078 0.007180 -0.000504 0.000000 0.000000 0.000000
# 3 0.002310 -0.000504 0.015817 0.000000 0.000000 0.000000
# 4 0.000000 0.000000 0.000000 0.035650 0.000000 0.000000
# 5 0.000000 0.000000 0.000000 0.000000 0.004948 0.000000
# 6 0.000000 0.000000 0.000000 0.000000 0.000000 0.151202
#
#
# Mechanical properties :
#
#
# Convention : Reuss Voigt Hill
#
# Bulk Modulus (GPa) = 28.89712 34.99339 31.94525
# Shear Modulus (GPa) = 21.27421 67.89833 44.58627
#
# Velocity S-wave (km/s) = 2.89147 5.16561 4.18594
# Velocity P-wave (km/s) = 4.74382 7.02354 5.99308
#
# Compressibility (1/GPa) = 0.03460553
#
# Stress axis : x y z
#
# Youngs Moduli (GPa) = 98.50944 139.28352 63.22163
#
# Poissons Ratio (x) = 0.15011 -0.14607
# Poissons Ratio (y) = 0.10617 0.03187
# Poissons Ratio (z) = -0.22760 0.07021
#
# Static dielectric constant tensor:
#      x y z
#    x 2.005740 0.000000 0.000000 
#    y 0.000000 1.996380 0.000000 
#    z 0.000000 0.000000 2.104650 
# 
# From -- ./inp_files/16981.got.cif
#   From: 2010.05.17/outbox.cif.g08.bks.cpg/sg38_9_cif.got.tgz:16981.got - 2010.06.03 18:07:57.
