data_PCOD9358294
_publ_section_title
;
Structure prediction by ZEFSAII (Michael W. Deem and Ramdas Pophale) SiO2 
 PCOD9358294
Probable space group: A M M 2
;
_chemical_formula_sum "Si O2"
_cell_formula_units_Z 56
_cell_length_a 8.617112
_cell_length_b 19.659621
_cell_length_c 14.654716
_cell_angle_alpha 90.000000
_cell_angle_beta 90.000000
_cell_angle_gamma 90.000000
_cell_volume 2482.643069
_symmetry_space_group_name_H-M "A M M 2"
_symmetry_group_IT_number 38
_symmetry_cell_setting 'orthorhombic'
loop_
_space_group_symop_operation_xyz
x,y,z
-x,-y,z
-x,y,z
x,-y,z
x,1/2+y,1/2+z
-x,1/2-y,1/2+z
-x,1/2+y,1/2+z
x,1/2-y,1/2+z
loop_
_atom_site_type_symbol
_atom_site_label
_atom_site_fract_x
_atom_site_fract_y
_atom_site_fract_z
Si Si1 0.812658 0.356320 0.375000
Si Si2 0.686941 0.926161 0.044960
Si Si3 0.820299 0.077359 0.693929
Si Si4 0.686822 0.710852 0.651353
Si Si5 0.680791 0.000000 0.536206
Si Si6 0.315173 0.857452 0.327283
Si Si7 0.817737 0.500000 0.836011
Si Si8 0.815457 0.220062 0.484751
O O1 0.750259 0.413519 0.443568
O O2 0.760064 0.371920 0.271723
O O3 0.764583 0.286380 0.424866
O O4 0.000000 0.357873 0.372951
O O5 0.500000 0.925485 0.043038
O O6 0.733493 0.860958 0.104226
O O7 0.738971 0.000000 0.079110
O O8 0.723985 0.063837 0.602058
O O9 0.000000 0.093681 0.670863
O O10 0.822043 0.000000 0.735387
O O11 0.500000 0.717219 0.648718
O O12 0.738994 0.699916 0.755150
O O13 0.758598 0.768476 0.587598
O O14 0.779909 0.000000 0.444547
O O15 0.500000 0.000000 0.512380
O O16 0.500000 0.857245 0.327278
O O17 0.257463 0.931387 0.298123
O O18 0.253558 0.841381 0.427440
O O19 0.000000 0.500000 0.821272
O O20 0.000000 0.216471 0.484113
#
# Coordination Sequence:
#
# PCOD9358294 Si02
#       8
#     8   8   8   8   4   8   4   8
#     4   9  17  31  51  77 114 161 206 251 308 374
#     4   9  17  28  48  79 115 154 199 253 314 374
#     4   8  15  29  49  74 114 161 206 255 310 371
#     4   9  20  39  63  90 126 170 214 264 323 388
#     4  10  20  36  56  83 116 155 204 259 312 376
#     4  11  24  44  71  98 129 170 218 271 328 389
#     4  12  26  46  70  95 126 163 210 269 332 392
#     4  10  21  39  63  92 129 169 214 270 326 387
#
# _framework density 22.556605000000001
#
# number of rings (size 3 to 8) (size 9 to 14) (size 15 to 20)
#    0.429    2.000    0.000    2.357    1.000    3.143 
#    2.571    0.000    0.000    0.000    0.000    0.000 
#    0.000    0.000    0.000    0.000    0.000    0.000 
#
# Total GULP energy -156365.896030 kJ/mol
# GULP energy per Si atom -5584.496287 kJ/mol
# Density = 2.250527 g / cm^3
# Si number density = 22.556605 Si / 1000 Ang^3
#
#
#
# Elastic Constant Matrix: (Units=GPa)
#
#
# Indices 1 2 3 4 5 6 
#
# 1 11.6421 10.4446 18.5922 0.0000 0.0000 0.0000
# 2 10.4446 71.5479 22.9501 0.0000 0.0000 0.0000
# 3 18.5922 22.9501 116.7311 0.0000 0.0000 0.0000
# 4 0.0000 0.0000 0.0000 50.5416 0.0000 0.0000
# 5 0.0000 0.0000 0.0000 0.0000 23.2728 0.0000
# 6 0.0000 0.0000 0.0000 0.0000 0.0000 21.5441
#
#
#
# Elastic Compliance Matrix: (Units=1/GPa)
#
#
# Indices 1 2 3 4 5 6 
#
# 1 0.125106 -0.012671 -0.017435 0.000000 0.000000 0.000000
# 2 -0.012671 0.016201 -0.001167 0.000000 0.000000 0.000000
# 3 -0.017435 -0.001167 0.011573 0.000000 0.000000 0.000000
# 4 0.000000 0.000000 0.000000 0.019786 0.000000 0.000000
# 5 0.000000 0.000000 0.000000 0.000000 0.042969 0.000000
# 6 0.000000 0.000000 0.000000 0.000000 0.000000 0.046417
#
#
# Mechanical properties :
#
#
# Convention : Reuss Voigt Hill
#
# Bulk Modulus (GPa) = 11.06997 33.76612 22.41804
# Shear Modulus (GPa) = 14.09613 28.93397 21.51505
#
# Velocity S-wave (km/s) = 2.50256 3.58540 3.09176
# Velocity P-wave (km/s) = 3.64262 5.66941 4.76502
#
# Compressibility (1/GPa) = 0.09033448
#
# Stress axis : x y z
#
# Youngs Moduli (GPa) = 7.99323 61.72586 86.40740
#
# Poissons Ratio (x) = 0.78210 1.50651
# Poissons Ratio (y) = 0.10128 0.10084
# Poissons Ratio (z) = 0.13936 0.07204
#
# Static dielectric constant tensor:
#      x y z
#    x 1.742120 0.000000 0.000000 
#    y 0.000000 1.881600 0.000000 
#    z 0.000000 0.000000 1.862140 
# 
# From -- ./inp_files/12487.got.cif
#   From: 2010.05.17/outbox.cif.g08.bks.cpg/sg38_7_cif.got.tgz:12487.got - 2010.06.03 18:07:57.
