data_PCOD9358412
_publ_section_title
;
Structure prediction by ZEFSAII (Michael W. Deem and Ramdas Pophale) SiO2 
 PCOD9358412
Probable space group: A M M 2
;
_chemical_formula_sum "Si O2"
_cell_formula_units_Z 48
_cell_length_a 8.610583
_cell_length_b 18.864668
_cell_length_c 15.233252
_cell_angle_alpha 90.000000
_cell_angle_beta 90.000000
_cell_angle_gamma 90.000000
_cell_volume 2474.425317
_symmetry_space_group_name_H-M "A M M 2"
_symmetry_group_IT_number 38
_symmetry_cell_setting 'orthorhombic'
loop_
_space_group_symop_operation_xyz
x,y,z
-x,-y,z
-x,y,z
x,-y,z
x,1/2+y,1/2+z
-x,1/2-y,1/2+z
-x,1/2+y,1/2+z
x,1/2-y,1/2+z
loop_
_atom_site_type_symbol
_atom_site_label
_atom_site_fract_x
_atom_site_fract_y
_atom_site_fract_z
Si Si1 0.811725 0.268706 0.490380
Si Si2 0.315022 0.612250 0.245462
Si Si3 0.683251 0.500000 0.095651
Si Si4 0.181991 0.500000 0.906135
Si Si5 0.186502 0.924153 0.929716
Si Si6 0.684933 0.347957 0.851883
Si Si7 0.185894 0.762394 0.194861
O O1 0.757720 0.348433 0.465966
O O2 0.747441 0.208417 0.424936
O O3 0.768827 0.259393 0.592479
O O4 0.000000 0.265907 0.483333
O O5 0.500000 0.615054 0.259492
O O6 0.287697 0.567681 0.157258
O O7 0.235422 0.576484 0.328464
O O8 0.243900 0.689490 0.236651
O O9 0.500000 0.500000 0.070597
O O10 0.787222 0.500000 0.010353
O O11 0.255961 0.572864 0.871170
O O12 0.000000 0.500000 0.886622
O O13 0.000000 0.922971 0.937495
O O14 0.240807 0.000000 0.968711
O O15 0.500000 0.346172 0.855581
O O16 0.742550 0.323110 0.755978
O O17 0.000000 0.767637 0.199297
#
# Coordination Sequence:
#
# PCOD9358412 Si02
#       7
#     8   8   4   4   8   8   8
#     4  10  22  41  65  94 126 165 214 263 312 373
#     4  11  21  35  57  88 123 161 202 252 312 371
#     4  10  22  38  58  91 132 163 202 257 317 381
#     4  12  26  44  66  91 122 163 212 261 315 375
#     4  10  20  36  60  89 124 162 202 254 310 368
#     4  12  25  43  67  93 128 167 208 263 322 378
#     4  11  23  40  62  91 124 164 212 259 310 377
#
# _framework density 19.398443
#
# number of rings (size 3 to 8) (size 9 to 14) (size 15 to 20)
#    0.000    1.167    2.500    4.250    0.000    5.333 
#    1.500    0.000    0.000    0.000    0.000    0.000 
#    0.000    0.000    0.000    0.000    0.000    0.000 
#
# Total GULP energy -134062.078700 kJ/mol
# GULP energy per Si atom -5585.919946 kJ/mol
# Density = 1.935429 g / cm^3
# Si number density = 19.398443 Si / 1000 Ang^3
#
#
#
# Elastic Constant Matrix: (Units=GPa)
#
#
# Indices 1 2 3 4 5 6 
#
# 1 69.2183 31.7109 37.9014 0.0000 0.0000 0.0000
# 2 31.7109 149.9695 36.0021 0.0000 0.0000 0.0000
# 3 37.9014 36.0021 82.5965 0.0000 0.0000 0.0000
# 4 0.0000 0.0000 0.0000 9.8570 0.0000 0.0000
# 5 0.0000 0.0000 0.0000 0.0000 7.8692 0.0000
# 6 0.0000 0.0000 0.0000 0.0000 0.0000 19.3690
#
#
#
# Elastic Compliance Matrix: (Units=1/GPa)
#
#
# Indices 1 2 3 4 5 6 
#
# 1 0.019957 -0.002258 -0.008174 0.000000 0.000000 0.000000
# 2 -0.002258 0.007703 -0.002321 0.000000 0.000000 0.000000
# 3 -0.008174 -0.002321 0.016870 0.000000 0.000000 0.000000
# 4 0.000000 0.000000 0.000000 0.101451 0.000000 0.000000
# 5 0.000000 0.000000 0.000000 0.000000 0.127078 0.000000
# 6 0.000000 0.000000 0.000000 0.000000 0.000000 0.051629
#
#
# Mechanical properties :
#
#
# Convention : Reuss Voigt Hill
#
# Bulk Modulus (GPa) = 52.56611 57.00147 54.78379
# Shear Modulus (GPa) = 14.02390 20.49702 17.26046
#
# Velocity S-wave (km/s) = 2.69167 3.25411 2.98616
# Velocity P-wave (km/s) = 6.06771 6.60056 6.33973
#
# Compressibility (1/GPa) = 0.01902366
#
# Stress axis : x y z
#
# Youngs Moduli (GPa) = 50.10783 129.82455 59.27816
#
# Poissons Ratio (x) = 0.29310 0.48452
# Poissons Ratio (y) = 0.11313 0.13761
# Poissons Ratio (z) = 0.40956 0.30138
#
# Static dielectric constant tensor:
#      x y z
#    x 1.653240 0.000000 0.000000 
#    y 0.000000 1.700750 0.000000 
#    z 0.000000 0.000000 1.661780 
# 
# From -- ./inp_files/12066.got.cif
#   From: 2010.05.17/outbox.cif.g08.bks.cpg/sg38_7_cif.got.tgz:12066.got - 2010.06.03 18:07:57.
