data_PCOD9358796
_publ_section_title
;
Structure prediction by ZEFSAII (Michael W. Deem and Ramdas Pophale) SiO2 
 PCOD9358796
Probable space group: A M M 2
;
_chemical_formula_sum "Si O2"
_cell_formula_units_Z 64
_cell_length_a 8.714348
_cell_length_b 33.287822
_cell_length_c 12.161567
_cell_angle_alpha 90.000000
_cell_angle_beta 90.000000
_cell_angle_gamma 90.000000
_cell_volume 3527.847605
_symmetry_space_group_name_H-M "A M M 2"
_symmetry_group_IT_number 38
_symmetry_cell_setting 'orthorhombic'
loop_
_space_group_symop_operation_xyz
x,y,z
-x,-y,z
-x,y,z
x,-y,z
x,1/2+y,1/2+z
-x,1/2-y,1/2+z
-x,1/2+y,1/2+z
x,1/2-y,1/2+z
loop_
_atom_site_type_symbol
_atom_site_label
_atom_site_fract_x
_atom_site_fract_y
_atom_site_fract_z
Si Si1 0.314544 0.378004 0.132640
Si Si2 0.685207 0.188801 0.808452
Si Si3 0.816626 0.453440 0.251649
Si Si4 0.819077 0.776188 0.261528
Si Si5 0.313460 0.147166 0.386521
Si Si6 0.679568 0.547912 0.487858
Si Si7 0.324240 0.901380 0.184486
Si Si8 0.324145 0.316666 0.558997
O O1 0.500000 0.379861 0.135628
O O2 0.262662 0.345092 0.222629
O O3 0.251160 0.421429 0.166682
O O4 0.269980 0.363356 0.010779
O O5 0.500000 0.189650 0.802971
O O6 0.747942 0.232713 0.781863
O O7 0.728481 0.179325 0.934103
O O8 0.766142 0.500000 0.233820
O O9 0.762175 0.441183 0.374383
O O10 0.000000 0.452635 0.247097
O O11 0.747557 0.810324 0.341356
O O12 0.778054 0.789264 0.137230
O O13 0.000000 0.775301 0.277891
O O14 0.500000 0.148638 0.379167
O O15 0.258271 0.112430 0.301554
O O16 0.500000 0.560638 0.478236
O O17 0.683925 0.500000 0.497205
O O18 0.746260 0.567108 0.599275
O O19 0.500000 0.914975 0.205579
O O20 0.328033 0.860111 0.115480
O O21 0.500000 0.300958 0.559576
#
# Coordination Sequence:
#
# PCOD9358796 Si02
#       8
#     8   8   8   8   8   8   8   8
#     4  10  21  37  59  84 106 139 188 235 274 321
#     4  10  21  36  56  80 105 137 180 227 273 323
#     4  10  21  36  54  79 114 150 179 218 277 335
#     4  11  23  36  52  77 109 140 175 221 274 328
#     4   9  19  37  57  76 104 144 186 224 271 329
#     4   9  16  28  51  80 107 136 174 221 269 319
#     4   8  14  29  52  76 102 131 168 214 261 311
#     4   9  18  34  54  71  95 134 177 217 259 315
#
# _framework density 18.141373000000002
#
# number of rings (size 3 to 8) (size 9 to 14) (size 15 to 20)
#    0.000    2.500    0.000    3.000    1.750    4.250 
#    0.000    5.625    0.000    2.250    0.000    1.750 
#    0.000    0.000    0.000    0.000    0.000    0.000 
#
# Total GULP energy -178409.034080 kJ/mol
# GULP energy per Si atom -5575.282315 kJ/mol
# Density = 1.810008 g / cm^3
# Si number density = 18.141373 Si / 1000 Ang^3
#
#
#
# Elastic Constant Matrix: (Units=GPa)
#
#
# Indices 1 2 3 4 5 6 
#
# 1 12.2888 17.8668 28.7321 0.0000 0.0000 0.0000
# 2 17.8668 74.6732 65.6000 0.0000 0.0000 0.0000
# 3 28.7321 65.6000 162.5083 0.0000 0.0000 0.0000
# 4 0.0000 0.0000 0.0000 20.9506 0.0000 0.0000
# 5 0.0000 0.0000 0.0000 0.0000 2.1012 0.0000
# 6 0.0000 0.0000 0.0000 0.0000 0.0000 10.8574
#
#
#
# Elastic Compliance Matrix: (Units=1/GPa)
#
#
# Indices 1 2 3 4 5 6 
#
# 1 0.156408 -0.020344 -0.019441 0.000000 0.000000 0.000000
# 2 -0.020344 0.023396 -0.005848 0.000000 0.000000 0.000000
# 3 -0.019441 -0.005848 0.011951 0.000000 0.000000 0.000000
# 4 0.000000 0.000000 0.000000 0.047731 0.000000 0.000000
# 5 0.000000 0.000000 0.000000 0.000000 0.475908 0.000000
# 6 0.000000 0.000000 0.000000 0.000000 0.000000 0.092103
#
#
# Mechanical properties :
#
#
# Convention : Reuss Voigt Hill
#
# Bulk Modulus (GPa) = 9.95123 52.65201 31.30162
# Shear Modulus (GPa) = 5.36330 15.93328 10.64829
#
# Velocity S-wave (km/s) = 1.72128 2.96680 2.42536
# Velocity P-wave (km/s) = 3.07371 6.38921 5.01347
#
# Compressibility (1/GPa) = 0.10049011
#
# Stress axis : x y z
#
# Youngs Moduli (GPa) = 6.39352 42.74165 83.67306
#
# Poissons Ratio (x) = 0.86955 1.62670
# Poissons Ratio (y) = 0.13007 0.48928
# Poissons Ratio (z) = 0.12430 0.24993
#
# Static dielectric constant tensor:
#      x y z
#    x 1.622800 0.000000 0.000000 
#    y 0.000000 1.612310 0.000000 
#    z 0.000000 0.000000 1.636570 
# 
# From -- ./inp_files/8584.got.cif
#   From: 2010.05.17/outbox.cif.g08.bks.cpg/sg38_5_cif.got.tgz:8584.got - 2010.06.03 18:07:57.
