data_PCOD9358160
_publ_section_title
;
Structure prediction by ZEFSAII (Michael W. Deem and Ramdas Pophale) SiO2 
 PCOD9358160
Probable space group: A M M 2
;
_chemical_formula_sum "Si O2"
_cell_formula_units_Z 48
_cell_length_a 8.565721
_cell_length_b 19.155853
_cell_length_c 15.328053
_cell_angle_alpha 90.000000
_cell_angle_beta 90.000000
_cell_angle_gamma 90.000000
_cell_volume 2515.083532
_symmetry_space_group_name_H-M "A M M 2"
_symmetry_group_IT_number 38
_symmetry_cell_setting 'orthorhombic'
loop_
_space_group_symop_operation_xyz
x,y,z
-x,-y,z
-x,y,z
x,-y,z
x,1/2+y,1/2+z
-x,1/2-y,1/2+z
-x,1/2+y,1/2+z
x,1/2-y,1/2+z
loop_
_atom_site_type_symbol
_atom_site_label
_atom_site_fract_x
_atom_site_fract_y
_atom_site_fract_z
Si Si1 0.187150 0.647889 0.851350
Si Si2 0.187172 0.804239 0.052344
Si Si3 0.189310 0.307593 0.352531
Si Si4 0.188761 0.579090 0.212640
Si Si5 0.314669 0.650552 0.044190
Si Si6 0.686523 0.079003 0.182315
O O1 0.236397 0.728191 0.831152
O O2 0.263194 0.597766 0.780567
O O3 0.000000 0.643901 0.844912
O O4 0.237868 0.634388 0.950604
O O5 0.260557 0.728620 0.071175
O O6 0.239349 0.863618 0.118717
O O7 0.000000 0.796518 0.055622
O O8 0.233769 0.822490 0.952669
O O9 0.244953 0.364710 0.283898
O O10 0.000000 0.308384 0.350214
O O11 0.229116 0.500000 0.237426
O O12 0.257484 0.598811 0.119095
O O13 0.000000 0.583881 0.207586
O O14 0.500000 0.648784 0.035353
O O15 0.500000 0.082882 0.175262
O O16 0.736687 0.000000 0.160653
#
# Coordination Sequence:
#
# PCOD9358160 Si02
#       6
#     8   8   8   8   8   8
#     4  10  20  37  61  84 108 144 192 238 280 336
#     4  10  20  37  61  86 112 145 191 238 279 334
#     4   8  17  34  57  84 109 137 179 233 281 322
#     4  10  20  35  56  82 113 148 186 229 278 336
#     4  11  22  37  58  83 114 149 187 235 288 338
#     4  11  24  39  55  82 120 155 187 230 288 347
#
# _framework density 19.084852999999999
#
# number of rings (size 3 to 8) (size 9 to 14) (size 15 to 20)
#    0.000    2.000    0.000    5.000    0.000    4.333 
#    0.000    5.833    0.000    0.000    0.000    0.000 
#    0.000    0.000    0.000    0.000    0.000    0.000 
#
# Total GULP energy -134074.854918 kJ/mol
# GULP energy per Si atom -5586.452288 kJ/mol
# Density = 1.904141 g / cm^3
# Si number density = 19.084853 Si / 1000 Ang^3
#
#
#
# Elastic Constant Matrix: (Units=GPa)
#
#
# Indices 1 2 3 4 5 6 
#
# 1 31.4706 7.0140 -2.7341 0.0000 0.0000 0.0000
# 2 7.0140 19.8594 6.6872 0.0000 0.0000 0.0000
# 3 -2.7341 6.6872 29.9469 0.0000 0.0000 0.0000
# 4 0.0000 0.0000 0.0000 -2.4210 0.0000 0.0000
# 5 0.0000 0.0000 0.0000 0.0000 13.3981 0.0000
# 6 0.0000 0.0000 0.0000 0.0000 0.0000 18.4322
#
#
#
# Elastic Compliance Matrix: (Units=1/GPa)
#
#
# Indices 1 2 3 4 5 6 
#
# 1 0.035643 -0.014797 0.006558 0.000000 0.000000 0.000000
# 2 -0.014797 0.060591 -0.014881 0.000000 0.000000 0.000000
# 3 0.006558 -0.014881 0.037314 0.000000 0.000000 0.000000
# 4 0.000000 0.000000 0.000000 -0.413052 0.000000 0.000000
# 5 0.000000 0.000000 0.000000 0.000000 0.074637 0.000000
# 6 0.000000 0.000000 0.000000 0.000000 0.000000 0.054253
#
#
# Mechanical properties :
#
#
# Convention : Reuss Voigt Hill
#
# Bulk Modulus (GPa) = 11.45354 11.46788 11.46071
# Shear Modulus (GPa) = -66.42623 10.56919 -27.92852
#
# Velocity S-wave (km/s) = -5.90604 2.35585 -3.82957
# Velocity P-wave (km/s) = 6.36349 3.66360 3.67913
#
# Compressibility (1/GPa) = 0.08730926
#
# Stress axis : x y z
#
# Youngs Moduli (GPa) = 28.05573 16.50419 26.79945
#
# Poissons Ratio (x) = 0.24421 -0.17576
# Poissons Ratio (y) = 0.41514 0.39880
# Poissons Ratio (z) = -0.18400 0.24560
#
# Static dielectric constant tensor:
#      x y z
#    x 1.641940 0.000000 0.000000 
#    y 0.000000 1.653600 0.000000 
#    z 0.000000 0.000000 1.648020 
# 
# From -- ./inp_files/12020.got.cif
#   From: 2010.05.17/outbox.cif.g08.bks.cpg/sg38_7_cif.got.tgz:12020.got - 2010.06.03 18:07:57.
