data_PCOD9358643
_publ_section_title
;
Structure prediction by ZEFSAII (Michael W. Deem and Ramdas Pophale) SiO2 
 PCOD9358643
Probable space group: A M M 2
;
_chemical_formula_sum "Si O2"
_cell_formula_units_Z 56
_cell_length_a 14.855004
_cell_length_b 8.709590
_cell_length_c 26.292137
_cell_angle_alpha 90.000000
_cell_angle_beta 90.000000
_cell_angle_gamma 90.000000
_cell_volume 3401.702827
_symmetry_space_group_name_H-M "A M M 2"
_symmetry_group_IT_number 38
_symmetry_cell_setting 'orthorhombic'
loop_
_space_group_symop_operation_xyz
x,y,z
-x,-y,z
-x,y,z
x,-y,z
x,1/2+y,1/2+z
-x,1/2-y,1/2+z
-x,1/2+y,1/2+z
x,1/2-y,1/2+z
loop_
_atom_site_type_symbol
_atom_site_label
_atom_site_fract_x
_atom_site_fract_y
_atom_site_fract_z
Si Si1 0.283643 0.316523 0.882880
Si Si2 0.395045 0.685618 0.782668
Si Si3 0.603831 0.814857 0.975101
Si Si4 0.101550 0.315001 0.344819
Si Si5 0.710581 0.684246 0.185738
Si Si6 0.395560 0.185065 0.091547
Si Si7 0.099712 0.313401 0.225943
O O1 0.284407 0.500000 0.883635
O O2 0.341027 0.265607 0.833214
O O3 0.330930 0.254273 0.933297
O O4 0.182303 0.257281 0.876147
O O5 0.500000 0.729884 0.785769
O O6 0.391062 0.500000 0.779499
O O7 0.348238 0.754163 0.732871
O O8 0.500000 0.768986 0.964895
O O9 0.607463 0.000000 0.972701
O O10 0.625494 0.770269 0.033320
O O11 0.107610 0.500000 0.347319
O O12 0.112271 0.270965 0.285278
O O13 0.000000 0.271016 0.360428
O O14 0.709231 0.500000 0.186887
O O15 0.668377 0.742609 0.133445
O O16 0.813637 0.737756 0.194487
O O17 0.500000 0.227302 0.101668
O O18 0.390267 0.000000 0.094686
O O19 0.098528 0.500000 0.224616
O O20 0.000000 0.260738 0.209596
#
# Coordination Sequence:
#
# PCOD9358643 Si02
#       7
#     8   8   8   8   8   8   8
#     4  11  21  32  50  76 106 134 163 208 260 304
#     4  10  21  34  45  64 101 142 166 187 239 308
#     4   9  19  36  56  74  94 130 178 216 247 297
#     4   9  17  32  53  73  98 135 174 208 246 298
#     4  11  20  30  50  77 100 125 165 212 250 291
#     4   9  19  36  54  71  97 134 170 205 250 301
#     4   8  15  29  48  70  98 130 163 201 244 291
#
# _framework density 16.462344000000002
#
# number of rings (size 3 to 8) (size 9 to 14) (size 15 to 20)
#    0.000    2.429    1.429    3.429    0.000    4.571 
#    0.000    1.429    0.000    2.571    0.000    4.000 
#    0.000    0.000    0.000    0.000    0.000    0.000 
#
# Total GULP energy -156173.169102 kJ/mol
# GULP energy per Si atom -5577.613182 kJ/mol
# Density = 1.642487 g / cm^3
# Si number density = 16.462344 Si / 1000 Ang^3
#
#
#
# Elastic Constant Matrix: (Units=GPa)
#
#
# Indices 1 2 3 4 5 6 
#
# 1 170.1264 38.0026 103.7016 0.0000 0.0000 0.0000
# 2 38.0026 18.1593 32.0640 0.0000 0.0000 0.0000
# 3 103.7016 32.0640 120.8739 0.0000 0.0000 0.0000
# 4 0.0000 0.0000 0.0000 25.7656 0.0000 0.0000
# 5 0.0000 0.0000 0.0000 0.0000 21.8616 0.0000
# 6 0.0000 0.0000 0.0000 0.0000 0.0000 21.6410
#
#
#
# Elastic Compliance Matrix: (Units=1/GPa)
#
#
# Indices 1 2 3 4 5 6 
#
# 1 0.014337 -0.015585 -0.008166 0.000000 0.000000 0.000000
# 2 -0.015585 0.120527 -0.018602 0.000000 0.000000 0.000000
# 3 -0.008166 -0.018602 0.020213 0.000000 0.000000 0.000000
# 4 0.000000 0.000000 0.000000 0.038811 0.000000 0.000000
# 5 0.000000 0.000000 0.000000 0.000000 0.045742 0.000000
# 6 0.000000 0.000000 0.000000 0.000000 0.000000 0.046209
#
#
# Mechanical properties :
#
#
# Convention : Reuss Voigt Hill
#
# Bulk Modulus (GPa) = 14.20993 72.96622 43.58807
# Shear Modulus (GPa) = 12.69031 22.87975 17.78503
#
# Velocity S-wave (km/s) = 2.77946 3.73208 3.29043
# Velocity P-wave (km/s) = 4.35328 7.93666 6.40084
#
# Compressibility (1/GPa) = 0.07037333
#
# Stress axis : x y z
#
# Youngs Moduli (GPa) = 69.75035 8.29688 49.47227
#
# Poissons Ratio (x) = 0.12930 0.40399
# Poissons Ratio (y) = 1.08702 0.92026
# Poissons Ratio (z) = 0.56958 0.15433
#
# Static dielectric constant tensor:
#      x y z
#    x 1.556960 0.000000 0.000000 
#    y 0.000000 1.554690 0.000000 
#    z 0.000000 0.000000 1.526610 
# 
# From -- ./inp_files/21104.got.cif
#   From: 2010.05.17/outbox.cif.g08.bks.cpg/sg38_11_cif.got.tgz:21104.got - 2010.06.03 18:07:57.
