data_PCOD9358640
_publ_section_title
;
Structure prediction by ZEFSAII (Michael W. Deem and Ramdas Pophale) SiO2 
 PCOD9358640
Probable space group: A M M 2
;
_chemical_formula_sum "Si O2"
_cell_formula_units_Z 48
_cell_length_a 16.566069
_cell_length_b 22.802569
_cell_length_c 5.581618
_cell_angle_alpha 90.000000
_cell_angle_beta 90.000000
_cell_angle_gamma 90.000000
_cell_volume 2108.450235
_symmetry_space_group_name_H-M "A M M 2"
_symmetry_group_IT_number 38
_symmetry_cell_setting 'orthorhombic'
loop_
_space_group_symop_operation_xyz
x,y,z
-x,-y,z
-x,y,z
x,-y,z
x,1/2+y,1/2+z
-x,1/2-y,1/2+z
-x,1/2+y,1/2+z
x,1/2-y,1/2+z
loop_
_atom_site_type_symbol
_atom_site_label
_atom_site_fract_x
_atom_site_fract_y
_atom_site_fract_z
Si Si1 0.678625 0.570661 0.307950
Si Si2 0.749838 0.735291 0.879772
Si Si3 0.909551 0.937898 0.154952
Si Si4 0.407232 0.571229 0.802923
Si Si5 0.910616 0.316629 0.365345
Si Si6 0.816977 0.118661 0.520732
O O1 0.685299 0.500000 0.314379
O O2 0.640824 0.589711 0.561935
O O3 0.764955 0.598953 0.248496
O O4 0.628029 0.586157 0.066005
O O5 0.708367 0.746165 0.134757
O O6 0.834703 0.772822 0.898318
O O7 0.768129 0.666829 0.873476
O O8 0.906649 0.874851 0.028248
O O9 0.842237 0.934676 0.357969
O O10 0.000000 0.940266 0.258095
O O11 0.899671 0.000000 0.015854
O O12 0.500000 0.590682 0.785029
O O13 0.406581 0.500000 0.795844
O O14 0.895654 0.345892 0.106717
O O15 0.000000 0.290110 0.389979
#
# Coordination Sequence:
#
# PCOD9358640 Si02
#       6
#     8   8   8   8   8   8
#     4  10  21  33  55  86 120 159 192 234 294 355
#     4  10  21  37  57  80 107 143 192 251 301 346
#     4  10  21  36  53  75 108 153 199 243 297 360
#     4   9  18  35  57  84 119 158 196 231 277 348
#     4  10  22  38  56  78 108 153 205 258 307 352
#     4  11  22  36  54  81 116 150 199 244 308 352
#
# _framework density 22.765536000000001
#
# number of rings (size 3 to 8) (size 9 to 14) (size 15 to 20)
#    0.000    2.000    1.667    1.500    2.333    6.667 
#    0.000    1.667    0.000    0.000    0.000    0.000 
#    0.000   53.333    0.000    0.000    0.000    0.000 
#
# Total GULP energy -133844.041742 kJ/mol
# GULP energy per Si atom -5576.835073 kJ/mol
# Density = 2.271372 g / cm^3
# Si number density = 22.765536 Si / 1000 Ang^3
#
#
#
# Elastic Constant Matrix: (Units=GPa)
#
#
# Indices 1 2 3 4 5 6 
#
# 1 71.9835 12.5934 31.3759 0.0000 0.0000 0.0000
# 2 12.5934 84.9333 19.7178 0.0000 0.0000 0.0000
# 3 31.3759 19.7178 133.8333 0.0000 0.0000 0.0000
# 4 0.0000 0.0000 0.0000 30.0083 0.0000 0.0000
# 5 0.0000 0.0000 0.0000 0.0000 30.5970 0.0000
# 6 0.0000 0.0000 0.0000 0.0000 0.0000 12.9480
#
#
#
# Elastic Compliance Matrix: (Units=1/GPa)
#
#
# Indices 1 2 3 4 5 6 
#
# 1 0.015661 -0.001522 -0.003447 0.000000 0.000000 0.000000
# 2 -0.001522 0.012339 -0.001461 0.000000 0.000000 0.000000
# 3 -0.003447 -0.001461 0.008495 0.000000 0.000000 0.000000
# 4 0.000000 0.000000 0.000000 0.033324 0.000000 0.000000
# 5 0.000000 0.000000 0.000000 0.000000 0.032683 0.000000
# 6 0.000000 0.000000 0.000000 0.000000 0.000000 0.077232
#
#
# Mechanical properties :
#
#
# Convention : Reuss Voigt Hill
#
# Bulk Modulus (GPa) = 42.31072 46.45825 44.38448
# Shear Modulus (GPa) = 24.94102 29.84819 27.39461
#
# Velocity S-wave (km/s) = 3.31352 3.62486 3.47268
# Velocity P-wave (km/s) = 5.76758 6.16206 5.96808
#
# Compressibility (1/GPa) = 0.02363467
#
# Stress axis : x y z
#
# Youngs Moduli (GPa) = 63.85327 81.04515 117.71015
#
# Poissons Ratio (x) = 0.12333 0.40579
# Poissons Ratio (y) = 0.09717 0.17199
# Poissons Ratio (z) = 0.22012 0.11842
#
# Static dielectric constant tensor:
#      x y z
#    x 1.871900 0.000000 0.000000 
#    y 0.000000 1.844160 0.000000 
#    z 0.000000 0.000000 1.946560 
# 
# From -- ./inp_files/1637.got.cif
#   From: 2010.05.17/outbox.cif.g08.bks.cpg/sg38_1_cif.got.tgz:1637.got - 2010.06.03 18:07:57.
