data_PCOD9358809
_publ_section_title
;
Structure prediction by ZEFSAII (Michael W. Deem and Ramdas Pophale) SiO2 
 PCOD9358809
Probable space group: A M M 2
;
_chemical_formula_sum "Si O2"
_cell_formula_units_Z 64
_cell_length_a 8.926842
_cell_length_b 20.056727
_cell_length_c 20.549996
_cell_angle_alpha 90.000000
_cell_angle_beta 90.000000
_cell_angle_gamma 90.000000
_cell_volume 3679.337721
_symmetry_space_group_name_H-M "A M M 2"
_symmetry_group_IT_number 38
_symmetry_cell_setting 'orthorhombic'
loop_
_space_group_symop_operation_xyz
x,y,z
-x,-y,z
-x,y,z
x,-y,z
x,1/2+y,1/2+z
-x,1/2-y,1/2+z
-x,1/2+y,1/2+z
x,1/2-y,1/2+z
loop_
_atom_site_type_symbol
_atom_site_label
_atom_site_fract_x
_atom_site_fract_y
_atom_site_fract_z
Si Si1 0.678432 0.326611 0.863700
Si Si2 0.678508 0.421269 0.110203
Si Si3 0.678280 0.671097 0.357067
Si Si4 0.178098 0.078004 0.749491
Si Si5 0.321076 0.819698 0.007071
Si Si6 0.179118 0.921870 0.257905
Si Si7 0.820518 0.922069 0.106746
Si Si8 0.821064 0.674975 0.003560
O O1 0.500000 0.331765 0.873456
O O2 0.711626 0.249426 0.846254
O O3 0.733939 0.375041 0.807283
O O4 0.760114 0.342179 0.931613
O O5 0.500000 0.411202 0.108014
O O6 0.709074 0.500000 0.099392
O O7 0.740338 0.404427 0.181910
O O8 0.757619 0.376632 0.056063
O O9 0.500000 0.661319 0.348140
O O10 0.765414 0.624242 0.307670
O O11 0.714262 0.658185 0.432952
O O12 0.000000 0.084785 0.740931
O O13 0.211111 0.000000 0.763400
O O14 0.500000 0.810170 0.010724
O O15 0.265222 0.873813 0.058255
O O16 0.241448 0.748899 0.018586
O O17 0.215360 0.907567 0.182354
O O18 0.000000 0.912794 0.265847
O O19 0.211759 0.000000 0.269725
O O20 0.000000 0.913924 0.098934
O O21 0.785786 0.000000 0.094750
O O22 0.000000 0.675148 0.004015
#
# Coordination Sequence:
#
# PCOD9358809 Si02
#       8
#     8   8   8   8   8   8   8   8
#     4  10  21  37  56  80 109 140 178 223 268 317
#     4  10  21  38  59  81 108 142 178 219 267 318
#     4   9  20  37  54  75 106 143 179 218 267 319
#     4  10  21  36  55  81 110 140 178 222 266 316
#     4  10  21  37  56  80 111 143 180 226 271 320
#     4   9  19  36  56  79 108 142 180 221 265 315
#     4   9  19  36  56  79 110 146 184 226 270 318
#     4  11  22  37  58  81 108 142 179 221 268 320
#
# _framework density 17.394432999999999
#
# number of rings (size 3 to 8) (size 9 to 14) (size 15 to 20)
#    0.000    2.250    0.000    4.125    0.000    7.500 
#    0.000    6.250    0.000    0.000    0.000    0.000 
#    0.000    0.000    0.000    0.000    0.000    0.000 
#
# Total GULP energy -178664.311385 kJ/mol
# GULP energy per Si atom -5583.259731 kJ/mol
# Density = 1.735484 g / cm^3
# Si number density = 17.394433 Si / 1000 Ang^3
#
#
#
# Elastic Constant Matrix: (Units=GPa)
#
#
# Indices 1 2 3 4 5 6 
#
# 1 95.9689 76.3730 89.4067 0.0000 0.0000 0.0000
# 2 76.3730 96.2181 108.3366 0.0000 0.0000 0.0000
# 3 89.4067 108.3366 142.4094 0.0000 0.0000 0.0000
# 4 0.0000 0.0000 0.0000 41.9860 0.0000 0.0000
# 5 0.0000 0.0000 0.0000 0.0000 35.5646 0.0000
# 6 0.0000 0.0000 0.0000 0.0000 0.0000 33.5828
#
#
#
# Elastic Compliance Matrix: (Units=1/GPa)
#
#
# Indices 1 2 3 4 5 6 
#
# 1 0.028755 -0.017412 -0.004806 0.000000 0.000000 0.000000
# 2 -0.017412 0.082996 -0.052207 0.000000 0.000000 0.000000
# 3 -0.004806 -0.052207 0.049755 0.000000 0.000000 0.000000
# 4 0.000000 0.000000 0.000000 0.023817 0.000000 0.000000
# 5 0.000000 0.000000 0.000000 0.000000 0.028118 0.000000
# 6 0.000000 0.000000 0.000000 0.000000 0.000000 0.029777
#
#
# Mechanical properties :
#
#
# Convention : Reuss Voigt Hill
#
# Bulk Modulus (GPa) = 79.01876 98.09211 88.55544
# Shear Modulus (GPa) = 12.61710 26.25870 19.43790
#
# Velocity S-wave (km/s) = 2.69616 3.88958 3.34650
# Velocity P-wave (km/s) = 7.43092 8.75711 8.12113
#
# Compressibility (1/GPa) = 0.01265522
#
# Stress axis : x y z
#
# Youngs Moduli (GPa) = 34.77714 12.04878 20.09832
#
# Poissons Ratio (x) = 0.20979 0.09660
# Poissons Ratio (y) = 0.60554 1.04927
# Poissons Ratio (z) = 0.16715 0.62903
#
# Static dielectric constant tensor:
#      x y z
#    x 1.580300 0.000000 0.000000 
#    y 0.000000 1.568340 0.000000 
#    z 0.000000 0.000000 1.563170 
# 
# From -- ./inp_files/20012.got.cif
#   From: 2010.05.17/outbox.cif.g08.bks.cpg/sg38_11_cif.got.tgz:20012.got - 2010.06.03 18:07:57.
