data_PCOD9358034
_publ_section_title
;
Structure prediction by ZEFSAII (Michael W. Deem and Ramdas Pophale) SiO2 
 PCOD9358034
Probable space group: A M M 2
;
_chemical_formula_sum "Si O2"
_cell_formula_units_Z 64
_cell_length_a 24.850189
_cell_length_b 7.831026
_cell_length_c 15.512940
_cell_angle_alpha 90.000000
_cell_angle_beta 90.000000
_cell_angle_gamma 90.000000
_cell_volume 3018.856537
_symmetry_space_group_name_H-M "A M M 2"
_symmetry_group_IT_number 38
_symmetry_cell_setting 'orthorhombic'
loop_
_space_group_symop_operation_xyz
x,y,z
-x,-y,z
-x,y,z
x,-y,z
x,1/2+y,1/2+z
-x,1/2-y,1/2+z
-x,1/2+y,1/2+z
x,1/2-y,1/2+z
loop_
_atom_site_type_symbol
_atom_site_label
_atom_site_fract_x
_atom_site_fract_y
_atom_site_fract_z
Si Si1 0.240755 0.208118 0.654650
Si Si2 0.358754 0.800701 0.614427
Si Si3 0.631409 0.700313 0.809878
Si Si4 0.560324 0.799742 0.965676
Si Si5 0.139657 0.290166 0.898345
Si Si6 0.745776 0.802861 0.350928
Si Si7 0.123834 0.294507 0.085979
Si Si8 0.939916 0.797588 0.251641
O O1 0.296652 0.261195 0.609346
O O2 0.240926 0.290585 0.749221
O O3 0.185250 0.254465 0.608989
O O4 0.242486 0.000000 0.663829
O O5 0.375693 0.778682 0.714880
O O6 0.400189 0.722769 0.546944
O O7 0.357630 0.000000 0.593516
O O8 0.641083 0.500000 0.793581
O O9 0.584504 0.718720 0.878998
O O10 0.685923 0.773093 0.854711
O O11 0.500000 0.735657 0.984744
O O12 0.557423 0.000000 0.947719
O O13 0.142665 0.500000 0.894280
O O14 0.201424 0.228097 0.895498
O O15 0.104382 0.228218 0.818290
O O16 0.112865 0.242461 0.988317
O O17 0.741622 0.000000 0.380502
O O18 0.121667 0.500000 0.090339
O O19 0.082947 0.226025 0.156242
O O20 0.000000 0.726023 0.261297
O O21 0.943074 0.000000 0.268700
#
# Coordination Sequence:
#
# PCOD9358034 Si02
#       8
#     8   8   8   8   8   8   8   8
#     4   9  18  32  54  84 118 146 178 227 285 340
#     4  10  21  38  61  88 121 156 192 240 295 349
#     4  10  21  37  61  90 119 153 194 240 293 352
#     4  11  25  43  61  84 117 157 202 245 288 348
#     4   9  18  33  55  81 110 145 184 225 274 335
#     4   9  17  32  57  83 112 147 185 225 276 339
#     4  10  20  34  56  84 112 144 184 230 280 336
#     4  10  21  38  57  77 108 150 193 235 278 331
#
# _framework density 21.200078999999999
#
# number of rings (size 3 to 8) (size 9 to 14) (size 15 to 20)
#    0.000    2.250    1.250    1.125    1.750    3.250 
#    0.000    2.500    0.000    0.000    0.000    0.000 
#    0.000    0.000    0.000    0.000    0.000    0.000 
#
# Total GULP energy -178598.223204 kJ/mol
# GULP energy per Si atom -5581.194475 kJ/mol
# Density = 2.115183 g / cm^3
# Si number density = 21.200079 Si / 1000 Ang^3
#
#
#
# Elastic Constant Matrix: (Units=GPa)
#
#
# Indices 1 2 3 4 5 6 
#
# 1 74.8377 2.0749 7.6699 0.0000 0.0000 0.0000
# 2 2.0749 24.8736 -8.7618 0.0000 0.0000 0.0000
# 3 7.6699 -8.7618 33.7858 0.0000 0.0000 0.0000
# 4 0.0000 0.0000 0.0000 25.9325 0.0000 0.0000
# 5 0.0000 0.0000 0.0000 0.0000 6.6484 0.0000
# 6 0.0000 0.0000 0.0000 0.0000 0.0000 14.0447
#
#
#
# Elastic Compliance Matrix: (Units=1/GPa)
#
#
# Indices 1 2 3 4 5 6 
#
# 1 0.013819 -0.002485 -0.003781 0.000000 0.000000 0.000000
# 2 -0.002485 0.044692 0.012154 0.000000 0.000000 0.000000
# 3 -0.003781 0.012154 0.033609 0.000000 0.000000 0.000000
# 4 0.000000 0.000000 0.000000 0.038562 0.000000 0.000000
# 5 0.000000 0.000000 0.000000 0.000000 0.150412 0.000000
# 6 0.000000 0.000000 0.000000 0.000000 0.000000 0.071201
#
#
# Mechanical properties :
#
#
# Convention : Reuss Voigt Hill
#
# Bulk Modulus (GPa) = 9.62508 15.05147 12.33827
# Shear Modulus (GPa) = 13.32800 18.15939 15.74369
#
# Velocity S-wave (km/s) = 2.51006 2.92990 2.72807
# Velocity P-wave (km/s) = 3.59868 4.30823 3.96935
#
# Compressibility (1/GPa) = 0.10389526
#
# Stress axis : x y z
#
# Youngs Moduli (GPa) = 72.36572 22.37540 29.75423
#
# Poissons Ratio (x) = 0.05560 0.11251
# Poissons Ratio (y) = 0.17981 -0.36164
# Poissons Ratio (z) = 0.27365 -0.27196
#
# Static dielectric constant tensor:
#      x y z
#    x 1.786010 0.000000 0.000000 
#    y 0.000000 1.807070 0.000000 
#    z 0.000000 0.000000 1.729170 
# 
# From -- ./inp_files/15812.got.cif
#   From: 2010.05.17/outbox.cif.g08.bks.cpg/sg38_8_cif.got.tgz:15812.got - 2010.06.03 18:07:57.
