data_PCOD9358154
_publ_section_title
;
Structure prediction by ZEFSAII (Michael W. Deem and Ramdas Pophale) SiO2 
 PCOD9358154
Probable space group: A M M 2
;
_chemical_formula_sum "Si O2"
_cell_formula_units_Z 48
_cell_length_a 9.160553
_cell_length_b 7.941173
_cell_length_c 35.172968
_cell_angle_alpha 90.000000
_cell_angle_beta 90.000000
_cell_angle_gamma 90.000000
_cell_volume 2558.676415
_symmetry_space_group_name_H-M "A M M 2"
_symmetry_group_IT_number 38
_symmetry_cell_setting 'orthorhombic'
loop_
_space_group_symop_operation_xyz
x,y,z
-x,-y,z
-x,y,z
x,-y,z
x,1/2+y,1/2+z
-x,1/2-y,1/2+z
-x,1/2+y,1/2+z
x,1/2-y,1/2+z
loop_
_atom_site_type_symbol
_atom_site_label
_atom_site_fract_x
_atom_site_fract_y
_atom_site_fract_z
Si Si1 0.323018 0.500000 0.668221
Si Si2 0.176033 0.000000 0.250329
Si Si3 0.674529 0.685871 0.115006
Si Si4 0.665268 0.702538 0.383660
Si Si5 0.169849 0.698399 0.540183
Si Si6 0.322899 0.200007 0.797390
Si Si7 0.834933 0.800308 0.458774
O O1 0.500000 0.500000 0.674511
O O2 0.237658 0.500000 0.707566
O O3 0.284143 0.664493 0.643428
O O4 0.241451 0.832740 0.270696
O O5 0.000000 0.000000 0.251669
O O6 0.500000 0.695771 0.110377
O O7 0.711702 0.500000 0.129982
O O8 0.746582 0.710915 0.073955
O O9 0.500000 0.766739 0.387140
O O10 0.661233 0.500000 0.384899
O O11 0.718013 0.743917 0.341157
O O12 0.755371 0.762552 0.419582
O O13 0.174069 0.500000 0.548121
O O14 0.230941 0.728084 0.497784
O O15 0.000000 0.753868 0.539684
O O16 0.500000 0.217700 0.794070
O O17 0.290962 0.000000 0.790707
O O18 0.000000 0.732221 0.455849
O O19 0.840145 0.000000 0.463809
#
# Coordination Sequence:
#
# PCOD9358154 Si02
#       7
#     4   4   8   8   8   8   8
#     4  10  22  42  62  86 120 156 198 244 294 358
#     4  12  26  40  62  96 130 158 196 250 310 372
#     4  10  21  38  62  89 115 148 192 242 293 345
#     4   9  19  36  57  81 108 144 194 246 293 342
#     4  10  20  35  56  80 111 154 199 239 289 350
#     4   9  20  41  66  89 118 161 208 251 301 364
#     4  10  21  34  49  76 114 153 194 238 288 348
#
# _framework density 18.759699999999999
#
# number of rings (size 3 to 8) (size 9 to 14) (size 15 to 20)
#    0.000    2.167    0.833    2.750    1.167    5.333 
#    0.000    3.333    0.000    0.000    0.000    0.000 
#    0.000    0.000    0.000    0.000    0.000    0.000 
#
# Total GULP energy -133905.512455 kJ/mol
# GULP energy per Si atom -5579.396352 kJ/mol
# Density = 1.871700 g / cm^3
# Si number density = 18.759700 Si / 1000 Ang^3
#
#
#
# Elastic Constant Matrix: (Units=GPa)
#
#
# Indices 1 2 3 4 5 6 
#
# 1 42.1499 42.2500 60.1847 0.0000 0.0000 0.0000
# 2 42.2500 110.7725 78.3362 0.0000 0.0000 0.0000
# 3 60.1847 78.3362 154.9960 0.0000 0.0000 0.0000
# 4 0.0000 0.0000 0.0000 0.3952 0.0000 0.0000
# 5 0.0000 0.0000 0.0000 0.0000 43.1373 0.0000
# 6 0.0000 0.0000 0.0000 0.0000 0.0000 11.7813
#
#
#
# Elastic Compliance Matrix: (Units=1/GPa)
#
#
# Indices 1 2 3 4 5 6 
#
# 1 0.059476 -0.009887 -0.018098 0.000000 0.000000 0.000000
# 2 -0.009887 0.015692 -0.004092 0.000000 0.000000 0.000000
# 3 -0.018098 -0.004092 0.015547 0.000000 0.000000 0.000000
# 4 0.000000 0.000000 0.000000 2.530125 0.000000 0.000000
# 5 0.000000 0.000000 0.000000 0.000000 0.023182 0.000000
# 6 0.000000 0.000000 0.000000 0.000000 0.000000 0.084880
#
#
# Mechanical properties :
#
#
# Convention : Reuss Voigt Hill
#
# Bulk Modulus (GPa) = 37.64651 74.38447 56.01549
# Shear Modulus (GPa) = 1.78450 19.53928 10.66189
#
# Velocity S-wave (km/s) = 0.97637 3.23082 2.38657
# Velocity P-wave (km/s) = 4.62411 7.32495 6.12524
#
# Compressibility (1/GPa) = 0.02656289
#
# Stress axis : x y z
#
# Youngs Moduli (GPa) = 16.81350 63.72613 64.32019
#
# Poissons Ratio (x) = 0.63003 1.16405
# Poissons Ratio (y) = 0.16623 0.26320
# Poissons Ratio (z) = 0.30429 0.26077
#
# Static dielectric constant tensor:
#      x y z
#    x 1.647070 0.000000 0.000000 
#    y 0.000000 1.676750 0.000000 
#    z 0.000000 0.000000 1.635490 
# 
# From -- ./inp_files/24352.got.cif
#   From: 2010.05.17/outbox.cif.g08.bks.cpg/sg38_13_cif.got.tgz:24352.got - 2010.06.03 18:07:57.
