data_PCOD9358862
_publ_section_title
;
Structure prediction by ZEFSAII (Michael W. Deem and Ramdas Pophale) SiO2 
 PCOD9358862
Probable space group: A M M 2
;
_chemical_formula_sum "Si O2"
_cell_formula_units_Z 64
_cell_length_a 17.449312
_cell_length_b 21.831935
_cell_length_c 8.696793
_cell_angle_alpha 90.000000
_cell_angle_beta 90.000000
_cell_angle_gamma 90.000000
_cell_volume 3313.062821
_symmetry_space_group_name_H-M "A M M 2"
_symmetry_group_IT_number 38
_symmetry_cell_setting 'orthorhombic'
loop_
_space_group_symop_operation_xyz
x,y,z
-x,-y,z
-x,y,z
x,-y,z
x,1/2+y,1/2+z
-x,1/2-y,1/2+z
-x,1/2+y,1/2+z
x,1/2-y,1/2+z
loop_
_atom_site_type_symbol
_atom_site_label
_atom_site_fract_x
_atom_site_fract_y
_atom_site_fract_z
Si Si1 0.359465 0.662130 0.047820
Si Si2 0.088975 0.314732 0.165181
Si Si3 0.769951 0.365099 0.825504
Si Si4 0.586795 0.927781 0.784748
Si Si5 0.912940 0.071380 0.452691
Si Si6 0.588167 0.769743 0.237064
Si Si7 0.679687 0.145999 0.031193
Si Si8 0.814269 0.264279 0.421085
O O1 0.405480 0.606280 0.121072
O O2 0.359941 0.712016 0.185706
O O3 0.279968 0.635107 0.982851
O O4 0.393865 0.698202 0.900173
O O5 0.092778 0.383282 0.098170
O O6 0.129019 0.307930 0.328218
O O7 0.136709 0.270844 0.050789
O O8 0.000000 0.296157 0.169975
O O9 0.720653 0.384920 0.678829
O O10 0.847007 0.403587 0.841178
O O11 0.787798 0.292558 0.813764
O O12 0.500000 0.917371 0.842717
O O13 0.598724 0.000000 0.769109
O O14 0.648887 0.898634 0.900322
O O15 0.000000 0.078848 0.391632
O O16 0.901544 0.000000 0.488142
O O17 0.500000 0.749954 0.234171
O O18 0.607229 0.819017 0.105489
O O19 0.741484 0.196256 0.973610
#
# Coordination Sequence:
#
# PCOD9358862 Si02
#       8
#     8   8   8   8   8   8   8   8
#     4  11  23  38  60  91 123 155 199 251 308 363
#     4  10  21  36  59  89 123 160 198 243 297 356
#     4  10  22  38  61  93 127 158 195 251 306 359
#     4  11  26  46  63  83 118 164 208 251 304 367
#     4   9  20  39  63  89 120 162 207 247 291 351
#     4  11  21  36  62  92 121 154 196 251 309 363
#     4  11  23  38  61  90 122 158 198 248 301 361
#     4  11  20  37  57  89 126 158 189 243 302 357
#
# _framework density 19.317471999999999
#
# number of rings (size 3 to 8) (size 9 to 14) (size 15 to 20)
#    0.000    1.500    2.500    2.625    5.250    1.500 
#    0.000    1.875    0.000    6.750    0.000    1.750 
#    0.000    0.000    0.000    0.000    0.000    0.000 
#
# Total GULP energy -178527.400233 kJ/mol
# GULP energy per Si atom -5578.981257 kJ/mol
# Density = 1.927350 g / cm^3
# Si number density = 19.317472 Si / 1000 Ang^3
#
#
#
# Elastic Constant Matrix: (Units=GPa)
#
#
# Indices 1 2 3 4 5 6 
#
# 1 118.0939 59.6330 51.9247 0.0000 0.0000 0.0000
# 2 59.6330 105.5573 51.6007 0.0000 0.0000 0.0000
# 3 51.9247 51.6007 84.3984 0.0000 0.0000 0.0000
# 4 0.0000 0.0000 0.0000 14.6442 0.0000 0.0000
# 5 0.0000 0.0000 0.0000 0.0000 29.2972 0.0000
# 6 0.0000 0.0000 0.0000 0.0000 0.0000 30.1141
#
#
#
# Elastic Compliance Matrix: (Units=1/GPa)
#
#
# Indices 1 2 3 4 5 6 
#
# 1 0.013220 -0.004981 -0.005088 0.000000 0.000000 0.000000
# 2 -0.004981 0.015389 -0.006344 0.000000 0.000000 0.000000
# 3 -0.005088 -0.006344 0.018858 0.000000 0.000000 0.000000
# 4 0.000000 0.000000 0.000000 0.068286 0.000000 0.000000
# 5 0.000000 0.000000 0.000000 0.000000 0.034133 0.000000
# 6 0.000000 0.000000 0.000000 0.000000 0.000000 0.033207
#
#
# Mechanical properties :
#
#
# Convention : Reuss Voigt Hill
#
# Bulk Modulus (GPa) = 68.30575 70.48515 69.39545
# Shear Modulus (GPa) = 22.64491 24.47052 23.55772
#
# Velocity S-wave (km/s) = 3.42753 3.56301 3.49593
# Velocity P-wave (km/s) = 7.14845 7.31394 7.23167
#
# Compressibility (1/GPa) = 0.01464006
#
# Stress axis : x y z
#
# Youngs Moduli (GPa) = 75.64055 64.98189 53.02918
#
# Poissons Ratio (x) = 0.32370 0.26981
# Poissons Ratio (y) = 0.37680 0.33641
# Poissons Ratio (z) = 0.38486 0.41224
#
# Static dielectric constant tensor:
#      x y z
#    x 1.713770 0.000000 0.000000 
#    y 0.000000 1.660460 0.000000 
#    z 0.000000 0.000000 1.717220 
# 
# From -- ./inp_files/6512.got.cif
#   From: 2010.05.17/outbox.cif.g08.bks.cpg/sg38_4_cif.got.tgz:6512.got - 2010.06.03 18:07:57.
