data_PCOD9358510
_publ_section_title
;
Structure prediction by ZEFSAII (Michael W. Deem and Ramdas Pophale) SiO2 
 PCOD9358510
Probable space group: A M M 2
;
_chemical_formula_sum "Si O2"
_cell_formula_units_Z 24
_cell_length_a 7.922196
_cell_length_b 18.994666
_cell_length_c 8.903130
_cell_angle_alpha 90.000000
_cell_angle_beta 90.000000
_cell_angle_gamma 90.000000
_cell_volume 1339.738257
_symmetry_space_group_name_H-M "A M M 2"
_symmetry_group_IT_number 38
_symmetry_cell_setting 'orthorhombic'
loop_
_space_group_symop_operation_xyz
x,y,z
-x,-y,z
-x,y,z
x,-y,z
x,1/2+y,1/2+z
-x,1/2-y,1/2+z
-x,1/2+y,1/2+z
x,1/2-y,1/2+z
loop_
_atom_site_type_symbol
_atom_site_label
_atom_site_fract_x
_atom_site_fract_y
_atom_site_fract_z
Si Si1 0.310720 0.168905 0.992370
Si Si2 0.000000 0.917083 0.126640
Si Si3 0.192689 0.806685 0.659603
Si Si4 0.000000 0.582750 0.984774
O O1 0.500000 0.144372 0.026107
O O2 0.284253 0.176493 0.814117
O O3 0.281170 0.245380 0.066805
O O4 0.165456 0.118785 0.056724
O O5 0.000000 0.907248 0.306374
O O6 0.000000 0.000000 0.094650
O O7 0.000000 0.781849 0.697580
O O8 0.157940 0.875921 0.559078
O O9 0.000000 0.500000 0.019009
#
# Coordination Sequence:
#
# PCOD9358510 Si02
#       4
#     8   4   8   4
#     4  12  23  38  62  91 119 155 198 245 294 351
#     4  11  22  41  62  85 121 159 196 245 294 351
#     4  10  20  37  61  86 121 151 196 241 298 341
#     4   9  20  37  64  85 111 161 200 235 296 351
#
# _framework density 17.913948000000001
#
# number of rings (size 3 to 8) (size 9 to 14) (size 15 to 20)
#    1.000    0.333    3.333    3.000    0.000    3.333 
#    0.000    1.667    0.000    7.000    0.000    0.000 
#    0.000    0.000    0.000    0.000    0.000    0.000 
#
# Total GULP energy -66951.874191 kJ/mol
# GULP energy per Si atom -5579.322849 kJ/mol
# Density = 1.787318 g / cm^3
# Si number density = 17.913948 Si / 1000 Ang^3
#
#
#
# Elastic Constant Matrix: (Units=GPa)
#
#
# Indices 1 2 3 4 5 6 
#
# 1 143.3363 58.3814 47.5004 0.0000 0.0000 0.0000
# 2 58.3814 143.0980 88.7965 0.0000 0.0000 0.0000
# 3 47.5004 88.7965 118.7318 0.0000 0.0000 0.0000
# 4 0.0000 0.0000 0.0000 33.2605 0.0000 0.0000
# 5 0.0000 0.0000 0.0000 0.0000 2.7993 0.0000
# 6 0.0000 0.0000 0.0000 0.0000 0.0000 -0.6755
#
#
#
# Elastic Compliance Matrix: (Units=1/GPa)
#
#
# Indices 1 2 3 4 5 6 
#
# 1 0.008509 -0.002536 -0.001508 0.000000 0.000000 0.000000
# 2 -0.002536 0.013796 -0.009303 0.000000 0.000000 0.000000
# 3 -0.001508 -0.009303 0.015983 0.000000 0.000000 0.000000
# 4 0.000000 0.000000 0.000000 0.030066 0.000000 0.000000
# 5 0.000000 0.000000 0.000000 0.000000 0.357226 0.000000
# 6 0.000000 0.000000 0.000000 0.000000 0.000000 -1.480443
#
#
# Mechanical properties :
#
#
# Convention : Reuss Voigt Hill
#
# Bulk Modulus (GPa) = 86.24635 88.28030 87.26333
# Shear Modulus (GPa) = -4.88135 21.10939 8.11402
#
# Velocity S-wave (km/s) = -1.65251 3.43647 2.13056
# Velocity P-wave (km/s) = 6.67894 8.07050 7.40747
#
# Compressibility (1/GPa) = 0.01159469
#
# Stress axis : x y z
#
# Youngs Moduli (GPa) = 117.52052 72.48728 62.56759
#
# Poissons Ratio (x) = 0.18384 0.09432
# Poissons Ratio (y) = 0.29805 0.58205
# Poissons Ratio (z) = 0.17716 0.67433
#
# Static dielectric constant tensor:
#      x y z
#    x 1.625260 0.000000 0.000000 
#    y 0.000000 1.595220 0.000000 
#    z 0.000000 0.000000 1.592440 
# 
# From -- ./inp_files/2840.got.cif
#   From: 2010.05.17/outbox.cif.g08.bks.cpg/sg38_2_cif.got.tgz:2840.got - 2010.06.03 18:07:57.
