data_PCOD9358136
_publ_section_title
;
Structure prediction by ZEFSAII (Michael W. Deem and Ramdas Pophale) SiO2 
 PCOD9358136
Probable space group: A M M 2
;
_chemical_formula_sum "Si O2"
_cell_formula_units_Z 48
_cell_length_a 7.678507
_cell_length_b 23.958186
_cell_length_c 12.184684
_cell_angle_alpha 90.000000
_cell_angle_beta 90.000000
_cell_angle_gamma 90.000000
_cell_volume 2241.532228
_symmetry_space_group_name_H-M "A M M 2"
_symmetry_group_IT_number 38
_symmetry_cell_setting 'orthorhombic'
loop_
_space_group_symop_operation_xyz
x,y,z
-x,-y,z
-x,y,z
x,-y,z
x,1/2+y,1/2+z
-x,1/2-y,1/2+z
-x,1/2+y,1/2+z
x,1/2-y,1/2+z
loop_
_atom_site_type_symbol
_atom_site_label
_atom_site_fract_x
_atom_site_fract_y
_atom_site_fract_z
Si Si1 0.213981 0.147972 0.159250
Si Si2 0.793047 0.936459 0.338165
Si Si3 0.201971 0.843713 0.912845
Si Si4 0.209004 0.229520 0.711230
Si Si5 0.711198 0.936410 0.756201
Si Si6 0.706919 0.364096 0.049628
O O1 0.274688 0.094751 0.228974
O O2 0.265871 0.206602 0.214010
O O3 0.000000 0.145820 0.157895
O O4 0.276888 0.153135 0.034211
O O5 0.768695 0.892069 0.437131
O O6 0.000000 0.942133 0.325342
O O7 0.724543 0.000000 0.357789
O O8 0.279365 0.804266 0.817003
O O9 0.214070 0.904738 0.860289
O O10 0.000000 0.826735 0.925412
O O11 0.249183 0.197490 0.596548
O O12 0.000000 0.228762 0.718365
O O13 0.500000 0.933330 0.760138
O O14 0.771633 0.903938 0.647949
O O15 0.763624 0.000000 0.750875
O O16 0.500000 0.366922 0.045371
#
# Coordination Sequence:
#
# PCOD9358136 Si02
#       6
#     8   8   8   8   8   8
#     4   9  19  34  55  80 109 143 178 222 273 323
#     4  10  21  36  55  81 113 150 189 226 269 325
#     4   9  18  32  51  79 105 132 172 218 265 316
#     4   9  18  33  56  81 106 138 179 224 272 328
#     4   9  18  33  52  73 101 138 174 213 265 316
#     4  10  20  35  55  80 109 142 179 227 277 321
#
# _framework density 21.413923
#
# number of rings (size 3 to 8) (size 9 to 14) (size 15 to 20)
#    0.000    2.667    0.000    1.000    2.333    2.667 
#    0.000    4.167    0.000    0.000    0.000    0.000 
#    0.000    0.000    0.000    0.000    0.000    0.000 
#
# Total GULP energy -133814.020085 kJ/mol
# GULP energy per Si atom -5575.584170 kJ/mol
# Density = 2.136518 g / cm^3
# Si number density = 21.413923 Si / 1000 Ang^3
#
#
#
# Elastic Constant Matrix: (Units=GPa)
#
#
# Indices 1 2 3 4 5 6 
#
# 1 38.7800 5.8690 3.2456 0.0000 0.0000 0.0000
# 2 5.8690 84.7546 26.5991 0.0000 0.0000 0.0000
# 3 3.2456 26.5991 107.6898 0.0000 0.0000 0.0000
# 4 0.0000 0.0000 0.0000 13.5622 0.0000 0.0000
# 5 0.0000 0.0000 0.0000 0.0000 -16.6861 0.0000
# 6 0.0000 0.0000 0.0000 0.0000 0.0000 -24.6655
#
#
#
# Elastic Compliance Matrix: (Units=1/GPa)
#
#
# Indices 1 2 3 4 5 6 
#
# 1 0.026073 -0.001690 -0.000368 0.000000 0.000000 0.000000
# 2 -0.001690 0.012900 -0.003135 0.000000 0.000000 0.000000
# 3 -0.000368 -0.003135 0.010071 0.000000 0.000000 0.000000
# 4 0.000000 0.000000 0.000000 0.073734 0.000000 0.000000
# 5 0.000000 0.000000 0.000000 0.000000 -0.059930 0.000000
# 6 0.000000 0.000000 0.000000 0.000000 0.000000 -0.040542
#
#
# Mechanical properties :
#
#
# Convention : Reuss Voigt Hill
#
# Bulk Modulus (GPa) = 25.86845 33.62799 29.74822
# Shear Modulus (GPa) = 109.70020 7.47616 58.58818
#
# Velocity S-wave (km/s) = 7.16517 1.87052 5.23634
# Velocity P-wave (km/s) = 8.97548 4.51697 7.10501
#
# Compressibility (1/GPa) = 0.03865713
#
# Stress axis : x y z
#
# Youngs Moduli (GPa) = 38.35378 77.52089 99.29072
#
# Poissons Ratio (x) = 0.13100 0.03658
# Poissons Ratio (y) = 0.06481 0.31130
# Poissons Ratio (z) = 0.01413 0.24305
#
# Static dielectric constant tensor:
#      x y z
#    x 1.795540 0.000000 0.000000 
#    y 0.000000 1.789590 0.000000 
#    z 0.000000 0.000000 1.789710 
# 
# From -- ./inp_files/8108.got.cif
#   From: 2010.05.17/outbox.cif.g08.bks.cpg/sg38_5_cif.got.tgz:8108.got - 2010.06.03 18:07:57.
