data_PCOD9358539
_publ_section_title
;
Structure prediction by ZEFSAII (Michael W. Deem and Ramdas Pophale) SiO2 
 PCOD9358539
Probable space group: A M M 2
;
_chemical_formula_sum "Si O2"
_cell_formula_units_Z 48
_cell_length_a 8.142418
_cell_length_b 7.644689
_cell_length_c 35.214236
_cell_angle_alpha 90.000000
_cell_angle_beta 90.000000
_cell_angle_gamma 90.000000
_cell_volume 2191.954254
_symmetry_space_group_name_H-M "A M M 2"
_symmetry_group_IT_number 38
_symmetry_cell_setting 'orthorhombic'
loop_
_space_group_symop_operation_xyz
x,y,z
-x,-y,z
-x,y,z
x,-y,z
x,1/2+y,1/2+z
-x,1/2-y,1/2+z
-x,1/2+y,1/2+z
x,1/2-y,1/2+z
loop_
_atom_site_type_symbol
_atom_site_label
_atom_site_fract_x
_atom_site_fract_y
_atom_site_fract_z
Si Si1 0.699460 0.202423 0.591370
Si Si2 0.814293 0.212893 0.754383
Si Si3 0.692033 0.786241 0.673139
Si Si4 0.000000 0.800135 0.381562
Si Si5 0.678777 0.711625 0.333071
Si Si6 0.685230 0.296803 0.507169
Si Si7 0.000000 0.298533 0.466065
O O1 0.500000 0.206167 0.594316
O O2 0.758611 0.273759 0.632108
O O3 0.737949 0.289599 0.551414
O O4 0.750439 0.000000 0.588286
O O5 0.774072 0.274447 0.712014
O O6 0.701832 0.269788 0.789300
O O7 0.000000 0.259899 0.764333
O O8 0.803683 0.000000 0.752957
O O9 0.500000 0.741045 0.675920
O O10 0.701993 0.000000 0.672007
O O11 0.163374 0.765745 0.357120
O O12 0.000000 0.697163 0.420828
O O13 0.000000 0.000000 0.393355
O O14 0.500000 0.769893 0.347468
O O15 0.679561 0.500000 0.332981
O O16 0.500000 0.219819 0.504127
O O17 0.669314 0.500000 0.496160
O O18 0.831416 0.217898 0.482188
O O19 0.000000 0.500000 0.480235
#
# Coordination Sequence:
#
# PCOD9358539 Si02
#       7
#     8   8   8   4   8   8   4
#     4   8  14  26  45  70 104 142 177 218 265 314
#     4   9  15  25  45  75 110 141 179 232 277 313
#     4   8  13  22  38  65 101 139 179 222 268 312
#     4  12  26  42  60  85 120 149 177 226 287 350
#     4  10  20  37  63  89 113 148 193 237 281 332
#     4   9  18  34  56  79 103 135 175 219 268 320
#     4  10  22  40  60  81 106 135 175 224 273 328
#
# _framework density 21.898267000000001
#
# number of rings (size 3 to 8) (size 9 to 14) (size 15 to 20)
#    0.000    2.833    0.833    2.250    0.000    3.667 
#    1.500    1.667    0.000    1.000    0.000    2.333 
#    0.000    0.000    0.000    0.000    0.000    0.000 
#
# Total GULP energy -133812.002054 kJ/mol
# GULP energy per Si atom -5575.500086 kJ/mol
# Density = 2.184843 g / cm^3
# Si number density = 21.898267 Si / 1000 Ang^3
#
#
#
# Elastic Constant Matrix: (Units=GPa)
#
#
# Indices 1 2 3 4 5 6 
#
# 1 127.1500 6.5599 71.7869 0.0000 0.0000 0.0000
# 2 6.5599 42.9941 -5.0958 0.0000 0.0000 0.0000
# 3 71.7869 -5.0958 122.4715 0.0000 0.0000 0.0000
# 4 0.0000 0.0000 0.0000 6.5254 0.0000 0.0000
# 5 0.0000 0.0000 0.0000 0.0000 87.4592 0.0000
# 6 0.0000 0.0000 0.0000 0.0000 0.0000 -2.8467
#
#
#
# Elastic Compliance Matrix: (Units=1/GPa)
#
#
# Indices 1 2 3 4 5 6 
#
# 1 0.012057 -0.002690 -0.007179 0.000000 0.000000 0.000000
# 2 -0.002690 0.023975 0.002575 0.000000 0.000000 0.000000
# 3 -0.007179 0.002575 0.012480 0.000000 0.000000 0.000000
# 4 0.000000 0.000000 0.000000 0.153247 0.000000 0.000000
# 5 0.000000 0.000000 0.000000 0.000000 0.011434 0.000000
# 6 0.000000 0.000000 0.000000 0.000000 0.000000 -0.351282
#
#
# Mechanical properties :
#
#
# Convention : Reuss Voigt Hill
#
# Bulk Modulus (GPa) = 29.47957 48.79084 39.13520
# Shear Modulus (GPa) = -44.56617 32.85188 -5.85715
#
# Velocity S-wave (km/s) = -4.51615 3.87745 -1.63723
# Velocity P-wave (km/s) = 3.70174 6.50962 3.78631
#
# Compressibility (1/GPa) = 0.03392180
#
# Stress axis : x y z
#
# Youngs Moduli (GPa) = 82.94163 41.71078 80.12650
#
# Poissons Ratio (x) = 0.11222 0.57523
# Poissons Ratio (y) = 0.22315 -0.20629
# Poissons Ratio (z) = 0.59544 -0.10739
#
# Static dielectric constant tensor:
#      x y z
#    x 1.565800 0.000000 0.000000 
#    y 0.000000 1.863060 0.000000 
#    z 0.000000 0.000000 1.788440 
# 
# From -- ./inp_files/24354.got.cif
#   From: 2010.05.17/outbox.cif.g08.bks.cpg/sg38_13_cif.got.tgz:24354.got - 2010.06.03 18:07:57.
