data_PCOD9358101
_publ_section_title
;
Structure prediction by ZEFSAII (Michael W. Deem and Ramdas Pophale) SiO2 
 PCOD9358101
Probable space group: A M M 2
;
_chemical_formula_sum "Si O2"
_cell_formula_units_Z 64
_cell_length_a 8.534681
_cell_length_b 20.463880
_cell_length_c 20.812677
_cell_angle_alpha 90.000000
_cell_angle_beta 90.000000
_cell_angle_gamma 90.000000
_cell_volume 3634.989979
_symmetry_space_group_name_H-M "A M M 2"
_symmetry_group_IT_number 38
_symmetry_cell_setting 'orthorhombic'
loop_
_space_group_symop_operation_xyz
x,y,z
-x,-y,z
-x,y,z
x,-y,z
x,1/2+y,1/2+z
-x,1/2-y,1/2+z
-x,1/2+y,1/2+z
x,1/2-y,1/2+z
loop_
_atom_site_type_symbol
_atom_site_label
_atom_site_fract_x
_atom_site_fract_y
_atom_site_fract_z
Si Si1 0.189410 0.075169 0.563660
Si Si2 0.687548 0.424644 0.922688
Si Si3 0.809215 0.822588 0.817205
Si Si4 0.314005 0.823017 0.173492
Si Si5 0.189678 0.822056 0.671022
Si Si6 0.191171 0.574574 0.422872
Si Si7 0.187828 0.827018 0.315320
Si Si8 0.810924 0.424215 0.569791
O O1 0.250041 0.094105 0.493206
O O2 0.242375 0.125055 0.618765
O O3 0.000000 0.076174 0.562490
O O4 0.238626 0.000000 0.576143
O O5 0.500000 0.422867 0.923356
O O6 0.737698 0.500000 0.911120
O O7 0.749676 0.377168 0.867739
O O8 0.761797 0.839000 0.744112
O O9 0.753068 0.873663 0.870329
O O10 0.761990 0.747726 0.830391
O O11 0.000000 0.823944 0.818404
O O12 0.500000 0.820174 0.177451
O O13 0.249130 0.750878 0.157235
O O14 0.246865 0.841673 0.243509
O O15 0.261775 0.874963 0.120425
O O16 0.000000 0.820384 0.670138
O O17 0.239534 0.500000 0.408620
O O18 0.236694 0.590616 0.496134
O O19 0.000000 0.574997 0.421914
O O20 0.000000 0.828594 0.315068
O O21 0.769510 0.500000 0.582788
O O22 0.000000 0.419342 0.573069
#
# Coordination Sequence:
#
# PCOD9358101 Si02
#       8
#     8   8   8   8   8   8   8   8
#     4   9  18  33  53  77 104 136 175 216 258 306
#     4  10  21  36  53  75 104 135 168 210 258 309
#     4   8  15  28  47  73 101 128 161 201 245 290
#     4  11  22  35  52  74 101 134 172 214 259 307
#     4   9  18  33  52  75 105 138 172 213 257 302
#     4   8  14  26  47  75 103 128 157 197 244 293
#     4  10  20  35  54  75 101 133 168 208 254 304
#     4   9  18  33  52  74 101 133 167 204 251 307
#
# _framework density 17.606650999999999
#
# number of rings (size 3 to 8) (size 9 to 14) (size 15 to 20)
#    0.000    2.750    0.000    3.375    0.000    3.500 
#    0.000    5.000    0.000    3.000    0.000    0.000 
#    0.000    0.000    0.000    0.000    0.000    0.000 
#
# Total GULP energy -178451.555341 kJ/mol
# GULP energy per Si atom -5576.611104 kJ/mol
# Density = 1.756658 g / cm^3
# Si number density = 17.606651 Si / 1000 Ang^3
#
#
#
# Elastic Constant Matrix: (Units=GPa)
#
#
# Indices 1 2 3 4 5 6 
#
# 1 23.1378 27.9325 31.4072 0.0000 0.0000 0.0000
# 2 27.9325 127.0620 134.5783 0.0000 0.0000 0.0000
# 3 31.4072 134.5783 169.5175 0.0000 0.0000 0.0000
# 4 0.0000 0.0000 0.0000 44.1597 0.0000 0.0000
# 5 0.0000 0.0000 0.0000 0.0000 -2.3138 0.0000
# 6 0.0000 0.0000 0.0000 0.0000 0.0000 7.1257
#
#
#
# Elastic Compliance Matrix: (Units=1/GPa)
#
#
# Indices 1 2 3 4 5 6 
#
# 1 0.059262 -0.008788 -0.004003 0.000000 0.000000 0.000000
# 2 -0.008788 0.050755 -0.038666 0.000000 0.000000 0.000000
# 3 -0.004003 -0.038666 0.037337 0.000000 0.000000 0.000000
# 4 0.000000 0.000000 0.000000 0.022645 0.000000 0.000000
# 5 0.000000 0.000000 0.000000 0.000000 -0.432196 0.000000
# 6 0.000000 0.000000 0.000000 0.000000 0.000000 0.140338
#
#
# Mechanical properties :
#
#
# Convention : Reuss Voigt Hill
#
# Bulk Modulus (GPa) = 22.50189 78.61703 50.55946
# Shear Modulus (GPa) = -1210.00444 18.18095 -595.91174
#
# Velocity S-wave (km/s) = -26.24376 3.21692 -18.41720
# Velocity P-wave (km/s) = 30.09161 7.65160 20.57861
#
# Compressibility (1/GPa) = 0.04444071
#
# Stress axis : x y z
#
# Youngs Moduli (GPa) = 16.87422 19.70245 26.78296
#
# Poissons Ratio (x) = 0.17314 0.10722
# Poissons Ratio (y) = 0.14829 1.03558
# Poissons Ratio (z) = 0.06755 0.76181
#
# Static dielectric constant tensor:
#      x y z
#    x 1.590940 0.000000 0.000000 
#    y 0.000000 1.588500 0.000000 
#    z 0.000000 0.000000 1.579770 
# 
# From -- ./inp_files/17206.got.cif
#   From: 2010.05.17/outbox.cif.g08.bks.cpg/sg38_9_cif.got.tgz:17206.got - 2010.06.03 18:07:57.
