data_PCOD9358832
_publ_section_title
;
Structure prediction by ZEFSAII (Michael W. Deem and Ramdas Pophale) SiO2 
 PCOD9358832
Probable space group: A M M 2
;
_chemical_formula_sum "Si O2"
_cell_formula_units_Z 48
_cell_length_a 8.520851
_cell_length_b 31.668219
_cell_length_c 9.320353
_cell_angle_alpha 90.000000
_cell_angle_beta 90.000000
_cell_angle_gamma 90.000000
_cell_volume 2515.005690
_symmetry_space_group_name_H-M "A M M 2"
_symmetry_group_IT_number 38
_symmetry_cell_setting 'orthorhombic'
loop_
_space_group_symop_operation_xyz
x,y,z
-x,-y,z
-x,y,z
x,-y,z
x,1/2+y,1/2+z
-x,1/2-y,1/2+z
-x,1/2+y,1/2+z
x,1/2-y,1/2+z
loop_
_atom_site_type_symbol
_atom_site_label
_atom_site_fract_x
_atom_site_fract_y
_atom_site_fract_z
Si Si1 0.311899 0.287701 0.359430
Si Si2 0.310599 0.048116 0.523435
Si Si3 0.689503 0.871447 0.031583
Si Si4 0.812657 0.372514 0.853001
Si Si5 0.187993 0.791653 0.537023
Si Si6 0.308766 0.547505 0.355827
O O1 0.500000 0.284297 0.369597
O O2 0.262122 0.331160 0.437043
O O3 0.236416 0.248321 0.441491
O O4 0.262611 0.288421 0.193906
O O5 0.500000 0.050562 0.516580
O O6 0.240142 0.083397 0.421731
O O7 0.264545 0.055399 0.689863
O O8 0.265682 0.000000 0.485629
O O9 0.500000 0.872433 0.031810
O O10 0.746325 0.867424 0.193710
O O11 0.745794 0.914954 0.958142
O O12 0.000000 0.370871 0.845895
O O13 0.759028 0.334156 0.955342
O O14 0.000000 0.792730 0.551802
O O15 0.500000 0.547383 0.358885
O O16 0.257756 0.500000 0.395991
#
# Coordination Sequence:
#
# PCOD9358832 Si02
#       6
#     8   8   8   8   8   8
#     4  11  23  39  62  89 114 145 190 243 290 334
#     4   9  18  35  60  85 109 143 187 234 284 336
#     4  10  21  36  56  83 113 145 185 234 283 332
#     4  11  24  38  54  80 115 153 189 228 277 336
#     4  11  24  41  60  83 115 154 191 231 287 350
#     4   8  15  31  56  83 108 137 178 226 275 329
#
# _framework density 19.085443000000001
#
# number of rings (size 3 to 8) (size 9 to 14) (size 15 to 20)
#    0.000    2.000    0.000    4.500    0.000    9.000 
#    0.000    2.500    0.000    1.000    0.000    0.000 
#    0.000    0.000    0.000    0.000    0.000    0.000 
#
# Total GULP energy -134086.606290 kJ/mol
# GULP energy per Si atom -5586.941929 kJ/mol
# Density = 1.904200 g / cm^3
# Si number density = 19.085443 Si / 1000 Ang^3
#
#
#
# Elastic Constant Matrix: (Units=GPa)
#
#
# Indices 1 2 3 4 5 6 
#
# 1 2.3380 5.9452 -3.6784 0.0000 0.0000 0.0000
# 2 5.9452 122.8433 65.9422 0.0000 0.0000 0.0000
# 3 -3.6784 65.9422 114.4402 0.0000 0.0000 0.0000
# 4 0.0000 0.0000 0.0000 41.7777 0.0000 0.0000
# 5 0.0000 0.0000 0.0000 0.0000 -60.6377 0.0000
# 6 0.0000 0.0000 0.0000 0.0000 0.0000 19.7887
#
#
#
# Elastic Compliance Matrix: (Units=1/GPa)
#
#
# Indices 1 2 3 4 5 6 
#
# 1 0.688146 -0.065409 0.059808 0.000000 0.000000 0.000000
# 2 -0.065409 0.018003 -0.012476 0.000000 0.000000 0.000000
# 3 0.059808 -0.012476 0.017850 0.000000 0.000000 0.000000
# 4 0.000000 0.000000 0.000000 0.023936 0.000000 0.000000
# 5 0.000000 0.000000 0.000000 0.000000 -0.016491 0.000000
# 6 0.000000 0.000000 0.000000 0.000000 0.000000 0.050534
#
#
# Mechanical properties :
#
#
# Convention : Reuss Voigt Hill
#
# Bulk Modulus (GPa) = 1.45382 41.78216 21.61799
# Shear Modulus (GPa) = 4.77367 11.61324 8.19345
#
# Velocity S-wave (km/s) = 1.58324 2.46943 2.07421
# Velocity P-wave (km/s) = 2.02622 5.48365 4.13377
#
# Compressibility (1/GPa) = 0.68784511
#
# Stress axis : x y z
#
# Youngs Moduli (GPa) = 1.45318 55.54565 56.02394
#
# Poissons Ratio (x) = 3.63319 -3.35070
# Poissons Ratio (y) = 0.09505 0.69896
# Poissons Ratio (z) = -0.08691 0.69299
#
# Static dielectric constant tensor:
#      x y z
#    x 1.668940 0.000000 0.000000 
#    y 0.000000 1.657280 0.000000 
#    z 0.000000 0.000000 1.621480 
# 
# From -- ./inp_files/3722.got.cif
#   From: 2010.05.17/outbox.cif.g08.bks.cpg/sg38_2_cif.got.tgz:3722.got - 2010.06.03 18:07:57.
