data_PCOD9358854
_publ_section_title
;
Structure prediction by ZEFSAII (Michael W. Deem and Ramdas Pophale) SiO2 
 PCOD9358854
Probable space group: A M M 2
;
_chemical_formula_sum "Si O2"
_cell_formula_units_Z 48
_cell_length_a 14.508389
_cell_length_b 7.664610
_cell_length_c 21.324928
_cell_angle_alpha 90.000000
_cell_angle_beta 90.000000
_cell_angle_gamma 90.000000
_cell_volume 2371.356377
_symmetry_space_group_name_H-M "A M M 2"
_symmetry_group_IT_number 38
_symmetry_cell_setting 'orthorhombic'
loop_
_space_group_symop_operation_xyz
x,y,z
-x,-y,z
-x,y,z
x,-y,z
x,1/2+y,1/2+z
-x,1/2-y,1/2+z
-x,1/2+y,1/2+z
x,1/2-y,1/2+z
loop_
_atom_site_type_symbol
_atom_site_label
_atom_site_fract_x
_atom_site_fract_y
_atom_site_fract_z
Si Si1 0.889173 0.500000 0.190850
Si Si2 0.394829 0.708537 0.759541
Si Si3 0.108122 0.696402 0.928481
Si Si4 0.750195 0.788713 0.153355
Si Si5 0.734292 0.290080 0.512102
Si Si6 0.394961 0.209829 0.900108
Si Si7 0.888276 0.500000 0.337031
O O1 0.841546 0.673212 0.162865
O O2 0.863561 0.500000 0.264802
O O3 0.000000 0.500000 0.184073
O O4 0.500000 0.778096 0.753151
O O5 0.400393 0.500000 0.753365
O O6 0.323784 0.765681 0.706196
O O7 0.361642 0.747201 0.830114
O O8 0.119226 0.500000 0.905217
O O9 0.000000 0.727847 0.939764
O O10 0.142558 0.832625 0.876623
O O11 0.165910 0.722549 0.991312
O O12 0.712379 0.748107 0.083731
O O13 0.765933 0.000000 0.157617
O O14 0.736370 0.500000 0.508131
O O15 0.665325 0.224481 0.458149
O O16 0.500000 0.274892 0.904578
O O17 0.396937 0.000000 0.904591
O O18 0.000000 0.500000 0.337951
#
# Coordination Sequence:
#
# PCOD9358854 Si02
#       7
#     4   8   8   8   8   8   4
#     4  11  26  44  65  89 125 166 208 263 316 375
#     4   9  19  37  60  87 122 163 205 253 312 373
#     4  10  21  36  58  88 118 151 195 246 304 363
#     4  10  24  42  61  91 125 165 215 256 309 373
#     4  10  21  37  58  86 122 160 201 252 304 357
#     4   9  19  35  59  90 121 158 201 246 305 367
#     4   9  20  40  60  85 115 148 193 249 305 355
#
# _framework density 20.241579999999999
#
# number of rings (size 3 to 8) (size 9 to 14) (size 15 to 20)
#    0.000    2.333    0.833    0.000    4.667    3.000 
#    0.000    6.667    0.000    0.000    0.000    0.000 
#    0.000    0.000    0.000    0.000    0.000    0.000 
#
# Total GULP energy -133960.521567 kJ/mol
# GULP energy per Si atom -5581.688399 kJ/mol
# Density = 2.019551 g / cm^3
# Si number density = 20.241580 Si / 1000 Ang^3
#
#
#
# Elastic Constant Matrix: (Units=GPa)
#
#
# Indices 1 2 3 4 5 6 
#
# 1 102.7499 34.7805 81.1436 0.0000 0.0000 0.0000
# 2 34.7805 54.2991 41.5719 0.0000 0.0000 0.0000
# 3 81.1436 41.5719 169.3626 0.0000 0.0000 0.0000
# 4 0.0000 0.0000 0.0000 14.9065 0.0000 0.0000
# 5 0.0000 0.0000 0.0000 0.0000 17.5795 0.0000
# 6 0.0000 0.0000 0.0000 0.0000 0.0000 14.1647
#
#
#
# Elastic Compliance Matrix: (Units=1/GPa)
#
#
# Indices 1 2 3 4 5 6 
#
# 1 0.016989 -0.005726 -0.006734 0.000000 0.000000 0.000000
# 2 -0.005726 0.024609 -0.003297 0.000000 0.000000 0.000000
# 3 -0.006734 -0.003297 0.009940 0.000000 0.000000 0.000000
# 4 0.000000 0.000000 0.000000 0.067085 0.000000 0.000000
# 5 0.000000 0.000000 0.000000 0.000000 0.056885 0.000000
# 6 0.000000 0.000000 0.000000 0.000000 0.000000 0.070598
#
#
# Mechanical properties :
#
#
# Convention : Reuss Voigt Hill
#
# Bulk Modulus (GPa) = 49.94243 71.26706 60.60474
# Shear Modulus (GPa) = 17.58750 20.59117 19.08933
#
# Velocity S-wave (km/s) = 2.95087 3.19293 3.07428
# Velocity P-wave (km/s) = 6.02801 6.99126 6.52743
#
# Compressibility (1/GPa) = 0.02002306
#
# Stress axis : x y z
#
# Youngs Moduli (GPa) = 58.86325 40.63625 100.60355
#
# Poissons Ratio (x) = 0.23270 0.67745
# Poissons Ratio (y) = 0.33707 0.33168
# Poissons Ratio (z) = 0.39637 0.13397
#
# Static dielectric constant tensor:
#      x y z
#    x 1.728320 0.000000 0.000000 
#    y 0.000000 1.738280 0.000000 
#    z 0.000000 0.000000 1.700060 
# 
# From -- ./inp_files/18194.got.cif
#   From: 2010.05.17/outbox.cif.g08.bks.cpg/sg38_10_cif.got.tgz:18194.got - 2010.06.03 18:07:57.
