data_PCOD9358057
_publ_section_title
;
Structure prediction by ZEFSAII (Michael W. Deem and Ramdas Pophale) SiO2 
 PCOD9358057
Probable space group: A M M 2
;
_chemical_formula_sum "Si O2"
_cell_formula_units_Z 40
_cell_length_a 7.906592
_cell_length_b 9.320711
_cell_length_c 29.803143
_cell_angle_alpha 90.000000
_cell_angle_beta 90.000000
_cell_angle_gamma 90.000000
_cell_volume 2196.344383
_symmetry_space_group_name_H-M "A M M 2"
_symmetry_group_IT_number 38
_symmetry_cell_setting 'orthorhombic'
loop_
_space_group_symop_operation_xyz
x,y,z
-x,-y,z
-x,y,z
x,-y,z
x,1/2+y,1/2+z
-x,1/2-y,1/2+z
-x,1/2+y,1/2+z
x,1/2-y,1/2+z
loop_
_atom_site_type_symbol
_atom_site_label
_atom_site_fract_x
_atom_site_fract_y
_atom_site_fract_z
Si Si1 0.806005 0.825486 0.739980
Si Si2 0.204257 0.335246 0.340543
Si Si3 0.500000 0.326978 0.579801
Si Si4 0.811317 0.670679 0.515851
Si Si5 0.299827 0.164477 0.428571
Si Si6 0.500000 0.326101 0.175207
O O1 0.751962 0.782673 0.790443
O O2 0.667143 0.783792 0.703482
O O3 0.000000 0.778023 0.731311
O O4 0.809932 0.000000 0.741017
O O5 0.263745 0.500000 0.345920
O O6 0.268422 0.239440 0.381005
O O7 0.000000 0.337607 0.342088
O O8 0.500000 0.500000 0.586040
O O9 0.334835 0.287857 0.550586
O O10 0.500000 0.247439 0.627020
O O11 0.794404 0.500000 0.507740
O O12 0.787974 0.750510 0.468803
O O13 0.000000 0.698272 0.533594
O O14 0.500000 0.167122 0.437745
O O15 0.241976 0.000000 0.427308
O O16 0.500000 0.500000 0.171020
#
# Coordination Sequence:
#
# PCOD9358057 Si02
#       6
#     8   8   4   8   8   4
#     4   8  16  32  53  80 110 138 178 226 262 305
#     4   9  18  33  54  79 107 143 187 226 261 311
#     4  10  22  40  57  80 111 137 170 227 279 320
#     4  10  21  39  62  82 103 140 186 224 266 322
#     4  11  23  35  50  79 117 149 179 219 269 323
#     4  10  20  34  57  82 105 139 178 219 271 324
#
# _framework density 18.212078999999999
#
# number of rings (size 3 to 8) (size 9 to 14) (size 15 to 20)
#    0.000    2.400    1.000    2.400    1.400    6.000 
#    0.000    1.000    0.000    1.200    0.000    0.000 
#    0.000    0.000    0.000    0.000    0.000    0.000 
#
# Total GULP energy -111597.536763 kJ/mol
# GULP energy per Si atom -5579.876838 kJ/mol
# Density = 1.817063 g / cm^3
# Si number density = 18.212079 Si / 1000 Ang^3
#
#
#
# Elastic Constant Matrix: (Units=GPa)
#
#
# Indices 1 2 3 4 5 6 
#
# 1 114.0082 40.6435 85.1657 0.0000 0.0000 0.0000
# 2 40.6435 36.4924 52.5030 0.0000 0.0000 0.0000
# 3 85.1657 52.5030 158.0353 0.0000 0.0000 0.0000
# 4 0.0000 0.0000 0.0000 33.3283 0.0000 0.0000
# 5 0.0000 0.0000 0.0000 0.0000 -4.7933 0.0000
# 6 0.0000 0.0000 0.0000 0.0000 0.0000 11.0420
#
#
#
# Elastic Compliance Matrix: (Units=1/GPa)
#
#
# Indices 1 2 3 4 5 6 
#
# 1 0.016637 -0.010785 -0.005383 0.000000 0.000000 0.000000
# 2 -0.010785 0.059486 -0.013950 0.000000 0.000000 0.000000
# 3 -0.005383 -0.013950 0.013863 0.000000 0.000000 0.000000
# 4 0.000000 0.000000 0.000000 0.030005 0.000000 0.000000
# 5 0.000000 0.000000 0.000000 0.000000 -0.208624 0.000000
# 6 0.000000 0.000000 0.000000 0.000000 0.000000 0.090564
#
#
# Mechanical properties :
#
#
# Convention : Reuss Voigt Hill
#
# Bulk Modulus (GPa) = 33.61404 73.90668 53.76036
# Shear Modulus (GPa) = 69.36343 16.59696 42.98020
#
# Velocity S-wave (km/s) = 6.17812 3.02208 4.86324
# Velocity P-wave (km/s) = 8.33002 7.26956 7.81779
#
# Compressibility (1/GPa) = 0.02974947
#
# Stress axis : x y z
#
# Youngs Moduli (GPa) = 60.10627 16.81063 72.13412
#
# Poissons Ratio (x) = 0.18131 0.38827
# Poissons Ratio (y) = 0.64827 1.00630
# Poissons Ratio (z) = 0.32353 0.23451
#
# Static dielectric constant tensor:
#      x y z
#    x 1.650960 0.000000 0.000000 
#    y 0.000000 1.612070 0.000000 
#    z 0.000000 0.000000 1.590140 
# 
# From -- ./inp_files/23186.got.cif
#   From: 2010.05.17/outbox.cif.g08.bks.cpg/sg38_12_cif.got.tgz:23186.got - 2010.06.03 18:07:57.
