data_PCOD9358558
_publ_section_title
;
Structure prediction by ZEFSAII (Michael W. Deem and Ramdas Pophale) SiO2 
 PCOD9358558
Probable space group: A M M 2
;
_chemical_formula_sum "Si O2"
_cell_formula_units_Z 48
_cell_length_a 10.405072
_cell_length_b 8.025491
_cell_length_c 27.941920
_cell_angle_alpha 90.000000
_cell_angle_beta 90.000000
_cell_angle_gamma 90.000000
_cell_volume 2333.312710
_symmetry_space_group_name_H-M "A M M 2"
_symmetry_group_IT_number 38
_symmetry_cell_setting 'orthorhombic'
loop_
_space_group_symop_operation_xyz
x,y,z
-x,-y,z
-x,y,z
x,-y,z
x,1/2+y,1/2+z
-x,1/2-y,1/2+z
-x,1/2+y,1/2+z
x,1/2-y,1/2+z
loop_
_atom_site_type_symbol
_atom_site_label
_atom_site_fract_x
_atom_site_fract_y
_atom_site_fract_z
Si Si1 0.854739 0.703782 0.132380
Si Si2 0.500000 0.695204 0.769689
Si Si3 0.000000 0.194532 0.917055
Si Si4 0.500000 0.797491 0.879433
Si Si5 0.000000 0.309904 0.811221
Si Si6 0.644162 0.200905 0.556547
Si Si7 0.218611 0.302673 0.239284
Si Si8 0.273558 0.798332 0.950137
O O1 0.852547 0.500000 0.132208
O O2 0.750258 0.762540 0.094058
O O3 0.819384 0.756619 0.186211
O O4 0.000000 0.755533 0.120579
O O5 0.500000 0.500000 0.759307
O O6 0.500000 0.725475 0.826567
O O7 0.368300 0.770945 0.749227
O O8 0.000000 0.204481 0.859654
O O9 0.868123 0.267002 0.937727
O O10 0.000000 0.000000 0.930741
O O11 0.375589 0.745322 0.909913
O O12 0.500000 0.000000 0.875522
O O13 0.874639 0.276388 0.778852
O O14 0.000000 0.500000 0.827039
O O15 0.500000 0.262136 0.567119
O O16 0.681221 0.246259 0.502543
O O17 0.642192 0.000000 0.559988
O O18 0.193973 0.500000 0.241317
O O19 0.272405 0.000000 0.948634
#
# Coordination Sequence:
#
# PCOD9358558 Si02
#       8
#     8   4   4   4   4   8   8   8
#     4   9  19  37  62  90 115 149 201 249 289 353
#     4  12  26  40  59  94 131 159 200 263 317 358
#     4  10  22  38  59  86 117 159 208 247 287 360
#     4  10  20  38  61  82 111 161 210 243 291 366
#     4  12  24  40  63  94 129 159 198 261 321 362
#     4  10  21  36  59  89 119 150 191 247 305 354
#     4  11  22  41  67  90 120 168 214 248 296 371
#     4  10  21  38  59  84 117 155 199 246 292 353
#
# _framework density 20.57161
#
# number of rings (size 3 to 8) (size 9 to 14) (size 15 to 20)
#    0.000    1.667    1.667    3.000    2.333    2.667 
#    0.000    1.667    0.000    0.000    0.000    0.000 
#    0.000    0.000    0.000    0.000    0.000    0.000 
#
# Total GULP energy -134158.150220 kJ/mol
# GULP energy per Si atom -5589.922926 kJ/mol
# Density = 2.052479 g / cm^3
# Si number density = 20.571610 Si / 1000 Ang^3
#
#
#
# Elastic Constant Matrix: (Units=GPa)
#
#
# Indices 1 2 3 4 5 6 
#
# 1 194.1195 -2.6079 62.9202 0.0000 0.0000 0.0000
# 2 -2.6079 16.5898 -13.3556 0.0000 0.0000 0.0000
# 3 62.9202 -13.3556 90.4836 0.0000 0.0000 0.0000
# 4 0.0000 0.0000 0.0000 20.1689 0.0000 0.0000
# 5 0.0000 0.0000 0.0000 0.0000 43.1254 0.0000
# 6 0.0000 0.0000 0.0000 0.0000 0.0000 28.1595
#
#
#
# Elastic Compliance Matrix: (Units=1/GPa)
#
#
# Indices 1 2 3 4 5 6 
#
# 1 0.006788 -0.003102 -0.005178 0.000000 0.000000 0.000000
# 2 -0.003102 0.069824 0.012463 0.000000 0.000000 0.000000
# 3 -0.005178 0.012463 0.016492 0.000000 0.000000 0.000000
# 4 0.000000 0.000000 0.000000 0.049581 0.000000 0.000000
# 5 0.000000 0.000000 0.000000 0.000000 0.023188 0.000000
# 6 0.000000 0.000000 0.000000 0.000000 0.000000 0.035512
#
#
# Mechanical properties :
#
#
# Convention : Reuss Voigt Hill
#
# Bulk Modulus (GPa) = 9.85511 43.90071 26.87791
# Shear Modulus (GPa) = 22.04174 35.23984 28.64079
#
# Velocity S-wave (km/s) = 3.27687 4.14337 3.73533
# Velocity P-wave (km/s) = 4.37244 6.65408 5.63005
#
# Compressibility (1/GPa) = 0.10147022
#
# Stress axis : x y z
#
# Youngs Moduli (GPa) = 147.31454 14.32179 60.63534
#
# Poissons Ratio (x) = 0.04442 0.31398
# Poissons Ratio (y) = 0.45690 -0.75569
# Poissons Ratio (z) = 0.76282 -0.17849
#
# Static dielectric constant tensor:
#      x y z
#    x 1.746630 0.000000 0.000000 
#    y 0.000000 1.745610 0.000000 
#    z 0.000000 0.000000 1.677890 
# 
# From -- ./inp_files/24480.got.cif
#   From: 2010.05.17/outbox.cif.g08.bks.cpg/sg38_13_cif.got.tgz:24480.got - 2010.06.03 18:07:57.
