data_PCOD9358583
_publ_section_title
;
Structure prediction by ZEFSAII (Michael W. Deem and Ramdas Pophale) SiO2 
 PCOD9358583
Probable space group: A M M 2
;
_chemical_formula_sum "Si O2"
_cell_formula_units_Z 56
_cell_length_a 13.533671
_cell_length_b 19.473796
_cell_length_c 9.882197
_cell_angle_alpha 90.000000
_cell_angle_beta 90.000000
_cell_angle_gamma 90.000000
_cell_volume 2604.472272
_symmetry_space_group_name_H-M "A M M 2"
_symmetry_group_IT_number 38
_symmetry_cell_setting 'orthorhombic'
loop_
_space_group_symop_operation_xyz
x,y,z
-x,-y,z
-x,y,z
x,-y,z
x,1/2+y,1/2+z
-x,1/2-y,1/2+z
-x,1/2+y,1/2+z
x,1/2-y,1/2+z
loop_
_atom_site_type_symbol
_atom_site_label
_atom_site_fract_x
_atom_site_fract_y
_atom_site_fract_z
Si Si1 0.381792 0.423653 0.588240
Si Si2 0.111721 0.805423 0.030446
Si Si3 0.112281 0.081194 0.836148
Si Si4 0.742610 0.576568 0.860390
Si Si5 0.387158 0.811274 0.862852
Si Si6 0.200892 0.279540 0.803554
Si Si7 0.691522 0.079729 0.668286
O O1 0.500000 0.423277 0.602263
O O2 0.353670 0.500000 0.533324
O O3 0.332108 0.417467 0.734446
O O4 0.358600 0.360179 0.489790
O O5 0.181838 0.775228 0.144545
O O6 0.000000 0.801840 0.080645
O O7 0.133431 0.882476 0.979586
O O8 0.125734 0.764331 0.891735
O O9 0.198913 0.096486 0.728845
O O10 0.000000 0.101718 0.795094
O O11 0.112440 0.000000 0.853413
O O12 0.787244 0.500000 0.856662
O O13 0.812897 0.641252 0.842623
O O14 0.692421 0.584121 0.006770
O O15 0.500000 0.787543 0.877930
O O16 0.308704 0.750613 0.841207
O O17 0.378047 0.864469 0.737786
O O18 0.668402 0.000000 0.703547
#
# Coordination Sequence:
#
# PCOD9358583 Si02
#       7
#     8   8   8   8   8   8   8
#     4   9  19  38  63  90 121 162 215 266 313 368
#     4  11  24  43  68  95 127 167 212 263 323 391
#     4   9  19  38  67  99 128 164 214 269 323 381
#     4  10  23  40  60  88 124 166 206 256 322 381
#     4  11  23  40  63  93 126 169 219 268 316 378
#     4  12  24  42  63  93 129 167 212 263 325 383
#     4  10  20  38  63  93 130 169 212 263 317 381
#
# _framework density 21.501476
#
# number of rings (size 3 to 8) (size 9 to 14) (size 15 to 20)
#    0.000    1.714    1.429    2.571    0.000    2.571 
#    0.000    5.714    0.000    2.143    0.000    0.000 
#    0.000    0.000    0.000    0.000    0.000    0.000 
#
# Total GULP energy -156406.371704 kJ/mol
# GULP energy per Si atom -5585.941847 kJ/mol
# Density = 2.145254 g / cm^3
# Si number density = 21.501476 Si / 1000 Ang^3
#
#
#
# Elastic Constant Matrix: (Units=GPa)
#
#
# Indices 1 2 3 4 5 6 
#
# 1 91.9842 20.1850 17.3899 0.0000 0.0000 0.0000
# 2 20.1850 78.1422 24.7622 0.0000 0.0000 0.0000
# 3 17.3899 24.7622 112.1664 0.0000 0.0000 0.0000
# 4 0.0000 0.0000 0.0000 31.2089 0.0000 0.0000
# 5 0.0000 0.0000 0.0000 0.0000 8.5534 0.0000
# 6 0.0000 0.0000 0.0000 0.0000 0.0000 22.5843
#
#
#
# Elastic Compliance Matrix: (Units=1/GPa)
#
#
# Indices 1 2 3 4 5 6 
#
# 1 0.011681 -0.002627 -0.001231 0.000000 0.000000 0.000000
# 2 -0.002627 0.014351 -0.002761 0.000000 0.000000 0.000000
# 3 -0.001231 -0.002761 0.009716 0.000000 0.000000 0.000000
# 4 0.000000 0.000000 0.000000 0.032042 0.000000 0.000000
# 5 0.000000 0.000000 0.000000 0.000000 0.116913 0.000000
# 6 0.000000 0.000000 0.000000 0.000000 0.000000 0.044279
#
#
# Mechanical properties :
#
#
# Convention : Reuss Voigt Hill
#
# Bulk Modulus (GPa) = 44.42637 45.21855 44.82246
# Shear Modulus (GPa) = 20.02232 27.13304 23.57768
#
# Velocity S-wave (km/s) = 3.05488 3.55620 3.31503
# Velocity P-wave (km/s) = 5.75760 6.15940 5.96188
#
# Compressibility (1/GPa) = 0.02250915
#
# Stress axis : x y z
#
# Youngs Moduli (GPa) = 85.61166 69.68323 102.92675
#
# Poissons Ratio (x) = 0.18307 0.12670
# Poissons Ratio (y) = 0.22492 0.28416
# Poissons Ratio (z) = 0.10538 0.19238
#
# Static dielectric constant tensor:
#      x y z
#    x 1.797410 0.000000 0.000000 
#    y 0.000000 1.825510 0.000000 
#    z 0.000000 0.000000 1.764380 
# 
# From -- ./inp_files/5681.got.cif
#   From: 2010.05.17/outbox.cif.g08.bks.cpg/sg38_3_cif.got.tgz:5681.got - 2010.06.03 18:07:57.
