data_PCOD9358227
_publ_section_title
;
Structure prediction by ZEFSAII (Michael W. Deem and Ramdas Pophale) SiO2 
 PCOD9358227
Probable space group: A M M 2
;
_chemical_formula_sum "Si O2"
_cell_formula_units_Z 64
_cell_length_a 14.212133
_cell_length_b 8.948518
_cell_length_c 26.778400
_cell_angle_alpha 90.000000
_cell_angle_beta 90.000000
_cell_angle_gamma 90.000000
_cell_volume 3405.610715
_symmetry_space_group_name_H-M "A M M 2"
_symmetry_group_IT_number 38
_symmetry_cell_setting 'orthorhombic'
loop_
_space_group_symop_operation_xyz
x,y,z
-x,-y,z
-x,y,z
x,-y,z
x,1/2+y,1/2+z
-x,1/2-y,1/2+z
-x,1/2+y,1/2+z
x,1/2-y,1/2+z
loop_
_atom_site_type_symbol
_atom_site_label
_atom_site_fract_x
_atom_site_fract_y
_atom_site_fract_z
Si Si1 0.392000 0.178897 0.302590
Si Si2 0.385773 0.169818 0.906346
Si Si3 0.794409 0.320299 0.753647
Si Si4 0.390119 0.822167 0.510083
Si Si5 0.786781 0.179228 0.050213
Si Si6 0.108408 0.317831 0.651414
Si Si7 0.113647 0.824981 0.454953
Si Si8 0.886480 0.325897 0.350703
O O1 0.500000 0.221942 0.291593
O O2 0.359515 0.258616 0.353549
O O3 0.316301 0.213595 0.260035
O O4 0.390889 0.000000 0.311105
O O5 0.500000 0.165707 0.905449
O O6 0.351537 0.000000 0.911924
O O7 0.361824 0.267861 0.954459
O O8 0.805256 0.500000 0.756013
O O9 0.839193 0.268081 0.701754
O O10 0.845613 0.251266 0.801565
O O11 0.500000 0.782893 0.517719
O O12 0.318987 0.741146 0.547165
O O13 0.380893 0.000000 0.513346
O O14 0.838595 0.227394 0.100973
O O15 0.786308 0.000000 0.047787
O O16 0.841484 0.243490 0.002304
O O17 0.108380 0.500000 0.651849
O O18 0.000000 0.268786 0.651267
O O19 0.143664 0.752378 0.402345
O O20 0.000000 0.811993 0.457982
O O21 0.138279 0.000000 0.455586
O O22 0.860528 0.500000 0.351762
O O23 0.000000 0.315242 0.348609
#
# Coordination Sequence:
#
# PCOD9358227 Si02
#       8
#     8   8   8   8   8   8   8   8
#     4   9  18  32  50  76 112 150 187 228 275 328
#     4   9  17  30  50  76 107 145 187 229 274 326
#     4  10  20  35  58  83 109 147 193 235 279 338
#     4  10  21  37  56  79 112 152 192 234 282 339
#     4  11  22  36  58  85 113 147 190 240 292 344
#     4   9  19  37  60  85 112 144 186 236 290 345
#     4  10  21  37  57  82 113 149 188 231 284 350
#     4  10  21  36  54  80 114 147 180 227 289 348
#
# _framework density 18.792518000000001
#
# number of rings (size 3 to 8) (size 9 to 14) (size 15 to 20)
#    0.000    2.250    0.000    2.625    1.750    5.250 
#    0.000    1.875    0.000    5.250    0.000    1.750 
#    0.000    0.000    0.000    0.000    0.000    0.000 
#
# Total GULP energy -178724.067879 kJ/mol
# GULP energy per Si atom -5585.127121 kJ/mol
# Density = 1.874975 g / cm^3
# Si number density = 18.792518 Si / 1000 Ang^3
#
#
#
# Elastic Constant Matrix: (Units=GPa)
#
#
# Indices 1 2 3 4 5 6 
#
# 1 111.7853 47.0968 89.9534 0.0000 0.0000 0.0000
# 2 47.0968 59.1493 51.6264 0.0000 0.0000 0.0000
# 3 89.9534 51.6264 167.4381 0.0000 0.0000 0.0000
# 4 0.0000 0.0000 0.0000 23.3396 0.0000 0.0000
# 5 0.0000 0.0000 0.0000 0.0000 35.7028 0.0000
# 6 0.0000 0.0000 0.0000 0.0000 0.0000 25.1467
#
#
#
# Elastic Compliance Matrix: (Units=1/GPa)
#
#
# Indices 1 2 3 4 5 6 
#
# 1 0.018252 -0.008174 -0.007285 0.000000 0.000000 0.000000
# 2 -0.008174 0.026792 -0.003869 0.000000 0.000000 0.000000
# 3 -0.007285 -0.003869 0.011079 0.000000 0.000000 0.000000
# 4 0.000000 0.000000 0.000000 0.042846 0.000000 0.000000
# 5 0.000000 0.000000 0.000000 0.000000 0.028009 0.000000
# 6 0.000000 0.000000 0.000000 0.000000 0.000000 0.039767
#
#
# Mechanical properties :
#
#
# Convention : Reuss Voigt Hill
#
# Bulk Modulus (GPa) = 57.25472 79.52510 68.38991
# Shear Modulus (GPa) = 23.67146 26.81757 25.24452
#
# Velocity S-wave (km/s) = 3.55297 3.78171 3.66912
# Velocity P-wave (km/s) = 6.88217 7.84077 7.37706
#
# Compressibility (1/GPa) = 0.01746581
#
# Stress axis : x y z
#
# Youngs Moduli (GPa) = 54.78823 37.32412 90.25854
#
# Poissons Ratio (x) = 0.30510 0.65756
# Poissons Ratio (y) = 0.44786 0.34925
# Poissons Ratio (z) = 0.39915 0.14442
#
# Static dielectric constant tensor:
#      x y z
#    x 1.698990 0.000000 0.000000 
#    y 0.000000 1.633970 0.000000 
#    z 0.000000 0.000000 1.607800 
# 
# From -- ./inp_files/22962.got.cif
#   From: 2010.05.17/outbox.cif.g08.bks.cpg/sg38_12_cif.got.tgz:22962.got - 2010.06.03 18:07:57.
