data_PCOD9358086
_publ_section_title
;
Structure prediction by ZEFSAII (Michael W. Deem and Ramdas Pophale) SiO2 
 PCOD9358086
Probable space group: A M M 2
;
_chemical_formula_sum "Si O2"
_cell_formula_units_Z 64
_cell_length_a 14.056809
_cell_length_b 27.985069
_cell_length_c 9.554552
_cell_angle_alpha 90.000000
_cell_angle_beta 90.000000
_cell_angle_gamma 90.000000
_cell_volume 3758.577021
_symmetry_space_group_name_H-M "A M M 2"
_symmetry_group_IT_number 38
_symmetry_cell_setting 'orthorhombic'
loop_
_space_group_symop_operation_xyz
x,y,z
-x,-y,z
-x,y,z
x,-y,z
x,1/2+y,1/2+z
-x,1/2-y,1/2+z
-x,1/2+y,1/2+z
x,1/2-y,1/2+z
loop_
_atom_site_type_symbol
_atom_site_label
_atom_site_fract_x
_atom_site_fract_y
_atom_site_fract_z
Si Si1 0.387971 0.875670 0.308490
Si Si2 0.111379 0.556912 0.130527
Si Si3 0.286087 0.556024 0.617687
Si Si4 0.716800 0.089402 0.803186
Si Si5 0.384719 0.690272 0.348870
Si Si6 0.615221 0.219533 0.165741
Si Si7 0.893325 0.057745 0.303762
Si Si8 0.385745 0.552394 0.040715
O O1 0.500000 0.868976 0.332431
O O2 0.370160 0.911909 0.180673
O O3 0.348686 0.824351 0.262145
O O4 0.350496 0.904196 0.443573
O O5 0.132332 0.500000 0.147788
O O6 0.180955 0.586818 0.228224
O O7 0.000000 0.563558 0.162485
O O8 0.125400 0.569054 0.966608
O O9 0.301705 0.500000 0.644236
O O10 0.276472 0.565261 0.454048
O O11 0.190919 0.572434 0.700437
O O12 0.671144 0.141531 0.821703
O O13 0.649181 0.060536 0.697054
O O14 0.500000 0.682334 0.343825
O O15 0.358726 0.729919 0.233018
O O16 0.360561 0.710267 0.503874
O O17 0.500000 0.217983 0.170619
O O18 0.000000 0.074966 0.266846
O O19 0.896235 0.000000 0.296843
O O20 0.500000 0.552433 0.035360
O O21 0.352459 0.500000 0.989828
#
# Coordination Sequence:
#
# PCOD9358086 Si02
#       8
#     8   8   8   8   8   8   8   8
#     4  10  20  35  52  72 101 138 181 222 258 311
#     4   9  18  34  55  78 108 147 186 221 259 312
#     4  11  21  31  48  75 108 143 173 210 265 322
#     4  12  22  33  50  79 113 143 174 225 269 324
#     4  10  21  37  56  78 105 139 181 229 281 328
#     4   9  19  36  56  76  99 131 177 231 277 315
#     4   8  16  33  54  73  97 134 179 221 258 302
#     4  10  21  34  48  70 105 150 190 215 251 316
#
# _framework density 17.027719999999999
#
# number of rings (size 3 to 8) (size 9 to 14) (size 15 to 20)
#    0.000    2.125    1.250    3.375    1.750    2.750 
#    0.000    1.250    0.000    0.000    0.000    1.750 
#    0.000    0.000    0.000    0.000    0.000    0.000 
#
# Total GULP energy -178442.959702 kJ/mol
# GULP energy per Si atom -5576.342491 kJ/mol
# Density = 1.698896 g / cm^3
# Si number density = 17.027720 Si / 1000 Ang^3
#
#
#
# Elastic Constant Matrix: (Units=GPa)
#
#
# Indices 1 2 3 4 5 6 
#
# 1 33.4307 23.9244 10.2023 0.0000 0.0000 0.0000
# 2 23.9244 79.3287 24.1238 0.0000 0.0000 0.0000
# 3 10.2023 24.1238 78.1644 0.0000 0.0000 0.0000
# 4 0.0000 0.0000 0.0000 20.5952 0.0000 0.0000
# 5 0.0000 0.0000 0.0000 0.0000 21.0795 0.0000
# 6 0.0000 0.0000 0.0000 0.0000 0.0000 13.0713
#
#
#
# Elastic Compliance Matrix: (Units=1/GPa)
#
#
# Indices 1 2 3 4 5 6 
#
# 1 0.038322 -0.011076 -0.001584 0.000000 0.000000 0.000000
# 2 -0.011076 0.017113 -0.003836 0.000000 0.000000 0.000000
# 3 -0.001584 -0.003836 0.014184 0.000000 0.000000 0.000000
# 4 0.000000 0.000000 0.000000 0.048555 0.000000 0.000000
# 5 0.000000 0.000000 0.000000 0.000000 0.047439 0.000000
# 6 0.000000 0.000000 0.000000 0.000000 0.000000 0.076504
#
#
# Mechanical properties :
#
#
# Convention : Reuss Voigt Hill
#
# Bulk Modulus (GPa) = 27.30122 34.15828 30.72975
# Shear Modulus (GPa) = 17.40239 19.79409 18.59824
#
# Velocity S-wave (km/s) = 3.20035 3.41319 3.30848
# Velocity P-wave (km/s) = 5.45202 5.96968 5.71671
#
# Compressibility (1/GPa) = 0.03662840
#
# Stress axis : x y z
#
# Youngs Moduli (GPa) = 26.09450 58.43667 70.50157
#
# Poissons Ratio (x) = 0.64724 0.11165
# Poissons Ratio (y) = 0.28902 0.27043
# Poissons Ratio (z) = 0.04132 0.22415
#
# Static dielectric constant tensor:
#      x y z
#    x 1.596160 0.000000 0.000000 
#    y 0.000000 1.583460 0.000000 
#    z 0.000000 0.000000 1.593500 
# 
# From -- ./inp_files/5890.got.cif
#   From: 2010.05.17/outbox.cif.g08.bks.cpg/sg38_3_cif.got.tgz:5890.got - 2010.06.03 18:07:57.
