data_PCOD9358812
_publ_section_title
;
Structure prediction by ZEFSAII (Michael W. Deem and Ramdas Pophale) SiO2 
 PCOD9358812
Probable space group: A M M 2
;
_chemical_formula_sum "Si O2"
_cell_formula_units_Z 56
_cell_length_a 19.922746
_cell_length_b 9.026590
_cell_length_c 16.224813
_cell_angle_alpha 90.000000
_cell_angle_beta 90.000000
_cell_angle_gamma 90.000000
_cell_volume 2917.780481
_symmetry_space_group_name_H-M "A M M 2"
_symmetry_group_IT_number 38
_symmetry_cell_setting 'orthorhombic'
loop_
_space_group_symop_operation_xyz
x,y,z
-x,-y,z
-x,y,z
x,-y,z
x,1/2+y,1/2+z
-x,1/2-y,1/2+z
-x,1/2+y,1/2+z
x,1/2-y,1/2+z
loop_
_atom_site_type_symbol
_atom_site_label
_atom_site_fract_x
_atom_site_fract_y
_atom_site_fract_z
Si Si1 0.297350 0.671732 0.095410
Si Si2 0.078317 0.178669 0.005248
Si Si3 0.575040 0.676921 0.342682
Si Si4 0.292720 0.828275 0.403440
Si Si5 0.845944 0.178492 0.659238
Si Si6 0.839523 0.178578 0.842508
Si Si7 0.574558 0.175754 0.162883
O O1 0.313274 0.500000 0.115058
O O2 0.232779 0.718000 0.148222
O O3 0.363147 0.768128 0.110100
O O4 0.275971 0.679283 0.000239
O O5 0.112767 0.247592 0.085796
O O6 0.000000 0.218676 0.001960
O O7 0.083418 0.000000 0.010209
O O8 0.115483 0.224938 0.920611
O O9 0.500000 0.711565 0.374845
O O10 0.583008 0.500000 0.342370
O O11 0.635532 0.752567 0.390526
O O12 0.578268 0.739300 0.249804
O O13 0.234261 0.745741 0.354559
O O14 0.296319 0.000000 0.378667
O O15 0.867132 0.219860 0.752112
O O16 0.850551 0.000000 0.650528
O O17 0.834468 0.000000 0.843800
O O18 0.500000 0.205083 0.127046
O O19 0.579751 0.000000 0.176893
#
# Coordination Sequence:
#
# PCOD9358812 Si02
#       7
#     8   8   8   8   8   8   8
#     4  10  21  36  55  82 117 153 196 247 296 353
#     4  10  22  40  61  90 126 158 194 242 294 352
#     4  10  21  37  56  78 109 151 197 245 300 360
#     4  11  22  36  57  85 117 152 197 250 297 351
#     4  10  21  39  62  89 119 156 202 245 292 354
#     4  10  21  38  63  90 120 160 201 244 296 356
#     4  10  21  36  55  81 112 148 195 248 300 356
#
# _framework density 19.192671000000001
#
# number of rings (size 3 to 8) (size 9 to 14) (size 15 to 20)
#    0.000    1.857    1.429    2.143    0.000    6.571 
#    0.000    4.286    0.000    0.000    0.000    0.000 
#    0.000    0.000    0.000    0.000    0.000    0.000 
#
# Total GULP energy -156349.523641 kJ/mol
# GULP energy per Si atom -5583.911559 kJ/mol
# Density = 1.914899 g / cm^3
# Si number density = 19.192671 Si / 1000 Ang^3
#
#
#
# Elastic Constant Matrix: (Units=GPa)
#
#
# Indices 1 2 3 4 5 6 
#
# 1 115.8932 40.2684 65.0260 0.0000 0.0000 0.0000
# 2 40.2684 37.1495 36.0469 0.0000 0.0000 0.0000
# 3 65.0260 36.0469 118.6091 0.0000 0.0000 0.0000
# 4 0.0000 0.0000 0.0000 28.5122 0.0000 0.0000
# 5 0.0000 0.0000 0.0000 0.0000 13.7639 0.0000
# 6 0.0000 0.0000 0.0000 0.0000 0.0000 26.0995
#
#
#
# Elastic Compliance Matrix: (Units=1/GPa)
#
#
# Indices 1 2 3 4 5 6 
#
# 1 0.015579 -0.012196 -0.004834 0.000000 0.000000 0.000000
# 2 -0.012196 0.047724 -0.007818 0.000000 0.000000 0.000000
# 3 -0.004834 -0.007818 0.013457 0.000000 0.000000 0.000000
# 4 0.000000 0.000000 0.000000 0.035073 0.000000 0.000000
# 5 0.000000 0.000000 0.000000 0.000000 0.072654 0.000000
# 6 0.000000 0.000000 0.000000 0.000000 0.000000 0.038315
#
#
# Mechanical properties :
#
#
# Convention : Reuss Voigt Hill
#
# Bulk Modulus (GPa) = 36.94939 61.59271 49.27105
# Shear Modulus (GPa) = 17.76086 22.36250 20.06168
#
# Velocity S-wave (km/s) = 3.04534 3.41714 3.23658
# Velocity P-wave (km/s) = 5.62664 6.90874 6.30038
#
# Compressibility (1/GPa) = 0.02706405
#
# Stress axis : x y z
#
# Youngs Moduli (GPa) = 64.19028 20.95399 74.30893
#
# Poissons Ratio (x) = 0.25555 0.35924
# Poissons Ratio (y) = 0.78285 0.58092
# Poissons Ratio (z) = 0.31032 0.16381
#
# Static dielectric constant tensor:
#      x y z
#    x 1.655800 0.000000 0.000000 
#    y 0.000000 1.647320 0.000000 
#    z 0.000000 0.000000 1.676820 
# 
# From -- ./inp_files/15455.got.cif
#   From: 2010.05.17/outbox.cif.g08.bks.cpg/sg38_8_cif.got.tgz:15455.got - 2010.06.03 18:07:57.
