data_PCOD9358826
_publ_section_title
;
Structure prediction by ZEFSAII (Michael W. Deem and Ramdas Pophale) SiO2 
 PCOD9358826
Probable space group: A M M 2
;
_chemical_formula_sum "Si O2"
_cell_formula_units_Z 58
_cell_length_a 15.848924
_cell_length_b 7.447585
_cell_length_c 21.494563
_cell_angle_alpha 90.000000
_cell_angle_beta 90.000000
_cell_angle_gamma 90.000000
_cell_volume 2537.136723
_symmetry_space_group_name_H-M "A M M 2"
_symmetry_group_IT_number 38
_symmetry_cell_setting 'orthorhombic'
loop_
_space_group_symop_operation_xyz
x,y,z
-x,-y,z
-x,y,z
x,-y,z
x,1/2+y,1/2+z
-x,1/2-y,1/2+z
-x,1/2+y,1/2+z
x,1/2-y,1/2+z
loop_
_atom_site_type_symbol
_atom_site_label
_atom_site_fract_x
_atom_site_fract_y
_atom_site_fract_z
Si Si1 0.500000 0.000000 0.341861
Si Si2 0.597590 0.213771 0.669364
Si Si3 0.595254 0.293734 0.527226
Si Si4 0.819755 0.706311 0.358912
Si Si5 0.903152 0.788756 0.098110
Si Si6 0.634660 0.793676 0.804404
Si Si7 0.097613 0.216158 0.735290
Si Si8 0.777433 0.721843 0.491561
O O1 0.427463 0.842729 0.336828
O O2 0.500000 0.258680 0.685081
O O3 0.613743 0.293752 0.601597
O O4 0.647280 0.263144 0.731743
O O5 0.604820 0.000000 0.660665
O O6 0.500000 0.214725 0.518351
O O7 0.589365 0.500000 0.506306
O O8 0.679874 0.216311 0.496659
O O9 0.851350 0.500000 0.364177
O O10 0.722249 0.702125 0.339809
O O11 0.864601 0.788849 0.299092
O O12 0.821625 0.782175 0.427913
O O13 0.867870 0.769399 0.168033
O O14 0.835331 0.718496 0.048983
O O15 0.000000 0.715160 0.094889
O O16 0.910535 0.000000 0.085374
O O17 0.602378 0.000000 0.802057
O O18 0.000000 0.267147 0.733479
O O19 0.105289 0.000000 0.737210
O O20 0.773831 0.500000 0.491400
#
# Coordination Sequence:
#
# PCOD9358826 Si02
#       8
#     2   8   8   8   8   8   8   8
#     4  12  22  36  60  82 118 160 198 256 314 350
#     4   9  17  30  48  71 102 136 181 231 286 341
#     4   9  18  30  48  73 101 136 185 234 280 343
#     4   9  19  36  56  80 116 152 193 245 296 355
#     4   9  18  33  55  85 116 145 183 237 295 353
#     4  10  21  36  55  84 115 153 200 252 306 367
#     4   9  18  34  58  87 115 149 192 236 294 362
#     4   9  18  34  54  80 108 147 193 234 286 353
#
# _framework density 22.860417000000002
#
# number of rings (size 3 to 8) (size 9 to 14) (size 15 to 20)
#    0.000    2.759    0.690    0.207    2.897    0.552 
#    2.483    2.759    3.034    0.000    0.000    3.862 
#    0.000    0.000    0.000    0.000    0.000    0.000 
#
# Total GULP energy -161529.653915 kJ/mol
# GULP energy per Si atom -5569.988066 kJ/mol
# Density = 2.280839 g / cm^3
# Si number density = 22.860417 Si / 1000 Ang^3
#
#
#
# Elastic Constant Matrix: (Units=GPa)
#
#
# Indices 1 2 3 4 5 6 
#
# 1 68.0313 11.6045 66.7087 0.0000 0.0000 0.0000
# 2 11.6045 77.6903 -0.4040 0.0000 0.0000 0.0000
# 3 66.7087 -0.4040 150.2917 0.0000 0.0000 0.0000
# 4 0.0000 0.0000 0.0000 15.5654 0.0000 0.0000
# 5 0.0000 0.0000 0.0000 0.0000 -70.7226 0.0000
# 6 0.0000 0.0000 0.0000 0.0000 0.0000 18.8566
#
#
#
# Elastic Compliance Matrix: (Units=1/GPa)
#
#
# Indices 1 2 3 4 5 6 
#
# 1 0.027297 -0.004140 -0.012127 0.000000 0.000000 0.000000
# 2 -0.004140 0.013500 0.001874 0.000000 0.000000 0.000000
# 3 -0.012127 0.001874 0.012042 0.000000 0.000000 0.000000
# 4 0.000000 0.000000 0.000000 0.064245 0.000000 0.000000
# 5 0.000000 0.000000 0.000000 0.000000 -0.014140 0.000000
# 6 0.000000 0.000000 0.000000 0.000000 0.000000 0.053032
#
#
# Mechanical properties :
#
#
# Convention : Reuss Voigt Hill
#
# Bulk Modulus (GPa) = 41.57794 50.20354 45.89074
# Shear Modulus (GPa) = 25.93646 7.28017 16.60832
#
# Velocity S-wave (km/s) = 3.37197 1.78649 2.69831
# Velocity P-wave (km/s) = 5.77819 5.12484 5.46129
#
# Compressibility (1/GPa) = 0.02405121
#
# Stress axis : x y z
#
# Youngs Moduli (GPa) = 36.63452 74.07520 83.04608
#
# Poissons Ratio (x) = 0.30669 1.00711
# Poissons Ratio (y) = 0.15168 -0.15563
# Poissons Ratio (z) = 0.44427 -0.13882
#
# Static dielectric constant tensor:
#      x y z
#    x 1.826020 0.000000 0.000000 
#    y 0.000000 1.891620 0.000000 
#    z 0.000000 0.000000 1.879860 
# 
# From -- ./inp_files/22800.got.cif
#   From: 2010.05.17/outbox.cif.g08.bks.cpg/sg38_12_cif.got.tgz:22800.got - 2010.06.03 18:07:57.
