data_PCOD9358185
_publ_section_title
;
Structure prediction by ZEFSAII (Michael W. Deem and Ramdas Pophale) SiO2 
 PCOD9358185
Probable space group: A M M 2
;
_chemical_formula_sum "Si O2"
_cell_formula_units_Z 56
_cell_length_a 24.425817
_cell_length_b 8.607017
_cell_length_c 14.675892
_cell_angle_alpha 90.000000
_cell_angle_beta 90.000000
_cell_angle_gamma 90.000000
_cell_volume 3085.362998
_symmetry_space_group_name_H-M "A M M 2"
_symmetry_group_IT_number 38
_symmetry_cell_setting 'orthorhombic'
loop_
_space_group_symop_operation_xyz
x,y,z
-x,-y,z
-x,y,z
x,-y,z
x,1/2+y,1/2+z
-x,1/2-y,1/2+z
-x,1/2+y,1/2+z
x,1/2-y,1/2+z
loop_
_atom_site_type_symbol
_atom_site_label
_atom_site_fract_x
_atom_site_fract_y
_atom_site_fract_z
Si Si1 0.562261 0.188869 0.425490
Si Si2 0.733383 0.313325 0.425014
Si Si3 0.349151 0.186691 0.277471
Si Si4 0.062461 0.816370 0.284747
Si Si5 0.937933 0.317344 0.086002
Si Si6 0.860253 0.684117 0.433477
Si Si7 0.650975 0.186764 0.573035
O O1 0.500000 0.245730 0.425264
O O2 0.597500 0.235273 0.336814
O O3 0.597082 0.234303 0.514788
O O4 0.560815 0.000000 0.425152
O O5 0.729740 0.500000 0.422781
O O6 0.702122 0.245941 0.336983
O O7 0.796973 0.267889 0.427110
O O8 0.701603 0.251147 0.513917
O O9 0.349708 0.251792 0.175641
O O10 0.347810 0.000000 0.274517
O O11 0.068648 0.779513 0.178270
O O12 0.106994 0.724316 0.341971
O O13 0.000000 0.771168 0.309937
O O14 0.068307 0.000000 0.301890
O O15 0.933868 0.500000 0.107548
O O16 0.000000 0.289451 0.050718
O O17 0.893037 0.270075 0.013060
O O18 0.861957 0.500000 0.450329
O O19 0.653563 0.000000 0.573550
#
# Coordination Sequence:
#
# PCOD9358185 Si02
#       7
#     8   8   8   8   8   8   8
#     4   8  16  32  53  80 113 144 178 220 262 310
#     4  10  22  39  56  77 106 139 181 228 270 316
#     4  10  20  35  57  81 108 145 182 219 267 317
#     4  10  21  37  57  81 109 141 176 216 264 319
#     4  10  21  37  57  81 109 141 176 216 264 319
#     4  11  23  37  56  81 107 139 177 221 272 321
#     4  10  20  35  57  81 108 145 182 219 267 317
#
# _framework density 18.150214999999999
#
# number of rings (size 3 to 8) (size 9 to 14) (size 15 to 20)
#    0.000    2.143    0.000    3.857    0.000    7.429 
#    0.000    0.000    0.000   14.571    0.000    0.000 
#    0.000    0.000    0.000    0.000    0.000    0.000 
#
# Total GULP energy -156318.467347 kJ/mol
# GULP energy per Si atom -5582.802405 kJ/mol
# Density = 1.810890 g / cm^3
# Si number density = 18.150215 Si / 1000 Ang^3
#
#
#
# Elastic Constant Matrix: (Units=GPa)
#
#
# Indices 1 2 3 4 5 6 
#
# 1 159.1273 34.2657 73.2149 0.0000 0.0000 0.0000
# 2 34.2657 41.6448 22.9546 0.0000 0.0000 0.0000
# 3 73.2149 22.9546 134.9761 0.0000 0.0000 0.0000
# 4 0.0000 0.0000 0.0000 33.6097 0.0000 0.0000
# 5 0.0000 0.0000 0.0000 0.0000 13.6340 0.0000
# 6 0.0000 0.0000 0.0000 0.0000 0.0000 22.6932
#
#
#
# Elastic Compliance Matrix: (Units=1/GPa)
#
#
# Indices 1 2 3 4 5 6 
#
# 1 0.009363 -0.005412 -0.004158 0.000000 0.000000 0.000000
# 2 -0.005412 0.029624 -0.002103 0.000000 0.000000 0.000000
# 3 -0.004158 -0.002103 0.010022 0.000000 0.000000 0.000000
# 4 0.000000 0.000000 0.000000 0.029753 0.000000 0.000000
# 5 0.000000 0.000000 0.000000 0.000000 0.073346 0.000000
# 6 0.000000 0.000000 0.000000 0.000000 0.000000 0.044066
#
#
# Mechanical properties :
#
#
# Convention : Reuss Voigt Hill
#
# Bulk Modulus (GPa) = 38.96534 66.29095 52.62814
# Shear Modulus (GPa) = 21.92264 27.67490 24.79877
#
# Velocity S-wave (km/s) = 3.47918 3.90907 3.70037
# Velocity P-wave (km/s) = 6.13632 7.54832 6.87865
#
# Compressibility (1/GPa) = 0.02566384
#
# Stress axis : x y z
#
# Youngs Moduli (GPa) = 106.80461 33.75595 99.78152
#
# Poissons Ratio (x) = 0.18268 0.41493
# Poissons Ratio (y) = 0.57800 0.20979
# Poissons Ratio (z) = 0.44413 0.07097
#
# Static dielectric constant tensor:
#      x y z
#    x 1.613030 0.000000 0.000000 
#    y 0.000000 1.607240 0.000000 
#    z 0.000000 0.000000 1.594550 
# 
# From -- ./inp_files/15457.got.cif
#   From: 2010.05.17/outbox.cif.g08.bks.cpg/sg38_8_cif.got.tgz:15457.got - 2010.06.03 18:07:57.
