data_PCOD9358496
_publ_section_title
;
Structure prediction by ZEFSAII (Michael W. Deem and Ramdas Pophale) SiO2 
 PCOD9358496
Probable space group: A M M 2
;
_chemical_formula_sum "Si O2"
_cell_formula_units_Z 48
_cell_length_a 15.802141
_cell_length_b 16.353287
_cell_length_c 8.499580
_cell_angle_alpha 90.000000
_cell_angle_beta 90.000000
_cell_angle_gamma 90.000000
_cell_volume 2196.435514
_symmetry_space_group_name_H-M "A M M 2"
_symmetry_group_IT_number 38
_symmetry_cell_setting 'orthorhombic'
loop_
_space_group_symop_operation_xyz
x,y,z
-x,-y,z
-x,y,z
x,-y,z
x,1/2+y,1/2+z
-x,1/2-y,1/2+z
-x,1/2+y,1/2+z
x,1/2-y,1/2+z
loop_
_atom_site_type_symbol
_atom_site_label
_atom_site_fract_x
_atom_site_fract_y
_atom_site_fract_z
Si Si1 0.660386 0.672721 0.075700
Si Si2 0.153689 0.825266 0.425688
Si Si3 0.405210 0.669302 0.407295
Si Si4 0.839313 0.000000 0.045102
Si Si5 0.903633 0.335463 0.580459
Si Si6 0.145333 0.000000 0.415434
Si Si7 0.362580 0.000000 0.072484
Si Si8 0.648894 0.500000 0.938550
O O1 0.660494 0.672114 0.263782
O O2 0.752893 0.679581 0.998440
O O3 0.610653 0.752613 0.017355
O O4 0.623264 0.584926 0.020589
O O5 0.103815 0.746639 0.481747
O O6 0.154897 0.827266 0.235640
O O7 0.115181 0.912838 0.477694
O O8 0.500000 0.674491 0.340414
O O9 0.396359 0.583559 0.497360
O O10 0.873958 0.085503 0.981944
O O11 0.870330 0.000000 0.227730
O O12 0.738545 0.000000 0.045682
O O13 0.000000 0.347444 0.633380
O O14 0.247712 0.000000 0.436690
O O15 0.379471 0.000000 0.258259
#
# Coordination Sequence:
#
# PCOD9358496 Si02
#       8
#     8   8   8   4   8   4   4   4
#     4  11  22  41  65  89 122 165 210 257 307 374
#     4  10  20  37  60  86 115 156 203 245 298 367
#     4  12  25  41  60  90 125 161 205 262 319 367
#     4   9  19  36  59  83 110 153 198 236 287 357
#     4  11  21  36  57  87 122 156 196 251 306 357
#     4   7  16  34  57  82 108 143 194 241 280 340
#     4  11  22  41  65  90 121 161 206 251 304 377
#     4   9  19  37  63  89 115 153 204 252 297 356
#
# _framework density 21.853590000000001
#
# number of rings (size 3 to 8) (size 9 to 14) (size 15 to 20)
#    0.000    1.667    0.000    6.000    0.000    0.000 
#    0.000    5.833    0.000    0.000    0.000    0.000 
#    0.000    0.000    0.000    0.000    0.000    0.000 
#
# Total GULP energy -134095.053328 kJ/mol
# GULP energy per Si atom -5587.293889 kJ/mol
# Density = 2.180385 g / cm^3
# Si number density = 21.853590 Si / 1000 Ang^3
#
#
#
# Elastic Constant Matrix: (Units=GPa)
#
#
# Indices 1 2 3 4 5 6 
#
# 1 52.6222 18.2531 -16.1587 0.0000 0.0000 0.0000
# 2 18.2531 223.2025 41.0741 0.0000 0.0000 0.0000
# 3 -16.1587 41.0741 53.4977 0.0000 0.0000 0.0000
# 4 0.0000 0.0000 0.0000 34.9951 0.0000 0.0000
# 5 0.0000 0.0000 0.0000 0.0000 20.7757 0.0000
# 6 0.0000 0.0000 0.0000 0.0000 0.0000 -3.9546
#
#
#
# Elastic Compliance Matrix: (Units=1/GPa)
#
#
# Indices 1 2 3 4 5 6 
#
# 1 0.023344 -0.003734 0.009918 0.000000 0.000000 0.000000
# 2 -0.003734 0.005815 -0.005592 0.000000 0.000000 0.000000
# 3 0.009918 -0.005592 0.025982 0.000000 0.000000 0.000000
# 4 0.000000 0.000000 0.000000 0.028575 0.000000 0.000000
# 5 0.000000 0.000000 0.000000 0.000000 0.048133 0.000000
# 6 0.000000 0.000000 0.000000 0.000000 0.000000 -0.252870
#
#
# Mechanical properties :
#
#
# Convention : Reuss Voigt Hill
#
# Bulk Modulus (GPa) = 17.75456 46.18440 31.96948
# Shear Modulus (GPa) = -48.34213 29.44017 -9.45098
#
# Velocity S-wave (km/s) = -4.70839 3.67434 -2.08184
# Velocity P-wave (km/s) = 4.62781 6.25943 2.98026
#
# Compressibility (1/GPa) = 0.05632355
#
# Stress axis : x y z
#
# Youngs Moduli (GPa) = 42.83730 171.97775 38.48873
#
# Poissons Ratio (x) = 0.64219 -0.38173
# Poissons Ratio (y) = 0.15996 0.21524
# Poissons Ratio (z) = -0.42486 0.96174
#
# Static dielectric constant tensor:
#      x y z
#    x 1.820260 0.000000 0.000000 
#    y 0.000000 1.842510 0.000000 
#    z 0.000000 0.000000 1.764720 
# 
# From -- ./inp_files/6235.got.cif
#   From: 2010.05.17/outbox.cif.g08.bks.cpg/sg38_4_cif.got.tgz:6235.got - 2010.06.03 18:07:57.
