data_PCOD9358584
_publ_section_title
;
Structure prediction by ZEFSAII (Michael W. Deem and Ramdas Pophale) SiO2 
 PCOD9358584
Probable space group: A M M 2
;
_chemical_formula_sum "Si O2"
_cell_formula_units_Z 48
_cell_length_a 7.944155
_cell_length_b 18.760329
_cell_length_c 15.638054
_cell_angle_alpha 90.000000
_cell_angle_beta 90.000000
_cell_angle_gamma 90.000000
_cell_volume 2330.616775
_symmetry_space_group_name_H-M "A M M 2"
_symmetry_group_IT_number 38
_symmetry_cell_setting 'orthorhombic'
loop_
_space_group_symop_operation_xyz
x,y,z
-x,-y,z
-x,y,z
x,-y,z
x,1/2+y,1/2+z
-x,1/2-y,1/2+z
-x,1/2+y,1/2+z
x,1/2-y,1/2+z
loop_
_atom_site_type_symbol
_atom_site_label
_atom_site_fract_x
_atom_site_fract_y
_atom_site_fract_z
Si Si1 0.202476 0.345221 0.768300
Si Si2 0.796068 0.767705 0.104089
Si Si3 0.694254 0.422156 0.349659
Si Si4 0.701613 0.000000 0.333587
Si Si5 0.198719 0.268163 0.410756
Si Si6 0.197415 0.889264 0.666393
Si Si7 0.701934 0.000000 0.528068
O O1 0.265433 0.325258 0.673130
O O2 0.241270 0.426391 0.791200
O O3 0.266552 0.289121 0.841166
O O4 0.000000 0.336281 0.766362
O O5 0.762814 0.692510 0.149301
O O6 0.000000 0.775550 0.096926
O O7 0.729519 0.765250 0.007194
O O8 0.500000 0.418657 0.376888
O O9 0.763607 0.500000 0.376694
O O10 0.781540 0.349672 0.379997
O O11 0.703330 0.419137 0.246840
O O12 0.763944 0.000000 0.431476
O O13 0.500000 0.000000 0.334772
O O14 0.000000 0.252056 0.417024
O O15 0.000000 0.895973 0.687284
O O16 0.234391 0.932386 0.580782
O O17 0.500000 0.000000 0.528390
#
# Coordination Sequence:
#
# PCOD9358584 Si02
#       7
#     8   8   8   4   8   8   4
#     4  10  20  39  63  86 118 154 194 248 300 346
#     4   9  19  36  60  90 114 143 195 251 295 340
#     4  11  23  38  56  83 124 160 189 236 295 350
#     4  11  25  41  57  84 121 160 201 241 290 356
#     4  10  20  38  64  89 115 149 197 248 293 353
#     4  11  20  35  61  88 115 149 195 240 291 355
#     4  11  23  37  53  84 125 154 187 241 300 354
#
# _framework density 20.595406000000001
#
# number of rings (size 3 to 8) (size 9 to 14) (size 15 to 20)
#    0.000    1.667    2.500    2.500    0.000    4.333 
#    1.500    2.500    0.000    0.000    0.000    0.000 
#    0.000    0.000    0.000    0.000    0.000    0.000 
#
# Total GULP energy -133974.198145 kJ/mol
# GULP energy per Si atom -5582.258256 kJ/mol
# Density = 2.054853 g / cm^3
# Si number density = 20.595406 Si / 1000 Ang^3
#
#
#
# Elastic Constant Matrix: (Units=GPa)
#
#
# Indices 1 2 3 4 5 6 
#
# 1 18.2851 2.5689 3.9425 0.0000 0.0000 0.0000
# 2 2.5689 101.4966 47.6474 0.0000 0.0000 0.0000
# 3 3.9425 47.6474 102.9957 0.0000 0.0000 0.0000
# 4 0.0000 0.0000 0.0000 -31.8384 0.0000 0.0000
# 5 0.0000 0.0000 0.0000 0.0000 13.2483 0.0000
# 6 0.0000 0.0000 0.0000 0.0000 0.0000 18.8689
#
#
#
# Elastic Compliance Matrix: (Units=1/GPa)
#
#
# Indices 1 2 3 4 5 6 
#
# 1 0.055166 -0.000517 -0.001872 0.000000 0.000000 0.000000
# 2 -0.000517 0.012591 -0.005805 0.000000 0.000000 0.000000
# 3 -0.001872 -0.005805 0.012466 0.000000 0.000000 0.000000
# 4 0.000000 0.000000 0.000000 -0.031409 0.000000 0.000000
# 5 0.000000 0.000000 0.000000 0.000000 0.075481 0.000000
# 6 0.000000 0.000000 0.000000 0.000000 0.000000 0.052997
#
#
# Mechanical properties :
#
#
# Convention : Reuss Voigt Hill
#
# Bulk Modulus (GPa) = 15.66574 36.78835 26.22705
# Shear Modulus (GPa) = 23.26022 11.29700 17.27861
#
# Velocity S-wave (km/s) = 3.36428 2.34459 2.89961
# Velocity P-wave (km/s) = 4.76594 5.02301 4.89616
#
# Compressibility (1/GPa) = 0.06383355
#
# Stress axis : x y z
#
# Youngs Moduli (GPa) = 18.12723 79.42354 80.21664
#
# Poissons Ratio (x) = 0.04109 0.15019
# Poissons Ratio (y) = 0.00938 0.46565
# Poissons Ratio (z) = 0.03394 0.46104
#
# Static dielectric constant tensor:
#      x y z
#    x 1.737800 0.000000 0.000000 
#    y 0.000000 1.825370 0.000000 
#    z 0.000000 0.000000 1.746870 
# 
# From -- ./inp_files/12098.got.cif
#   From: 2010.05.17/outbox.cif.g08.bks.cpg/sg38_7_cif.got.tgz:12098.got - 2010.06.03 18:07:57.
