data_PCOD9358514
_publ_section_title
;
Structure prediction by ZEFSAII (Michael W. Deem and Ramdas Pophale) SiO2 
 PCOD9358514
Probable space group: A M M 2
;
_chemical_formula_sum "Si O2"
_cell_formula_units_Z 64
_cell_length_a 19.249376
_cell_length_b 19.356375
_cell_length_c 9.252567
_cell_angle_alpha 90.000000
_cell_angle_beta 90.000000
_cell_angle_gamma 90.000000
_cell_volume 3447.489258
_symmetry_space_group_name_H-M "A M M 2"
_symmetry_group_IT_number 38
_symmetry_cell_setting 'orthorhombic'
loop_
_space_group_symop_operation_xyz
x,y,z
-x,-y,z
-x,y,z
x,-y,z
x,1/2+y,1/2+z
-x,1/2-y,1/2+z
-x,1/2+y,1/2+z
x,1/2-y,1/2+z
loop_
_atom_site_type_symbol
_atom_site_label
_atom_site_fract_x
_atom_site_fract_y
_atom_site_fract_z
Si Si1 0.347777 0.919514 0.870960
Si Si2 0.078097 0.081875 0.954080
Si Si3 0.418394 0.199093 0.701143
Si Si4 0.802716 0.581528 0.222144
Si Si5 0.293445 0.918251 0.186916
Si Si6 0.187446 0.700048 0.989507
Si Si7 0.849456 0.168337 0.179572
Si Si8 0.657372 0.689630 0.897065
O O1 0.401283 0.868387 0.796287
O O2 0.272260 0.908519 0.796799
O O3 0.366065 0.000000 0.852279
O O4 0.337035 0.905735 0.040860
O O5 0.092181 0.124189 0.099453
O O6 0.000000 0.094361 0.899876
O O7 0.085640 0.000000 0.982297
O O8 0.137076 0.100177 0.836934
O O9 0.500000 0.212785 0.695255
O O10 0.377999 0.261228 0.779493
O O11 0.387343 0.188597 0.541862
O O12 0.809725 0.500000 0.187131
O O13 0.807905 0.630620 0.084300
O O14 0.220571 0.878172 0.171942
O O15 0.331313 0.885002 0.324408
O O16 0.281859 0.000000 0.200232
O O17 0.161899 0.761996 0.089159
O O18 0.141679 0.687453 0.847093
O O19 0.265553 0.717024 0.935319
#
# Coordination Sequence:
#
# PCOD9358514 Si02
#       8
#     8   8   8   8   8   8   8   8
#     4  10  20  37  61  88 119 155 200 249 298 357
#     4  10  21  39  63  90 125 166 203 244 302 369
#     4  12  24  40  60  86 120 159 200 246 308 372
#     4  10  20  37  62  93 124 158 205 253 302 361
#     4  10  21  36  61  89 115 148 196 253 300 348
#     4  11  22  36  61  90 121 154 203 257 305 345
#     4  11  21  35  57  88 121 157 198 247 300 354
#     4  11  23  38  59  87 118 152 199 250 303 361
#
# _framework density 18.564233999999999
#
# number of rings (size 3 to 8) (size 9 to 14) (size 15 to 20)
#    0.000    1.375    2.500    4.500    0.000    3.250 
#    0.000    3.750    0.000    4.125    0.000    0.000 
#    0.000    0.000    0.000    0.000    0.000    0.000 
#
# Total GULP energy -178837.419040 kJ/mol
# GULP energy per Si atom -5588.669345 kJ/mol
# Density = 1.852198 g / cm^3
# Si number density = 18.564234 Si / 1000 Ang^3
#
#
#
# Elastic Constant Matrix: (Units=GPa)
#
#
# Indices 1 2 3 4 5 6 
#
# 1 45.1006 2.7742 4.4923 0.0000 0.0000 0.0000
# 2 2.7742 58.6978 38.7953 0.0000 0.0000 0.0000
# 3 4.4923 38.7953 94.8114 0.0000 0.0000 0.0000
# 4 0.0000 0.0000 0.0000 38.8520 0.0000 0.0000
# 5 0.0000 0.0000 0.0000 0.0000 22.5592 0.0000
# 6 0.0000 0.0000 0.0000 0.0000 0.0000 19.4747
#
#
#
# Elastic Compliance Matrix: (Units=1/GPa)
#
#
# Indices 1 2 3 4 5 6 
#
# 1 0.022288 -0.000487 -0.000857 0.000000 0.000000 0.000000
# 2 -0.000487 0.023362 -0.009536 0.000000 0.000000 0.000000
# 3 -0.000857 -0.009536 0.014490 0.000000 0.000000 0.000000
# 4 0.000000 0.000000 0.000000 0.025739 0.000000 0.000000
# 5 0.000000 0.000000 0.000000 0.000000 0.044328 0.000000
# 6 0.000000 0.000000 0.000000 0.000000 0.000000 0.051349
#
#
# Mechanical properties :
#
#
# Convention : Reuss Voigt Hill
#
# Bulk Modulus (GPa) = 26.05538 32.30369 29.17953
# Shear Modulus (GPa) = 23.13643 26.34704 24.74174
#
# Velocity S-wave (km/s) = 3.53411 3.77136 3.65466
# Velocity P-wave (km/s) = 5.54247 6.03349 5.79319
#
# Compressibility (1/GPa) = 0.03837979
#
# Stress axis : x y z
#
# Youngs Moduli (GPa) = 44.86726 42.80384 69.01313
#
# Poissons Ratio (x) = 0.02085 0.05912
# Poissons Ratio (y) = 0.02186 0.65814
# Poissons Ratio (z) = 0.03844 0.40820
#
# Static dielectric constant tensor:
#      x y z
#    x 1.618750 0.000000 0.000000 
#    y 0.000000 1.640240 0.000000 
#    z 0.000000 0.000000 1.636840 
# 
# From -- ./inp_files/6844.got.cif
#   From: 2010.05.17/outbox.cif.g08.bks.cpg/sg38_4_cif.got.tgz:6844.got - 2010.06.03 18:07:57.
