data_PCOD9358821
_publ_section_title
;
Structure prediction by ZEFSAII (Michael W. Deem and Ramdas Pophale) SiO2 
 PCOD9358821
Probable space group: A M M 2
;
_chemical_formula_sum "Si O2"
_cell_formula_units_Z 64
_cell_length_a 14.187744
_cell_length_b 9.168198
_cell_length_c 26.591449
_cell_angle_alpha 90.000000
_cell_angle_beta 90.000000
_cell_angle_gamma 90.000000
_cell_volume 3458.910548
_symmetry_space_group_name_H-M "A M M 2"
_symmetry_group_IT_number 38
_symmetry_cell_setting 'orthorhombic'
loop_
_space_group_symop_operation_xyz
x,y,z
-x,-y,z
-x,y,z
x,-y,z
x,1/2+y,1/2+z
-x,1/2-y,1/2+z
-x,1/2+y,1/2+z
x,1/2-y,1/2+z
loop_
_atom_site_type_symbol
_atom_site_label
_atom_site_fract_x
_atom_site_fract_y
_atom_site_fract_z
Si Si1 0.114560 0.834238 0.004750
Si Si2 0.713787 0.674686 0.156328
Si Si3 0.613623 0.330099 0.961199
Si Si4 0.110095 0.824206 0.118236
Si Si5 0.614021 0.330361 0.563080
Si Si6 0.107166 0.675009 0.903504
Si Si7 0.609565 0.824721 0.759988
Si Si8 0.705988 0.175579 0.354767
O O1 0.139699 0.784659 0.060846
O O2 0.000000 0.838779 0.005638
O O3 0.147814 0.000000 0.996958
O O4 0.139535 0.734718 0.957735
O O5 0.717405 0.500000 0.151997
O O6 0.817970 0.743199 0.154360
O O7 0.657291 0.741406 0.109210
O O8 0.661333 0.713696 0.208034
O O9 0.500000 0.321995 0.958006
O O10 0.639344 0.500000 0.969808
O O11 0.655313 0.285084 0.907440
O O12 0.643743 0.234981 0.009091
O O13 0.000000 0.786939 0.125500
O O14 0.117947 0.000000 0.122149
O O15 0.500000 0.320616 0.565358
O O16 0.641071 0.500000 0.566917
O O17 0.106151 0.500000 0.906200
O O18 0.184487 0.716933 0.862408
O O19 0.000000 0.725480 0.893791
O O20 0.500000 0.781755 0.757533
O O21 0.658588 0.751188 0.807588
O O22 0.613853 0.000000 0.765289
O O23 0.699050 0.000000 0.349576
#
# Coordination Sequence:
#
# PCOD9358821 Si02
#       8
#     8   8   8   8   8   8   8   8
#     4   8  15  29  49  74 107 147 186 224 267 315
#     4  11  23  38  59  84 113 149 191 237 289 346
#     4   9  18  33  52  77 111 146 180 226 287 347
#     4   9  19  36  56  82 118 154 191 236 282 331
#     4  10  21  36  55  82 114 148 188 233 285 348
#     4   9  18  32  50  77 115 152 187 227 269 321
#     4  10  23  43  63  83 108 141 185 238 294 347
#     4  10  21  36  57  84 112 145 189 234 282 337
#
# _framework density 18.502936999999999
#
# number of rings (size 3 to 8) (size 9 to 14) (size 15 to 20)
#    0.000    2.500    0.000    2.250    1.750    4.750 
#    0.000    3.125    0.000    2.250    0.000    0.000 
#    0.000    0.000    0.000    0.000    0.000    0.000 
#
# Total GULP energy -178636.814560 kJ/mol
# GULP energy per Si atom -5582.400455 kJ/mol
# Density = 1.846082 g / cm^3
# Si number density = 18.502937 Si / 1000 Ang^3
#
#
#
# Elastic Constant Matrix: (Units=GPa)
#
#
# Indices 1 2 3 4 5 6 
#
# 1 119.1691 48.0024 88.5200 0.0000 0.0000 0.0000
# 2 48.0024 40.8129 58.9234 0.0000 0.0000 0.0000
# 3 88.5200 58.9234 153.4578 0.0000 0.0000 0.0000
# 4 0.0000 0.0000 0.0000 35.2592 0.0000 0.0000
# 5 0.0000 0.0000 0.0000 0.0000 36.9548 0.0000
# 6 0.0000 0.0000 0.0000 0.0000 0.0000 25.0902
#
#
#
# Elastic Compliance Matrix: (Units=1/GPa)
#
#
# Indices 1 2 3 4 5 6 
#
# 1 0.017449 -0.013444 -0.004903 0.000000 0.000000 0.000000
# 2 -0.013444 0.065339 -0.017334 0.000000 0.000000 0.000000
# 3 -0.004903 -0.017334 0.016000 0.000000 0.000000 0.000000
# 4 0.000000 0.000000 0.000000 0.028361 0.000000 0.000000
# 5 0.000000 0.000000 0.000000 0.000000 0.027060 0.000000
# 6 0.000000 0.000000 0.000000 0.000000 0.000000 0.039856
#
#
# Mechanical properties :
#
#
# Convention : Reuss Voigt Hill
#
# Bulk Modulus (GPa) = 36.45961 78.25904 57.35933
# Shear Modulus (GPa) = 18.21034 27.32710 22.76872
#
# Velocity S-wave (km/s) = 3.14058 3.84722 3.51172
# Velocity P-wave (km/s) = 5.73572 7.88176 6.89277
#
# Compressibility (1/GPa) = 0.02742761
#
# Stress axis : x y z
#
# Youngs Moduli (GPa) = 57.31077 15.30472 62.49874
#
# Poissons Ratio (x) = 0.20575 0.30644
# Poissons Ratio (y) = 0.77047 1.08333
# Poissons Ratio (z) = 0.28100 0.26529
#
# Static dielectric constant tensor:
#      x y z
#    x 1.685590 0.000000 0.000000 
#    y 0.000000 1.620360 0.000000 
#    z 0.000000 0.000000 1.598690 
# 
# From -- ./inp_files/22953.got.cif
#   From: 2010.05.17/outbox.cif.g08.bks.cpg/sg38_12_cif.got.tgz:22953.got - 2010.06.03 18:07:57.
