data_PCOD9358376
_publ_section_title
;
Structure prediction by ZEFSAII (Michael W. Deem and Ramdas Pophale) SiO2 
 PCOD9358376
Probable space group: A M M 2
;
_chemical_formula_sum "Si O2"
_cell_formula_units_Z 56
_cell_length_a 13.644113
_cell_length_b 20.456763
_cell_length_c 9.750322
_cell_angle_alpha 90.000000
_cell_angle_beta 90.000000
_cell_angle_gamma 90.000000
_cell_volume 2721.455138
_symmetry_space_group_name_H-M "A M M 2"
_symmetry_group_IT_number 38
_symmetry_cell_setting 'orthorhombic'
loop_
_space_group_symop_operation_xyz
x,y,z
-x,-y,z
-x,y,z
x,-y,z
x,1/2+y,1/2+z
-x,1/2-y,1/2+z
-x,1/2+y,1/2+z
x,1/2-y,1/2+z
loop_
_atom_site_type_symbol
_atom_site_label
_atom_site_fract_x
_atom_site_fract_y
_atom_site_fract_z
Si Si1 0.610831 0.923332 0.803470
Si Si2 0.889830 0.199290 0.093097
Si Si3 0.615976 0.780202 0.230031
Si Si4 0.729806 0.425896 0.039973
Si Si5 0.889996 0.330299 0.915899
Si Si6 0.310234 0.810596 0.960076
Si Si7 0.385248 0.429324 0.776481
O O1 0.500000 0.913070 0.752506
O O2 0.689941 0.905289 0.687739
O O3 0.628674 0.875879 0.930317
O O4 0.620965 0.000000 0.836305
O O5 0.888404 0.271736 0.026948
O O6 0.875810 0.194469 0.258072
O O7 0.000000 0.172906 0.064961
O O8 0.797759 0.169507 0.011376
O O9 0.500000 0.773817 0.261917
O O10 0.680420 0.734142 0.325588
O O11 0.647136 0.856674 0.234661
O O12 0.638663 0.764599 0.073086
O O13 0.768022 0.500000 0.052491
O O14 0.809066 0.380909 0.966435
O O15 0.636826 0.428804 0.938562
O O16 0.000000 0.358819 0.918707
O O17 0.500000 0.431027 0.746552
O O18 0.342928 0.500000 0.726118
#
# Coordination Sequence:
#
# PCOD9358376 Si02
#       7
#     8   8   8   8   8   8   8
#     4  10  23  42  63  89 125 169 214 257 310 380
#     4  10  22  40  62  92 124 160 208 260 317 377
#     4  11  24  38  56  89 125 161 205 256 316 375
#     4  10  20  36  59  87 118 157 202 247 304 368
#     4  10  22  40  63  92 122 158 205 258 314 372
#     4  12  24  40  62  88 123 165 207 261 320 377
#     4   9  18  33  54  80 113 152 196 243 293 360
#
# _framework density 20.577226
#
# number of rings (size 3 to 8) (size 9 to 14) (size 15 to 20)
#    0.000    1.714    0.000    4.286    6.000    2.571 
#    0.000    2.143    0.000    2.143    0.000    0.000 
#    0.000    0.000    0.000    0.000    0.000    0.000 
#
# Total GULP energy -156111.083782 kJ/mol
# GULP energy per Si atom -5575.395849 kJ/mol
# Density = 2.053039 g / cm^3
# Si number density = 20.577226 Si / 1000 Ang^3
#
#
#
# Elastic Constant Matrix: (Units=GPa)
#
#
# Indices 1 2 3 4 5 6 
#
# 1 120.5852 38.6961 41.2568 0.0000 0.0000 0.0000
# 2 38.6961 77.8878 39.8829 0.0000 0.0000 0.0000
# 3 41.2568 39.8829 111.7472 0.0000 0.0000 0.0000
# 4 0.0000 0.0000 0.0000 24.8749 0.0000 0.0000
# 5 0.0000 0.0000 0.0000 0.0000 30.7263 0.0000
# 6 0.0000 0.0000 0.0000 0.0000 0.0000 25.4284
#
#
#
# Elastic Compliance Matrix: (Units=1/GPa)
#
#
# Indices 1 2 3 4 5 6 
#
# 1 0.010381 -0.003910 -0.002437 0.000000 0.000000 0.000000
# 2 -0.003910 0.017182 -0.004689 0.000000 0.000000 0.000000
# 3 -0.002437 -0.004689 0.011522 0.000000 0.000000 0.000000
# 4 0.000000 0.000000 0.000000 0.040201 0.000000 0.000000
# 5 0.000000 0.000000 0.000000 0.000000 0.032545 0.000000
# 6 0.000000 0.000000 0.000000 0.000000 0.000000 0.039326
#
#
# Mechanical properties :
#
#
# Convention : Reuss Voigt Hill
#
# Bulk Modulus (GPa) = 58.77558 61.09911 59.93735
# Shear Modulus (GPa) = 27.94825 28.89822 28.42323
#
# Velocity S-wave (km/s) = 3.68939 3.75157 3.72061
# Velocity P-wave (km/s) = 6.83917 6.96583 6.90279
#
# Compressibility (1/GPa) = 0.01701387
#
# Stress axis : x y z
#
# Youngs Moduli (GPa) = 96.32581 58.19918 86.78895
#
# Poissons Ratio (x) = 0.22753 0.21154
# Poissons Ratio (y) = 0.37659 0.40696
# Poissons Ratio (z) = 0.23479 0.27290
#
# Static dielectric constant tensor:
#      x y z
#    x 1.756310 0.000000 0.000000 
#    y 0.000000 1.766260 0.000000 
#    z 0.000000 0.000000 1.787150 
# 
# From -- ./inp_files/5719.got.cif
#   From: 2010.05.17/outbox.cif.g08.bks.cpg/sg38_3_cif.got.tgz:5719.got - 2010.06.03 18:07:57.
