data_PCOD9358545
_publ_section_title
;
Structure prediction by ZEFSAII (Michael W. Deem and Ramdas Pophale) SiO2 
 PCOD9358545
Probable space group: A M M 2
;
_chemical_formula_sum "Si O2"
_cell_formula_units_Z 40
_cell_length_a 8.168585
_cell_length_b 7.640508
_cell_length_c 29.240576
_cell_angle_alpha 90.000000
_cell_angle_beta 90.000000
_cell_angle_gamma 90.000000
_cell_volume 1824.966895
_symmetry_space_group_name_H-M "A M M 2"
_symmetry_group_IT_number 38
_symmetry_cell_setting 'orthorhombic'
loop_
_space_group_symop_operation_xyz
x,y,z
-x,-y,z
-x,y,z
x,-y,z
x,1/2+y,1/2+z
-x,1/2-y,1/2+z
-x,1/2+y,1/2+z
x,1/2-y,1/2+z
loop_
_atom_site_type_symbol
_atom_site_label
_atom_site_fract_x
_atom_site_fract_y
_atom_site_fract_z
Si Si1 0.307234 0.288553 0.809150
Si Si2 0.308798 0.713162 0.910362
Si Si3 0.180459 0.711813 0.007134
Si Si4 0.500000 0.200575 0.667819
Si Si5 0.176557 0.204959 0.712259
Si Si6 0.500000 0.200269 0.066256
O O1 0.500000 0.242919 0.804171
O O2 0.296401 0.500000 0.807633
O O3 0.253410 0.230468 0.859869
O O4 0.208878 0.216907 0.766397
O O5 0.500000 0.762253 0.915824
O O6 0.304246 0.500000 0.910029
O O7 0.210598 0.771167 0.954811
O O8 0.180328 0.500000 0.007014
O O9 0.336712 0.765227 0.036912
O O10 0.000000 0.769842 0.023050
O O11 0.334069 0.283577 0.687142
O O12 0.500000 0.195671 0.613404
O O13 0.500000 0.000000 0.685664
O O14 0.000000 0.283627 0.701141
O O15 0.169230 0.000000 0.699331
O O16 0.500000 0.000000 0.080397
#
# Coordination Sequence:
#
# PCOD9358545 Si02
#       6
#     8   8   8   4   8   4
#     4   9  17  30  53  85 118 152 188 227 275 328
#     4   8  14  28  53  84 116 149 190 236 273 317
#     4  10  20  37  64  91 115 151 200 244 281 334
#     4  10  22  42  63  80 105 143 190 243 287 336
#     4  10  21  37  58  84 112 145 187 231 277 332
#     4  12  26  42  61  86 119 151 182 237 305 362
#
# _framework density 21.918206999999999
#
# number of rings (size 3 to 8) (size 9 to 14) (size 15 to 20)
#    0.000    2.400    2.000    2.100    0.000    3.200 
#    0.000    5.000    0.000    0.000    0.000    0.000 
#    0.000    0.000    0.000    0.000    0.000    0.000 
#
# Total GULP energy -111650.636827 kJ/mol
# GULP energy per Si atom -5582.531841 kJ/mol
# Density = 2.186832 g / cm^3
# Si number density = 21.918207 Si / 1000 Ang^3
#
#
#
# Elastic Constant Matrix: (Units=GPa)
#
#
# Indices 1 2 3 4 5 6 
#
# 1 180.8363 9.0045 72.0654 0.0000 0.0000 0.0000
# 2 9.0045 46.7630 -9.2572 0.0000 0.0000 0.0000
# 3 72.0654 -9.2572 99.1538 0.0000 0.0000 0.0000
# 4 0.0000 0.0000 0.0000 18.5242 0.0000 0.0000
# 5 0.0000 0.0000 0.0000 0.0000 -3.5181 0.0000
# 6 0.0000 0.0000 0.0000 0.0000 0.0000 1.7371
#
#
#
# Elastic Compliance Matrix: (Units=1/GPa)
#
#
# Indices 1 2 3 4 5 6 
#
# 1 0.008126 -0.002785 -0.006166 0.000000 0.000000 0.000000
# 2 -0.002785 0.022742 0.004148 0.000000 0.000000 0.000000
# 3 -0.006166 0.004148 0.014954 0.000000 0.000000 0.000000
# 4 0.000000 0.000000 0.000000 0.053983 0.000000 0.000000
# 5 0.000000 0.000000 0.000000 0.000000 -0.284244 0.000000
# 6 0.000000 0.000000 0.000000 0.000000 0.000000 0.575664
#
#
# Mechanical properties :
#
#
# Convention : Reuss Voigt Hill
#
# Bulk Modulus (GPa) = 27.61338 52.26429 39.93884
# Shear Modulus (GPa) = 12.10939 20.34468 16.22704
#
# Velocity S-wave (km/s) = 2.35304 3.04996 2.72388
# Velocity P-wave (km/s) = 4.47304 6.02494 5.30604
#
# Compressibility (1/GPa) = 0.03621432
#
# Stress axis : x y z
#
# Youngs Moduli (GPa) = 123.06619 43.97196 66.87211
#
# Poissons Ratio (x) = 0.12247 0.41232
# Poissons Ratio (y) = 0.34277 -0.27735
# Poissons Ratio (z) = 0.75881 -0.18238
#
# Static dielectric constant tensor:
#      x y z
#    x 1.828330 0.000000 0.000000 
#    y 0.000000 1.826950 0.000000 
#    z 0.000000 0.000000 1.767830 
# 
# From -- ./inp_files/23223.got.cif
#   From: 2010.05.17/outbox.cif.g08.bks.cpg/sg38_12_cif.got.tgz:23223.got - 2010.06.03 18:07:57.
