data_PCOD9358673
_publ_section_title
;
Structure prediction by ZEFSAII (Michael W. Deem and Ramdas Pophale) SiO2 
 PCOD9358673
Probable space group: A M M 2
;
_chemical_formula_sum "Si O2"
_cell_formula_units_Z 64
_cell_length_a 7.545446
_cell_length_b 18.745893
_cell_length_c 21.877955
_cell_angle_alpha 90.000000
_cell_angle_beta 90.000000
_cell_angle_gamma 90.000000
_cell_volume 3094.551922
_symmetry_space_group_name_H-M "A M M 2"
_symmetry_group_IT_number 38
_symmetry_cell_setting 'orthorhombic'
loop_
_space_group_symop_operation_xyz
x,y,z
-x,-y,z
-x,y,z
x,-y,z
x,1/2+y,1/2+z
-x,1/2-y,1/2+z
-x,1/2+y,1/2+z
x,1/2-y,1/2+z
loop_
_atom_site_type_symbol
_atom_site_label
_atom_site_fract_x
_atom_site_fract_y
_atom_site_fract_z
Si Si1 0.287003 0.657325 0.073880
Si Si2 0.208539 0.150867 0.308869
Si Si3 0.284520 0.681467 0.307827
Si Si4 0.287550 0.320348 0.570816
Si Si5 0.701420 0.167008 0.940688
Si Si6 0.789133 0.331820 0.940551
Si Si7 0.786466 0.419722 0.685643
Si Si8 0.716842 0.081254 0.696547
O O1 0.500000 0.659147 0.077879
O O2 0.221295 0.739245 0.079577
O O3 0.223841 0.610788 0.130757
O O4 0.242322 0.631357 0.005555
O O5 0.229649 0.236145 0.300950
O O6 0.275189 0.133219 0.377281
O O7 0.283904 0.111400 0.249819
O O8 0.000000 0.134091 0.309671
O O9 0.500000 0.681305 0.309776
O O10 0.219588 0.652600 0.373844
O O11 0.226862 0.633571 0.251069
O O12 0.500000 0.315165 0.563135
O O13 0.217532 0.352323 0.506449
O O14 0.254437 0.368166 0.629407
O O15 0.500000 0.139301 0.939154
O O16 0.700575 0.253709 0.943779
O O17 0.000000 0.319625 0.934772
O O18 0.722127 0.500000 0.675196
O O19 0.000000 0.421971 0.689666
O O20 0.500000 0.081922 0.696653
O O21 0.772913 0.000000 0.706210
#
# Coordination Sequence:
#
# PCOD9358673 Si02
#       8
#     8   8   8   8   8   8   8   8
#     4   9  17  30  48  70  96 123 150 185 229 271
#     4   9  18  32  49  69  92 118 150 190 234 274
#     4   9  16  29  51  74  93 118 154 190 223 266
#     4   9  17  30  48  70  93 117 150 191 232 271
#     4   8  15  28  46  70  97 120 145 184 232 272
#     4   9  16  27  46  71  93 115 149 190 229 271
#     4  10  21  35  48  64  90 124 158 190 227 273
#     4   9  17  29  46  69  96 125 156 188 222 264
#
# _framework density 20.681508000000001
#
# number of rings (size 3 to 8) (size 9 to 14) (size 15 to 20)
#    0.000    3.000    0.000    1.875    0.000    4.250 
#    0.000    1.875    0.000    4.500    0.000    0.000 
#    0.000    0.000    0.000    0.000    0.000    0.000 
#
# Total GULP energy -178343.058414 kJ/mol
# GULP energy per Si atom -5573.220575 kJ/mol
# Density = 2.063444 g / cm^3
# Si number density = 20.681508 Si / 1000 Ang^3
#
#
#
# Elastic Constant Matrix: (Units=GPa)
#
#
# Indices 1 2 3 4 5 6 
#
# 1 53.4192 -5.2974 -0.6495 0.0000 0.0000 0.0000
# 2 -5.2974 -70.0553 -108.7126 0.0000 0.0000 0.0000
# 3 -0.6495 -108.7126 -20.2730 0.0000 0.0000 0.0000
# 4 0.0000 0.0000 0.0000 -7.5171 0.0000 0.0000
# 5 0.0000 0.0000 0.0000 0.0000 18.2640 0.0000
# 6 0.0000 0.0000 0.0000 0.0000 0.0000 7.0687
#
#
#
# Elastic Compliance Matrix: (Units=1/GPa)
#
#
# Indices 1 2 3 4 5 6 
#
# 1 0.018715 0.000066 -0.000955 0.000000 0.000000 0.000000
# 2 0.000066 0.001950 -0.010458 0.000000 0.000000 0.000000
# 3 -0.000955 -0.010458 0.006786 0.000000 0.000000 0.000000
# 4 0.000000 0.000000 0.000000 -0.133031 0.000000 0.000000
# 5 0.000000 0.000000 0.000000 0.000000 0.054753 0.000000
# 6 0.000000 0.000000 0.000000 0.000000 0.000000 0.141468
#
#
# Mechanical properties :
#
#
# Convention : Reuss Voigt Hill
#
# Bulk Modulus (GPa) = 210.20656 -29.58092 90.31282
# Shear Modulus (GPa) = 43.50863 8.74649 26.12756
#
# Velocity S-wave (km/s) = 4.59164 2.05872 3.55819
# Velocity P-wave (km/s) = 11.40050 2.94670 7.78744
#
# Compressibility (1/GPa) = 0.00475723
#
# Stress axis : x y z
#
# Youngs Moduli (GPa) = 53.43355 512.84750 147.36330
#
# Poissons Ratio (x) = -0.03395 0.14067
# Poissons Ratio (y) = -0.00354 1.54117
# Poissons Ratio (z) = 0.05101 5.36352
#
# Static dielectric constant tensor:
#      x y z
#    x 1.787260 0.000000 0.000000 
#    y 0.000000 1.676030 0.000000 
#    z 0.000000 0.000000 1.794180 
# 
# From -- ./inp_files/20053.got.cif
#   From: 2010.05.17/outbox.cif.g08.bks.cpg/sg38_11_cif.got.tgz:20053.got - 2010.06.03 18:07:57.
