data_PCOD9358070
_publ_section_title
;
Structure prediction by ZEFSAII (Michael W. Deem and Ramdas Pophale) SiO2 
 PCOD9358070
Probable space group: A M M 2
;
_chemical_formula_sum "Si O2"
_cell_formula_units_Z 64
_cell_length_a 19.000062
_cell_length_b 20.947390
_cell_length_c 8.443981
_cell_angle_alpha 90.000000
_cell_angle_beta 90.000000
_cell_angle_gamma 90.000000
_cell_volume 3360.718867
_symmetry_space_group_name_H-M "A M M 2"
_symmetry_group_IT_number 38
_symmetry_cell_setting 'orthorhombic'
loop_
_space_group_symop_operation_xyz
x,y,z
-x,-y,z
-x,y,z
x,-y,z
x,1/2+y,1/2+z
-x,1/2-y,1/2+z
-x,1/2+y,1/2+z
x,1/2-y,1/2+z
loop_
_atom_site_type_symbol
_atom_site_label
_atom_site_fract_x
_atom_site_fract_y
_atom_site_fract_z
Si Si1 0.779885 0.809883 0.765570
Si Si2 0.419239 0.718437 0.141460
Si Si3 0.420152 0.847653 0.987062
Si Si4 0.284056 0.310641 0.940771
Si Si5 0.782406 0.072659 0.274687
Si Si6 0.920189 0.782291 0.949790
Si Si7 0.714519 0.427851 0.435295
Si Si8 0.921127 0.152066 0.292031
O O1 0.733436 0.750613 0.832545
O O2 0.773976 0.804111 0.579016
O O3 0.856997 0.807499 0.841078
O O4 0.744222 0.876272 0.813979
O O5 0.500000 0.706977 0.086348
O O6 0.414672 0.690300 0.318464
O O7 0.408258 0.794784 0.123917
O O8 0.359261 0.690420 0.027618
O O9 0.500000 0.871589 0.999428
O O10 0.361728 0.901840 0.987835
O O11 0.270210 0.376406 0.851988
O O12 0.860131 0.100418 0.304117
O O13 0.774613 0.000000 0.331571
O O14 0.764939 0.073307 0.088216
O O15 0.918374 0.705845 0.927992
O O16 0.000000 0.801318 0.899921
O O17 0.910204 0.808387 0.127555
O O18 0.710435 0.500000 0.374664
O O19 0.000000 0.124852 0.287899
#
# Coordination Sequence:
#
# PCOD9358070 Si02
#       8
#     8   8   8   8   8   8   8   8
#     4  12  21  36  62  89 116 152 193 243 293 347
#     4  10  20  35  57  89 119 146 186 237 293 350
#     4  10  21  37  58  88 118 150 190 239 297 351
#     4  12  22  36  62  89 116 154 195 244 294 346
#     4  11  25  41  57  83 118 157 204 246 290 350
#     4  10  20  34  57  91 120 146 187 239 293 343
#     4  11  23  39  58  82 116 155 199 244 289 345
#     4  10  20  36  59  87 119 152 190 240 297 350
#
# _framework density 19.043545000000002
#
# number of rings (size 3 to 8) (size 9 to 14) (size 15 to 20)
#    0.000    1.250    5.000    1.500    1.750    1.000 
#    0.000    0.000    0.000    1.500    0.000    0.000 
#    0.000    0.000    0.000    0.000    0.000    0.000 
#
# Total GULP energy -178716.614473 kJ/mol
# GULP energy per Si atom -5584.894202 kJ/mol
# Density = 1.900020 g / cm^3
# Si number density = 19.043545 Si / 1000 Ang^3
#
#
#
# Elastic Constant Matrix: (Units=GPa)
#
#
# Indices 1 2 3 4 5 6 
#
# 1 105.3462 30.6133 -9.5857 0.0000 0.0000 0.0000
# 2 30.6133 120.1228 14.2279 0.0000 0.0000 0.0000
# 3 -9.5857 14.2279 34.6397 0.0000 0.0000 0.0000
# 4 0.0000 0.0000 0.0000 23.4315 0.0000 0.0000
# 5 0.0000 0.0000 0.0000 0.0000 26.2718 0.0000
# 6 0.0000 0.0000 0.0000 0.0000 0.0000 19.8360
#
#
#
# Elastic Compliance Matrix: (Units=1/GPa)
#
#
# Indices 1 2 3 4 5 6 
#
# 1 0.010840 -0.003277 0.004346 0.000000 0.000000 0.000000
# 2 -0.003277 0.009741 -0.004908 0.000000 0.000000 0.000000
# 3 0.004346 -0.004908 0.032087 0.000000 0.000000 0.000000
# 4 0.000000 0.000000 0.000000 0.042678 0.000000 0.000000
# 5 0.000000 0.000000 0.000000 0.000000 0.038064 0.000000
# 6 0.000000 0.000000 0.000000 0.000000 0.000000 0.050413
#
#
# Mechanical properties :
#
#
# Convention : Reuss Voigt Hill
#
# Bulk Modulus (GPa) = 22.22724 36.73554 29.48139
# Shear Modulus (GPa) = 24.21315 28.89808 26.55562
#
# Velocity S-wave (km/s) = 3.56963 3.89970 3.73831
# Velocity P-wave (km/s) = 5.35600 6.29357 5.84362
#
# Compressibility (1/GPa) = 0.04498984
#
# Stress axis : x y z
#
# Youngs Moduli (GPa) = 92.24772 102.65451 31.16505
#
# Poissons Ratio (x) = 0.33644 -0.13544
# Poissons Ratio (y) = 0.30234 0.15296
# Poissons Ratio (z) = -0.40091 0.50384
#
# Static dielectric constant tensor:
#      x y z
#    x 1.709010 0.000000 0.000000 
#    y 0.000000 1.635440 0.000000 
#    z 0.000000 0.000000 1.676320 
# 
# From -- ./inp_files/6825.got.cif
#   From: 2010.05.17/outbox.cif.g08.bks.cpg/sg38_4_cif.got.tgz:6825.got - 2010.06.03 18:07:57.
