data_PCOD9358000
_publ_section_title
;
Structure prediction by ZEFSAII (Michael W. Deem and Ramdas Pophale) SiO2 
 PCOD9358000
Probable space group: A M M 2
;
_chemical_formula_sum "Si O2"
_cell_formula_units_Z 48
_cell_length_a 8.351332
_cell_length_b 7.572184
_cell_length_c 33.985347
_cell_angle_alpha 90.000000
_cell_angle_beta 90.000000
_cell_angle_gamma 90.000000
_cell_volume 2149.159343
_symmetry_space_group_name_H-M "A M M 2"
_symmetry_group_IT_number 38
_symmetry_cell_setting 'orthorhombic'
loop_
_space_group_symop_operation_xyz
x,y,z
-x,-y,z
-x,y,z
x,-y,z
x,1/2+y,1/2+z
-x,1/2-y,1/2+z
-x,1/2+y,1/2+z
x,1/2-y,1/2+z
loop_
_atom_site_type_symbol
_atom_site_label
_atom_site_fract_x
_atom_site_fract_y
_atom_site_fract_z
Si Si1 0.820774 0.291705 0.593600
Si Si2 0.818362 0.213882 0.762071
Si Si3 0.683113 0.786797 0.678447
Si Si4 0.000000 0.784620 0.384131
Si Si5 0.675228 0.792284 0.343646
Si Si6 0.673962 0.204910 0.515023
Si Si7 0.000000 0.215421 0.476038
O O1 0.821635 0.500000 0.585977
O O2 0.772072 0.264565 0.638626
O O3 0.701075 0.210536 0.561964
O O4 0.000000 0.220585 0.587031
O O5 0.765271 0.273821 0.718798
O O6 0.704060 0.274899 0.796972
O O7 0.000000 0.272231 0.770395
O O8 0.816174 0.000000 0.762121
O O9 0.500000 0.725050 0.676948
O O10 0.682149 0.000000 0.679691
O O11 0.164179 0.719056 0.364014
O O12 0.000000 0.742276 0.430085
O O13 0.000000 0.000000 0.380286
O O14 0.500000 0.717537 0.354057
O O15 0.670674 0.000000 0.353608
O O16 0.500000 0.283679 0.505282
O O17 0.835906 0.281024 0.496072
O O18 0.668598 0.000000 0.502643
O O19 0.000000 0.000000 0.480099
#
# Coordination Sequence:
#
# PCOD9358000 Si02
#       7
#     8   8   8   4   8   8   4
#     4  11  23  37  54  78 109 147 186 224 271 324
#     4  10  20  35  56  80 107 144 187 229 273 319
#     4  10  21  36  54  78 107 141 184 231 275 319
#     4   9  18  34  55  82 115 144 175 222 275 325
#     4  10  20  34  55  82 112 148 184 221 271 326
#     4  10  20  35  58  85 110 142 183 224 271 325
#     4   9  18  34  57  84 113 142 175 224 275 321
#
# _framework density 22.334315
#
# number of rings (size 3 to 8) (size 9 to 14) (size 15 to 20)
#    0.000    2.000    1.667    2.000    0.000    6.667 
#    0.000    3.333    0.000    2.000    0.000    2.333 
#    0.000    0.000    0.000    0.000    0.000    0.000 
#
# Total GULP energy -134102.829362 kJ/mol
# GULP energy per Si atom -5587.617890 kJ/mol
# Density = 2.228348 g / cm^3
# Si number density = 22.334315 Si / 1000 Ang^3
#
#
#
# Elastic Constant Matrix: (Units=GPa)
#
#
# Indices 1 2 3 4 5 6 
#
# 1 216.0457 11.1090 69.1638 0.0000 0.0000 0.0000
# 2 11.1090 54.5762 -7.5291 0.0000 0.0000 0.0000
# 3 69.1638 -7.5291 110.2572 0.0000 0.0000 0.0000
# 4 0.0000 0.0000 0.0000 7.8099 0.0000 0.0000
# 5 0.0000 0.0000 0.0000 0.0000 2.9099 0.0000
# 6 0.0000 0.0000 0.0000 0.0000 0.0000 1.0083
#
#
#
# Elastic Compliance Matrix: (Units=1/GPa)
#
#
# Indices 1 2 3 4 5 6 
#
# 1 0.005952 -0.001743 -0.003852 0.000000 0.000000 0.000000
# 2 -0.001743 0.019008 0.002391 0.000000 0.000000 0.000000
# 3 -0.003852 0.002391 0.011650 0.000000 0.000000 0.000000
# 4 0.000000 0.000000 0.000000 0.128043 0.000000 0.000000
# 5 0.000000 0.000000 0.000000 0.000000 0.343657 0.000000
# 6 0.000000 0.000000 0.000000 0.000000 0.000000 0.991794
#
#
# Mechanical properties :
#
#
# Convention : Reuss Voigt Hill
#
# Bulk Modulus (GPa) = 33.11172 58.48516 45.79844
# Shear Modulus (GPa) = 3.29690 22.88797 13.09243
#
# Velocity S-wave (km/s) = 1.21629 3.20471 2.42379
# Velocity P-wave (km/s) = 4.10246 6.31954 5.32761
#
# Compressibility (1/GPa) = 0.03020079
#
# Stress axis : x y z
#
# Youngs Moduli (GPa) = 168.02318 52.61035 85.83993
#
# Poissons Ratio (x) = 0.09169 0.33069
# Poissons Ratio (y) = 0.29285 -0.20527
# Poissons Ratio (z) = 0.64729 -0.12581
#
# Static dielectric constant tensor:
#      x y z
#    x 1.838430 0.000000 0.000000 
#    y 0.000000 1.871090 0.000000 
#    z 0.000000 0.000000 1.771860 
# 
# From -- ./inp_files/24355.got.cif
#   From: 2010.05.17/outbox.cif.g08.bks.cpg/sg38_13_cif.got.tgz:24355.got - 2010.06.03 18:07:57.
