data_PCOD9358421
_publ_section_title
;
Structure prediction by ZEFSAII (Michael W. Deem and Ramdas Pophale) SiO2 
 PCOD9358421
Probable space group: A M M 2
;
_chemical_formula_sum "Si O2"
_cell_formula_units_Z 40
_cell_length_a 12.918571
_cell_length_b 25.050760
_cell_length_c 5.352279
_cell_angle_alpha 90.000000
_cell_angle_beta 90.000000
_cell_angle_gamma 90.000000
_cell_volume 1732.104646
_symmetry_space_group_name_H-M "A M M 2"
_symmetry_group_IT_number 38
_symmetry_cell_setting 'orthorhombic'
loop_
_space_group_symop_operation_xyz
x,y,z
-x,-y,z
-x,y,z
x,-y,z
x,1/2+y,1/2+z
-x,1/2-y,1/2+z
-x,1/2+y,1/2+z
x,1/2-y,1/2+z
loop_
_atom_site_type_symbol
_atom_site_label
_atom_site_fract_x
_atom_site_fract_y
_atom_site_fract_z
Si Si1 0.789651 0.278989 0.089310
Si Si2 0.227851 0.629228 0.751380
Si Si3 0.112568 0.441567 0.400666
Si Si4 0.326542 0.059644 0.607176
Si Si5 0.616448 0.170057 0.856184
O O1 0.826565 0.256610 0.354823
O O2 0.667037 0.289625 0.153439
O O3 0.814311 0.338355 0.989196
O O4 0.135586 0.605331 0.592740
O O5 0.302006 0.667132 0.585170
O O6 0.303490 0.580592 0.828923
O O7 0.112872 0.500000 0.529469
O O8 0.211187 0.442683 0.221977
O O9 0.000000 0.435649 0.279374
O O10 0.381564 0.109632 0.741495
O O11 0.371307 0.000000 0.621505
O O12 0.500000 0.183709 0.925028
#
# Coordination Sequence:
#
# PCOD9358421 Si02
#       5
#     8   8   8   8   8
#     4  11  22  41  62  88 117 157 200 254 314 367
#     4  10  20  36  61  88 122 163 206 257 314 377
#     4   9  18  34  59  93 129 165 208 258 312 371
#     4   9  19  35  54  82 123 167 205 250 311 376
#     4  10  22  38  56  84 120 160 210 262 310 372
#
# _framework density 23.093294
#
# number of rings (size 3 to 8) (size 9 to 14) (size 15 to 20)
#    0.000    2.200    2.000    0.600    0.000    6.000 
#    0.000    2.000    0.000    1.200    0.000    0.000 
#    0.000    0.000    0.000    0.000    0.000    0.000 
#
# Total GULP energy -111363.178967 kJ/mol
# GULP energy per Si atom -5568.158948 kJ/mol
# Density = 2.304073 g / cm^3
# Si number density = 23.093294 Si / 1000 Ang^3
#
#
#
# Elastic Constant Matrix: (Units=GPa)
#
#
# Indices 1 2 3 4 5 6 
#
# 1 75.6349 -8.6443 7.2542 0.0000 0.0000 0.0000
# 2 -8.6443 94.0030 32.1443 0.0000 0.0000 0.0000
# 3 7.2542 32.1443 95.0334 0.0000 0.0000 0.0000
# 4 0.0000 0.0000 0.0000 46.6266 0.0000 0.0000
# 5 0.0000 0.0000 0.0000 0.0000 1.5572 0.0000
# 6 0.0000 0.0000 0.0000 0.0000 0.0000 12.9974
#
#
#
# Elastic Compliance Matrix: (Units=1/GPa)
#
#
# Indices 1 2 3 4 5 6 
#
# 1 0.013587 0.001814 -0.001651 0.000000 0.000000 0.000000
# 2 0.001814 0.012271 -0.004289 0.000000 0.000000 0.000000
# 3 -0.001651 -0.004289 0.012099 0.000000 0.000000 0.000000
# 4 0.000000 0.000000 0.000000 0.021447 0.000000 0.000000
# 5 0.000000 0.000000 0.000000 0.000000 0.642165 0.000000
# 6 0.000000 0.000000 0.000000 0.000000 0.000000 0.076939
#
#
# Mechanical properties :
#
#
# Convention : Reuss Voigt Hill
#
# Bulk Modulus (GPa) = 33.66331 36.24218 34.95275
# Shear Modulus (GPa) = 6.27618 27.83072 17.05345
#
# Velocity S-wave (km/s) = 1.65035 3.47528 2.72041
# Velocity P-wave (km/s) = 4.27086 5.64193 5.00358
#
# Compressibility (1/GPa) = 0.02970593
#
# Stress axis : x y z
#
# Youngs Moduli (GPa) = 73.59960 81.49007 82.64872
#
# Poissons Ratio (x) = -0.14781 0.13643
# Poissons Ratio (y) = -0.13350 0.35449
# Poissons Ratio (z) = 0.12149 0.34953
#
# Static dielectric constant tensor:
#      x y z
#    x 1.827810 0.000000 0.000000 
#    y 0.000000 1.974630 0.000000 
#    z 0.000000 0.000000 1.947750 
# 
# From -- ./inp_files/894.got.cif
#   From: 2010.05.17/outbox.cif.g08.bks.cpg/sg38_1_cif.got.tgz:894.got - 2010.06.03 18:07:57.
