data_PCOD9358356
_publ_section_title
;
Structure prediction by ZEFSAII (Michael W. Deem and Ramdas Pophale) SiO2 
 PCOD9358356
Probable space group: A M M 2
;
_chemical_formula_sum "Si O2"
_cell_formula_units_Z 48
_cell_length_a 9.252838
_cell_length_b 7.860590
_cell_length_c 35.098822
_cell_angle_alpha 90.000000
_cell_angle_beta 90.000000
_cell_angle_gamma 90.000000
_cell_volume 2552.834402
_symmetry_space_group_name_H-M "A M M 2"
_symmetry_group_IT_number 38
_symmetry_cell_setting 'orthorhombic'
loop_
_space_group_symop_operation_xyz
x,y,z
-x,-y,z
-x,y,z
x,-y,z
x,1/2+y,1/2+z
-x,1/2-y,1/2+z
-x,1/2+y,1/2+z
x,1/2-y,1/2+z
loop_
_atom_site_type_symbol
_atom_site_label
_atom_site_fract_x
_atom_site_fract_y
_atom_site_fract_z
Si Si1 0.164768 0.800707 0.635960
Si Si2 0.173825 0.000000 0.843789
Si Si3 0.665449 0.704583 0.978723
Si Si4 0.827142 0.697820 0.901889
Si Si5 0.335124 0.797919 0.061474
Si Si6 0.173647 0.693192 0.718484
Si Si7 0.673796 0.000000 0.762539
O O1 0.253112 0.775148 0.597598
O O2 0.216253 0.705768 0.673875
O O3 0.000000 0.745888 0.628597
O O4 0.164986 0.000000 0.645865
O O5 0.207242 0.831770 0.868741
O O6 0.264099 0.000000 0.805252
O O7 0.000000 0.000000 0.835936
O O8 0.500000 0.768827 0.976240
O O9 0.661811 0.500000 0.978786
O O10 0.753449 0.754542 0.941353
O O11 0.727422 0.758622 0.019658
O O12 0.785382 0.500000 0.893797
O O13 0.000000 0.700303 0.906910
O O14 0.500000 0.731815 0.061179
O O15 0.338214 0.000000 0.065951
O O16 0.196642 0.500000 0.732059
O O17 0.261085 0.833869 0.741570
O O18 0.000000 0.728970 0.720384
O O19 0.500000 0.000000 0.761457
#
# Coordination Sequence:
#
# PCOD9358356 Si02
#       7
#     8   4   8   8   8   8   4
#     4  10  20  36  59  84 112 148 196 248 295 346
#     4  10  22  40  62  86 116 152 196 244 296 360
#     4   9  18  33  52  75 107 148 190 233 286 347
#     4   9  19  36  58  84 112 145 189 241 293 347
#     4  10  21  34  49  76 114 154 195 239 288 348
#     4  10  21  41  68  91 118 160 205 250 302 364
#     4  12  26  42  62  94 130 160 196 250 308 368
#
# _framework density 18.802630000000001
#
# number of rings (size 3 to 8) (size 9 to 14) (size 15 to 20)
#    0.000    2.167    0.833    1.750    1.167    5.000 
#    0.000    3.333    0.000    0.000    0.000    0.000 
#    0.000    0.000    0.000    0.000    0.000    0.000 
#
# Total GULP energy -133928.365176 kJ/mol
# GULP energy per Si atom -5580.348549 kJ/mol
# Density = 1.875983 g / cm^3
# Si number density = 18.802630 Si / 1000 Ang^3
#
#
#
# Elastic Constant Matrix: (Units=GPa)
#
#
# Indices 1 2 3 4 5 6 
#
# 1 55.8580 44.0978 69.5320 0.0000 0.0000 0.0000
# 2 44.0978 95.0022 64.5567 0.0000 0.0000 0.0000
# 3 69.5320 64.5567 152.5284 0.0000 0.0000 0.0000
# 4 0.0000 0.0000 0.0000 0.0293 0.0000 0.0000
# 5 0.0000 0.0000 0.0000 0.0000 46.2056 0.0000
# 6 0.0000 0.0000 0.0000 0.0000 0.0000 18.2467
#
#
#
# Elastic Compliance Matrix: (Units=1/GPa)
#
#
# Indices 1 2 3 4 5 6 
#
# 1 0.047661 -0.010330 -0.017355 0.000000 0.000000 0.000000
# 2 -0.010330 0.017015 -0.002492 0.000000 0.000000 0.000000
# 3 -0.017355 -0.002492 0.015522 0.000000 0.000000 0.000000
# 4 0.000000 0.000000 0.000000 34.121983 0.000000 0.000000
# 5 0.000000 0.000000 0.000000 0.000000 0.021642 0.000000
# 6 0.000000 0.000000 0.000000 0.000000 0.000000 0.054804
#
#
# Mechanical properties :
#
#
# Convention : Reuss Voigt Hill
#
# Bulk Modulus (GPa) = 50.39347 73.30685 61.85016
# Shear Modulus (GPa) = 0.14558 21.24313 10.69436
#
# Velocity S-wave (km/s) = 0.27856 3.36489 2.38748
# Velocity P-wave (km/s) = 5.19258 7.35995 6.36914
#
# Compressibility (1/GPa) = 0.01984384
#
# Stress axis : x y z
#
# Youngs Moduli (GPa) = 20.98155 58.77312 64.42333
#
# Poissons Ratio (x) = 0.60713 1.11805
# Poissons Ratio (y) = 0.21674 0.16056
# Poissons Ratio (z) = 0.36413 0.14647
#
# Static dielectric constant tensor:
#      x y z
#    x 1.646740 0.000000 0.000000 
#    y 0.000000 1.681570 0.000000 
#    z 0.000000 0.000000 1.632240 
# 
# From -- ./inp_files/24310.got.cif
#   From: 2010.05.17/outbox.cif.g08.bks.cpg/sg38_13_cif.got.tgz:24310.got - 2010.06.03 18:07:57.
