data_PCOD9358795
_publ_section_title
;
Structure prediction by ZEFSAII (Michael W. Deem and Ramdas Pophale) SiO2 
 PCOD9358795
Probable space group: A M M 2
;
_chemical_formula_sum "Si O2"
_cell_formula_units_Z 48
_cell_length_a 14.512352
_cell_length_b 8.655124
_cell_length_c 21.016301
_cell_angle_alpha 90.000000
_cell_angle_beta 90.000000
_cell_angle_gamma 90.000000
_cell_volume 2639.777835
_symmetry_space_group_name_H-M "A M M 2"
_symmetry_group_IT_number 38
_symmetry_cell_setting 'orthorhombic'
loop_
_space_group_symop_operation_xyz
x,y,z
-x,-y,z
-x,y,z
x,-y,z
x,1/2+y,1/2+z
-x,1/2-y,1/2+z
-x,1/2+y,1/2+z
x,1/2-y,1/2+z
loop_
_atom_site_type_symbol
_atom_site_label
_atom_site_fract_x
_atom_site_fract_y
_atom_site_fract_z
Si Si1 0.891442 0.185324 0.074520
Si Si2 0.396980 0.312012 0.006118
Si Si3 0.605169 0.186194 0.654127
Si Si4 0.106552 0.184981 0.826764
Si Si5 0.206858 0.815317 0.450555
Si Si6 0.788781 0.184638 0.204584
O O1 0.840969 0.232034 0.139594
O O2 0.000000 0.216825 0.079177
O O3 0.879570 0.000000 0.066465
O O4 0.848136 0.269575 0.014126
O O5 0.500000 0.260694 0.987696
O O6 0.397380 0.500000 0.005672
O O7 0.312242 0.261367 0.962572
O O8 0.380684 0.267154 0.079948
O O9 0.500000 0.227653 0.671268
O O10 0.683805 0.260171 0.696927
O O11 0.612728 0.000000 0.656748
O O12 0.158297 0.241988 0.889803
O O13 0.159800 0.245343 0.764970
O O14 0.000000 0.238981 0.826687
O O15 0.106156 0.000000 0.826200
O O16 0.207085 0.000000 0.443364
O O17 0.792167 0.000000 0.208985
#
# Coordination Sequence:
#
# PCOD9358795 Si02
#       6
#     8   8   8   8   8   8
#     4  10  21  36  54  79 113 148 183 231 289 344
#     4   8  15  30  54  84 116 148 182 224 276 332
#     4   9  17  33  58  86 118 154 190 231 282 341
#     4  11  25  43  60  78 110 156 198 238 291 353
#     4  11  21  35  59  87 113 145 190 238 284 339
#     4  11  22  37  59  86 116 149 191 242 290 341
#
# _framework density 18.183347999999999
#
# number of rings (size 3 to 8) (size 9 to 14) (size 15 to 20)
#    0.000    2.000    1.667    3.500    0.000    5.333 
#    0.000    0.833    0.000    5.000    0.000    0.000 
#    0.000    0.000    0.000    0.000    0.000    0.000 
#
# Total GULP energy -134004.017028 kJ/mol
# GULP energy per Si atom -5583.500710 kJ/mol
# Density = 1.814196 g / cm^3
# Si number density = 18.183348 Si / 1000 Ang^3
#
#
#
# Elastic Constant Matrix: (Units=GPa)
#
#
# Indices 1 2 3 4 5 6 
#
# 1 177.1292 42.6189 93.6314 0.0000 0.0000 0.0000
# 2 42.6189 32.1819 40.7135 0.0000 0.0000 0.0000
# 3 93.6314 40.7135 141.3447 0.0000 0.0000 0.0000
# 4 0.0000 0.0000 0.0000 30.4290 0.0000 0.0000
# 5 0.0000 0.0000 0.0000 0.0000 30.2760 0.0000
# 6 0.0000 0.0000 0.0000 0.0000 0.0000 26.0588
#
#
#
# Elastic Compliance Matrix: (Units=1/GPa)
#
#
# Indices 1 2 3 4 5 6 
#
# 1 0.009696 -0.007418 -0.004286 0.000000 0.000000 0.000000
# 2 -0.007418 0.054564 -0.010803 0.000000 0.000000 0.000000
# 3 -0.004286 -0.010803 0.013026 0.000000 0.000000 0.000000
# 4 0.000000 0.000000 0.000000 0.032863 0.000000 0.000000
# 5 0.000000 0.000000 0.000000 0.000000 0.033029 0.000000
# 6 0.000000 0.000000 0.000000 0.000000 0.000000 0.038375
#
#
# Mechanical properties :
#
#
# Convention : Reuss Voigt Hill
#
# Bulk Modulus (GPa) = 30.98691 78.28703 54.63697
# Shear Modulus (GPa) = 21.06805 28.93222 25.00013
#
# Velocity S-wave (km/s) = 3.40758 3.99323 3.71198
# Velocity P-wave (km/s) = 5.70618 8.02552 6.96310
#
# Compressibility (1/GPa) = 0.03227169
#
# Stress axis : x y z
#
# Youngs Moduli (GPa) = 103.13225 18.32704 76.76940
#
# Poissons Ratio (x) = 0.13595 0.32906
# Poissons Ratio (y) = 0.76506 0.82933
# Poissons Ratio (z) = 0.44206 0.19798
#
# Static dielectric constant tensor:
#      x y z
#    x 1.635470 0.000000 0.000000 
#    y 0.000000 1.618530 0.000000 
#    z 0.000000 0.000000 1.585680 
# 
# From -- ./inp_files/18153.got.cif
#   From: 2010.05.17/outbox.cif.g08.bks.cpg/sg38_10_cif.got.tgz:18153.got - 2010.06.03 18:07:57.
