data_PCOD9358476
_publ_section_title
;
Structure prediction by ZEFSAII (Michael W. Deem and Ramdas Pophale) SiO2 
 PCOD9358476
Probable space group: A M M 2
;
_chemical_formula_sum "Si O2"
_cell_formula_units_Z 48
_cell_length_a 17.266675
_cell_length_b 8.496524
_cell_length_c 16.343836
_cell_angle_alpha 90.000000
_cell_angle_beta 90.000000
_cell_angle_gamma 90.000000
_cell_volume 2397.750548
_symmetry_space_group_name_H-M "A M M 2"
_symmetry_group_IT_number 38
_symmetry_cell_setting 'orthorhombic'
loop_
_space_group_symop_operation_xyz
x,y,z
-x,-y,z
-x,y,z
x,-y,z
x,1/2+y,1/2+z
-x,1/2-y,1/2+z
-x,1/2+y,1/2+z
x,1/2-y,1/2+z
loop_
_atom_site_type_symbol
_atom_site_label
_atom_site_fract_x
_atom_site_fract_y
_atom_site_fract_z
Si Si1 0.176597 0.311323 0.210420
Si Si2 0.334304 0.691509 0.955346
Si Si3 0.500000 0.808128 0.391696
Si Si4 0.174334 0.188710 0.385033
Si Si5 0.663547 0.689460 0.141252
Si Si6 0.090838 0.188337 0.048296
Si Si7 0.500000 0.187698 0.202157
O O1 0.175520 0.500000 0.210945
O O2 0.146012 0.250200 0.297344
O O3 0.266092 0.256573 0.198570
O O4 0.130983 0.254237 0.130231
O O5 0.336001 0.500000 0.951901
O O6 0.419883 0.747646 0.931465
O O7 0.263588 0.743257 0.898556
O O8 0.316663 0.736443 0.048459
O O9 0.500000 0.764353 0.296985
O O10 0.500000 0.000000 0.397336
O O11 0.128103 0.245947 0.464767
O O12 0.172829 0.000000 0.384131
O O13 0.660931 0.500000 0.144158
O O14 0.578889 0.750636 0.162822
O O15 0.000000 0.228467 0.049909
O O16 0.099105 0.000000 0.048156
O O17 0.500000 0.000000 0.197945
#
# Coordination Sequence:
#
# PCOD9358476 Si02
#       7
#     8   8   4   8   8   8   4
#     4  11  23  41  66  97 129 167 213 261 317 381
#     4   9  17  33  57  83 113 157 207 250 301 363
#     4   9  17  29  49  77 114 153 198 249 294 350
#     4  11  22  40  66  96 129 168 212 258 314 380
#     4  10  20  37  59  83 116 161 209 256 310 371
#     4  11  25  45  68  95 127 164 208 261 320 381
#     4  11  22  33  49  83 120 157 208 263 312 362
#
# _framework density 20.018763
#
# number of rings (size 3 to 8) (size 9 to 14) (size 15 to 20)
#    0.000    1.667    1.667    3.250    0.000    6.000 
#    0.000    0.000    0.000    6.000    0.000    0.000 
#    0.000    0.000    0.000    0.000    0.000    0.000 
#
# Total GULP energy -134063.072907 kJ/mol
# GULP energy per Si atom -5585.961371 kJ/mol
# Density = 1.997320 g / cm^3
# Si number density = 20.018763 Si / 1000 Ang^3
#
#
#
# Elastic Constant Matrix: (Units=GPa)
#
#
# Indices 1 2 3 4 5 6 
#
# 1 121.0515 37.3259 67.3369 0.0000 0.0000 0.0000
# 2 37.3259 34.1356 37.9053 0.0000 0.0000 0.0000
# 3 67.3369 37.9053 169.8447 0.0000 0.0000 0.0000
# 4 0.0000 0.0000 0.0000 27.8938 0.0000 0.0000
# 5 0.0000 0.0000 0.0000 0.0000 10.6062 0.0000
# 6 0.0000 0.0000 0.0000 0.0000 0.0000 21.9159
#
#
#
# Elastic Compliance Matrix: (Units=1/GPa)
#
#
# Indices 1 2 3 4 5 6 
#
# 1 0.013335 -0.011581 -0.002702 0.000000 0.000000 0.000000
# 2 -0.011581 0.049004 -0.006345 0.000000 0.000000 0.000000
# 3 -0.002702 -0.006345 0.008375 0.000000 0.000000 0.000000
# 4 0.000000 0.000000 0.000000 0.035850 0.000000 0.000000
# 5 0.000000 0.000000 0.000000 0.000000 0.094285 0.000000
# 6 0.000000 0.000000 0.000000 0.000000 0.000000 0.045629
#
#
# Mechanical properties :
#
#
# Convention : Reuss Voigt Hill
#
# Bulk Modulus (GPa) = 33.94690 67.79646 50.87168
# Shear Modulus (GPa) = 16.80371 24.24742 20.52556
#
# Velocity S-wave (km/s) = 2.90038 3.48406 3.20553
# Velocity P-wave (km/s) = 5.31137 7.07989 6.25841
#
# Compressibility (1/GPa) = 0.02945777
#
# Stress axis : x y z
#
# Youngs Moduli (GPa) = 74.99072 20.40660 119.40017
#
# Poissons Ratio (x) = 0.23632 0.32266
# Poissons Ratio (y) = 0.86843 0.75762
# Poissons Ratio (z) = 0.20265 0.12948
#
# Static dielectric constant tensor:
#      x y z
#    x 1.724390 0.000000 0.000000 
#    y 0.000000 1.679300 0.000000 
#    z 0.000000 0.000000 1.695270 
# 
# From -- ./inp_files/15061.got.cif
#   From: 2010.05.17/outbox.cif.g08.bks.cpg/sg38_8_cif.got.tgz:15061.got - 2010.06.03 18:07:57.
