data_PCOD9358655
_publ_section_title
;
Structure prediction by ZEFSAII (Michael W. Deem and Ramdas Pophale) SiO2 
 PCOD9358655
Probable space group: A M M 2
;
_chemical_formula_sum "Si O2"
_cell_formula_units_Z 48
_cell_length_a 7.961575
_cell_length_b 17.188134
_cell_length_c 18.794192
_cell_angle_alpha 90.000000
_cell_angle_beta 90.000000
_cell_angle_gamma 90.000000
_cell_volume 2571.884024
_symmetry_space_group_name_H-M "A M M 2"
_symmetry_group_IT_number 38
_symmetry_cell_setting 'orthorhombic'
loop_
_space_group_symop_operation_xyz
x,y,z
-x,-y,z
-x,y,z
x,-y,z
x,1/2+y,1/2+z
-x,1/2-y,1/2+z
-x,1/2+y,1/2+z
x,1/2-y,1/2+z
loop_
_atom_site_type_symbol
_atom_site_label
_atom_site_fract_x
_atom_site_fract_y
_atom_site_fract_z
Si Si1 0.700943 0.331183 0.878070
Si Si2 0.697922 0.175319 0.947719
Si Si3 0.705870 0.000000 0.353853
Si Si4 0.795979 0.757803 0.736871
Si Si5 0.800957 0.842938 0.108115
Si Si6 0.199314 0.586484 0.310824
Si Si7 0.701829 0.000000 0.188244
O O1 0.500000 0.334730 0.887013
O O2 0.765280 0.261687 0.928210
O O3 0.765328 0.418813 0.887523
O O4 0.738066 0.301922 0.798091
O O5 0.500000 0.174500 0.932177
O O6 0.776726 0.114876 0.892063
O O7 0.724629 0.157213 0.029831
O O8 0.500000 0.000000 0.355577
O O9 0.754924 0.000000 0.270698
O O10 0.739317 0.725776 0.660598
O O11 0.735157 0.843180 0.761245
O O12 0.000000 0.757926 0.737579
O O13 0.000000 0.834013 0.099610
O O14 0.764955 0.923393 0.148355
O O15 0.270426 0.500000 0.300025
O O16 0.000000 0.582539 0.297705
O O17 0.500000 0.000000 0.186792
#
# Coordination Sequence:
#
# PCOD9358655 Si02
#       7
#     8   8   4   8   8   8   4
#     4   9  17  32  52  75  99 130 167 207 251 299
#     4  10  21  34  51  74 103 136 170 205 249 302
#     4   9  16  29  53  79 101 124 159 208 255 297
#     4   9  18  32  51  74  98 130 167 206 249 299
#     4  11  22  35  51  73 107 139 167 202 251 306
#     4   9  18  34  55  76  98 127 167 212 257 299
#     4  11  21  33  53  79 105 130 165 206 251 301
#
# _framework density 18.663360999999998
#
# number of rings (size 3 to 8) (size 9 to 14) (size 15 to 20)
#    0.000    2.333    1.667    1.250    1.167    1.667 
#    0.000    0.417    1.833    0.000    0.000    0.000 
#    0.000    0.000    0.000    0.000    0.000    0.000 
#
# Total GULP energy -133842.122668 kJ/mol
# GULP energy per Si atom -5576.755111 kJ/mol
# Density = 1.862088 g / cm^3
# Si number density = 18.663361 Si / 1000 Ang^3
#
#
#
# Elastic Constant Matrix: (Units=GPa)
#
#
# Indices 1 2 3 4 5 6 
#
# 1 10.8829 -1.8979 -10.5311 0.0000 0.0000 0.0000
# 2 -1.8979 142.4488 18.6270 0.0000 0.0000 0.0000
# 3 -10.5311 18.6270 46.5759 0.0000 0.0000 0.0000
# 4 0.0000 0.0000 0.0000 19.1502 0.0000 0.0000
# 5 0.0000 0.0000 0.0000 0.0000 7.8374 0.0000
# 6 0.0000 0.0000 0.0000 0.0000 0.0000 14.8553
#
#
#
# Elastic Compliance Matrix: (Units=1/GPa)
#
#
# Indices 1 2 3 4 5 6 
#
# 1 0.118174 -0.002025 0.027530 0.000000 0.000000 0.000000
# 2 -0.002025 0.007442 -0.003434 0.000000 0.000000 0.000000
# 3 0.027530 -0.003434 0.029068 0.000000 0.000000 0.000000
# 4 0.000000 0.000000 0.000000 0.052219 0.000000 0.000000
# 5 0.000000 0.000000 0.000000 0.000000 0.127593 0.000000
# 6 0.000000 0.000000 0.000000 0.000000 0.000000 0.067316
#
#
# Mechanical properties :
#
#
# Convention : Reuss Voigt Hill
#
# Bulk Modulus (GPa) = 5.02955 23.58930 14.30942
# Shear Modulus (GPa) = 11.79394 21.28257 16.53825
#
# Velocity S-wave (km/s) = 2.51655 3.38055 2.98003
# Velocity P-wave (km/s) = 3.33838 5.28246 4.41866
#
# Compressibility (1/GPa) = 0.19882485
#
# Stress axis : x y z
#
# Youngs Moduli (GPa) = 8.46210 134.36962 34.40155
#
# Poissons Ratio (x) = 0.27216 -0.94707
# Poissons Ratio (y) = 0.01714 0.11814
# Poissons Ratio (z) = -0.23296 0.46146
#
# Static dielectric constant tensor:
#      x y z
#    x 1.662190 0.000000 0.000000 
#    y 0.000000 1.684870 0.000000 
#    z 0.000000 0.000000 1.611160 
# 
# From -- ./inp_files/12153.got.cif
#   From: 2010.05.17/outbox.cif.g08.bks.cpg/sg38_7_cif.got.tgz:12153.got - 2010.06.03 18:07:57.
