data_PCOD9358210
_publ_section_title
;
Structure prediction by ZEFSAII (Michael W. Deem and Ramdas Pophale) SiO2 
 PCOD9358210
Probable space group: A M M 2
;
_chemical_formula_sum "Si O2"
_cell_formula_units_Z 64
_cell_length_a 8.780153
_cell_length_b 24.911614
_cell_length_c 14.565780
_cell_angle_alpha 90.000000
_cell_angle_beta 90.000000
_cell_angle_gamma 90.000000
_cell_volume 3185.940758
_symmetry_space_group_name_H-M "A M M 2"
_symmetry_group_IT_number 38
_symmetry_cell_setting 'orthorhombic'
loop_
_space_group_symop_operation_xyz
x,y,z
-x,-y,z
-x,y,z
x,-y,z
x,1/2+y,1/2+z
-x,1/2-y,1/2+z
-x,1/2+y,1/2+z
x,1/2-y,1/2+z
loop_
_atom_site_type_symbol
_atom_site_label
_atom_site_fract_x
_atom_site_fract_y
_atom_site_fract_z
Si Si1 0.817009 0.939535 0.319650
Si Si2 0.818587 0.340204 0.139740
Si Si3 0.683279 0.059875 0.748603
Si Si4 0.819399 0.114706 0.133530
Si Si5 0.683759 0.656985 0.935347
Si Si6 0.316510 0.111377 0.934867
Si Si7 0.325518 0.228472 0.144023
Si Si8 0.325427 0.228155 0.920047
O O1 0.783874 0.927703 0.212900
O O2 0.734571 0.894075 0.377953
O O3 0.000000 0.934351 0.331854
O O4 0.772519 0.000000 0.344960
O O5 0.761630 0.391815 0.195060
O O6 0.750929 0.283653 0.176430
O O7 0.000000 0.336994 0.139014
O O8 0.755268 0.346579 0.036383
O O9 0.500000 0.064745 0.737343
O O10 0.716732 0.068582 0.856450
O O11 0.728916 0.000000 0.719091
O O12 0.757920 0.172941 0.165244
O O13 0.000000 0.118401 0.122741
O O14 0.748019 0.100733 0.035307
O O15 0.500000 0.659635 0.942831
O O16 0.738345 0.714014 0.891624
O O17 0.500000 0.116021 0.943631
O O18 0.256044 0.169925 0.900653
O O19 0.500000 0.225949 0.174764
O O20 0.326415 0.230667 0.031926
O O21 0.500000 0.226222 0.887200
#
# Coordination Sequence:
#
# PCOD9358210 Si02
#       8
#     8   8   8   8   8   8   8   8
#     4  10  23  41  56  76 112 155 196 236 279 330
#     4  11  22  37  59  86 116 148 183 228 283 342
#     4  10  22  39  57  80 112 151 197 242 279 324
#     4  10  20  35  57  85 116 149 186 230 281 337
#     4  10  20  36  59  85 111 142 183 232 285 338
#     4   9  18  35  58  82 111 148 186 228 281 335
#     4   9  17  33  57  84 115 147 181 225 278 337
#     4   7  13  28  51  79 107 134 168 213 270 331
#
# _framework density 20.088258
#
# number of rings (size 3 to 8) (size 9 to 14) (size 15 to 20)
#    0.000    2.500    0.000    3.750    0.000    4.000 
#    0.000    1.875    0.000    0.000    0.000    0.000 
#    0.000    0.000    0.000    0.000    0.000    0.000 
#
# Total GULP energy -178608.826902 kJ/mol
# GULP energy per Si atom -5581.525841 kJ/mol
# Density = 2.004254 g / cm^3
# Si number density = 20.088258 Si / 1000 Ang^3
#
#
#
# Elastic Constant Matrix: (Units=GPa)
#
#
# Indices 1 2 3 4 5 6 
#
# 1 40.6213 16.9422 10.4139 0.0000 0.0000 0.0000
# 2 16.9422 70.9230 -2.9338 0.0000 0.0000 0.0000
# 3 10.4139 -2.9338 33.0356 0.0000 0.0000 0.0000
# 4 0.0000 0.0000 0.0000 27.2518 0.0000 0.0000
# 5 0.0000 0.0000 0.0000 0.0000 20.8874 0.0000
# 6 0.0000 0.0000 0.0000 0.0000 0.0000 8.5208
#
#
#
# Elastic Compliance Matrix: (Units=1/GPa)
#
#
# Indices 1 2 3 4 5 6 
#
# 1 0.030469 -0.007704 -0.010289 0.000000 0.000000 0.000000
# 2 -0.007704 0.016100 0.003858 0.000000 0.000000 0.000000
# 3 -0.010289 0.003858 0.033856 0.000000 0.000000 0.000000
# 4 0.000000 0.000000 0.000000 0.036695 0.000000 0.000000
# 5 0.000000 0.000000 0.000000 0.000000 0.047876 0.000000
# 6 0.000000 0.000000 0.000000 0.000000 0.000000 0.117360
#
#
# Mechanical properties :
#
#
# Convention : Reuss Voigt Hill
#
# Bulk Modulus (GPa) = 19.17338 21.49161 20.33250
# Shear Modulus (GPa) = 15.24346 19.34250 17.29298
#
# Velocity S-wave (km/s) = 2.75766 3.10639 2.93721
# Velocity P-wave (km/s) = 4.43902 4.85675 4.65258
#
# Compressibility (1/GPa) = 0.05215564
#
# Stress axis : x y z
#
# Youngs Moduli (GPa) = 32.82076 62.11275 29.53650
#
# Poissons Ratio (x) = 0.47852 0.30390
# Poissons Ratio (y) = 0.25285 -0.11396
# Poissons Ratio (z) = 0.33769 -0.23965
#
# Static dielectric constant tensor:
#      x y z
#    x 1.691750 0.000000 0.000000 
#    y 0.000000 1.720490 0.000000 
#    z 0.000000 0.000000 1.728910 
# 
# From -- ./inp_files/12709.got.cif
#   From: 2010.05.17/outbox.cif.g08.bks.cpg/sg38_7_cif.got.tgz:12709.got - 2010.06.03 18:07:57.
