data_PCOD9358953
_publ_section_title
;
Structure prediction by ZEFSAII (Michael W. Deem and Ramdas Pophale) SiO2 
 PCOD9358953
Probable space group: A M M 2
;
_chemical_formula_sum "Si O2"
_cell_formula_units_Z 56
_cell_length_a 8.947608
_cell_length_b 14.567905
_cell_length_c 22.748935
_cell_angle_alpha 90.000000
_cell_angle_beta 90.000000
_cell_angle_gamma 90.000000
_cell_volume 2965.275980
_symmetry_space_group_name_H-M "A M M 2"
_symmetry_group_IT_number 38
_symmetry_cell_setting 'orthorhombic'
loop_
_space_group_symop_operation_xyz
x,y,z
-x,-y,z
-x,y,z
x,-y,z
x,1/2+y,1/2+z
-x,1/2-y,1/2+z
-x,1/2+y,1/2+z
x,1/2-y,1/2+z
loop_
_atom_site_type_symbol
_atom_site_label
_atom_site_fract_x
_atom_site_fract_y
_atom_site_fract_z
Si Si1 0.822360 0.894021 0.454460
Si Si2 0.820897 0.392286 0.307013
Si Si3 0.179058 0.894597 0.158275
Si Si4 0.175795 0.891646 0.019882
Si Si5 0.676992 0.715001 0.415330
Si Si6 0.325514 0.607866 0.079452
Si Si7 0.321455 0.285657 0.198260
O O1 0.738949 0.818564 0.415907
O O2 0.773937 0.876750 0.522063
O O3 0.000000 0.883779 0.448654
O O4 0.782121 0.000000 0.441187
O O5 0.781464 0.500000 0.306202
O O6 0.753100 0.343806 0.364151
O O7 0.756078 0.341967 0.249940
O O8 0.000000 0.384627 0.308149
O O9 0.263990 0.818419 0.195301
O O10 0.000000 0.884835 0.165355
O O11 0.218407 0.000000 0.172415
O O12 0.211301 0.879819 0.088776
O O13 0.274532 0.831100 0.976953
O O14 0.000000 0.869160 0.011237
O O15 0.194046 0.000000 0.006334
O O16 0.500000 0.714214 0.408893
O O17 0.500000 0.626530 0.064590
O O18 0.314503 0.500000 0.095134
O O19 0.282946 0.667782 0.135562
O O20 0.500000 0.289522 0.205056
#
# Coordination Sequence:
#
# PCOD9358953 Si02
#       7
#     8   8   8   8   8   8   8
#     4  10  21  37  58  84 114 149 190 234 277 327
#     4  11  25  44  64  84 109 145 188 231 274 327
#     4   9  19  36  57  82 114 152 192 233 276 326
#     4   9  18  34  57  85 117 152 190 232 277 328
#     4  12  24  37  57  84 115 150 186 230 284 337
#     4   9  18  33  54  83 119 153 183 223 280 339
#     4  11  22  36  57  85 116 149 186 232 284 334
#
# _framework density 18.885256999999999
#
# number of rings (size 3 to 8) (size 9 to 14) (size 15 to 20)
#    0.000    1.857    0.000    5.143    0.000    8.857 
#    0.000    3.571    0.000    4.286    0.000    0.000 
#    0.000    0.000    0.000    0.000    0.000    0.000 
#
# Total GULP energy -156501.700775 kJ/mol
# GULP energy per Si atom -5589.346456 kJ/mol
# Density = 1.884227 g / cm^3
# Si number density = 18.885257 Si / 1000 Ang^3
#
#
#
# Elastic Constant Matrix: (Units=GPa)
#
#
# Indices 1 2 3 4 5 6 
#
# 1 72.1494 76.6790 45.3664 0.0000 0.0000 0.0000
# 2 76.6790 153.7285 78.4990 0.0000 0.0000 0.0000
# 3 45.3664 78.4990 50.0501 0.0000 0.0000 0.0000
# 4 0.0000 0.0000 0.0000 32.6529 0.0000 0.0000
# 5 0.0000 0.0000 0.0000 0.0000 48.0949 0.0000
# 6 0.0000 0.0000 0.0000 0.0000 0.0000 22.4786
#
#
#
# Elastic Compliance Matrix: (Units=1/GPa)
#
#
# Indices 1 2 3 4 5 6 
#
# 1 0.033299 -0.006011 -0.020755 0.000000 0.000000 0.000000
# 2 -0.006011 0.033754 -0.047491 0.000000 0.000000 0.000000
# 3 -0.020755 -0.047491 0.113278 0.000000 0.000000 0.000000
# 4 0.000000 0.000000 0.000000 0.030625 0.000000 0.000000
# 5 0.000000 0.000000 0.000000 0.000000 0.020792 0.000000
# 6 0.000000 0.000000 0.000000 0.000000 0.000000 0.044487
#
#
# Mechanical properties :
#
#
# Convention : Reuss Voigt Hill
#
# Bulk Modulus (GPa) = 31.43003 75.22405 53.32704
# Shear Modulus (GPa) = 11.48484 25.67085 18.57785
#
# Velocity S-wave (km/s) = 2.46872 3.69088 3.13984
# Velocity P-wave (km/s) = 4.98045 7.62116 6.43766
#
# Compressibility (1/GPa) = 0.03181671
#
# Stress axis : x y z
#
# Youngs Moduli (GPa) = 30.03081 29.62595 8.82781
#
# Poissons Ratio (x) = 0.17809 0.18322
# Poissons Ratio (y) = 0.18053 0.41925
# Poissons Ratio (z) = 0.62328 1.40698
#
# Static dielectric constant tensor:
#      x y z
#    x 1.626060 0.000000 0.000000 
#    y 0.000000 1.661620 0.000000 
#    z 0.000000 0.000000 1.630390 
# 
# From -- ./inp_files/19755.got.cif
#   From: 2010.05.17/outbox.cif.g08.bks.cpg/sg38_10_cif.got.tgz:19755.got - 2010.06.03 18:07:57.
