data_PCOD9358561
_publ_section_title
;
Structure prediction by ZEFSAII (Michael W. Deem and Ramdas Pophale) SiO2 
 PCOD9358561
Probable space group: A M M 2
;
_chemical_formula_sum "Si O2"
_cell_formula_units_Z 58
_cell_length_a 26.285043
_cell_length_b 12.100200
_cell_length_c 7.418457
_cell_angle_alpha 90.000000
_cell_angle_beta 90.000000
_cell_angle_gamma 90.000000
_cell_volume 2359.471980
_symmetry_space_group_name_H-M "A M M 2"
_symmetry_group_IT_number 38
_symmetry_cell_setting 'orthorhombic'
loop_
_space_group_symop_operation_xyz
x,y,z
-x,-y,z
-x,y,z
x,-y,z
x,1/2+y,1/2+z
-x,1/2-y,1/2+z
-x,1/2+y,1/2+z
x,1/2-y,1/2+z
loop_
_atom_site_type_symbol
_atom_site_label
_atom_site_fract_x
_atom_site_fract_y
_atom_site_fract_z
Si Si1 0.414771 0.627051 0.488060
Si Si2 0.000000 0.500000 0.302974
Si Si3 0.085402 0.351973 0.143016
Si Si4 0.799966 0.383679 0.077736
Si Si5 0.256703 0.303888 0.410628
Si Si6 0.683979 0.119471 0.237140
Si Si7 0.558756 0.876308 0.599093
Si Si8 0.059724 0.384706 0.729127
O O1 0.438267 0.500000 0.520434
O O2 0.367999 0.628437 0.626059
O O3 0.437250 0.753669 0.509248
O O4 0.405140 0.623385 0.273723
O O5 0.045105 0.404583 0.279609
O O6 0.143698 0.384768 0.158064
O O7 0.085524 0.221355 0.154069
O O8 0.064844 0.382995 0.944917
O O9 0.793473 0.500000 0.978466
O O10 0.758883 0.372233 0.236867
O O11 0.790067 0.278336 0.953692
O O12 0.303412 0.220404 0.367927
O O13 0.272213 0.372141 0.584663
O O14 0.684534 0.000000 0.328596
O O15 0.500000 0.879502 0.664535
O O16 0.566155 0.000000 0.507263
O O17 0.081594 0.500000 0.662685
O O18 0.000000 0.382966 0.682181
#
# Coordination Sequence:
#
# PCOD9358561 Si02
#       8
#     8   2   8   8   8   8   8   8
#     4  10  21  37  60  88 117 157 206 251 301 354
#     4  12  20  40  62  86 112 156 180 232 280 328
#     4  12  22  40  62  83 115 149 184 228 279 329
#     4  11  22  38  58  83 112 146 183 227 279 346
#     4  10  22  38  58  85 113 146 187 231 293 353
#     4  10  20  38  61  85 116 149 189 246 296 348
#     4  10  21  37  56  84 125 167 206 250 296 347
#     4  11  21  39  57  81 110 144 180 222 266 320
#
# _framework density 24.581771
#
# number of rings (size 3 to 8) (size 9 to 14) (size 15 to 20)
#    0.000    1.379    2.759    2.897    0.000    1.379 
#    1.241    6.897    0.000    0.000    0.000    0.000 
#    0.000    0.000    0.000    0.000    0.000    0.000 
#
# Total GULP energy -161581.429195 kJ/mol
# GULP energy per Si atom -5571.773421 kJ/mol
# Density = 2.452582 g / cm^3
# Si number density = 24.581771 Si / 1000 Ang^3
#
#
#
# Elastic Constant Matrix: (Units=GPa)
#
#
# Indices 1 2 3 4 5 6 
#
# 1 55.1711 24.2085 -7.8809 0.0000 0.0000 0.0000
# 2 24.2085 239.1102 19.5273 0.0000 0.0000 0.0000
# 3 -7.8809 19.5273 45.6823 0.0000 0.0000 0.0000
# 4 0.0000 0.0000 0.0000 26.3374 0.0000 0.0000
# 5 0.0000 0.0000 0.0000 0.0000 149.1194 0.0000
# 6 0.0000 0.0000 0.0000 0.0000 0.0000 65.5960
#
#
#
# Elastic Compliance Matrix: (Units=1/GPa)
#
#
# Indices 1 2 3 4 5 6 
#
# 1 0.019796 -0.002366 0.004426 0.000000 0.000000 0.000000
# 2 -0.002366 0.004616 -0.002381 0.000000 0.000000 0.000000
# 3 0.004426 -0.002381 0.023672 0.000000 0.000000 0.000000
# 4 0.000000 0.000000 0.000000 0.037969 0.000000 0.000000
# 5 0.000000 0.000000 0.000000 0.000000 0.006706 0.000000
# 6 0.000000 0.000000 0.000000 0.000000 0.000000 0.015245
#
#
# Mechanical properties :
#
#
# Convention : Reuss Voigt Hill
#
# Bulk Modulus (GPa) = 21.07823 45.74149 33.40986
# Shear Modulus (GPa) = 40.17388 68.48446 54.32917
#
# Velocity S-wave (km/s) = 4.04703 5.28397 4.70631
# Velocity P-wave (km/s) = 5.51645 7.47499 6.56912
#
# Compressibility (1/GPa) = 0.04744232
#
# Stress axis : x y z
#
# Youngs Moduli (GPa) = 50.51591 216.63037 42.24430
#
# Poissons Ratio (x) = 0.51248 -0.18699
# Poissons Ratio (y) = 0.11950 0.10060
# Poissons Ratio (z) = -0.22360 0.51587
#
# Static dielectric constant tensor:
#      x y z
#    x 1.947490 0.000000 0.000000 
#    y 0.000000 1.993430 0.000000 
#    z 0.000000 0.000000 1.941920 
# 
# From -- ./inp_files/7014.got.cif
#   From: 2010.05.17/outbox.cif.g08.bks.cpg/sg38_4_cif.got.tgz:7014.got - 2010.06.03 18:07:57.
