data_PCOD9358741
_publ_section_title
;
Structure prediction by ZEFSAII (Michael W. Deem and Ramdas Pophale) SiO2 
 PCOD9358741
Probable space group: A M M 2
;
_chemical_formula_sum "Si O2"
_cell_formula_units_Z 56
_cell_length_a 24.350989
_cell_length_b 7.744771
_cell_length_c 14.892985
_cell_angle_alpha 90.000000
_cell_angle_beta 90.000000
_cell_angle_gamma 90.000000
_cell_volume 2808.710239
_symmetry_space_group_name_H-M "A M M 2"
_symmetry_group_IT_number 38
_symmetry_cell_setting 'orthorhombic'
loop_
_space_group_symop_operation_xyz
x,y,z
-x,-y,z
-x,y,z
x,-y,z
x,1/2+y,1/2+z
-x,1/2-y,1/2+z
-x,1/2+y,1/2+z
x,1/2-y,1/2+z
loop_
_atom_site_type_symbol
_atom_site_label
_atom_site_fract_x
_atom_site_fract_y
_atom_site_fract_z
Si Si1 0.143823 0.701737 0.857830
Si Si2 0.848562 0.704817 0.657176
Si Si3 0.228307 0.798783 0.000199
Si Si4 0.352560 0.200865 0.518509
Si Si5 0.438858 0.289285 0.161602
Si Si6 0.936940 0.209702 0.512865
Si Si7 0.561539 0.708820 0.369881
O O1 0.129807 0.500000 0.846522
O O2 0.148407 0.777732 0.757942
O O3 0.200566 0.714138 0.913150
O O4 0.097627 0.772725 0.926120
O O5 0.837992 0.500000 0.666551
O O6 0.801099 0.773332 0.590184
O O7 0.904478 0.731663 0.601538
O O8 0.213464 0.000000 0.993718
O O9 0.293383 0.783120 0.005346
O O10 0.389998 0.274433 0.598946
O O11 0.391017 0.217858 0.431596
O O12 0.342246 0.000000 0.537293
O O13 0.500000 0.232358 0.132591
O O14 0.438926 0.500000 0.156985
O O15 0.431635 0.242780 0.265635
O O16 0.000000 0.265419 0.511008
O O17 0.935661 0.000000 0.512567
O O18 0.500000 0.763614 0.398360
O O19 0.563470 0.500000 0.374866
#
# Coordination Sequence:
#
# PCOD9358741 Si02
#       7
#     8   8   8   8   8   8   8
#     4   9  18  35  56  76 101 134 171 208 251 298
#     4   9  19  35  55  76 100 134 172 213 256 295
#     4  10  21  36  51  72 102 132 168 212 256 300
#     4  11  21  33  52  76 101 131 168 208 251 299
#     4   8  16  32  52  73  99 131 164 198 243 302
#     4   9  18  32  51  78 110 139 168 203 243 295
#     4   9  18  34  54  75 101 132 165 204 252 303
#
# _framework density 19.937977
#
# number of rings (size 3 to 8) (size 9 to 14) (size 15 to 20)
#    0.000    2.714    0.000    2.143    0.000    4.000 
#    0.000    5.714    0.000    1.714    0.000    0.000 
#    0.000    0.000    0.000    0.000    0.000    0.000 
#
# Total GULP energy -156188.222507 kJ/mol
# GULP energy per Si atom -5578.150804 kJ/mol
# Density = 1.989260 g / cm^3
# Si number density = 19.937977 Si / 1000 Ang^3
#
#
#
# Elastic Constant Matrix: (Units=GPa)
#
#
# Indices 1 2 3 4 5 6 
#
# 1 141.6350 -13.7589 71.7875 0.0000 0.0000 0.0000
# 2 -13.7589 24.1950 -3.1284 0.0000 0.0000 0.0000
# 3 71.7875 -3.1284 154.9026 0.0000 0.0000 0.0000
# 4 0.0000 0.0000 0.0000 8.6635 0.0000 0.0000
# 5 0.0000 0.0000 0.0000 0.0000 16.5215 0.0000
# 6 0.0000 0.0000 0.0000 0.0000 0.0000 13.7230
#
#
#
# Elastic Compliance Matrix: (Units=1/GPa)
#
#
# Indices 1 2 3 4 5 6 
#
# 1 0.009796 0.004996 -0.004439 0.000000 0.000000 0.000000
# 2 0.004996 0.043988 -0.001427 0.000000 0.000000 0.000000
# 3 -0.004439 -0.001427 0.008484 0.000000 0.000000 0.000000
# 4 0.000000 0.000000 0.000000 0.115427 0.000000 0.000000
# 5 0.000000 0.000000 0.000000 0.000000 0.060527 0.000000
# 6 0.000000 0.000000 0.000000 0.000000 0.000000 0.072870
#
#
# Mechanical properties :
#
#
# Convention : Reuss Voigt Hill
#
# Bulk Modulus (GPa) = 16.52119 47.83700 32.17910
# Shear Modulus (GPa) = 15.01472 25.50376 20.25924
#
# Velocity S-wave (km/s) = 2.74719 3.58041 3.19111
# Velocity P-wave (km/s) = 4.28568 6.41385 5.45456
#
# Compressibility (1/GPa) = 0.06052832
#
# Stress axis : x y z
#
# Youngs Moduli (GPa) = 102.08745 22.73363 117.87038
#
# Poissons Ratio (x) = -0.11359 0.52319
# Poissons Ratio (y) = -0.51008 0.16822
# Poissons Ratio (z) = 0.45313 0.03244
#
# Static dielectric constant tensor:
#      x y z
#    x 1.672670 0.000000 0.000000 
#    y 0.000000 1.738780 0.000000 
#    z 0.000000 0.000000 1.708620 
# 
# From -- ./inp_files/15449.got.cif
#   From: 2010.05.17/outbox.cif.g08.bks.cpg/sg38_8_cif.got.tgz:15449.got - 2010.06.03 18:07:57.
