data_PCOD9358857
_publ_section_title
;
Structure prediction by ZEFSAII (Michael W. Deem and Ramdas Pophale) SiO2 
 PCOD9358857
Probable space group: A M M 2
;
_chemical_formula_sum "Si O2"
_cell_formula_units_Z 64
_cell_length_a 15.692113
_cell_length_b 17.634875
_cell_length_c 10.715293
_cell_angle_alpha 90.000000
_cell_angle_beta 90.000000
_cell_angle_gamma 90.000000
_cell_volume 2965.226436
_symmetry_space_group_name_H-M "A M M 2"
_symmetry_group_IT_number 38
_symmetry_cell_setting 'orthorhombic'
loop_
_space_group_symop_operation_xyz
x,y,z
-x,-y,z
-x,y,z
x,-y,z
x,1/2+y,1/2+z
-x,1/2-y,1/2+z
-x,1/2+y,1/2+z
x,1/2-y,1/2+z
loop_
_atom_site_type_symbol
_atom_site_label
_atom_site_fract_x
_atom_site_fract_y
_atom_site_fract_z
Si Si1 0.902963 0.826975 0.114730
Si Si2 0.221035 0.591356 0.805017
Si Si3 0.092566 0.085608 0.860076
Si Si4 0.596258 0.172850 0.302503
Si Si5 0.735202 0.916390 0.708726
Si Si6 0.201592 0.800398 0.530525
Si Si7 0.634991 0.732734 0.545080
Si Si8 0.593458 0.417236 0.418048
O O1 0.835191 0.878045 0.189440
O O2 0.873526 0.739079 0.106940
O O3 0.000000 0.834302 0.163236
O O4 0.903408 0.855775 0.972287
O O5 0.214502 0.500000 0.819828
O O6 0.320605 0.617645 0.795860
O O7 0.181888 0.643363 0.917737
O O8 0.171490 0.090985 0.768660
O O9 0.000000 0.093184 0.797134
O O10 0.096312 0.000000 0.914530
O O11 0.500000 0.142056 0.283924
O O12 0.597110 0.210957 0.440612
O O13 0.614408 0.235620 0.193162
O O14 0.732284 0.849932 0.611022
O O15 0.665233 0.910260 0.814329
O O16 0.727802 0.000000 0.649964
O O17 0.265261 0.730959 0.503217
O O18 0.600414 0.649361 0.514789
O O19 0.500000 0.414218 0.358105
O O20 0.603629 0.500000 0.478319
#
# Coordination Sequence:
#
# PCOD9358857 Si02
#       8
#     8   8   8   8   8   8   8   8
#     4  11  24  42  68  96 127 167 218 276 332 396
#     4  11  26  46  68  97 139 182 225 277 340 410
#     4   9  19  37  63  93 121 153 200 258 321 385
#     4  11  23  40  67  99 135 181 230 284 343 407
#     4  10  21  38  64  91 125 166 205 257 322 389
#     4  11  24  42  65  94 131 170 219 268 329 399
#     4  11  22  40  63  92 132 175 222 278 339 403
#     4  10  21  36  58  91 127 164 211 267 325 388
#
# _framework density 21.583511999999999
#
# number of rings (size 3 to 8) (size 9 to 14) (size 15 to 20)
#    0.000    1.500    1.250    3.375    3.500    2.500 
#    0.000    3.125    0.000    5.250    0.000    0.000 
#    0.000    0.000    0.000    0.000    0.000    0.000 
#
# Total GULP energy -178380.738078 kJ/mol
# GULP energy per Si atom -5574.398065 kJ/mol
# Density = 2.153439 g / cm^3
# Si number density = 21.583512 Si / 1000 Ang^3
#
#
#
# Elastic Constant Matrix: (Units=GPa)
#
#
# Indices 1 2 3 4 5 6 
#
# 1 118.4489 35.3563 10.2020 0.0000 0.0000 0.0000
# 2 35.3563 94.6446 20.7500 0.0000 0.0000 0.0000
# 3 10.2020 20.7500 42.7558 0.0000 0.0000 0.0000
# 4 0.0000 0.0000 0.0000 16.0462 0.0000 0.0000
# 5 0.0000 0.0000 0.0000 0.0000 -22.1960 0.0000
# 6 0.0000 0.0000 0.0000 0.0000 0.0000 -13.8459
#
#
#
# Elastic Compliance Matrix: (Units=1/GPa)
#
#
# Indices 1 2 3 4 5 6 
#
# 1 0.009516 -0.003421 -0.000610 0.000000 0.000000 0.000000
# 2 -0.003421 0.013054 -0.005519 0.000000 0.000000 0.000000
# 3 -0.000610 -0.005519 0.026213 0.000000 0.000000 0.000000
# 4 0.000000 0.000000 0.000000 0.062320 0.000000 0.000000
# 5 0.000000 0.000000 0.000000 0.000000 -0.045053 0.000000
# 6 0.000000 0.000000 0.000000 0.000000 0.000000 -0.072224
#
#
# Mechanical properties :
#
#
# Convention : Reuss Voigt Hill
#
# Bulk Modulus (GPa) = 33.69047 43.16285 38.42666
# Shear Modulus (GPa) = 219.09840 8.63693 113.86767
#
# Velocity S-wave (km/s) = 10.08624 2.00258 7.27127
# Velocity P-wave (km/s) = 12.29985 5.03871 9.39880
#
# Compressibility (1/GPa) = 0.02968199
#
# Stress axis : x y z
#
# Youngs Moduli (GPa) = 105.08374 76.60571 38.14946
#
# Poissons Ratio (x) = 0.26208 0.02328
# Poissons Ratio (y) = 0.35951 0.21054
# Poissons Ratio (z) = 0.06414 0.42278
#
# Static dielectric constant tensor:
#      x y z
#    x 1.910520 0.000000 0.000000 
#    y 0.000000 1.938130 0.000000 
#    z 0.000000 0.000000 1.801600 
# 
# From -- ./inp_files/10232.got.cif
#   From: 2010.05.17/outbox.cif.g08.bks.cpg/sg38_6_cif.got.tgz:10232.got - 2010.06.03 18:07:57.
