data_PCOD9358035
_publ_section_title
;
Structure prediction by ZEFSAII (Michael W. Deem and Ramdas Pophale) SiO2 
 PCOD9358035
Probable space group: A M M 2
;
_chemical_formula_sum "Si O2"
_cell_formula_units_Z 64
_cell_length_a 11.784321
_cell_length_b 15.978731
_cell_length_c 18.159771
_cell_angle_alpha 90.000000
_cell_angle_beta 90.000000
_cell_angle_gamma 90.000000
_cell_volume 3419.457554
_symmetry_space_group_name_H-M "A M M 2"
_symmetry_group_IT_number 38
_symmetry_cell_setting 'orthorhombic'
loop_
_space_group_symop_operation_xyz
x,y,z
-x,-y,z
-x,y,z
x,-y,z
x,1/2+y,1/2+z
-x,1/2-y,1/2+z
-x,1/2+y,1/2+z
x,1/2-y,1/2+z
loop_
_atom_site_type_symbol
_atom_site_label
_atom_site_fract_x
_atom_site_fract_y
_atom_site_fract_z
Si Si1 0.209169 0.402214 0.478480
Si Si2 0.287187 0.695959 0.195587
Si Si3 0.364805 0.093307 0.562438
Si Si4 0.868425 0.901399 0.811261
Si Si5 0.372177 0.749780 0.970850
Si Si6 0.127920 0.597579 0.783792
Si Si7 0.876708 0.326956 0.625190
Si Si8 0.625279 0.180261 0.308964
O O1 0.240071 0.500000 0.481819
O O2 0.153042 0.387194 0.398392
O O3 0.310856 0.336577 0.484292
O O4 0.136226 0.377515 0.549749
O O5 0.342611 0.625248 0.145079
O O6 0.207911 0.654853 0.258201
O O7 0.215299 0.755876 0.141472
O O8 0.370057 0.757455 0.239597
O O9 0.500000 0.088263 0.550135
O O10 0.320836 0.166295 0.508313
O O11 0.317491 0.000000 0.550237
O O12 0.000000 0.884868 0.795525
O O13 0.845267 0.000000 0.797776
O O14 0.500000 0.756965 0.999786
O O15 0.374813 0.732346 0.884202
O O16 0.128229 0.500000 0.801813
O O17 0.129845 0.612273 0.695746
O O18 0.250783 0.634363 0.809007
O O19 0.000000 0.631117 0.807464
O O20 0.000000 0.285610 0.625799
O O21 0.500000 0.135239 0.307409
#
# Coordination Sequence:
#
# PCOD9358035 Si02
#       8
#     8   8   8   8   8   8   8   8
#     4  11  21  37  58  83 114 152 194 239 288 346
#     4  11  19  35  58  81 119 150 188 238 292 354
#     4  10  21  37  60  85 109 146 190 234 287 343
#     4  10  21  35  54  83 116 150 191 240 292 348
#     4  10  21  40  58  82 117 150 192 245 292 350
#     4   9  19  36  57  84 119 156 197 246 296 350
#     4  10  20  34  56  84 114 154 197 239 293 348
#     4  10  21  36  58  85 115 154 196 245 298 349
#
# _framework density 18.716418999999998
#
# number of rings (size 3 to 8) (size 9 to 14) (size 15 to 20)
#    0.000    1.875    2.500    1.875    0.000    2.750 
#    0.000    1.250    0.000    1.500    0.000    0.000 
#    0.000    0.000    0.000    0.000    0.000    0.000 
#
# Total GULP energy -178138.261382 kJ/mol
# GULP energy per Si atom -5566.820668 kJ/mol
# Density = 1.867382 g / cm^3
# Si number density = 18.716419 Si / 1000 Ang^3
#
#
#
# Elastic Constant Matrix: (Units=GPa)
#
#
# Indices 1 2 3 4 5 6 
#
# 1 97.6026 39.1045 10.4829 0.0000 0.0000 0.0000
# 2 39.1045 78.9293 18.3636 0.0000 0.0000 0.0000
# 3 10.4829 18.3636 58.8135 0.0000 0.0000 0.0000
# 4 0.0000 0.0000 0.0000 26.5436 0.0000 0.0000
# 5 0.0000 0.0000 0.0000 0.0000 19.6196 0.0000
# 6 0.0000 0.0000 0.0000 0.0000 0.0000 21.3469
#
#
#
# Elastic Compliance Matrix: (Units=1/GPa)
#
#
# Indices 1 2 3 4 5 6 
#
# 1 0.012789 -0.006260 -0.000325 0.000000 0.000000 0.000000
# 2 -0.006260 0.016727 -0.004107 0.000000 0.000000 0.000000
# 3 -0.000325 -0.004107 0.018343 0.000000 0.000000 0.000000
# 4 0.000000 0.000000 0.000000 0.037674 0.000000 0.000000
# 5 0.000000 0.000000 0.000000 0.000000 0.050969 0.000000
# 6 0.000000 0.000000 0.000000 0.000000 0.000000 0.046845
#
#
# Mechanical properties :
#
#
# Convention : Reuss Voigt Hill
#
# Bulk Modulus (GPa) = 37.77215 41.24972 39.51094
# Shear Modulus (GPa) = 23.41309 24.66166 24.03738
#
# Velocity S-wave (km/s) = 3.54070 3.63388 3.58759
# Velocity P-wave (km/s) = 6.07787 6.30031 6.19009
#
# Compressibility (1/GPa) = 0.02647453
#
# Stress axis : x y z
#
# Youngs Moduli (GPa) = 78.19364 59.78461 54.51656
#
# Poissons Ratio (x) = 0.37428 0.01770
# Poissons Ratio (y) = 0.48953 0.22389
# Poissons Ratio (z) = 0.02539 0.24552
#
# Static dielectric constant tensor:
#      x y z
#    x 1.694510 0.000000 0.000000 
#    y 0.000000 1.647800 0.000000 
#    z 0.000000 0.000000 1.642000 
# 
# From -- ./inp_files/17837.got.cif
#   From: 2010.05.17/outbox.cif.g08.bks.cpg/sg38_9_cif.got.tgz:17837.got - 2010.06.03 18:07:57.
