data_PCOD9358752
_publ_section_title
;
Structure prediction by ZEFSAII (Michael W. Deem and Ramdas Pophale) SiO2 
 PCOD9358752
Probable space group: A M M 2
;
_chemical_formula_sum "Si O2"
_cell_formula_units_Z 58
_cell_length_a 17.347679
_cell_length_b 12.446874
_cell_length_c 14.302802
_cell_angle_alpha 90.000000
_cell_angle_beta 90.000000
_cell_angle_gamma 90.000000
_cell_volume 3088.323578
_symmetry_space_group_name_H-M "A M M 2"
_symmetry_group_IT_number 38
_symmetry_cell_setting 'orthorhombic'
loop_
_space_group_symop_operation_xyz
x,y,z
-x,-y,z
-x,y,z
x,-y,z
x,1/2+y,1/2+z
-x,1/2-y,1/2+z
-x,1/2+y,1/2+z
x,1/2-y,1/2+z
loop_
_atom_site_type_symbol
_atom_site_label
_atom_site_fract_x
_atom_site_fract_y
_atom_site_fract_z
Si Si1 0.914598 0.738956 0.916270
Si Si2 0.234808 0.374626 0.399093
Si Si3 0.877104 0.326442 0.710129
Si Si4 0.000000 0.500000 0.645527
Si Si5 0.413480 0.623611 0.907834
Si Si6 0.317735 0.743606 0.053678
Si Si7 0.707153 0.696381 0.755934
Si Si8 0.840345 0.376215 0.083999
O O1 0.851842 0.833519 0.917870
O O2 0.911831 0.689039 0.813064
O O3 0.000000 0.777395 0.938402
O O4 0.887641 0.649519 0.990054
O O5 0.238726 0.500000 0.380720
O O6 0.282745 0.339481 0.490657
O O7 0.266310 0.303607 0.312479
O O8 0.931534 0.406361 0.653725
O O9 0.787828 0.360629 0.727702
O O10 0.870142 0.210851 0.659025
O O11 0.500000 0.651874 0.876154
O O12 0.413093 0.500000 0.936804
O O13 0.349786 0.638072 0.827036
O O14 0.387211 0.694776 0.995215
O O15 0.334459 0.777884 0.158863
O O16 0.248078 0.656467 0.061519
O O17 0.846953 0.500000 0.112368
#
# Coordination Sequence:
#
# PCOD9358752 Si02
#       8
#     8   8   8   2   8   8   8   8
#     4  10  21  36  52  80 107 145 200 230 299 347
#     4   9  19  36  54  78 112 145 189 248 285 341
#     4  10  23  39  58  86 111 158 197 246 300 335
#     4  12  24  40  58  80 130 150 200 262 296 344
#     4  10  21  36  58  91 122 145 181 241 297 341
#     4   9  19  37  58  84 109 150 195 227 286 349
#     4   9  20  38  59  83 111 154 201 224 287 364
#     4  10  22  40  61  83 111 148 201 243 290 355
#
# _framework density 18.780415000000001
#
# number of rings (size 3 to 8) (size 9 to 14) (size 15 to 20)
#    0.000    2.345    0.690    1.241    2.897    7.172 
#    9.931    0.000    0.000    6.621    0.000    0.000 
#    0.000    0.000    0.000    0.000    0.000    0.000 
#
# Total GULP energy -161534.345565 kJ/mol
# GULP energy per Si atom -5570.149847 kJ/mol
# Density = 1.873767 g / cm^3
# Si number density = 18.780415 Si / 1000 Ang^3
#
#
#
# Elastic Constant Matrix: (Units=GPa)
#
#
# Indices 1 2 3 4 5 6 
#
# 1 75.3837 15.1848 -4.2147 0.0000 0.0000 0.0000
# 2 15.1848 65.1385 -13.3031 0.0000 0.0000 0.0000
# 3 -4.2147 -13.3031 59.0258 0.0000 0.0000 0.0000
# 4 0.0000 0.0000 0.0000 2.4894 0.0000 0.0000
# 5 0.0000 0.0000 0.0000 0.0000 -17.7511 0.0000
# 6 0.0000 0.0000 0.0000 0.0000 0.0000 20.4315
#
#
#
# Elastic Compliance Matrix: (Units=1/GPa)
#
#
# Indices 1 2 3 4 5 6 
#
# 1 0.013923 -0.003190 0.000275 0.000000 0.000000 0.000000
# 2 -0.003190 0.016823 0.003564 0.000000 0.000000 0.000000
# 3 0.000275 0.003564 0.017765 0.000000 0.000000 0.000000
# 4 0.000000 0.000000 0.000000 0.401702 0.000000 0.000000
# 5 0.000000 0.000000 0.000000 0.000000 -0.056335 0.000000
# 6 0.000000 0.000000 0.000000 0.000000 0.000000 0.048944
#
#
# Mechanical properties :
#
#
# Convention : Reuss Voigt Hill
#
# Bulk Modulus (GPa) = 20.07605 21.65354 20.86480
# Shear Modulus (GPa) = 10.91401 14.49269 12.70335
#
# Velocity S-wave (km/s) = 2.41330 2.78095 2.60362
# Velocity P-wave (km/s) = 4.29865 4.67616 4.49137
#
# Compressibility (1/GPa) = 0.04981059
#
# Stress axis : x y z
#
# Youngs Moduli (GPa) = 71.82182 59.44151 56.29167
#
# Poissons Ratio (x) = 0.18959 -0.01550
# Poissons Ratio (y) = 0.22908 -0.20061
# Poissons Ratio (z) = -0.01978 -0.21184
#
# Static dielectric constant tensor:
#      x y z
#    x 1.658710 0.000000 0.000000 
#    y 0.000000 1.627630 0.000000 
#    z 0.000000 0.000000 1.674210 
# 
# From -- ./inp_files/15214.got.cif
#   From: 2010.05.17/outbox.cif.g08.bks.cpg/sg38_8_cif.got.tgz:15214.got - 2010.06.03 18:07:57.
