data_PCOD9358250
_publ_section_title
;
Structure prediction by ZEFSAII (Michael W. Deem and Ramdas Pophale) SiO2 
 PCOD9358250
Probable space group: A M M 2
;
_chemical_formula_sum "Si O2"
_cell_formula_units_Z 40
_cell_length_a 8.879268
_cell_length_b 14.791569
_cell_length_c 15.071644
_cell_angle_alpha 90.000000
_cell_angle_beta 90.000000
_cell_angle_gamma 90.000000
_cell_volume 1979.484181
_symmetry_space_group_name_H-M "A M M 2"
_symmetry_group_IT_number 38
_symmetry_cell_setting 'orthorhombic'
loop_
_space_group_symop_operation_xyz
x,y,z
-x,-y,z
-x,y,z
x,-y,z
x,1/2+y,1/2+z
-x,1/2-y,1/2+z
-x,1/2+y,1/2+z
x,1/2-y,1/2+z
loop_
_atom_site_type_symbol
_atom_site_label
_atom_site_fract_x
_atom_site_fract_y
_atom_site_fract_z
Si Si1 0.182792 0.000000 0.053290
Si Si2 0.820520 0.845017 0.916180
Si Si3 0.667646 0.894527 0.739661
Si Si4 0.321076 0.147262 0.391690
Si Si5 0.832512 0.105152 0.571880
Si Si6 0.817893 0.000000 0.261247
O O1 0.226916 0.000000 0.156950
O O2 0.229405 0.089622 0.997357
O O3 0.000000 0.000000 0.051578
O O4 0.774434 0.891610 0.824308
O O5 0.739783 0.748890 0.904217
O O6 0.000000 0.833253 0.922444
O O7 0.500000 0.856349 0.756821
O O8 0.748462 0.850077 0.655032
O O9 0.646781 0.000000 0.719075
O O10 0.500000 0.144827 0.380786
O O11 0.269209 0.106082 0.485225
O O12 0.244754 0.088053 0.313668
O O13 0.000000 0.144157 0.555846
O O14 0.853835 0.000000 0.593868
O O15 0.000000 0.000000 0.266919
#
# Coordination Sequence:
#
# PCOD9358250 Si02
#       6
#     4   8   8   8   8   4
#     4   9  22  43  70  97 126 167 223 278 330 387
#     4  11  22  41  66  94 127 169 219 272 325 396
#     4  10  20  35  58  90 125 158 196 252 318 380
#     4  12  25  41  62  94 132 171 215 272 331 395
#     4  10  20  36  61  89 118 158 204 252 309 378
#     4  11  23  45  70  95 128 175 225 278 334 403
#
# _framework density 20.207283
#
# number of rings (size 3 to 8) (size 9 to 14) (size 15 to 20)
#    0.000    1.400    2.000    3.900    0.000    3.200 
#    0.000   10.000    0.000    0.000    0.000    0.000 
#    0.000    0.000    0.000    0.000    0.000    0.000 
#
# Total GULP energy -111498.951264 kJ/mol
# GULP energy per Si atom -5574.947563 kJ/mol
# Density = 2.016129 g / cm^3
# Si number density = 20.207283 Si / 1000 Ang^3
#
#
#
# Elastic Constant Matrix: (Units=GPa)
#
#
# Indices 1 2 3 4 5 6 
#
# 1 130.1214 46.6649 56.4546 0.0000 0.0000 0.0000
# 2 46.6649 98.8430 51.9560 0.0000 0.0000 0.0000
# 3 56.4546 51.9560 174.3422 0.0000 0.0000 0.0000
# 4 0.0000 0.0000 0.0000 -6.1395 0.0000 0.0000
# 5 0.0000 0.0000 0.0000 0.0000 6.3671 0.0000
# 6 0.0000 0.0000 0.0000 0.0000 0.0000 20.0087
#
#
#
# Elastic Compliance Matrix: (Units=1/GPa)
#
#
# Indices 1 2 3 4 5 6 
#
# 1 0.009885 -0.003539 -0.002146 0.000000 0.000000 0.000000
# 2 -0.003539 0.013263 -0.002807 0.000000 0.000000 0.000000
# 3 -0.002146 -0.002807 0.007267 0.000000 0.000000 0.000000
# 4 0.000000 0.000000 0.000000 -0.162878 0.000000 0.000000
# 5 0.000000 0.000000 0.000000 0.000000 0.157058 0.000000
# 6 0.000000 0.000000 0.000000 0.000000 0.000000 0.049978
#
#
# Mechanical properties :
#
#
# Convention : Reuss Voigt Hill
#
# Bulk Modulus (GPa) = 74.44863 79.27306 76.86084
# Shear Modulus (GPa) = 52.06477 20.59600 36.33038
#
# Velocity S-wave (km/s) = 5.08146 3.19601 4.24475
# Velocity P-wave (km/s) = 8.44694 7.27561 7.88306
#
# Compressibility (1/GPa) = 0.01343208
#
# Stress axis : x y z
#
# Youngs Moduli (GPa) = 101.15827 75.39756 137.60245
#
# Poissons Ratio (x) = 0.26682 0.29536
# Poissons Ratio (y) = 0.35798 0.38620
# Poissons Ratio (z) = 0.21713 0.21161
#
# Static dielectric constant tensor:
#      x y z
#    x 1.781640 0.000000 0.000000 
#    y 0.000000 1.614010 0.000000 
#    z 0.000000 0.000000 1.725270 
# 
# From -- ./inp_files/11683.got.cif
#   From: 2010.05.17/outbox.cif.g08.bks.cpg/sg38_6_cif.got.tgz:11683.got - 2010.06.03 18:07:57.
