data_PCOD9358006
_publ_section_title
;
Structure prediction by ZEFSAII (Michael W. Deem and Ramdas Pophale) SiO2 
 PCOD9358006
Probable space group: A M M 2
;
_chemical_formula_sum "Si O2"
_cell_formula_units_Z 56
_cell_length_a 8.822984
_cell_length_b 14.550954
_cell_length_c 23.395107
_cell_angle_alpha 90.000000
_cell_angle_beta 90.000000
_cell_angle_gamma 90.000000
_cell_volume 3003.530146
_symmetry_space_group_name_H-M "A M M 2"
_symmetry_group_IT_number 38
_symmetry_cell_setting 'orthorhombic'
loop_
_space_group_symop_operation_xyz
x,y,z
-x,-y,z
-x,y,z
x,-y,z
x,1/2+y,1/2+z
-x,1/2-y,1/2+z
-x,1/2+y,1/2+z
x,1/2-y,1/2+z
loop_
_atom_site_type_symbol
_atom_site_label
_atom_site_fract_x
_atom_site_fract_y
_atom_site_fract_z
Si Si1 0.317242 0.392537 0.612730
Si Si2 0.681366 0.401444 0.266316
Si Si3 0.827959 0.358243 0.848419
Si Si4 0.182154 0.206883 0.003141
Si Si5 0.172125 0.143658 0.882572
Si Si6 0.316820 0.302334 0.733500
Si Si7 0.319278 0.600569 0.966197
O O1 0.500000 0.386527 0.607523
O O2 0.275266 0.500000 0.612314
O O3 0.242441 0.339013 0.560375
O O4 0.275098 0.346023 0.672999
O O5 0.500000 0.400748 0.261352
O O6 0.737208 0.500000 0.242556
O O7 0.726685 0.398849 0.333077
O O8 0.734374 0.304775 0.239117
O O9 0.835564 0.250831 0.865442
O O10 0.752711 0.359206 0.786251
O O11 0.730929 0.399642 0.899799
O O12 0.000000 0.393333 0.847817
O O13 0.000000 0.209621 0.001800
O O14 0.230069 0.146238 0.947561
O O15 0.243043 0.310635 0.994882
O O16 0.000000 0.107275 0.880695
O O17 0.500000 0.304067 0.738962
O O18 0.500000 0.610751 0.969801
O O19 0.276938 0.500000 0.990508
#
# Coordination Sequence:
#
# PCOD9358006 Si02
#       7
#     8   8   8   8   8   8   8
#     4  10  22  39  57  76 100 136 184 233 278 327
#     4   9  17  29  48  75 103 132 167 208 258 315
#     4   9  17  30  50  77 108 140 174 214 261 311
#     4  10  21  37  56  78 107 141 178 224 275 325
#     4   8  16  30  47  70 100 133 165 200 248 304
#     4   9  18  34  53  73 103 141 180 225 272 319
#     4  10  20  34  55  83 113 145 179 215 262 324
#
# _framework density 18.644727
#
# number of rings (size 3 to 8) (size 9 to 14) (size 15 to 20)
#    0.000    2.714    0.000    2.143    0.000    7.429 
#    0.000    5.000    0.000    2.571    0.000    0.000 
#    0.000    0.000    0.000    0.000    0.000    0.000 
#
# Total GULP energy -156044.955417 kJ/mol
# GULP energy per Si atom -5573.034122 kJ/mol
# Density = 1.860229 g / cm^3
# Si number density = 18.644727 Si / 1000 Ang^3
#
#
#
# Elastic Constant Matrix: (Units=GPa)
#
#
# Indices 1 2 3 4 5 6 
#
# 1 24.9042 28.3101 28.1237 0.0000 0.0000 0.0000
# 2 28.3101 133.7992 59.4902 0.0000 0.0000 0.0000
# 3 28.1237 59.4902 134.7164 0.0000 0.0000 0.0000
# 4 0.0000 0.0000 0.0000 12.8278 0.0000 0.0000
# 5 0.0000 0.0000 0.0000 0.0000 17.0207 0.0000
# 6 0.0000 0.0000 0.0000 0.0000 0.0000 -5.2364
#
#
#
# Elastic Compliance Matrix: (Units=1/GPa)
#
#
# Indices 1 2 3 4 5 6 
#
# 1 0.059935 -0.008857 -0.008601 0.000000 0.000000 0.000000
# 2 -0.008857 0.010609 -0.002836 0.000000 0.000000 0.000000
# 3 -0.008601 -0.002836 0.010471 0.000000 0.000000 0.000000
# 4 0.000000 0.000000 0.000000 0.077956 0.000000 0.000000
# 5 0.000000 0.000000 0.000000 0.000000 0.058752 0.000000
# 6 0.000000 0.000000 0.000000 0.000000 0.000000 -0.190972
#
#
# Mechanical properties :
#
#
# Convention : Reuss Voigt Hill
#
# Bulk Modulus (GPa) = 24.73591 58.36307 41.54949
# Shear Modulus (GPa) = 61.86999 16.75548 39.31273
#
# Velocity S-wave (km/s) = 5.76677 3.00104 4.59684
# Velocity P-wave (km/s) = 7.59188 6.58627 7.10689
#
# Compressibility (1/GPa) = 0.04042706
#
# Stress axis : x y z
#
# Youngs Moduli (GPa) = 16.68464 94.26129 95.50392
#
# Poissons Ratio (x) = 0.83491 0.82142
# Poissons Ratio (y) = 0.14778 0.27082
# Poissons Ratio (z) = 0.14350 0.26730
#
# Static dielectric constant tensor:
#      x y z
#    x 1.633050 0.000000 0.000000 
#    y 0.000000 1.697390 0.000000 
#    z 0.000000 0.000000 1.619330 
# 
# From -- ./inp_files/19832.got.cif
#   From: 2010.05.17/outbox.cif.g08.bks.cpg/sg38_10_cif.got.tgz:19832.got - 2010.06.03 18:07:57.
