data_PCOD9358001
_publ_section_title
;
Structure prediction by ZEFSAII (Michael W. Deem and Ramdas Pophale) SiO2 
 PCOD9358001
Probable space group: A M M 2
;
_chemical_formula_sum "Si O2"
_cell_formula_units_Z 56
_cell_length_a 13.917528
_cell_length_b 14.777973
_cell_length_c 12.881751
_cell_angle_alpha 90.000000
_cell_angle_beta 90.000000
_cell_angle_gamma 90.000000
_cell_volume 2649.426480
_symmetry_space_group_name_H-M "A M M 2"
_symmetry_group_IT_number 38
_symmetry_cell_setting 'orthorhombic'
loop_
_space_group_symop_operation_xyz
x,y,z
-x,-y,z
-x,y,z
x,-y,z
x,1/2+y,1/2+z
-x,1/2-y,1/2+z
-x,1/2+y,1/2+z
x,1/2-y,1/2+z
loop_
_atom_site_type_symbol
_atom_site_label
_atom_site_fract_x
_atom_site_fract_y
_atom_site_fract_z
Si Si1 0.810552 0.344524 0.081040
Si Si2 0.887391 0.193279 0.361343
Si Si3 0.250840 0.178933 0.185525
Si Si4 0.610485 0.603243 0.521856
Si Si5 0.394295 0.395304 0.996271
Si Si6 0.115174 0.900185 0.803320
Si Si7 0.391132 0.764211 0.836446
O O1 0.811996 0.237846 0.106965
O O2 0.700548 0.374279 0.061627
O O3 0.853597 0.391734 0.182544
O O4 0.865657 0.351344 0.972350
O O5 0.819722 0.145717 0.275481
O O6 0.860655 0.301962 0.355509
O O7 0.000000 0.186589 0.336611
O O8 0.319246 0.115263 0.119033
O O9 0.321562 0.251317 0.240986
O O10 0.500000 0.629254 0.550040
O O11 0.609891 0.500000 0.488369
O O12 0.639406 0.665333 0.424999
O O13 0.500000 0.377434 0.045861
O O14 0.391662 0.500000 0.967222
O O15 0.390258 0.331806 0.895795
O O16 0.000000 0.903320 0.808542
O O17 0.150720 0.000000 0.842624
O O18 0.500000 0.786336 0.805625
#
# Coordination Sequence:
#
# PCOD9358001 Si02
#       7
#     8   8   8   8   8   8   8
#     4  11  20  36  58  83 117 153 191 240 294 350
#     4  10  21  37  58  84 115 153 194 241 303 356
#     4  11  20  36  58  86 114 155 195 240 290 347
#     4  10  21  38  61  89 122 162 201 237 286 351
#     4  10  20  34  55  82 113 150 191 235 285 342
#     4   9  19  36  60  89 116 146 192 243 291 354
#     4  10  20  37  58  83 118 155 196 241 287 345
#
# _framework density 21.136649999999999
#
# number of rings (size 3 to 8) (size 9 to 14) (size 15 to 20)
#    0.000    1.857    2.857    1.286    0.000    1.714 
#    0.000    8.571    0.000    3.857    0.000    0.000 
#    0.000    0.000    0.000    0.000    0.000    0.000 
#
# Total GULP energy -156157.891673 kJ/mol
# GULP energy per Si atom -5577.067560 kJ/mol
# Density = 2.108854 g / cm^3
# Si number density = 21.136650 Si / 1000 Ang^3
#
#
#
# Elastic Constant Matrix: (Units=GPa)
#
#
# Indices 1 2 3 4 5 6 
#
# 1 73.0723 0.2395 16.6990 0.0000 0.0000 0.0000
# 2 0.2395 56.6787 15.7482 0.0000 0.0000 0.0000
# 3 16.6990 15.7482 64.9743 0.0000 0.0000 0.0000
# 4 0.0000 0.0000 0.0000 -13.6203 0.0000 0.0000
# 5 0.0000 0.0000 0.0000 0.0000 5.9993 0.0000
# 6 0.0000 0.0000 0.0000 0.0000 0.0000 15.2246
#
#
#
# Elastic Compliance Matrix: (Units=1/GPa)
#
#
# Indices 1 2 3 4 5 6 
#
# 1 0.014597 0.001052 -0.004006 0.000000 0.000000 0.000000
# 2 0.001052 0.018993 -0.004874 0.000000 0.000000 0.000000
# 3 -0.004006 -0.004874 0.017602 0.000000 0.000000 0.000000
# 4 0.000000 0.000000 0.000000 -0.073420 0.000000 0.000000
# 5 0.000000 0.000000 0.000000 0.000000 0.166686 0.000000
# 6 0.000000 0.000000 0.000000 0.000000 0.000000 0.065683
#
#
# Mechanical properties :
#
#
# Convention : Reuss Voigt Hill
#
# Bulk Modulus (GPa) = 28.14161 28.89987 28.52074
# Shear Modulus (GPa) = 21.03995 12.32330 16.68162
#
# Velocity S-wave (km/s) = 3.15846 2.41722 2.81237
# Velocity P-wave (km/s) = 5.16180 4.63607 4.90598
#
# Compressibility (1/GPa) = 0.03553457
#
# Stress axis : x y z
#
# Youngs Moduli (GPa) = 68.50619 52.65093 56.81278
#
# Poissons Ratio (x) = -0.05536 0.22762
# Poissons Ratio (y) = -0.07204 0.27689
# Poissons Ratio (z) = 0.27447 0.25660
#
# Static dielectric constant tensor:
#      x y z
#    x 1.800920 0.000000 0.000000 
#    y 0.000000 1.777280 0.000000 
#    z 0.000000 0.000000 1.755640 
# 
# From -- ./inp_files/10106.got.cif
#   From: 2010.05.17/outbox.cif.g08.bks.cpg/sg38_6_cif.got.tgz:10106.got - 2010.06.03 18:07:57.
