data_PCOD9358935
_publ_section_title
;
Structure prediction by ZEFSAII (Michael W. Deem and Ramdas Pophale) SiO2 
 PCOD9358935
Probable space group: A M M 2
;
_chemical_formula_sum "Si O2"
_cell_formula_units_Z 64
_cell_length_a 14.165119
_cell_length_b 9.008167
_cell_length_c 26.602938
_cell_angle_alpha 90.000000
_cell_angle_beta 90.000000
_cell_angle_gamma 90.000000
_cell_volume 3394.581644
_symmetry_space_group_name_H-M "A M M 2"
_symmetry_group_IT_number 38
_symmetry_cell_setting 'orthorhombic'
loop_
_space_group_symop_operation_xyz
x,y,z
-x,-y,z
-x,y,z
x,-y,z
x,1/2+y,1/2+z
-x,1/2-y,1/2+z
-x,1/2+y,1/2+z
x,1/2-y,1/2+z
loop_
_atom_site_type_symbol
_atom_site_label
_atom_site_fract_x
_atom_site_fract_y
_atom_site_fract_z
Si Si1 0.885312 0.168830 0.895610
Si Si2 0.390328 0.677870 0.344424
Si Si3 0.281108 0.678253 0.242908
Si Si4 0.293631 0.321501 0.052531
Si Si5 0.108696 0.822262 0.500124
Si Si6 0.612766 0.824687 0.446795
Si Si7 0.888367 0.176149 0.290719
Si Si8 0.611369 0.177757 0.149309
O O1 0.861493 0.260228 0.845727
O O2 0.000000 0.163490 0.896272
O O3 0.849754 0.000000 0.891875
O O4 0.860110 0.245168 0.948202
O O5 0.500000 0.724747 0.339557
O O6 0.388039 0.500000 0.347650
O O7 0.335481 0.721648 0.294292
O O8 0.352627 0.743055 0.396702
O O9 0.279851 0.500000 0.239174
O O10 0.176252 0.742062 0.250083
O O11 0.335494 0.747373 0.196015
O O12 0.304540 0.500000 0.059111
O O13 0.182973 0.287735 0.043881
O O14 0.341507 0.238354 0.098435
O O15 0.342280 0.279429 0.999618
O O16 0.000000 0.781197 0.510950
O O17 0.112010 0.000000 0.491970
O O18 0.500000 0.800874 0.450206
O O19 0.630400 0.000000 0.440650
O O20 0.000000 0.204167 0.283427
O O21 0.872725 0.000000 0.289468
O O22 0.500000 0.215615 0.150138
O O23 0.620118 0.000000 0.152036
#
# Coordination Sequence:
#
# PCOD9358935 Si02
#       8
#     8   8   8   8   8   8   8   8
#     4   9  17  30  50  78 114 156 199 241 286 339
#     4   9  19  35  54  80 114 149 185 229 288 352
#     4  11  23  39  62  89 116 152 198 246 298 354
#     4  10  21  37  59  85 113 152 199 244 295 352
#     4   9  18  33  53  81 118 157 198 241 288 345
#     4   9  18  32  51  78 111 146 186 234 290 350
#     4  10  21  37  57  83 119 160 200 244 293 347
#     4  11  25  44  65  89 115 148 194 248 303 360
#
# _framework density 18.853574999999999
#
# number of rings (size 3 to 8) (size 9 to 14) (size 15 to 20)
#    0.000    2.250    0.000    2.250    1.750    6.250 
#    0.000    3.125    0.000    2.250    0.000    0.000 
#    0.000    0.000    0.000    0.000    0.000    0.000 
#
# Total GULP energy -178723.631514 kJ/mol
# GULP energy per Si atom -5585.113485 kJ/mol
# Density = 1.881066 g / cm^3
# Si number density = 18.853575 Si / 1000 Ang^3
#
#
#
# Elastic Constant Matrix: (Units=GPa)
#
#
# Indices 1 2 3 4 5 6 
#
# 1 104.1543 60.1509 81.4415 0.0000 0.0000 0.0000
# 2 60.1509 60.0311 63.0022 0.0000 0.0000 0.0000
# 3 81.4415 63.0022 146.4499 0.0000 0.0000 0.0000
# 4 0.0000 0.0000 0.0000 35.9537 0.0000 0.0000
# 5 0.0000 0.0000 0.0000 0.0000 37.0290 0.0000
# 6 0.0000 0.0000 0.0000 0.0000 0.0000 22.2304
#
#
#
# Elastic Compliance Matrix: (Units=1/GPa)
#
#
# Indices 1 2 3 4 5 6 
#
# 1 0.025184 -0.019208 -0.005741 0.000000 0.000000 0.000000
# 2 -0.019208 0.045020 -0.008686 0.000000 0.000000 0.000000
# 3 -0.005741 -0.008686 0.013758 0.000000 0.000000 0.000000
# 4 0.000000 0.000000 0.000000 0.027814 0.000000 0.000000
# 5 0.000000 0.000000 0.000000 0.000000 0.027006 0.000000
# 6 0.000000 0.000000 0.000000 0.000000 0.000000 0.044984
#
#
# Mechanical properties :
#
#
# Convention : Reuss Voigt Hill
#
# Bulk Modulus (GPa) = 59.91357 79.98049 69.94703
# Shear Modulus (GPa) = 19.48564 26.11200 22.79882
#
# Velocity S-wave (km/s) = 3.21834 3.72558 3.48121
# Velocity P-wave (km/s) = 6.75704 7.81157 7.30336
#
# Compressibility (1/GPa) = 0.01669071
#
# Stress axis : x y z
#
# Youngs Moduli (GPa) = 39.70828 22.21216 72.68677
#
# Poissons Ratio (x) = 0.42666 0.41732
# Poissons Ratio (y) = 0.76273 0.63134
# Poissons Ratio (z) = 0.22798 0.19293
#
# Static dielectric constant tensor:
#      x y z
#    x 1.701770 0.000000 0.000000 
#    y 0.000000 1.634600 0.000000 
#    z 0.000000 0.000000 1.610290 
# 
# From -- ./inp_files/22884.got.cif
#   From: 2010.05.17/outbox.cif.g08.bks.cpg/sg38_12_cif.got.tgz:22884.got - 2010.06.03 18:07:57.
