data_PCOD9358827
_publ_section_title
;
Structure prediction by ZEFSAII (Michael W. Deem and Ramdas Pophale) SiO2 
 PCOD9358827
Probable space group: A M M 2
;
_chemical_formula_sum "Si O2"
_cell_formula_units_Z 64
_cell_length_a 9.230148
_cell_length_b 32.861181
_cell_length_c 12.042397
_cell_angle_alpha 90.000000
_cell_angle_beta 90.000000
_cell_angle_gamma 90.000000
_cell_volume 3652.622354
_symmetry_space_group_name_H-M "A M M 2"
_symmetry_group_IT_number 38
_symmetry_cell_setting 'orthorhombic'
loop_
_space_group_symop_operation_xyz
x,y,z
-x,-y,z
-x,y,z
x,-y,z
x,1/2+y,1/2+z
-x,1/2-y,1/2+z
-x,1/2+y,1/2+z
x,1/2-y,1/2+z
loop_
_atom_site_type_symbol
_atom_site_label
_atom_site_fract_x
_atom_site_fract_y
_atom_site_fract_z
Si Si1 0.164509 0.096620 0.842430
Si Si2 0.173635 0.379359 0.888597
Si Si3 0.824810 0.648369 0.138449
Si Si4 0.324416 0.952335 0.269643
Si Si5 0.172024 0.693824 0.721656
Si Si6 0.163850 0.816548 0.962756
Si Si7 0.672334 0.278415 0.266282
Si Si8 0.664530 0.048767 0.021176
O O1 0.218019 0.111780 0.722335
O O2 0.164325 0.137985 0.914765
O O3 0.000000 0.082126 0.829596
O O4 0.252757 0.065069 0.914853
O O5 0.254491 0.420646 0.854305
O O6 0.210906 0.343717 0.801223
O O7 0.000000 0.385978 0.883060
O O8 0.207808 0.363514 0.012343
O O9 0.746965 0.689018 0.182616
O O10 0.000000 0.653867 0.150062
O O11 0.500000 0.949908 0.271777
O O12 0.275937 0.940466 0.143770
O O13 0.286813 0.000000 0.288899
O O14 0.193345 0.682895 0.592811
O O15 0.264037 0.733859 0.745737
O O16 0.000000 0.702295 0.738242
O O17 0.276761 0.791661 0.889389
O O18 0.000000 0.799948 0.945212
O O19 0.500000 0.279766 0.255070
O O20 0.500000 0.064246 0.015940
O O21 0.661463 0.000000 0.019734
#
# Coordination Sequence:
#
# PCOD9358827 Si02
#       8
#     8   8   8   8   8   8   8   8
#     4   9  17  32  54  77 101 131 173 221 261 308
#     4  10  21  37  59  84 106 140 189 234 273 322
#     4   9  20  39  57  75 106 146 184 221 271 331
#     4   9  19  36  56  80 114 150 178 217 279 337
#     4  10  21  36  56  80 106 139 180 225 274 328
#     4   9  19  36  55  74 101 136 173 214 265 322
#     4  11  23  36  53  79 109 139 178 225 272 323
#     4   9  18  32  51  77 109 142 174 212 265 328
#
# _framework density 17.521657999999999
#
# number of rings (size 3 to 8) (size 9 to 14) (size 15 to 20)
#    0.000    2.500    0.000    3.375    1.750    5.500 
#    0.000    1.875    0.000    3.750    0.000    0.000 
#    0.000    0.000    0.000    0.000    0.000    0.000 
#
# Total GULP energy -178433.293359 kJ/mol
# GULP energy per Si atom -5576.040417 kJ/mol
# Density = 1.748178 g / cm^3
# Si number density = 17.521658 Si / 1000 Ang^3
#
#
#
# Elastic Constant Matrix: (Units=GPa)
#
#
# Indices 1 2 3 4 5 6 
#
# 1 45.7389 36.3057 48.3280 0.0000 0.0000 0.0000
# 2 36.3057 69.5488 61.4191 0.0000 0.0000 0.0000
# 3 48.3280 61.4191 134.1364 0.0000 0.0000 0.0000
# 4 0.0000 0.0000 0.0000 18.3481 0.0000 0.0000
# 5 0.0000 0.0000 0.0000 0.0000 12.3835 0.0000
# 6 0.0000 0.0000 0.0000 0.0000 0.0000 43.6182
#
#
#
# Elastic Compliance Matrix: (Units=1/GPa)
#
#
# Indices 1 2 3 4 5 6 
#
# 1 0.042598 -0.014578 -0.008673 0.000000 0.000000 0.000000
# 2 -0.014578 0.029129 -0.008085 0.000000 0.000000 0.000000
# 3 -0.008673 -0.008085 0.014282 0.000000 0.000000 0.000000
# 4 0.000000 0.000000 0.000000 0.054501 0.000000 0.000000
# 5 0.000000 0.000000 0.000000 0.000000 0.080752 0.000000
# 6 0.000000 0.000000 0.000000 0.000000 0.000000 0.022926
#
#
# Mechanical properties :
#
#
# Convention : Reuss Voigt Hill
#
# Bulk Modulus (GPa) = 42.85089 60.16997 51.51043
# Shear Modulus (GPa) = 15.89121 21.76141 18.82631
#
# Velocity S-wave (km/s) = 3.01482 3.52799 3.28145
# Velocity P-wave (km/s) = 6.05210 7.14216 6.61961
#
# Compressibility (1/GPa) = 0.02333674
#
# Stress axis : x y z
#
# Youngs Moduli (GPa) = 23.47511 34.33057 70.01918
#
# Poissons Ratio (x) = 0.50048 0.60725
# Poissons Ratio (y) = 0.34223 0.56611
# Poissons Ratio (z) = 0.20359 0.27757
#
# Static dielectric constant tensor:
#      x y z
#    x 1.604020 0.000000 0.000000 
#    y 0.000000 1.578040 0.000000 
#    z 0.000000 0.000000 1.604300 
# 
# From -- ./inp_files/8664.got.cif
#   From: 2010.05.17/outbox.cif.g08.bks.cpg/sg38_5_cif.got.tgz:8664.got - 2010.06.03 18:07:57.
