data_PCOD9358266
_publ_section_title
;
Structure prediction by ZEFSAII (Michael W. Deem and Ramdas Pophale) SiO2 
 PCOD9358266
Probable space group: A M M 2
;
_chemical_formula_sum "Si O2"
_cell_formula_units_Z 40
_cell_length_a 10.993853
_cell_length_b 24.067212
_cell_length_c 7.230720
_cell_angle_alpha 90.000000
_cell_angle_beta 90.000000
_cell_angle_gamma 90.000000
_cell_volume 1913.186262
_symmetry_space_group_name_H-M "A M M 2"
_symmetry_group_IT_number 38
_symmetry_cell_setting 'orthorhombic'
loop_
_space_group_symop_operation_xyz
x,y,z
-x,-y,z
-x,y,z
x,-y,z
x,1/2+y,1/2+z
-x,1/2-y,1/2+z
-x,1/2+y,1/2+z
x,1/2-y,1/2+z
loop_
_atom_site_type_symbol
_atom_site_label
_atom_site_fract_x
_atom_site_fract_y
_atom_site_fract_z
Si Si1 0.640772 0.826770 0.047270
Si Si2 0.201236 0.894372 0.500025
Si Si3 0.000000 0.433302 0.281377
Si Si4 0.000000 0.932961 0.217456
Si Si5 0.643321 0.295780 0.121341
Si Si6 0.354615 0.059410 0.227602
O O1 0.500000 0.826148 0.106568
O O2 0.687937 0.767915 0.123516
O O3 0.686620 0.886310 0.113933
O O4 0.644978 0.820537 0.827064
O O5 0.263683 0.834194 0.509489
O O6 0.313973 0.933272 0.440836
O O7 0.119810 0.908966 0.678148
O O8 0.111689 0.906762 0.329402
O O9 0.000000 0.421305 0.499536
O O10 0.000000 0.500000 0.254226
O O11 0.000000 0.000000 0.243497
O O12 0.500000 0.297155 0.056800
O O13 0.500000 0.057966 0.216372
O O14 0.306189 0.000000 0.156939
#
# Coordination Sequence:
#
# PCOD9358266 Si02
#       6
#     8   8   4   4   8   8
#     4   9  19  36  58  91 132 174 213 245 301 380
#     4  11  21  37  63  94 123 160 211 259 312 366
#     4  10  23  43  64  87 120 168 222 263 307 377
#     4  10  23  43  64  85 120 170 216 263 313 371
#     4  10  20  36  62  95 129 166 209 257 308 376
#     4  10  20  35  59  94 135 170 203 254 315 372
#
# _framework density 20.907530999999999
#
# number of rings (size 3 to 8) (size 9 to 14) (size 15 to 20)
#    0.000    2.000    0.000    4.200    2.800    3.200 
#    0.000    2.000    0.000   24.000    0.000    0.000 
#    0.000    0.000    0.000    0.000    0.000    0.000 
#
# Total GULP energy -111480.208331 kJ/mol
# GULP energy per Si atom -5574.010417 kJ/mol
# Density = 2.085994 g / cm^3
# Si number density = 20.907531 Si / 1000 Ang^3
#
#
#
# Elastic Constant Matrix: (Units=GPa)
#
#
# Indices 1 2 3 4 5 6 
#
# 1 62.6071 60.5517 36.8767 0.0000 0.0000 0.0000
# 2 60.5517 211.5875 70.0892 0.0000 0.0000 0.0000
# 3 36.8767 70.0892 118.6605 0.0000 0.0000 0.0000
# 4 0.0000 0.0000 0.0000 31.1155 0.0000 0.0000
# 5 0.0000 0.0000 0.0000 0.0000 11.9356 0.0000
# 6 0.0000 0.0000 0.0000 0.0000 0.0000 -12.4730
#
#
#
# Elastic Compliance Matrix: (Units=1/GPa)
#
#
# Indices 1 2 3 4 5 6 
#
# 1 0.023632 -0.005384 -0.004164 0.000000 0.000000 0.000000
# 2 -0.005384 0.007102 -0.002522 0.000000 0.000000 0.000000
# 3 -0.004164 -0.002522 0.011211 0.000000 0.000000 0.000000
# 4 0.000000 0.000000 0.000000 0.032138 0.000000 0.000000
# 5 0.000000 0.000000 0.000000 0.000000 0.083783 0.000000
# 6 0.000000 0.000000 0.000000 0.000000 0.000000 -0.080173
#
#
# Mechanical properties :
#
#
# Convention : Reuss Voigt Hill
#
# Bulk Modulus (GPa) = 56.16121 80.87669 68.51895
# Shear Modulus (GPa) = 46.39531 21.13812 33.76672
#
# Velocity S-wave (km/s) = 4.71581 3.18312 4.02313
# Velocity P-wave (km/s) = 7.52143 7.23026 7.37728
#
# Compressibility (1/GPa) = 0.01780588
#
# Stress axis : x y z
#
# Youngs Moduli (GPa) = 42.31479 140.80009 89.19589
#
# Poissons Ratio (x) = 0.75801 0.37145
# Poissons Ratio (y) = 0.22781 0.22495
# Poissons Ratio (z) = 0.17622 0.35510
#
# Static dielectric constant tensor:
#      x y z
#    x 1.884560 0.000000 0.000000 
#    y 0.000000 1.774770 0.000000 
#    z 0.000000 0.000000 1.805650 
# 
# From -- ./inp_files/4472.got.cif
#   From: 2010.05.17/outbox.cif.g08.bks.cpg/sg38_3_cif.got.tgz:4472.got - 2010.06.03 18:07:57.
