data_PCOD9358273
_publ_section_title
;
Structure prediction by ZEFSAII (Michael W. Deem and Ramdas Pophale) SiO2 
 PCOD9358273
Probable space group: A M M 2
;
_chemical_formula_sum "Si O2"
_cell_formula_units_Z 48
_cell_length_a 14.359803
_cell_length_b 8.869543
_cell_length_c 20.197436
_cell_angle_alpha 90.000000
_cell_angle_beta 90.000000
_cell_angle_gamma 90.000000
_cell_volume 2572.444218
_symmetry_space_group_name_H-M "A M M 2"
_symmetry_group_IT_number 38
_symmetry_cell_setting 'orthorhombic'
loop_
_space_group_symop_operation_xyz
x,y,z
-x,-y,z
-x,y,z
x,-y,z
x,1/2+y,1/2+z
-x,1/2-y,1/2+z
-x,1/2+y,1/2+z
x,1/2-y,1/2+z
loop_
_atom_site_type_symbol
_atom_site_label
_atom_site_fract_x
_atom_site_fract_y
_atom_site_fract_z
Si Si1 0.500000 0.682032 0.418591
Si Si2 0.698835 0.820576 0.857017
Si Si3 0.000000 0.677269 0.554702
Si Si4 0.805577 0.678460 0.734937
Si Si5 0.500000 0.180903 0.565835
Si Si6 0.000000 0.320425 0.200427
Si Si7 0.300149 0.677652 0.113224
Si Si8 0.199325 0.677250 0.493825
O O1 0.500000 0.500000 0.423143
O O2 0.404954 0.726174 0.380587
O O3 0.500000 0.744802 0.493317
O O4 0.740813 0.734946 0.794643
O O5 0.695391 0.000000 0.842365
O O6 0.768132 0.798153 0.919099
O O7 0.000000 0.769113 0.623128
O O8 0.908224 0.704812 0.511214
O O9 0.000000 0.500000 0.573648
O O10 0.817382 0.500000 0.736951
O O11 0.906829 0.756125 0.734061
O O12 0.755394 0.728328 0.667258
O O13 0.408147 0.219758 0.607045
O O14 0.500000 0.000000 0.555908
O O15 0.000000 0.500000 0.203574
O O16 0.291152 0.500000 0.127925
O O17 0.257571 0.716617 0.042018
O O18 0.219222 0.500000 0.509009
#
# Coordination Sequence:
#
# PCOD9358273 Si02
#       8
#     4   8   4   8   4   4   8   8
#     4  10  20  37  64  93 123 163 207 255 314 377
#     4  10  22  40  62  92 128 167 208 254 312 373
#     4  10  20  35  60  95 129 161 201 251 304 365
#     4  12  26  43  63  90 126 167 209 258 310 367
#     4  10  22  37  60  93 127 161 205 263 314 363
#     4  12  24  41  66  93 121 161 205 253 316 377
#     4  11  22  38  61  90 123 161 207 258 310 365
#     4  10  20  36  61  91 125 161 203 254 307 365
#
# _framework density 18.659296999999999
#
# number of rings (size 3 to 8) (size 9 to 14) (size 15 to 20)
#    0.000    1.333    3.333    2.750    0.000    3.333 
#    0.000    5.000    0.000    0.000    0.000    0.000 
#    0.000    0.000    0.000    0.000    0.000    0.000 
#
# Total GULP energy -134106.609685 kJ/mol
# GULP energy per Si atom -5587.775404 kJ/mol
# Density = 1.861683 g / cm^3
# Si number density = 18.659297 Si / 1000 Ang^3
#
#
#
# Elastic Constant Matrix: (Units=GPa)
#
#
# Indices 1 2 3 4 5 6 
#
# 1 96.0160 32.8256 0.1936 0.0000 0.0000 0.0000
# 2 32.8256 66.6178 25.6614 0.0000 0.0000 0.0000
# 3 0.1936 25.6614 43.7770 0.0000 0.0000 0.0000
# 4 0.0000 0.0000 0.0000 36.5653 0.0000 0.0000
# 5 0.0000 0.0000 0.0000 0.0000 24.9884 0.0000
# 6 0.0000 0.0000 0.0000 0.0000 0.0000 21.5889
#
#
#
# Elastic Compliance Matrix: (Units=1/GPa)
#
#
# Indices 1 2 3 4 5 6 
#
# 1 0.013286 -0.008427 0.004881 0.000000 0.000000 0.000000
# 2 -0.008427 0.024734 -0.014461 0.000000 0.000000 0.000000
# 3 0.004881 -0.014461 0.031298 0.000000 0.000000 0.000000
# 4 0.000000 0.000000 0.000000 0.027348 0.000000 0.000000
# 5 0.000000 0.000000 0.000000 0.000000 0.040019 0.000000
# 6 0.000000 0.000000 0.000000 0.000000 0.000000 0.046320
#
#
# Mechanical properties :
#
#
# Convention : Reuss Voigt Hill
#
# Bulk Modulus (GPa) = 30.02653 35.97468 33.00060
# Shear Modulus (GPa) = 21.72770 26.47718 24.10244
#
# Velocity S-wave (km/s) = 3.41610 3.77102 3.59794
# Velocity P-wave (km/s) = 5.62908 6.18728 5.91477
#
# Compressibility (1/GPa) = 0.03330388
#
# Stress axis : x y z
#
# Youngs Moduli (GPa) = 75.26723 40.43051 31.95044
#
# Poissons Ratio (x) = 0.34070 -0.15595
# Poissons Ratio (y) = 0.63426 0.46205
# Poissons Ratio (z) = -0.36737 0.58468
#
# Static dielectric constant tensor:
#      x y z
#    x 1.666760 0.000000 0.000000 
#    y 0.000000 1.631360 0.000000 
#    z 0.000000 0.000000 1.603340 
# 
# From -- ./inp_files/18241.got.cif
#   From: 2010.05.17/outbox.cif.g08.bks.cpg/sg38_10_cif.got.tgz:18241.got - 2010.06.03 18:07:57.
