data_PCOD9358241
_publ_section_title
;
Structure prediction by ZEFSAII (Michael W. Deem and Ramdas Pophale) SiO2 
 PCOD9358241
Probable space group: A M M 2
;
_chemical_formula_sum "Si O2"
_cell_formula_units_Z 48
_cell_length_a 8.335348
_cell_length_b 23.293230
_cell_length_c 11.862092
_cell_angle_alpha 90.000000
_cell_angle_beta 90.000000
_cell_angle_gamma 90.000000
_cell_volume 2303.110309
_symmetry_space_group_name_H-M "A M M 2"
_symmetry_group_IT_number 38
_symmetry_cell_setting 'orthorhombic'
loop_
_space_group_symop_operation_xyz
x,y,z
-x,-y,z
-x,y,z
x,-y,z
x,1/2+y,1/2+z
-x,1/2-y,1/2+z
-x,1/2+y,1/2+z
x,1/2-y,1/2+z
loop_
_atom_site_type_symbol
_atom_site_label
_atom_site_fract_x
_atom_site_fract_y
_atom_site_fract_z
Si Si1 0.315692 0.148810 0.915180
Si Si2 0.809287 0.732558 0.596620
Si Si3 0.307010 0.934552 0.721544
Si Si4 0.192369 0.642592 0.032082
Si Si5 0.816561 0.932632 0.093418
Si Si6 0.310637 0.857547 0.277885
O O1 0.500000 0.165072 0.892997
O O2 0.245407 0.114704 0.807894
O O3 0.229605 0.202140 0.976221
O O4 0.304213 0.100149 0.011771
O O5 0.755345 0.798280 0.592894
O O6 0.729125 0.696666 0.697270
O O7 0.000000 0.730367 0.613384
O O8 0.500000 0.935503 0.734540
O O9 0.262617 0.911775 0.598103
O O10 0.249377 0.000000 0.743049
O O11 0.000000 0.639839 0.035096
O O12 0.249593 0.648084 0.904198
O O13 0.779409 0.910298 0.217794
O O14 0.000000 0.916161 0.063404
O O15 0.800205 0.000000 0.083156
O O16 0.500000 0.866929 0.277154
#
# Coordination Sequence:
#
# PCOD9358241 Si02
#       6
#     8   8   8   8   8   8
#     4  10  20  36  61  92 123 157 198 249 304 358
#     4  10  22  40  62  89 122 156 198 250 306 362
#     4  10  23  42  62  89 126 165 207 254 303 361
#     4  11  25  42  62  87 120 161 202 249 303 363
#     4  10  20  35  58  87 119 156 198 244 294 351
#     4  11  23  39  61  87 117 153 197 247 300 359
#
# _framework density 20.841380999999998
#
# number of rings (size 3 to 8) (size 9 to 14) (size 15 to 20)
#    0.000    1.667    0.000    6.000    2.333    7.000 
#    0.000    0.000    0.000    0.000    0.000    0.000 
#    0.000    0.000    0.000    0.000    0.000    0.000 
#
# Total GULP energy -134050.993523 kJ/mol
# GULP energy per Si atom -5585.458063 kJ/mol
# Density = 2.079395 g / cm^3
# Si number density = 20.841381 Si / 1000 Ang^3
#
#
#
# Elastic Constant Matrix: (Units=GPa)
#
#
# Indices 1 2 3 4 5 6 
#
# 1 31.8235 -2.4989 -10.9891 0.0000 0.0000 0.0000
# 2 -2.4989 60.6838 8.9485 0.0000 0.0000 0.0000
# 3 -10.9891 8.9485 85.1685 0.0000 0.0000 0.0000
# 4 0.0000 0.0000 0.0000 16.7993 0.0000 0.0000
# 5 0.0000 0.0000 0.0000 0.0000 121.7827 0.0000
# 6 0.0000 0.0000 0.0000 0.0000 0.0000 23.3596
#
#
#
# Elastic Compliance Matrix: (Units=1/GPa)
#
#
# Indices 1 2 3 4 5 6 
#
# 1 0.032921 0.000741 0.004170 0.000000 0.000000 0.000000
# 2 0.000741 0.016755 -0.001665 0.000000 0.000000 0.000000
# 3 0.004170 -0.001665 0.012454 0.000000 0.000000 0.000000
# 4 0.000000 0.000000 0.000000 0.059526 0.000000 0.000000
# 5 0.000000 0.000000 0.000000 0.000000 0.008211 0.000000
# 6 0.000000 0.000000 0.000000 0.000000 0.000000 0.042809
#
#
# Mechanical properties :
#
#
# Convention : Reuss Voigt Hill
#
# Bulk Modulus (GPa) = 14.57250 18.73299 16.65275
# Shear Modulus (GPa) = 26.44668 44.53600 35.49134
#
# Velocity S-wave (km/s) = 3.56610 4.62768 4.13113
# Velocity P-wave (km/s) = 4.89524 6.12877 5.54640
#
# Compressibility (1/GPa) = 0.06862238
#
# Stress axis : x y z
#
# Youngs Moduli (GPa) = 30.37539 59.68415 80.29299
#
# Poissons Ratio (x) = -0.04421 -0.33482
# Poissons Ratio (y) = -0.02250 0.13367
# Poissons Ratio (z) = -0.12666 0.09936
#
# Static dielectric constant tensor:
#      x y z
#    x 1.706510 0.000000 0.000000 
#    y 0.000000 1.750010 0.000000 
#    z 0.000000 0.000000 1.757700 
# 
# From -- ./inp_files/8141.got.cif
#   From: 2010.05.17/outbox.cif.g08.bks.cpg/sg38_5_cif.got.tgz:8141.got - 2010.06.03 18:07:57.
