data_PCOD9358116
_publ_section_title
;
Structure prediction by ZEFSAII (Michael W. Deem and Ramdas Pophale) SiO2 
 PCOD9358116
Probable space group: A M M 2
;
_chemical_formula_sum "Si O2"
_cell_formula_units_Z 64
_cell_length_a 24.756526
_cell_length_b 7.615769
_cell_length_c 15.970240
_cell_angle_alpha 90.000000
_cell_angle_beta 90.000000
_cell_angle_gamma 90.000000
_cell_volume 3011.028782
_symmetry_space_group_name_H-M "A M M 2"
_symmetry_group_IT_number 38
_symmetry_cell_setting 'orthorhombic'
loop_
_space_group_symop_operation_xyz
x,y,z
-x,-y,z
-x,y,z
x,-y,z
x,1/2+y,1/2+z
-x,1/2-y,1/2+z
-x,1/2+y,1/2+z
x,1/2-y,1/2+z
loop_
_atom_site_type_symbol
_atom_site_label
_atom_site_fract_x
_atom_site_fract_y
_atom_site_fract_z
Si Si1 0.938241 0.288103 0.979540
Si Si2 0.864805 0.206064 0.821194
Si Si3 0.062238 0.285446 0.168945
Si Si4 0.740260 0.292540 0.830242
Si Si5 0.440944 0.213343 0.231405
Si Si6 0.559078 0.713346 0.929124
Si Si7 0.673827 0.789293 0.487993
Si Si8 0.673747 0.710705 0.672487
O O1 0.938705 0.500000 0.980169
O O2 0.898589 0.232163 0.906084
O O3 0.000000 0.229145 0.963193
O O4 0.923130 0.231375 0.074045
O O5 0.898370 0.279006 0.741951
O O6 0.804314 0.274583 0.829302
O O7 0.859490 0.000000 0.806400
O O8 0.062664 0.500000 0.170050
O O9 0.000000 0.232917 0.184779
O O10 0.728644 0.500000 0.830388
O O11 0.711632 0.220869 0.746831
O O12 0.711867 0.220855 0.913809
O O13 0.500000 0.275667 0.202046
O O14 0.435628 0.255768 0.330260
O O15 0.387648 0.277789 0.184598
O O16 0.441531 0.000000 0.226522
O O17 0.500000 0.775627 0.958476
O O18 0.558491 0.500000 0.934044
O O19 0.612438 0.777832 0.975797
O O20 0.694406 0.750255 0.580291
O O21 0.671169 0.000000 0.480719
O O22 0.671122 0.500000 0.679682
#
# Coordination Sequence:
#
# PCOD9358116 Si02
#       8
#     8   8   8   8   8   8   8   8
#     4   9  18  35  59  85 114 148 181 211 252 312
#     4  11  22  35  56  83 110 141 181 227 271 308
#     4   8  16  33  56  81 110 142 172 205 252 311
#     4  10  22  40  55  70 102 144 185 222 261 316
#     4   8  13  25  49  77 102 131 169 211 259 321
#     4   8  13  25  49  77 101 129 170 214 256 316
#     4  10  20  35  55  77 101 136 177 218 268 323
#     4  10  20  35  55  78 103 135 175 222 271 318
#
# _framework density 21.255195000000001
#
# number of rings (size 3 to 8) (size 9 to 14) (size 15 to 20)
#    0.000    2.750    1.250    2.250    0.000    3.250 
#    0.000    5.000    0.000    1.500    0.000    1.750 
#    0.000    0.000    0.000    0.000    0.000    0.000 
#
# Total GULP energy -178602.089114 kJ/mol
# GULP energy per Si atom -5581.315285 kJ/mol
# Density = 2.120682 g / cm^3
# Si number density = 21.255195 Si / 1000 Ang^3
#
#
#
# Elastic Constant Matrix: (Units=GPa)
#
#
# Indices 1 2 3 4 5 6 
#
# 1 131.0397 -1.7012 103.6052 0.0000 0.0000 0.0000
# 2 -1.7012 41.7460 -0.5134 0.0000 0.0000 0.0000
# 3 103.6052 -0.5134 166.2966 0.0000 0.0000 0.0000
# 4 0.0000 0.0000 0.0000 14.9144 0.0000 0.0000
# 5 0.0000 0.0000 0.0000 0.0000 -2.2090 0.0000
# 6 0.0000 0.0000 0.0000 0.0000 0.0000 0.5419
#
#
#
# Elastic Compliance Matrix: (Units=1/GPa)
#
#
# Indices 1 2 3 4 5 6 
#
# 1 0.015050 0.000498 -0.009375 0.000000 0.000000 0.000000
# 2 0.000498 0.023972 -0.000236 0.000000 0.000000 0.000000
# 3 -0.009375 -0.000236 0.011853 0.000000 0.000000 0.000000
# 4 0.000000 0.000000 0.000000 0.067049 0.000000 0.000000
# 5 0.000000 0.000000 0.000000 0.000000 -0.452686 0.000000
# 6 0.000000 0.000000 0.000000 0.000000 0.000000 1.845295
#
#
# Mechanical properties :
#
#
# Convention : Reuss Voigt Hill
#
# Bulk Modulus (GPa) = 30.62893 60.20704 45.41799
# Shear Modulus (GPa) = 3.24751 18.49557 10.87154
#
# Velocity S-wave (km/s) = 1.23741 2.95306 2.26404
# Velocity P-wave (km/s) = 4.05992 6.32572 5.31496
#
# Compressibility (1/GPa) = 0.03264887
#
# Stress axis : x y z
#
# Youngs Moduli (GPa) = 66.44643 41.71570 84.36562
#
# Poissons Ratio (x) = -0.02078 0.79090
# Poissons Ratio (y) = -0.03309 0.01993
# Poissons Ratio (z) = 0.62291 0.00986
#
# Static dielectric constant tensor:
#      x y z
#    x 1.752770 0.000000 0.000000 
#    y 0.000000 1.812180 0.000000 
#    z 0.000000 0.000000 1.759170 
# 
# From -- ./inp_files/15830.got.cif
#   From: 2010.05.17/outbox.cif.g08.bks.cpg/sg38_8_cif.got.tgz:15830.got - 2010.06.03 18:07:57.
