data_PCOD9358852
_publ_section_title
;
Structure prediction by ZEFSAII (Michael W. Deem and Ramdas Pophale) SiO2 
 PCOD9358852
Probable space group: A M M 2
;
_chemical_formula_sum "Si O2"
_cell_formula_units_Z 56
_cell_length_a 15.399815
_cell_length_b 21.927535
_cell_length_c 8.143762
_cell_angle_alpha 90.000000
_cell_angle_beta 90.000000
_cell_angle_gamma 90.000000
_cell_volume 2749.985409
_symmetry_space_group_name_H-M "A M M 2"
_symmetry_group_IT_number 38
_symmetry_cell_setting 'orthorhombic'
loop_
_space_group_symop_operation_xyz
x,y,z
-x,-y,z
-x,y,z
x,-y,z
x,1/2+y,1/2+z
-x,1/2-y,1/2+z
-x,1/2+y,1/2+z
x,1/2-y,1/2+z
loop_
_atom_site_type_symbol
_atom_site_label
_atom_site_fract_x
_atom_site_fract_y
_atom_site_fract_z
Si Si1 0.234798 0.373384 0.719880
Si Si2 0.596915 0.166987 0.819602
Si Si3 0.397889 0.795099 0.202068
Si Si4 0.091961 0.428517 0.946278
Si Si5 0.860805 0.160274 0.706698
Si Si6 0.898705 0.280372 0.551190
Si Si7 0.275633 0.570934 0.371322
O O1 0.324337 0.340396 0.774896
O O2 0.165530 0.323828 0.652596
O O3 0.257270 0.416739 0.564286
O O4 0.179586 0.408828 0.855104
O O5 0.500000 0.164966 0.755337
O O6 0.635946 0.225748 0.726000
O O7 0.631347 0.098263 0.824250
O O8 0.600349 0.188807 0.009435
O O9 0.500000 0.800146 0.260655
O O10 0.095515 0.500000 0.974601
O O11 0.087647 0.392419 0.115505
O O12 0.000000 0.415297 0.854012
O O13 0.857039 0.213443 0.570555
O O14 0.780514 0.121695 0.775032
O O15 0.897557 0.194742 0.865702
O O16 0.000000 0.278935 0.604977
O O17 0.261571 0.500000 0.332035
#
# Coordination Sequence:
#
# PCOD9358852 Si02
#       7
#     8   8   8   8   8   8   8
#     4  10  21  36  58  86 114 148 191 236 283 335
#     4   9  18  33  55  83 113 146 186 233 284 336
#     4   9  18  34  55  83 117 148 183 233 290 341
#     4  11  23  39  58  80 111 152 194 234 280 339
#     4  11  23  38  56  81 112 147 185 233 287 339
#     4  11  21  35  57  83 113 145 184 237 287 332
#     4  10  21  37  56  81 115 155 195 231 274 334
#
# _framework density 20.363745000000002
#
# number of rings (size 3 to 8) (size 9 to 14) (size 15 to 20)
#    0.000    1.857    0.000    4.286    0.000    3.714 
#    0.000    0.000    0.000    9.857    0.000    0.000 
#    0.000    5.714    0.000    0.000    0.000    0.000 
#
# Total GULP energy -155913.815009 kJ/mol
# GULP energy per Si atom -5568.350536 kJ/mol
# Density = 2.031740 g / cm^3
# Si number density = 20.363745 Si / 1000 Ang^3
#
#
#
# Elastic Constant Matrix: (Units=GPa)
#
#
# Indices 1 2 3 4 5 6 
#
# 1 74.7192 54.8820 27.6907 0.0000 0.0000 0.0000
# 2 54.8820 123.6325 25.2427 0.0000 0.0000 0.0000
# 3 27.6907 25.2427 40.5821 0.0000 0.0000 0.0000
# 4 0.0000 0.0000 0.0000 22.9582 0.0000 0.0000
# 5 0.0000 0.0000 0.0000 0.0000 8.6078 0.0000
# 6 0.0000 0.0000 0.0000 0.0000 0.0000 28.6522
#
#
#
# Elastic Compliance Matrix: (Units=1/GPa)
#
#
# Indices 1 2 3 4 5 6 
#
# 1 0.023427 -0.008174 -0.010901 0.000000 0.000000 0.000000
# 2 -0.008174 0.012117 -0.001960 0.000000 0.000000 0.000000
# 3 -0.010901 -0.001960 0.033298 0.000000 0.000000 0.000000
# 4 0.000000 0.000000 0.000000 0.043557 0.000000 0.000000
# 5 0.000000 0.000000 0.000000 0.000000 0.116173 0.000000
# 6 0.000000 0.000000 0.000000 0.000000 0.000000 0.034901
#
#
# Mechanical properties :
#
#
# Convention : Reuss Voigt Hill
#
# Bulk Modulus (GPa) = 37.35009 50.50719 43.92864
# Shear Modulus (GPa) = 15.89987 20.78487 18.34237
#
# Velocity S-wave (km/s) = 2.79730 3.19827 3.00448
# Velocity P-wave (km/s) = 5.36791 6.20443 5.80127
#
# Compressibility (1/GPa) = 0.02677370
#
# Stress axis : x y z
#
# Youngs Moduli (GPa) = 42.68563 82.52813 30.03143
#
# Poissons Ratio (x) = 0.67457 0.32737
# Poissons Ratio (y) = 0.34891 0.05885
# Poissons Ratio (z) = 0.46531 0.16173
#
# Static dielectric constant tensor:
#      x y z
#    x 1.866830 0.000000 0.000000 
#    y 0.000000 1.701940 0.000000 
#    z 0.000000 0.000000 1.755820 
# 
# From -- ./inp_files/5741.got.cif
#   From: 2010.05.17/outbox.cif.g08.bks.cpg/sg38_3_cif.got.tgz:5741.got - 2010.06.03 18:07:57.
