data_PCOD9358586
_publ_section_title
;
Structure prediction by ZEFSAII (Michael W. Deem and Ramdas Pophale) SiO2 
 PCOD9358586
Probable space group: A M M 2
;
_chemical_formula_sum "Si O2"
_cell_formula_units_Z 48
_cell_length_a 17.688017
_cell_length_b 16.674718
_cell_length_c 7.742287
_cell_angle_alpha 90.000000
_cell_angle_beta 90.000000
_cell_angle_gamma 90.000000
_cell_volume 2283.530997
_symmetry_space_group_name_H-M "A M M 2"
_symmetry_group_IT_number 38
_symmetry_cell_setting 'orthorhombic'
loop_
_space_group_symop_operation_xyz
x,y,z
-x,-y,z
-x,y,z
x,-y,z
x,1/2+y,1/2+z
-x,1/2-y,1/2+z
-x,1/2+y,1/2+z
x,1/2-y,1/2+z
loop_
_atom_site_type_symbol
_atom_site_label
_atom_site_fract_x
_atom_site_fract_y
_atom_site_fract_z
Si Si1 0.690653 0.908638 0.132530
Si Si2 0.588941 0.844472 0.431319
Si Si3 0.087644 0.500000 0.569329
Si Si4 0.088372 0.500000 0.146043
Si Si5 0.588805 0.343411 0.333482
Si Si6 0.155169 0.834821 0.075992
Si Si7 0.091624 0.332012 0.200107
O O1 0.640400 0.894502 0.301837
O O2 0.757562 0.843194 0.125486
O O3 0.720255 0.000000 0.127047
O O4 0.638959 0.893591 0.964977
O O5 0.500000 0.864314 0.408601
O O6 0.597314 0.750613 0.381523
O O7 0.608488 0.855154 0.632579
O O8 0.096159 0.500000 0.357744
O O9 0.119346 0.417498 0.643159
O O10 0.000000 0.500000 0.602370
O O11 0.114980 0.411460 0.091307
O O12 0.000000 0.500000 0.103354
O O13 0.500000 0.362908 0.355667
O O14 0.112471 0.754265 0.127585
O O15 0.141127 0.837903 0.872071
O O16 0.000000 0.336205 0.232959
#
# Coordination Sequence:
#
# PCOD9358586 Si02
#       7
#     8   8   4   4   8   8   8
#     4  12  26  42  62  98 143 180 221 281 346 402
#     4  10  21  40  69 100 131 177 231 277 328 400
#     4   9  16  36  61  81 118 164 210 258 302 384
#     4   7  14  30  57  85 111 146 194 254 315 378
#     4  10  21  40  70 100 128 176 233 276 328 402
#     4  11  23  38  60  94 123 165 218 264 336 409
#     4  10  20  38  64  90 118 159 212 271 330 399
#
# _framework density 21.020078999999999
#
# number of rings (size 3 to 8) (size 9 to 14) (size 15 to 20)
#    0.000    1.833    2.500    3.000    2.333    2.000 
#    0.000    2.500    0.000    1.000    0.000    0.000 
#    0.000    0.000    0.000    0.000    0.000    0.000 
#
# Total GULP energy -133910.611222 kJ/mol
# GULP energy per Si atom -5579.608801 kJ/mol
# Density = 2.097224 g / cm^3
# Si number density = 21.020079 Si / 1000 Ang^3
#
#
#
# Elastic Constant Matrix: (Units=GPa)
#
#
# Indices 1 2 3 4 5 6 
#
# 1 52.0448 18.7322 21.9358 0.0000 0.0000 0.0000
# 2 18.7322 122.6333 2.0536 0.0000 0.0000 0.0000
# 3 21.9358 2.0536 60.1775 0.0000 0.0000 0.0000
# 4 0.0000 0.0000 0.0000 25.8545 0.0000 0.0000
# 5 0.0000 0.0000 0.0000 0.0000 6.1484 0.0000
# 6 0.0000 0.0000 0.0000 0.0000 0.0000 23.8077
#
#
#
# Elastic Compliance Matrix: (Units=1/GPa)
#
#
# Indices 1 2 3 4 5 6 
#
# 1 0.024149 -0.003543 -0.008682 0.000000 0.000000 0.000000
# 2 -0.003543 0.008679 0.000995 0.000000 0.000000 0.000000
# 3 -0.008682 0.000995 0.019748 0.000000 0.000000 0.000000
# 4 0.000000 0.000000 0.000000 0.038678 0.000000 0.000000
# 5 0.000000 0.000000 0.000000 0.000000 0.162644 0.000000
# 6 0.000000 0.000000 0.000000 0.000000 0.000000 0.042003
#
#
# Mechanical properties :
#
#
# Convention : Reuss Voigt Hill
#
# Bulk Modulus (GPa) = 33.20427 35.58877 34.39652
# Shear Modulus (GPa) = 15.22537 23.97106 19.59821
#
# Velocity S-wave (km/s) = 2.69425 3.38063 3.05676
# Velocity P-wave (km/s) = 5.05068 5.67501 5.37193
#
# Compressibility (1/GPa) = 0.03011661
#
# Stress axis : x y z
#
# Youngs Moduli (GPa) = 41.41009 115.22113 50.63761
#
# Poissons Ratio (x) = 0.40827 0.43962
# Poissons Ratio (y) = 0.14673 -0.05041
# Poissons Ratio (z) = 0.35951 -0.11469
#
# Static dielectric constant tensor:
#      x y z
#    x 1.763410 0.000000 0.000000 
#    y 0.000000 1.829380 0.000000 
#    z 0.000000 0.000000 1.761420 
# 
# From -- ./inp_files/6229.got.cif
#   From: 2010.05.17/outbox.cif.g08.bks.cpg/sg38_4_cif.got.tgz:6229.got - 2010.06.03 18:07:57.
