data_PCOD9358165
_publ_section_title
;
Structure prediction by ZEFSAII (Michael W. Deem and Ramdas Pophale) SiO2 
 PCOD9358165
Probable space group: A M M 2
;
_chemical_formula_sum "Si O2"
_cell_formula_units_Z 56
_cell_length_a 15.573932
_cell_length_b 8.842107
_cell_length_c 20.642623
_cell_angle_alpha 90.000000
_cell_angle_beta 90.000000
_cell_angle_gamma 90.000000
_cell_volume 2842.620746
_symmetry_space_group_name_H-M "A M M 2"
_symmetry_group_IT_number 38
_symmetry_cell_setting 'orthorhombic'
loop_
_space_group_symop_operation_xyz
x,y,z
-x,-y,z
-x,y,z
x,-y,z
x,1/2+y,1/2+z
-x,1/2-y,1/2+z
-x,1/2+y,1/2+z
x,1/2-y,1/2+z
loop_
_atom_site_type_symbol
_atom_site_label
_atom_site_fract_x
_atom_site_fract_y
_atom_site_fract_z
Si Si1 0.279891 0.818964 0.010870
Si Si2 0.096610 0.317975 0.689741
Si Si3 0.866254 0.824650 0.339125
Si Si4 0.668243 0.823959 0.380074
Si Si5 0.273064 0.179675 0.644417
Si Si6 0.403374 0.682098 0.746522
Si Si7 0.908703 0.680703 0.471353
O O1 0.309920 0.744948 0.077280
O O2 0.280436 0.000000 0.016275
O O3 0.329870 0.768754 0.946388
O O4 0.180886 0.763547 0.000635
O O5 0.104363 0.500000 0.682100
O O6 0.107235 0.284309 0.766467
O O7 0.176312 0.241855 0.654087
O O8 0.000000 0.274768 0.669323
O O9 0.763684 0.815263 0.348666
O O10 0.904719 0.722700 0.395586
O O11 0.891220 0.000000 0.350014
O O12 0.607099 0.773596 0.321895
O O13 0.651347 0.000000 0.395380
O O14 0.331975 0.239940 0.702726
O O15 0.272028 0.000000 0.643623
O O16 0.500000 0.715465 0.724267
O O17 0.390023 0.500000 0.743951
O O18 0.907870 0.500000 0.478918
O O19 0.000000 0.737945 0.498026
#
# Coordination Sequence:
#
# PCOD9358165 Si02
#       7
#     8   8   8   8   8   8   8
#     4  10  21  37  58  81 113 159 206 245 297 357
#     4  10  20  35  56  82 116 161 209 253 301 357
#     4   9  16  29  51  78 110 147 188 236 291 349
#     4   9  17  34  60  89 118 146 186 240 300 360
#     4  12  25  40  59  86 125 165 205 253 302 356
#     4  10  21  41  70  97 121 154 196 243 301 368
#     4   9  18  31  48  74 108 146 193 247 297 345
#
# _framework density 19.700130999999999
#
# number of rings (size 3 to 8) (size 9 to 14) (size 15 to 20)
#    0.000    2.143    1.429    2.143    0.000    3.714 
#    0.000    2.143    0.000    2.571    0.000    0.000 
#    0.000    0.000    0.000    0.000    0.000    0.000 
#
# Total GULP energy -156293.158831 kJ/mol
# GULP energy per Si atom -5581.898530 kJ/mol
# Density = 1.965529 g / cm^3
# Si number density = 19.700131 Si / 1000 Ang^3
#
#
#
# Elastic Constant Matrix: (Units=GPa)
#
#
# Indices 1 2 3 4 5 6 
#
# 1 64.0035 31.1276 33.1907 0.0000 0.0000 0.0000
# 2 31.1276 46.4284 43.3428 0.0000 0.0000 0.0000
# 3 33.1907 43.3428 113.3641 0.0000 0.0000 0.0000
# 4 0.0000 0.0000 0.0000 30.3121 0.0000 0.0000
# 5 0.0000 0.0000 0.0000 0.0000 -3.7406 0.0000
# 6 0.0000 0.0000 0.0000 0.0000 0.0000 12.4180
#
#
#
# Elastic Compliance Matrix: (Units=1/GPa)
#
#
# Indices 1 2 3 4 5 6 
#
# 1 0.023310 -0.014395 -0.001321 0.000000 0.000000 0.000000
# 2 -0.014395 0.042382 -0.011990 0.000000 0.000000 0.000000
# 3 -0.001321 -0.011990 0.013792 0.000000 0.000000 0.000000
# 4 0.000000 0.000000 0.000000 0.032990 0.000000 0.000000
# 5 0.000000 0.000000 0.000000 0.000000 -0.267336 0.000000
# 6 0.000000 0.000000 0.000000 0.000000 0.000000 0.080528
#
#
# Mechanical properties :
#
#
# Convention : Reuss Voigt Hill
#
# Bulk Modulus (GPa) = 41.53992 48.79092 45.16542
# Shear Modulus (GPa) = -458.81881 15.54020 -221.63930
#
# Velocity S-wave (km/s) = -15.27766 2.81167 -10.61842
# Velocity P-wave (km/s) = 17.03166 5.94653 11.28531
#
# Compressibility (1/GPa) = 0.02407323
#
# Stress axis : x y z
#
# Youngs Moduli (GPa) = 42.90000 23.59480 72.50593
#
# Poissons Ratio (x) = 0.33964 0.09579
# Poissons Ratio (y) = 0.61753 0.86932
# Poissons Ratio (z) = 0.05668 0.28289
#
# Static dielectric constant tensor:
#      x y z
#    x 1.721330 0.000000 0.000000 
#    y 0.000000 1.662240 0.000000 
#    z 0.000000 0.000000 1.686500 
# 
# From -- ./inp_files/21084.got.cif
#   From: 2010.05.17/outbox.cif.g08.bks.cpg/sg38_11_cif.got.tgz:21084.got - 2010.06.03 18:07:57.
