data_PCOD9358290
_publ_section_title
;
Structure prediction by ZEFSAII (Michael W. Deem and Ramdas Pophale) SiO2 
 PCOD9358290
Probable space group: A M M 2
;
_chemical_formula_sum "Si O2"
_cell_formula_units_Z 58
_cell_length_a 7.425971
_cell_length_b 15.812564
_cell_length_c 24.230028
_cell_angle_alpha 90.000000
_cell_angle_beta 90.000000
_cell_angle_gamma 90.000000
_cell_volume 2845.178126
_symmetry_space_group_name_H-M "A M M 2"
_symmetry_group_IT_number 38
_symmetry_cell_setting 'orthorhombic'
loop_
_space_group_symop_operation_xyz
x,y,z
-x,-y,z
-x,y,z
x,-y,z
x,1/2+y,1/2+z
-x,1/2-y,1/2+z
-x,1/2+y,1/2+z
x,1/2-y,1/2+z
loop_
_atom_site_type_symbol
_atom_site_label
_atom_site_fract_x
_atom_site_fract_y
_atom_site_fract_z
Si Si1 0.280637 0.263690 0.534400
Si Si2 0.786142 0.094701 0.818890
Si Si3 0.791869 0.348415 0.648920
Si Si4 0.713978 0.905510 0.477948
Si Si5 0.783711 0.904805 0.349613
Si Si6 0.219361 0.263613 0.763619
Si Si7 0.500000 0.500000 0.641387
Si Si8 0.283560 0.095576 0.947004
O O1 0.500000 0.263869 0.534247
O O2 0.218125 0.291022 0.594459
O O3 0.217419 0.171666 0.514490
O O4 0.220537 0.334353 0.489985
O O5 0.715352 0.171149 0.781839
O O6 0.761290 0.115895 0.883630
O O7 0.000000 0.089945 0.809315
O O8 0.711970 0.000000 0.809912
O O9 0.735348 0.294687 0.702669
O O10 0.657462 0.426117 0.641400
O O11 0.000000 0.375831 0.657333
O O12 0.500000 0.909650 0.487182
O O13 0.740192 0.885642 0.413165
O O14 0.787808 0.000000 0.487875
O O15 0.717917 0.833939 0.307634
O O16 0.000000 0.906880 0.345129
O O17 0.717372 0.000000 0.336963
O O18 0.000000 0.261477 0.766709
O O19 0.500000 0.093331 0.951108
O O20 0.218058 0.000000 0.958971
#
# Coordination Sequence:
#
# PCOD9358290 Si02
#       8
#     8   8   8   8   8   8   2   8
#     4  10  20  36  56  79 116 157 198 250 299 349
#     4   9  17  32  54  80 112 149 191 243 296 349
#     4  11  25  43  65  89 119 158 200 242 296 355
#     4   9  18  33  52  80 115 153 195 246 301 354
#     4   9  17  30  50  76 109 147 189 242 299 354
#     4   9  19  36  55  79 113 151 193 241 294 351
#     4  12  26  48  64  90 122 156 198 252 288 348
#     4   9  18  30  49  77 112 148 189 243 300 352
#
# _framework density 20.385366999999999
#
# number of rings (size 3 to 8) (size 9 to 14) (size 15 to 20)
#    0.000    2.483    0.690    1.034    1.931    1.103 
#    2.483    0.690    0.000    0.828    0.000    0.000 
#    0.000    0.000    0.000    0.000    0.000    0.000 
#
# Total GULP energy -161670.552253 kJ/mol
# GULP energy per Si atom -5574.846629 kJ/mol
# Density = 2.033897 g / cm^3
# Si number density = 20.385367 Si / 1000 Ang^3
#
#
#
# Elastic Constant Matrix: (Units=GPa)
#
#
# Indices 1 2 3 4 5 6 
#
# 1 85.8827 25.8477 14.0040 0.0000 0.0000 0.0000
# 2 25.8477 178.3997 130.0165 0.0000 0.0000 0.0000
# 3 14.0040 130.0165 124.9478 0.0000 0.0000 0.0000
# 4 0.0000 0.0000 0.0000 -3.1541 0.0000 0.0000
# 5 0.0000 0.0000 0.0000 0.0000 23.5047 0.0000
# 6 0.0000 0.0000 0.0000 0.0000 0.0000 -15.6980
#
#
#
# Elastic Compliance Matrix: (Units=1/GPa)
#
#
# Indices 1 2 3 4 5 6 
#
# 1 0.012290 -0.003215 0.001968 0.000000 0.000000 0.000000
# 2 -0.003215 0.024038 -0.024653 0.000000 0.000000 0.000000
# 3 0.001968 -0.024653 0.033436 0.000000 0.000000 0.000000
# 4 0.000000 0.000000 0.000000 -0.317050 0.000000 0.000000
# 5 0.000000 0.000000 0.000000 0.000000 0.042545 0.000000
# 6 0.000000 0.000000 0.000000 0.000000 0.000000 -0.063702
#
#
# Mechanical properties :
#
#
# Convention : Reuss Voigt Hill
#
# Bulk Modulus (GPa) = 55.66581 80.99626 68.33104
# Shear Modulus (GPa) = -23.73538 15.55466 -4.09036
#
# Velocity S-wave (km/s) = -3.41594 2.76530 -1.41805
# Velocity P-wave (km/s) = 3.43626 7.07210 5.55979
#
# Compressibility (1/GPa) = 0.01796435
#
# Stress axis : x y z
#
# Youngs Moduli (GPa) = 81.36386 41.60098 29.90824
#
# Poissons Ratio (x) = 0.13374 -0.05885
# Poissons Ratio (y) = 0.26156 0.73732
# Poissons Ratio (z) = -0.16009 1.02558
#
# Static dielectric constant tensor:
#      x y z
#    x 1.757480 0.000000 0.000000 
#    y 0.000000 1.729380 0.000000 
#    z 0.000000 0.000000 1.675800 
# 
# From -- ./inp_files/22080.got.cif
#   From: 2010.05.17/outbox.cif.g08.bks.cpg/sg38_12_cif.got.tgz:22080.got - 2010.06.03 18:07:57.
