data_PCOD9358734
_publ_section_title
;
Structure prediction by ZEFSAII (Michael W. Deem and Ramdas Pophale) SiO2 
 PCOD9358734
Probable space group: A M M 2
;
_chemical_formula_sum "Si O2"
_cell_formula_units_Z 48
_cell_length_a 9.000832
_cell_length_b 23.575495
_cell_length_c 11.973513
_cell_angle_alpha 90.000000
_cell_angle_beta 90.000000
_cell_angle_gamma 90.000000
_cell_volume 2540.768321
_symmetry_space_group_name_H-M "A M M 2"
_symmetry_group_IT_number 38
_symmetry_cell_setting 'orthorhombic'
loop_
_space_group_symop_operation_xyz
x,y,z
-x,-y,z
-x,y,z
x,-y,z
x,1/2+y,1/2+z
-x,1/2-y,1/2+z
-x,1/2+y,1/2+z
x,1/2-y,1/2+z
loop_
_atom_site_type_symbol
_atom_site_label
_atom_site_fract_x
_atom_site_fract_y
_atom_site_fract_z
Si Si1 0.822884 0.856454 0.910810
Si Si2 0.674112 0.155174 0.150107
Si Si3 0.171112 0.857341 0.511992
Si Si4 0.818351 0.434746 0.212005
Si Si5 0.821842 0.268550 0.834617
Si Si6 0.167942 0.566404 0.793292
O O1 0.779788 0.909398 0.833096
O O2 0.794897 0.797900 0.844627
O O3 0.000000 0.859724 0.930968
O O4 0.740978 0.850919 0.027608
O O5 0.500000 0.164961 0.145833
O O6 0.750885 0.203748 0.225344
O O7 0.715006 0.097751 0.216111
O O8 0.236493 0.889435 0.619197
O O9 0.232926 0.802168 0.446610
O O10 0.170489 0.904536 0.414382
O O11 0.000000 0.842502 0.541934
O O12 0.770143 0.500000 0.195180
O O13 0.000000 0.435057 0.204036
O O14 0.000000 0.278156 0.829356
O O15 0.192674 0.500000 0.802246
O O16 0.000000 0.576088 0.748153
#
# Coordination Sequence:
#
# PCOD9358734 Si02
#       6
#     8   8   8   8   8   8
#     4  10  21  35  56  81 108 144 187 233 275 329
#     4  11  23  37  53  77 113 148 182 224 278 346
#     4   8  14  27  50  81 108 133 169 224 283 326
#     4   9  17  29  49  81 114 140 173 222 281 333
#     4   9  19  35  58  82 106 136 185 240 283 330
#     4   9  17  32  56  82 108 141 184 233 278 323
#
# _framework density 18.891923999999999
#
# number of rings (size 3 to 8) (size 9 to 14) (size 15 to 20)
#    0.000    2.667    0.000    3.000    2.333    3.667 
#    0.000    1.667    0.000    1.000    0.000    0.000 
#    0.000    0.000    0.000    0.000    0.000    0.000 
#
# Total GULP energy -133781.016464 kJ/mol
# GULP energy per Si atom -5574.209019 kJ/mol
# Density = 1.884892 g / cm^3
# Si number density = 18.891924 Si / 1000 Ang^3
#
#
#
# Elastic Constant Matrix: (Units=GPa)
#
#
# Indices 1 2 3 4 5 6 
#
# 1 18.4632 12.6290 21.5638 0.0000 0.0000 0.0000
# 2 12.6290 50.6314 8.5822 0.0000 0.0000 0.0000
# 3 21.5638 8.5822 78.9002 0.0000 0.0000 0.0000
# 4 0.0000 0.0000 0.0000 11.4184 0.0000 0.0000
# 5 0.0000 0.0000 0.0000 0.0000 -12.7638 0.0000
# 6 0.0000 0.0000 0.0000 0.0000 0.0000 -0.5915
#
#
#
# Elastic Compliance Matrix: (Units=1/GPa)
#
#
# Indices 1 2 3 4 5 6 
#
# 1 0.095769 -0.019816 -0.024019 0.000000 0.000000 0.000000
# 2 -0.019816 0.024222 0.002781 0.000000 0.000000 0.000000
# 3 -0.024019 0.002781 0.018936 0.000000 0.000000 0.000000
# 4 0.000000 0.000000 0.000000 0.087578 0.000000 0.000000
# 5 0.000000 0.000000 0.000000 0.000000 -0.078346 0.000000
# 6 0.000000 0.000000 0.000000 0.000000 0.000000 -1.690520
#
#
# Mechanical properties :
#
#
# Convention : Reuss Voigt Hill
#
# Bulk Modulus (GPa) = 17.59968 25.94942 21.77455
# Shear Modulus (GPa) = -3.46906 6.62725 1.57910
#
# Velocity S-wave (km/s) = -1.35656 1.87499 0.91524
# Velocity P-wave (km/s) = 2.62346 4.29570 3.55918
#
# Compressibility (1/GPa) = 0.05681922
#
# Stress axis : x y z
#
# Youngs Moduli (GPa) = 10.44183 41.28478 52.80912
#
# Poissons Ratio (x) = 0.81812 1.26840
# Poissons Ratio (y) = 0.20692 -0.14688
# Poissons Ratio (z) = 0.25080 -0.11482
#
# Static dielectric constant tensor:
#      x y z
#    x 1.633410 0.000000 0.000000 
#    y 0.000000 1.661050 0.000000 
#    z 0.000000 0.000000 1.661790 
# 
# From -- ./inp_files/8112.got.cif
#   From: 2010.05.17/outbox.cif.g08.bks.cpg/sg38_5_cif.got.tgz:8112.got - 2010.06.03 18:07:57.
