data_PCOD9358074
_publ_section_title
;
Structure prediction by ZEFSAII (Michael W. Deem and Ramdas Pophale) SiO2 
 PCOD9358074
Probable space group: A M M 2
;
_chemical_formula_sum "Si O2"
_cell_formula_units_Z 48
_cell_length_a 9.293795
_cell_length_b 7.969580
_cell_length_c 34.853730
_cell_angle_alpha 90.000000
_cell_angle_beta 90.000000
_cell_angle_gamma 90.000000
_cell_volume 2581.533622
_symmetry_space_group_name_H-M "A M M 2"
_symmetry_group_IT_number 38
_symmetry_cell_setting 'orthorhombic'
loop_
_space_group_symop_operation_xyz
x,y,z
-x,-y,z
-x,y,z
x,-y,z
x,1/2+y,1/2+z
-x,1/2-y,1/2+z
-x,1/2+y,1/2+z
x,1/2-y,1/2+z
loop_
_atom_site_type_symbol
_atom_site_label
_atom_site_fract_x
_atom_site_fract_y
_atom_site_fract_z
Si Si1 0.173441 0.500000 0.468341
Si Si2 0.836016 0.301127 0.170834
Si Si3 0.334614 0.797485 0.245819
Si Si4 0.665100 0.302713 0.596406
Si Si5 0.325028 0.307583 0.832236
Si Si6 0.828729 0.312781 0.022197
Si Si7 0.674484 0.500000 0.386554
O O1 0.212146 0.334824 0.493001
O O2 0.253193 0.500000 0.427948
O O3 0.000000 0.500000 0.462996
O O4 0.837899 0.500000 0.163989
O O5 0.763752 0.267882 0.211821
O O6 0.743438 0.221479 0.136863
O O7 0.000000 0.238233 0.170147
O O8 0.500000 0.738461 0.241011
O O9 0.283318 0.756026 0.288873
O O10 0.337089 0.000000 0.243919
O O11 0.500000 0.246014 0.599191
O O12 0.666587 0.500000 0.586964
O O13 0.747721 0.210258 0.562319
O O14 0.500000 0.311919 0.831702
O O15 0.277134 0.500000 0.839942
O O16 0.282565 0.166774 0.862728
O O17 0.800888 0.500000 0.006843
O O18 0.000000 0.297000 0.029258
O O19 0.500000 0.500000 0.389773
#
# Coordination Sequence:
#
# PCOD9358074 Si02
#       7
#     4   8   8   8   8   8   4
#     4  10  22  40  58  84 120 152 184 234 290 338
#     4  11  24  37  50  76 113 151 191 233 279 336
#     4   9  18  34  56  80 106 140 187 238 286 334
#     4  11  23  38  58  84 113 145 187 236 286 338
#     4   8  16  32  54  82 113 144 184 235 285 336
#     4  10  21  39  63  86 111 150 193 230 280 344
#     4  10  20  34  58  86 112 148 192 232 282 344
#
# _framework density 18.593596999999999
#
# number of rings (size 3 to 8) (size 9 to 14) (size 15 to 20)
#    0.000    2.167    0.833    3.000    1.167    8.333 
#    0.000    0.833    0.000    1.000    0.000    0.000 
#    0.000    0.000    0.000    0.000    0.000    0.000 
#
# Total GULP energy -133976.244996 kJ/mol
# GULP energy per Si atom -5582.343542 kJ/mol
# Density = 1.855128 g / cm^3
# Si number density = 18.593597 Si / 1000 Ang^3
#
#
#
# Elastic Constant Matrix: (Units=GPa)
#
#
# Indices 1 2 3 4 5 6 
#
# 1 56.5979 38.0152 53.7651 0.0000 0.0000 0.0000
# 2 38.0152 99.7351 66.8735 0.0000 0.0000 0.0000
# 3 53.7651 66.8735 139.4311 0.0000 0.0000 0.0000
# 4 0.0000 0.0000 0.0000 12.5873 0.0000 0.0000
# 5 0.0000 0.0000 0.0000 0.0000 74.1458 0.0000
# 6 0.0000 0.0000 0.0000 0.0000 0.0000 8.9635
#
#
#
# Elastic Compliance Matrix: (Units=1/GPa)
#
#
# Indices 1 2 3 4 5 6 
#
# 1 0.029713 -0.005370 -0.008882 0.000000 0.000000 0.000000
# 2 -0.005370 0.015750 -0.005483 0.000000 0.000000 0.000000
# 3 -0.008882 -0.005483 0.013227 0.000000 0.000000 0.000000
# 4 0.000000 0.000000 0.000000 0.079445 0.000000 0.000000
# 5 0.000000 0.000000 0.000000 0.000000 0.013487 0.000000
# 6 0.000000 0.000000 0.000000 0.000000 0.000000 0.111563
#
#
# Mechanical properties :
#
#
# Convention : Reuss Voigt Hill
#
# Bulk Modulus (GPa) = 52.03114 68.11909 60.07512
# Shear Modulus (GPa) = 16.17804 28.28000 22.22902
#
# Velocity S-wave (km/s) = 2.95292 3.90417 3.46138
# Velocity P-wave (km/s) = 6.29845 7.55240 6.95375
#
# Compressibility (1/GPa) = 0.01921926
#
# Stress axis : x y z
#
# Youngs Moduli (GPa) = 33.65579 63.49205 75.60466
#
# Poissons Ratio (x) = 0.34095 0.67150
# Poissons Ratio (y) = 0.18073 0.41456
# Poissons Ratio (z) = 0.29892 0.34814
#
# Static dielectric constant tensor:
#      x y z
#    x 1.629510 0.000000 0.000000 
#    y 0.000000 1.670980 0.000000 
#    z 0.000000 0.000000 1.601500 
# 
# From -- ./inp_files/24326.got.cif
#   From: 2010.05.17/outbox.cif.g08.bks.cpg/sg38_13_cif.got.tgz:24326.got - 2010.06.03 18:07:57.
