data_PCOD9358900
_publ_section_title
;
Structure prediction by ZEFSAII (Michael W. Deem and Ramdas Pophale) SiO2 
 PCOD9358900
Probable space group: A M M 2
;
_chemical_formula_sum "Si O2"
_cell_formula_units_Z 40
_cell_length_a 7.921859
_cell_length_b 29.446585
_cell_length_c 9.163399
_cell_angle_alpha 90.000000
_cell_angle_beta 90.000000
_cell_angle_gamma 90.000000
_cell_volume 2137.561611
_symmetry_space_group_name_H-M "A M M 2"
_symmetry_group_IT_number 38
_symmetry_cell_setting 'orthorhombic'
loop_
_space_group_symop_operation_xyz
x,y,z
-x,-y,z
-x,y,z
x,-y,z
x,1/2+y,1/2+z
-x,1/2-y,1/2+z
-x,1/2+y,1/2+z
x,1/2-y,1/2+z
loop_
_atom_site_type_symbol
_atom_site_label
_atom_site_fract_x
_atom_site_fract_y
_atom_site_fract_z
Si Si1 0.000000 0.053907 0.777880
Si Si2 0.302660 0.791172 0.320491
Si Si3 0.310198 0.395987 0.126584
Si Si4 0.000000 0.945906 0.124352
Si Si5 0.696963 0.392627 0.774851
Si Si6 0.193242 0.204109 0.643712
O O1 0.834893 0.075676 0.704383
O O2 0.000000 0.000000 0.754527
O O3 0.000000 0.062707 0.951021
O O4 0.500000 0.793677 0.361694
O O5 0.264017 0.839401 0.244789
O O6 0.200932 0.787932 0.470230
O O7 0.270412 0.747643 0.222176
O O8 0.500000 0.411355 0.161559
O O9 0.288754 0.343156 0.170212
O O10 0.288264 0.398021 0.950681
O O11 0.833322 0.923712 0.195660
O O12 0.000000 0.000000 0.148860
O O13 0.500000 0.401615 0.736206
O O14 0.000000 0.198456 0.690635
#
# Coordination Sequence:
#
# PCOD9358900 Si02
#       6
#     4   8   8   4   8   8
#     4  11  25  43  60  89 122 153 196 245 304 367
#     4  10  21  37  56  84 120 159 196 239 286 341
#     4  10  21  41  65  89 119 158 201 248 296 349
#     4  11  25  41  62  87 120 155 188 245 308 359
#     4   9  21  40  64  89 116 154 201 245 291 348
#     4  11  21  35  58  88 120 158 197 241 288 342
#
# _framework density 18.712910000000001
#
# number of rings (size 3 to 8) (size 9 to 14) (size 15 to 20)
#    0.000    1.800    1.000    4.200    5.600    4.800 
#    0.000    6.000    0.000    0.000    0.000    0.000 
#    0.000    0.000    0.000    0.000    0.000    0.000 
#
# Total GULP energy -111704.419626 kJ/mol
# GULP energy per Si atom -5585.220981 kJ/mol
# Density = 1.867032 g / cm^3
# Si number density = 18.712910 Si / 1000 Ang^3
#
#
#
# Elastic Constant Matrix: (Units=GPa)
#
#
# Indices 1 2 3 4 5 6 
#
# 1 139.4004 79.7780 55.9933 0.0000 0.0000 0.0000
# 2 79.7780 121.8788 67.7066 0.0000 0.0000 0.0000
# 3 55.9933 67.7066 49.2977 0.0000 0.0000 0.0000
# 4 0.0000 0.0000 0.0000 33.9091 0.0000 0.0000
# 5 0.0000 0.0000 0.0000 0.0000 27.3769 0.0000
# 6 0.0000 0.0000 0.0000 0.0000 0.0000 10.6768
#
#
#
# Elastic Compliance Matrix: (Units=1/GPa)
#
#
# Indices 1 2 3 4 5 6 
#
# 1 0.013242 -0.001318 -0.013231 0.000000 0.000000 0.000000
# 2 -0.001318 0.034747 -0.046225 0.000000 0.000000 0.000000
# 3 -0.013231 -0.046225 0.098798 0.000000 0.000000 0.000000
# 4 0.000000 0.000000 0.000000 0.029491 0.000000 0.000000
# 5 0.000000 0.000000 0.000000 0.000000 0.036527 0.000000
# 6 0.000000 0.000000 0.000000 0.000000 0.000000 0.093661
#
#
# Mechanical properties :
#
#
# Convention : Reuss Voigt Hill
#
# Bulk Modulus (GPa) = 39.61846 79.72586 59.67216
# Shear Modulus (GPa) = 11.45668 21.53249 16.49459
#
# Velocity S-wave (km/s) = 2.47702 3.39584 2.97215
# Velocity P-wave (km/s) = 5.42204 7.62056 6.61330
#
# Compressibility (1/GPa) = 0.02524076
#
# Stress axis : x y z
#
# Youngs Moduli (GPa) = 75.51578 28.77986 10.12161
#
# Poissons Ratio (x) = 0.03793 0.13391
# Poissons Ratio (y) = 0.09953 0.46787
# Poissons Ratio (z) = 0.99912 1.33034
#
# Static dielectric constant tensor:
#      x y z
#    x 1.638400 0.000000 0.000000 
#    y 0.000000 1.634610 0.000000 
#    z 0.000000 0.000000 1.619730 
# 
# From -- ./inp_files/3533.got.cif
#   From: 2010.05.17/outbox.cif.g08.bks.cpg/sg38_2_cif.got.tgz:3533.got - 2010.06.03 18:07:57.
