data_PCOD9358151
_publ_section_title
;
Structure prediction by ZEFSAII (Michael W. Deem and Ramdas Pophale) SiO2 
 PCOD9358151
Probable space group: A M M 2
;
_chemical_formula_sum "Si O2"
_cell_formula_units_Z 48
_cell_length_a 15.902696
_cell_length_b 8.342416
_cell_length_c 19.266138
_cell_angle_alpha 90.000000
_cell_angle_beta 90.000000
_cell_angle_gamma 90.000000
_cell_volume 2555.978910
_symmetry_space_group_name_H-M "A M M 2"
_symmetry_group_IT_number 38
_symmetry_cell_setting 'orthorhombic'
loop_
_space_group_symop_operation_xyz
x,y,z
-x,-y,z
-x,y,z
x,-y,z
x,1/2+y,1/2+z
-x,1/2-y,1/2+z
-x,1/2+y,1/2+z
x,1/2-y,1/2+z
loop_
_atom_site_type_symbol
_atom_site_label
_atom_site_fract_x
_atom_site_fract_y
_atom_site_fract_z
Si Si1 0.342423 0.693449 0.437440
Si Si2 0.656403 0.691698 0.277815
Si Si3 0.158404 0.193651 0.277536
Si Si4 0.500000 0.696324 0.529191
Si Si5 0.500000 0.691424 0.688094
Si Si6 0.000000 0.306006 0.686729
Si Si7 0.157527 0.693387 0.937449
Si Si8 0.000000 0.805903 0.528876
O O1 0.343017 0.500000 0.437037
O O2 0.356502 0.747692 0.357726
O O3 0.416940 0.748290 0.487568
O O4 0.249933 0.749748 0.459266
O O5 0.654310 0.500000 0.278144
O O6 0.749276 0.747975 0.256019
O O7 0.582671 0.753023 0.228933
O O8 0.083313 0.248596 0.227896
O O9 0.143920 0.246070 0.357463
O O10 0.158767 0.000000 0.277291
O O11 0.500000 0.500000 0.529035
O O12 0.500000 0.750637 0.608687
O O13 0.500000 0.500000 0.686174
O O14 0.000000 0.500000 0.688023
O O15 0.000000 0.250246 0.607770
O O16 0.156787 0.500000 0.937321
O O17 0.082976 0.749100 0.987393
O O18 0.000000 0.000000 0.527872
#
# Coordination Sequence:
#
# PCOD9358151 Si02
#       8
#     8   8   8   4   4   4   8   4
#     4   9  18  35  57  77  99 131 171 213 255 300
#     4  10  20  35  56  80 105 134 170 216 266 310
#     4   9  18  35  57  78 101 134 178 220 256 303
#     4   9  19  35  53  73 100 135 170 204 248 301
#     4  11  22  35  53  77 106 141 176 210 252 307
#     4  10  21  35  53  77 105 140 178 214 254 306
#     4   9  18  34  55  77 101 132 171 213 256 302
#     4  10  21  35  51  75 109 142 168 206 264 316
#
# _framework density 18.779498
#
# number of rings (size 3 to 8) (size 9 to 14) (size 15 to 20)
#    0.000    2.500    0.000    1.750    0.000    6.667 
#    0.000    7.083    0.000    5.000    0.000    0.000 
#    0.000    0.000    0.000    0.000    0.000    0.000 
#
# Total GULP energy -133954.261224 kJ/mol
# GULP energy per Si atom -5581.427551 kJ/mol
# Density = 1.873675 g / cm^3
# Si number density = 18.779498 Si / 1000 Ang^3
#
#
#
# Elastic Constant Matrix: (Units=GPa)
#
#
# Indices 1 2 3 4 5 6 
#
# 1 222.2479 24.5247 143.8301 0.0000 0.0000 0.0000
# 2 24.5247 9.9182 18.5258 0.0000 0.0000 0.0000
# 3 143.8301 18.5258 134.8774 0.0000 0.0000 0.0000
# 4 0.0000 0.0000 0.0000 24.2474 0.0000 0.0000
# 5 0.0000 0.0000 0.0000 0.0000 -6.2935 0.0000
# 6 0.0000 0.0000 0.0000 0.0000 0.0000 23.4565
#
#
#
# Elastic Compliance Matrix: (Units=1/GPa)
#
#
# Indices 1 2 3 4 5 6 
#
# 1 0.015201 -0.009832 -0.014859 0.000000 0.000000 0.000000
# 2 -0.009832 0.141978 -0.009017 0.000000 0.000000 0.000000
# 3 -0.014859 -0.009017 0.024498 0.000000 0.000000 0.000000
# 4 0.000000 0.000000 0.000000 0.041242 0.000000 0.000000
# 5 0.000000 0.000000 0.000000 0.000000 -0.158894 0.000000
# 6 0.000000 0.000000 0.000000 0.000000 0.000000 0.042632
#
#
# Mechanical properties :
#
#
# Convention : Reuss Voigt Hill
#
# Bulk Modulus (GPa) = 8.75185 82.31164 45.53174
# Shear Modulus (GPa) = 23.56717 20.29295 21.93006
#
# Velocity S-wave (km/s) = 3.54636 3.29080 3.42097
# Velocity P-wave (km/s) = 4.63026 7.63969 6.31681
#
# Compressibility (1/GPa) = 0.11426159
#
# Stress axis : x y z
#
# Youngs Moduli (GPa) = 65.78604 7.04334 40.81925
#
# Poissons Ratio (x) = 0.06925 0.60655
# Poissons Ratio (y) = 0.64680 0.36805
# Poissons Ratio (z) = 0.97754 0.06351
#
# Static dielectric constant tensor:
#      x y z
#    x 1.626250 0.000000 0.000000 
#    y 0.000000 1.656280 0.000000 
#    z 0.000000 0.000000 1.636020 
# 
# From -- ./inp_files/18268.got.cif
#   From: 2010.05.17/outbox.cif.g08.bks.cpg/sg38_10_cif.got.tgz:18268.got - 2010.06.03 18:07:57.
