data_PCOD9358022
_publ_section_title
;
Structure prediction by ZEFSAII (Michael W. Deem and Ramdas Pophale) SiO2 
 PCOD9358022
Probable space group: A M M 2
;
_chemical_formula_sum "Si O2"
_cell_formula_units_Z 64
_cell_length_a 8.876122
_cell_length_b 28.798368
_cell_length_c 12.831462
_cell_angle_alpha 90.000000
_cell_angle_beta 90.000000
_cell_angle_gamma 90.000000
_cell_volume 3279.950444
_symmetry_space_group_name_H-M "A M M 2"
_symmetry_group_IT_number 38
_symmetry_cell_setting 'orthorhombic'
loop_
_space_group_symop_operation_xyz
x,y,z
-x,-y,z
-x,y,z
x,-y,z
x,1/2+y,1/2+z
-x,1/2-y,1/2+z
-x,1/2+y,1/2+z
x,1/2-y,1/2+z
loop_
_atom_site_type_symbol
_atom_site_label
_atom_site_fract_x
_atom_site_fract_y
_atom_site_fract_z
Si Si1 0.678171 0.697797 0.018640
Si Si2 0.179526 0.598178 0.962373
Si Si3 0.677762 0.619515 0.565581
Si Si4 0.182496 0.053921 0.242939
Si Si5 0.825493 0.948670 0.912783
Si Si6 0.177459 0.206175 0.961965
Si Si7 0.326652 0.176192 0.751871
Si Si8 0.174714 0.416387 0.189053
O O1 0.500000 0.698095 0.997334
O O2 0.698668 0.702964 0.143650
O O3 0.745088 0.648582 0.979962
O O4 0.758263 0.742087 0.970039
O O5 0.227965 0.571510 0.858422
O O6 0.000000 0.605577 0.952615
O O7 0.203997 0.569429 0.069958
O O8 0.500000 0.623192 0.580065
O O9 0.750728 0.589874 0.659224
O O10 0.718388 0.589138 0.463284
O O11 0.746608 0.670226 0.543171
O O12 0.000000 0.055187 0.235800
O O13 0.228136 0.000000 0.226484
O O14 0.814981 0.949725 0.787725
O O15 0.000000 0.936642 0.938402
O O16 0.794407 0.000000 0.954956
O O17 0.218988 0.188987 0.846171
O O18 0.000000 0.205533 0.978339
O O19 0.500000 0.181611 0.785239
O O20 0.290162 0.124033 0.717223
O O21 0.000000 0.398770 0.189961
#
# Coordination Sequence:
#
# PCOD9358022 Si02
#       8
#     8   8   8   8   8   8   8   8
#     4  10  22  39  60  89 123 160 200 247 306 368
#     4   9  19  37  61  89 121 159 205 252 301 359
#     4  12  25  40  59  84 117 157 205 257 310 368
#     4  10  22  41  64  89 123 168 215 263 313 368
#     4  10  20  34  55  85 119 153 190 236 293 355
#     4  12  24  39  62  88 117 156 203 253 308 368
#     4  10  20  36  58  83 115 152 188 236 295 355
#     4   9  17  32  56  84 115 152 191 236 291 351
#
# _framework density 19.51249
#
# number of rings (size 3 to 8) (size 9 to 14) (size 15 to 20)
#    0.000    1.750    1.250    3.375    0.000    5.500 
#    0.000    2.500    0.000    0.000    0.000    5.250 
#    0.000    0.000    0.000    0.000    0.000    0.000 
#
# Total GULP energy -178552.518386 kJ/mol
# GULP energy per Si atom -5579.766200 kJ/mol
# Density = 1.946808 g / cm^3
# Si number density = 19.512490 Si / 1000 Ang^3
#
#
#
# Elastic Constant Matrix: (Units=GPa)
#
#
# Indices 1 2 3 4 5 6 
#
# 1 50.6769 17.6015 27.9126 0.0000 0.0000 0.0000
# 2 17.6015 52.6485 21.7385 0.0000 0.0000 0.0000
# 3 27.9126 21.7385 94.9617 0.0000 0.0000 0.0000
# 4 0.0000 0.0000 0.0000 19.1287 0.0000 0.0000
# 5 0.0000 0.0000 0.0000 0.0000 15.5743 0.0000
# 6 0.0000 0.0000 0.0000 0.0000 0.0000 -14.7776
#
#
#
# Elastic Compliance Matrix: (Units=1/GPa)
#
#
# Indices 1 2 3 4 5 6 
#
# 1 0.025103 -0.005904 -0.006027 0.000000 0.000000 0.000000
# 2 -0.005904 0.022365 -0.003384 0.000000 0.000000 0.000000
# 3 -0.006027 -0.003384 0.013077 0.000000 0.000000 0.000000
# 4 0.000000 0.000000 0.000000 0.052277 0.000000 0.000000
# 5 0.000000 0.000000 0.000000 0.000000 0.064208 0.000000
# 6 0.000000 0.000000 0.000000 0.000000 0.000000 -0.067670
#
#
# Mechanical properties :
#
#
# Convention : Reuss Voigt Hill
#
# Bulk Modulus (GPa) = 33.42898 36.97693 35.20295
# Shear Modulus (GPa) = 33.34153 12.72073 23.03113
#
# Velocity S-wave (km/s) = 4.13816 2.55606 3.43932
# Velocity P-wave (km/s) = 6.32470 5.26334 5.81827
#
# Compressibility (1/GPa) = 0.02991417
#
# Stress axis : x y z
#
# Youngs Moduli (GPa) = 39.83557 44.71248 76.47057
#
# Poissons Ratio (x) = 0.26398 0.46090
# Poissons Ratio (y) = 0.23519 0.25881
# Poissons Ratio (z) = 0.24010 0.15133
#
# Static dielectric constant tensor:
#      x y z
#    x 1.663730 0.000000 0.000000 
#    y 0.000000 1.688700 0.000000 
#    z 0.000000 0.000000 1.722610 
# 
# From -- ./inp_files/8609.got.cif
#   From: 2010.05.17/outbox.cif.g08.bks.cpg/sg38_5_cif.got.tgz:8609.got - 2010.06.03 18:07:57.
