data_PCOD9358402
_publ_section_title
;
Structure prediction by ZEFSAII (Michael W. Deem and Ramdas Pophale) SiO2 
 PCOD9358402
Probable space group: A M M 2
;
_chemical_formula_sum "Si O2"
_cell_formula_units_Z 64
_cell_length_a 10.068122
_cell_length_b 24.634768
_cell_length_c 13.166992
_cell_angle_alpha 90.000000
_cell_angle_beta 90.000000
_cell_angle_gamma 90.000000
_cell_volume 3265.754378
_symmetry_space_group_name_H-M "A M M 2"
_symmetry_group_IT_number 38
_symmetry_cell_setting 'orthorhombic'
loop_
_space_group_symop_operation_xyz
x,y,z
-x,-y,z
-x,y,z
x,-y,z
x,1/2+y,1/2+z
-x,1/2-y,1/2+z
-x,1/2+y,1/2+z
x,1/2-y,1/2+z
loop_
_atom_site_type_symbol
_atom_site_label
_atom_site_fract_x
_atom_site_fract_y
_atom_site_fract_z
Si Si1 0.350533 0.733193 0.381980
Si Si2 0.355599 0.818495 0.221242
Si Si3 0.156274 0.058884 0.401649
Si Si4 0.346202 0.626098 0.264045
Si Si5 0.156657 0.266125 0.564210
Si Si6 0.842913 0.135863 0.580717
Si Si7 0.284866 0.562283 0.691395
Si Si8 0.654953 0.936530 0.969507
O O1 0.500000 0.727558 0.425894
O O2 0.336944 0.792162 0.331851
O O3 0.341925 0.689932 0.290814
O O4 0.236372 0.720763 0.461620
O O5 0.500000 0.797966 0.183858
O O6 0.235057 0.797643 0.152343
O O7 0.362036 0.883292 0.220849
O O8 0.201831 0.106846 0.475957
O O9 0.176568 0.064001 0.280693
O O10 0.000000 0.056649 0.418295
O O11 0.215772 0.000000 0.430794
O O12 0.500000 0.611670 0.241212
O O13 0.247213 0.614478 0.172681
O O14 0.309153 0.597032 0.370049
O O15 0.170187 0.201008 0.576378
O O16 0.000000 0.279196 0.561238
O O17 0.000000 0.124866 0.598110
O O18 0.340856 0.500000 0.695388
O O19 0.258511 0.571054 0.571325
O O20 0.500000 0.922842 0.996184
O O21 0.658444 0.000000 0.943644
#
# Coordination Sequence:
#
# PCOD9358402 Si02
#       8
#     8   8   8   8   8   8   8   8
#     4  10  21  36  56  82 114 153 194 240 292 351
#     4  11  22  37  58  85 116 152 193 236 293 357
#     4   9  19  37  60  85 118 162 205 247 301 361
#     4  10  20  37  59  83 116 157 197 242 294 354
#     4  11  23  37  57  84 116 153 195 245 293 348
#     4  10  21  38  59  86 121 158 197 246 298 352
#     4  10  20  36  60  87 116 151 196 250 302 360
#     4   9  18  33  54  80 112 151 193 242 300 353
#
# _framework density 19.597311000000001
#
# number of rings (size 3 to 8) (size 9 to 14) (size 15 to 20)
#    0.000    2.000    1.250    2.250    0.000    4.250 
#    0.000    1.875    0.000    2.250    0.000    0.000 
#    0.000    0.000    0.000    0.000    0.000    0.000 
#
# Total GULP energy -178208.156599 kJ/mol
# GULP energy per Si atom -5569.004894 kJ/mol
# Density = 1.955271 g / cm^3
# Si number density = 19.597311 Si / 1000 Ang^3
#
#
#
# Elastic Constant Matrix: (Units=GPa)
#
#
# Indices 1 2 3 4 5 6 
#
# 1 88.4773 19.8319 44.2640 0.0000 0.0000 0.0000
# 2 19.8319 67.3948 21.1415 0.0000 0.0000 0.0000
# 3 44.2640 21.1415 86.6702 0.0000 0.0000 0.0000
# 4 0.0000 0.0000 0.0000 35.0793 0.0000 0.0000
# 5 0.0000 0.0000 0.0000 0.0000 -61.6663 0.0000
# 6 0.0000 0.0000 0.0000 0.0000 0.0000 13.7594
#
#
#
# Elastic Compliance Matrix: (Units=1/GPa)
#
#
# Indices 1 2 3 4 5 6 
#
# 1 0.015490 -0.002249 -0.007362 0.000000 0.000000 0.000000
# 2 -0.002249 0.016394 -0.002851 0.000000 0.000000 0.000000
# 3 -0.007362 -0.002851 0.015993 0.000000 0.000000 0.000000
# 4 0.000000 0.000000 0.000000 0.028507 0.000000 0.000000
# 5 0.000000 0.000000 0.000000 0.000000 -0.016216 0.000000
# 6 0.000000 0.000000 0.000000 0.000000 0.000000 0.072678
#
#
# Mechanical properties :
#
#
# Convention : Reuss Voigt Hill
#
# Bulk Modulus (GPa) = 43.56547 45.89079 44.72813
# Shear Modulus (GPa) = 30.22622 7.92148 19.07385
#
# Velocity S-wave (km/s) = 3.93156 2.01268 3.12314
# Velocity P-wave (km/s) = 6.54890 5.37298 5.98987
#
# Compressibility (1/GPa) = 0.02295396
#
# Stress axis : x y z
#
# Youngs Moduli (GPa) = 64.55941 60.99861 62.52577
#
# Poissons Ratio (x) = 0.13716 0.46034
# Poissons Ratio (y) = 0.14516 0.17824
# Poissons Ratio (z) = 0.47531 0.17388
#
# Static dielectric constant tensor:
#      x y z
#    x 1.682640 0.000000 0.000000 
#    y 0.000000 1.743580 0.000000 
#    z 0.000000 0.000000 1.681780 
# 
# From -- ./inp_files/12840.got.cif
#   From: 2010.05.17/outbox.cif.g08.bks.cpg/sg38_7_cif.got.tgz:12840.got - 2010.06.03 18:07:57.
