data_PCOD9358315
_publ_section_title
;
Structure prediction by ZEFSAII (Michael W. Deem and Ramdas Pophale) SiO2 
 PCOD9358315
Probable space group: A M M 2
;
_chemical_formula_sum "Si O2"
_cell_formula_units_Z 58
_cell_length_a 15.184841
_cell_length_b 7.495189
_cell_length_c 24.520810
_cell_angle_alpha 90.000000
_cell_angle_beta 90.000000
_cell_angle_gamma 90.000000
_cell_volume 2790.793158
_symmetry_space_group_name_H-M "A M M 2"
_symmetry_group_IT_number 38
_symmetry_cell_setting 'orthorhombic'
loop_
_space_group_symop_operation_xyz
x,y,z
-x,-y,z
-x,y,z
x,-y,z
x,1/2+y,1/2+z
-x,1/2-y,1/2+z
-x,1/2+y,1/2+z
x,1/2-y,1/2+z
loop_
_atom_site_type_symbol
_atom_site_label
_atom_site_fract_x
_atom_site_fract_y
_atom_site_fract_z
Si Si1 0.897704 0.718071 0.608760
Si Si2 0.600490 0.285608 0.131093
Si Si3 0.233255 0.197139 0.822910
Si Si4 0.098273 0.789722 0.229774
Si Si5 0.599433 0.791489 0.256954
Si Si6 0.338489 0.278502 0.423588
Si Si7 0.500000 0.000000 0.406807
Si Si8 0.260475 0.705578 0.538761
O O1 0.893377 0.500000 0.607447
O O2 0.871182 0.778547 0.670224
O O3 0.829177 0.785012 0.563658
O O4 0.000000 0.766591 0.600570
O O5 0.500000 0.231704 0.117606
O O6 0.604231 0.500000 0.130692
O O7 0.618476 0.223169 0.192631
O O8 0.669155 0.214619 0.087694
O O9 0.164117 0.272367 0.779931
O O10 0.326063 0.196372 0.790860
O O11 0.260769 0.272456 0.881196
O O12 0.200232 0.000000 0.834039
O O13 0.000000 0.718005 0.241035
O O14 0.089560 0.000000 0.221312
O O15 0.500000 0.724397 0.265804
O O16 0.600744 0.000000 0.272558
O O17 0.352501 0.500000 0.420524
O O18 0.422930 0.159249 0.408791
O O19 0.306499 0.226278 0.484187
O O20 0.240745 0.500000 0.525752
#
# Coordination Sequence:
#
# PCOD9358315 Si02
#       8
#     8   8   8   8   8   8   2   8
#     4   8  15  31  58  89 116 150 196 245 303 367
#     4  10  21  34  51  78 111 146 188 235 296 364
#     4  11  23  38  56  82 120 154 195 257 306 358
#     4   9  18  34  60  92 121 153 200 249 297 367
#     4  10  21  35  54  79 108 147 193 235 297 370
#     4  10  26  43  61  94 123 157 217 264 308 365
#     4  12  26  44  72  82 118 176 214 264 312 364
#     4  10  20  36  57  82 117 153 195 253 300 355
#
# _framework density 20.782623999999998
#
# number of rings (size 3 to 8) (size 9 to 14) (size 15 to 20)
#    0.000    2.207    0.000    3.103    4.828    3.034 
#    0.000    0.690    0.000    3.724    0.000    0.000 
#    0.000    0.000    0.000    0.000    0.000    0.000 
#
# Total GULP energy -161489.402201 kJ/mol
# GULP energy per Si atom -5568.600076 kJ/mol
# Density = 2.073532 g / cm^3
# Si number density = 20.782624 Si / 1000 Ang^3
#
#
#
# Elastic Constant Matrix: (Units=GPa)
#
#
# Indices 1 2 3 4 5 6 
#
# 1 50.3544 6.2357 27.6752 0.0000 0.0000 0.0000
# 2 6.2357 77.4733 0.1197 0.0000 0.0000 0.0000
# 3 27.6752 0.1197 51.9113 0.0000 0.0000 0.0000
# 4 0.0000 0.0000 0.0000 11.9222 0.0000 0.0000
# 5 0.0000 0.0000 0.0000 0.0000 -18.7140 0.0000
# 6 0.0000 0.0000 0.0000 0.0000 0.0000 -42.8717
#
#
#
# Elastic Compliance Matrix: (Units=1/GPa)
#
#
# Indices 1 2 3 4 5 6 
#
# 1 0.028483 -0.002269 -0.015180 0.000000 0.000000 0.000000
# 2 -0.002269 0.013088 0.001180 0.000000 0.000000 0.000000
# 3 -0.015180 0.001180 0.027354 0.000000 0.000000 0.000000
# 4 0.000000 0.000000 0.000000 0.083877 0.000000 0.000000
# 5 0.000000 0.000000 0.000000 0.000000 -0.053436 0.000000
# 6 0.000000 0.000000 0.000000 0.000000 0.000000 -0.023325
#
#
# Mechanical properties :
#
#
# Convention : Reuss Voigt Hill
#
# Bulk Modulus (GPa) = 27.48273 27.53335 27.50804
# Shear Modulus (GPa) = 41.42206 -0.21880 20.60163
#
# Velocity S-wave (km/s) = 4.46927 -0.32482 3.15189
# Velocity P-wave (km/s) = 6.31546 3.62441 5.14886
#
# Compressibility (1/GPa) = 0.03638649
#
# Stress axis : x y z
#
# Youngs Moduli (GPa) = 35.10841 76.40297 36.55819
#
# Poissons Ratio (x) = 0.17337 0.55495
# Poissons Ratio (y) = 0.07967 -0.04312
# Poissons Ratio (z) = 0.53294 -0.09012
#
# Static dielectric constant tensor:
#      x y z
#    x 1.738000 0.000000 0.000000 
#    y 0.000000 1.812830 0.000000 
#    z 0.000000 0.000000 1.765230 
# 
# From -- ./inp_files/22813.got.cif
#   From: 2010.05.17/outbox.cif.g08.bks.cpg/sg38_12_cif.got.tgz:22813.got - 2010.06.03 18:07:57.
