data_PCOD9358579
_publ_section_title
;
Structure prediction by ZEFSAII (Michael W. Deem and Ramdas Pophale) SiO2 
 PCOD9358579
Probable space group: A M M 2
;
_chemical_formula_sum "Si O2"
_cell_formula_units_Z 32
_cell_length_a 12.687390
_cell_length_b 8.645133
_cell_length_c 14.929837
_cell_angle_alpha 90.000000
_cell_angle_beta 90.000000
_cell_angle_gamma 90.000000
_cell_volume 1637.566839
_symmetry_space_group_name_H-M "A M M 2"
_symmetry_group_IT_number 38
_symmetry_cell_setting 'orthorhombic'
loop_
_space_group_symop_operation_xyz
x,y,z
-x,-y,z
-x,y,z
x,-y,z
x,1/2+y,1/2+z
-x,1/2-y,1/2+z
-x,1/2+y,1/2+z
x,1/2-y,1/2+z
loop_
_atom_site_type_symbol
_atom_site_label
_atom_site_fract_x
_atom_site_fract_y
_atom_site_fract_z
Si Si1 0.500000 0.322561 0.371460
Si Si2 0.122706 0.685585 0.008138
Si Si3 0.728420 0.312917 0.357902
Si Si4 0.276204 0.815606 0.157554
Si Si5 0.500000 0.177869 0.652922
O O1 0.500000 0.500000 0.403640
O O2 0.614052 0.254933 0.394970
O O3 0.500000 0.323877 0.262282
O O4 0.129888 0.500000 0.006023
O O5 0.187891 0.749190 0.092180
O O6 0.000000 0.729235 0.012695
O O7 0.178924 0.754727 0.920747
O O8 0.724988 0.500000 0.355801
O O9 0.739703 0.250889 0.257311
O O10 0.392454 0.761568 0.126027
O O11 0.272481 0.000000 0.159019
O O12 0.500000 0.000000 0.623086
#
# Coordination Sequence:
#
# PCOD9358579 Si02
#       5
#     4   8   8   8   4
#     4   7  14  30  55  86 116 146 180 223 279 346
#     4  11  25  43  60  82 115 157 206 253 296 348
#     4  10  20  38  63  89 120 155 191 237 295 355
#     4  11  22  38  62  91 122 156 195 241 296 353
#     4   9  17  34  59  88 122 156 192 235 289 352
#
# _framework density 19.541188999999999
#
# number of rings (size 3 to 8) (size 9 to 14) (size 15 to 20)
#    0.000    2.000    0.000    5.625    0.000    4.000 
#    0.000    5.625    0.000    0.000    0.000    0.000 
#    0.000    0.000    0.000    0.000    0.000    0.000 
#
# Total GULP energy -89381.369551 kJ/mol
# GULP energy per Si atom -5586.335597 kJ/mol
# Density = 1.949671 g / cm^3
# Si number density = 19.541189 Si / 1000 Ang^3
#
#
#
# Elastic Constant Matrix: (Units=GPa)
#
#
# Indices 1 2 3 4 5 6 
#
# 1 212.8979 70.9888 86.2123 0.0000 0.0000 0.0000
# 2 70.9888 97.5712 36.9968 0.0000 0.0000 0.0000
# 3 86.2123 36.9968 102.4246 0.0000 0.0000 0.0000
# 4 0.0000 0.0000 0.0000 28.2947 0.0000 0.0000
# 5 0.0000 0.0000 0.0000 0.0000 36.5349 0.0000
# 6 0.0000 0.0000 0.0000 0.0000 0.0000 32.6668
#
#
#
# Elastic Compliance Matrix: (Units=1/GPa)
#
#
# Indices 1 2 3 4 5 6 
#
# 1 0.008232 -0.003896 -0.005522 0.000000 0.000000 0.000000
# 2 -0.003896 0.013719 -0.001676 0.000000 0.000000 0.000000
# 3 -0.005522 -0.001676 0.015017 0.000000 0.000000 0.000000
# 4 0.000000 0.000000 0.000000 0.035342 0.000000 0.000000
# 5 0.000000 0.000000 0.000000 0.000000 0.027371 0.000000
# 6 0.000000 0.000000 0.000000 0.000000 0.000000 0.030612
#
#
# Mechanical properties :
#
#
# Convention : Reuss Voigt Hill
#
# Bulk Modulus (GPa) = 67.66004 89.03216 78.34610
# Shear Modulus (GPa) = 31.76463 34.07901 32.92182
#
# Velocity S-wave (km/s) = 4.03615 4.18060 4.10901
# Velocity P-wave (km/s) = 7.51134 8.30442 7.91782
#
# Compressibility (1/GPa) = 0.01477977
#
# Stress axis : x y z
#
# Youngs Moduli (GPa) = 121.47513 72.89250 66.59218
#
# Poissons Ratio (x) = 0.28396 0.36772
# Poissons Ratio (y) = 0.47321 0.11164
# Poissons Ratio (z) = 0.67079 0.12220
#
# Static dielectric constant tensor:
#      x y z
#    x 1.682360 0.000000 0.000000 
#    y 0.000000 1.656740 0.000000 
#    z 0.000000 0.000000 1.719710 
# 
# From -- ./inp_files/13251.got.cif
#   From: 2010.05.17/outbox.cif.g08.bks.cpg/sg38_7_cif.got.tgz:13251.got - 2010.06.03 18:07:57.
