data_PCOD9358128
_publ_section_title
;
Structure prediction by ZEFSAII (Michael W. Deem and Ramdas Pophale) SiO2 
 PCOD9358128
Probable space group: A M M 2
;
_chemical_formula_sum "Si O2"
_cell_formula_units_Z 56
_cell_length_a 8.171733
_cell_length_b 14.702542
_cell_length_c 23.547225
_cell_angle_alpha 90.000000
_cell_angle_beta 90.000000
_cell_angle_gamma 90.000000
_cell_volume 2829.087179
_symmetry_space_group_name_H-M "A M M 2"
_symmetry_group_IT_number 38
_symmetry_cell_setting 'orthorhombic'
loop_
_space_group_symop_operation_xyz
x,y,z
-x,-y,z
-x,y,z
x,-y,z
x,1/2+y,1/2+z
-x,1/2-y,1/2+z
-x,1/2+y,1/2+z
x,1/2-y,1/2+z
loop_
_atom_site_type_symbol
_atom_site_label
_atom_site_fract_x
_atom_site_fract_y
_atom_site_fract_z
Si Si1 0.304714 0.395916 0.396030
Si Si2 0.194890 0.699599 0.281162
Si Si3 0.695019 0.097556 0.542073
Si Si4 0.799743 0.597532 0.750803
Si Si5 0.804511 0.201321 0.010423
Si Si6 0.813058 0.642002 0.628772
Si Si7 0.309058 0.331814 0.162650
O O1 0.500000 0.398277 0.391555
O O2 0.243377 0.500000 0.399159
O O3 0.237889 0.345580 0.340531
O O4 0.258501 0.341357 0.452608
O O5 0.251798 0.805906 0.277535
O O6 0.272184 0.645557 0.227745
O O7 0.000000 0.699140 0.273840
O O8 0.500000 0.099763 0.532157
O O9 0.763133 0.191787 0.517377
O O10 0.718528 0.100767 0.610467
O O11 0.759409 0.000000 0.520615
O O12 0.751994 0.500000 0.777141
O O13 0.740872 0.597049 0.685070
O O14 0.000000 0.599758 0.749819
O O15 0.000000 0.193352 0.012179
O O16 0.737999 0.146103 0.065890
O O17 0.807123 0.747280 0.647768
O O18 0.000000 0.609724 0.623610
O O19 0.500000 0.303531 0.158790
#
# Coordination Sequence:
#
# PCOD9358128 Si02
#       7
#     8   8   8   8   8   8   8
#     4  11  25  43  60  76  98 135 182 228 276 333
#     4  10  20  35  55  79 108 141 180 228 276 320
#     4   9  18  33  54  81 114 151 186 219 262 321
#     4   8  14  27  50  80 111 140 169 204 252 312
#     4  10  20  35  56  82 111 141 177 225 276 323
#     4   8  15  28  48  75 106 140 175 211 255 307
#     4   9  16  28  49  76 108 145 180 216 261 311
#
# _framework density 19.794370000000001
#
# number of rings (size 3 to 8) (size 9 to 14) (size 15 to 20)
#    0.000    2.714    0.000    2.571    0.000    3.714 
#    0.000    3.571    0.000   13.286    0.000    0.000 
#    0.000    0.000    0.000    0.000    0.000    0.000 
#
# Total GULP energy -155901.527307 kJ/mol
# GULP energy per Si atom -5567.911690 kJ/mol
# Density = 1.974932 g / cm^3
# Si number density = 19.794370 Si / 1000 Ang^3
#
#
#
# Elastic Constant Matrix: (Units=GPa)
#
#
# Indices 1 2 3 4 5 6 
#
# 1 36.2801 19.7611 11.1734 0.0000 0.0000 0.0000
# 2 19.7611 126.3330 52.1435 0.0000 0.0000 0.0000
# 3 11.1734 52.1435 126.3308 0.0000 0.0000 0.0000
# 4 0.0000 0.0000 0.0000 10.3531 0.0000 0.0000
# 5 0.0000 0.0000 0.0000 0.0000 27.5123 0.0000
# 6 0.0000 0.0000 0.0000 0.0000 0.0000 -8.3985
#
#
#
# Elastic Compliance Matrix: (Units=1/GPa)
#
#
# Indices 1 2 3 4 5 6 
#
# 1 0.030209 -0.004366 -0.000870 0.000000 0.000000 0.000000
# 2 -0.004366 0.010172 -0.003812 0.000000 0.000000 0.000000
# 3 -0.000870 -0.003812 0.009566 0.000000 0.000000 0.000000
# 4 0.000000 0.000000 0.000000 0.096589 0.000000 0.000000
# 5 0.000000 0.000000 0.000000 0.000000 0.036347 0.000000
# 6 0.000000 0.000000 0.000000 0.000000 0.000000 -0.119068
#
#
# Mechanical properties :
#
#
# Convention : Reuss Voigt Hill
#
# Bulk Modulus (GPa) = 31.39629 50.56664 40.98147
# Shear Modulus (GPa) = 54.03654 19.61777 36.82715
#
# Velocity S-wave (km/s) = 5.23051 3.15155 4.31801
# Velocity P-wave (km/s) = 7.23694 6.23254 6.75343
#
# Compressibility (1/GPa) = 0.03185089
#
# Stress axis : x y z
#
# Youngs Moduli (GPa) = 33.10222 98.30766 104.53446
#
# Poissons Ratio (x) = 0.42925 0.09091
# Poissons Ratio (y) = 0.14454 0.39853
# Poissons Ratio (z) = 0.02879 0.37479
#
# Static dielectric constant tensor:
#      x y z
#    x 1.712880 0.000000 0.000000 
#    y 0.000000 1.730680 0.000000 
#    z 0.000000 0.000000 1.707870 
# 
# From -- ./inp_files/19769.got.cif
#   From: 2010.05.17/outbox.cif.g08.bks.cpg/sg38_10_cif.got.tgz:19769.got - 2010.06.03 18:07:57.
