data_PCOD9358435
_publ_section_title
;
Structure prediction by ZEFSAII (Michael W. Deem and Ramdas Pophale) SiO2 
 PCOD9358435
Probable space group: A M M 2
;
_chemical_formula_sum "Si O2"
_cell_formula_units_Z 64
_cell_length_a 18.526144
_cell_length_b 18.252455
_cell_length_c 9.540119
_cell_angle_alpha 90.000000
_cell_angle_beta 90.000000
_cell_angle_gamma 90.000000
_cell_volume 3225.968436
_symmetry_space_group_name_H-M "A M M 2"
_symmetry_group_IT_number 38
_symmetry_cell_setting 'orthorhombic'
loop_
_space_group_symop_operation_xyz
x,y,z
-x,-y,z
-x,y,z
x,-y,z
x,1/2+y,1/2+z
-x,1/2-y,1/2+z
-x,1/2+y,1/2+z
x,1/2-y,1/2+z
loop_
_atom_site_type_symbol
_atom_site_label
_atom_site_fract_x
_atom_site_fract_y
_atom_site_fract_z
Si Si1 0.915104 0.583987 0.888090
Si Si2 0.311667 0.413416 0.724909
Si Si3 0.157848 0.143398 0.125745
Si Si4 0.374868 0.083643 0.939594
Si Si5 0.820216 0.809055 0.578258
Si Si6 0.336944 0.813515 0.455945
Si Si7 0.208101 0.084049 0.837154
Si Si8 0.418800 0.709109 0.244922
O O1 0.891096 0.500000 0.914352
O O2 0.898464 0.604337 0.727303
O O3 0.000000 0.588803 0.917285
O O4 0.870863 0.642042 0.979729
O O5 0.298736 0.500000 0.709144
O O6 0.236978 0.371911 0.693128
O O7 0.368290 0.392400 0.602353
O O8 0.335525 0.392452 0.880722
O O9 0.146778 0.230387 0.116068
O O10 0.162047 0.108109 0.972081
O O11 0.291920 0.086074 0.884611
O O12 0.418698 0.136132 0.839375
O O13 0.399972 0.000000 0.934762
O O14 0.744058 0.793585 0.501425
O O15 0.803686 0.858279 0.713955
O O16 0.366474 0.761828 0.332976
O O17 0.386479 0.806984 0.592273
O O18 0.191753 0.000000 0.796291
O O19 0.500000 0.738618 0.234084
#
# Coordination Sequence:
#
# PCOD9358435 Si02
#       8
#     8   8   8   8   8   8   8   8
#     4  11  25  44  65  93 135 184 226 269 339 415
#     4  10  21  38  65  96 126 162 214 273 329 395
#     4  11  21  38  64  94 129 168 214 272 327 394
#     4   9  19  37  60  89 123 161 209 263 323 393
#     4  12  23  38  66  98 132 166 219 282 326 386
#     4  12  24  39  65  94 125 166 219 270 334 394
#     4  10  20  36  61  94 128 162 212 271 326 381
#     4  12  25  42  62  90 131 171 215 272 339 409
#
# _framework density 19.839003999999999
#
# number of rings (size 3 to 8) (size 9 to 14) (size 15 to 20)
#    0.000    1.125    2.500    6.375    0.000    1.750 
#    0.000    1.250    0.000    4.875    0.000    0.000 
#    0.000    0.000    0.000    0.000    0.000    0.000 
#
# Total GULP energy -178893.053657 kJ/mol
# GULP energy per Si atom -5590.407927 kJ/mol
# Density = 1.979385 g / cm^3
# Si number density = 19.839004 Si / 1000 Ang^3
#
#
#
# Elastic Constant Matrix: (Units=GPa)
#
#
# Indices 1 2 3 4 5 6 
#
# 1 60.6012 22.1109 22.9063 0.0000 0.0000 0.0000
# 2 22.1109 102.7408 19.9711 0.0000 0.0000 0.0000
# 3 22.9063 19.9711 87.7783 0.0000 0.0000 0.0000
# 4 0.0000 0.0000 0.0000 38.3122 0.0000 0.0000
# 5 0.0000 0.0000 0.0000 0.0000 -14.5554 0.0000
# 6 0.0000 0.0000 0.0000 0.0000 0.0000 -9.1473
#
#
#
# Elastic Compliance Matrix: (Units=1/GPa)
#
#
# Indices 1 2 3 4 5 6 
#
# 1 0.019337 -0.003328 -0.004289 0.000000 0.000000 0.000000
# 2 -0.003328 0.010756 -0.001579 0.000000 0.000000 0.000000
# 3 -0.004289 -0.001579 0.012871 0.000000 0.000000 0.000000
# 4 0.000000 0.000000 0.000000 0.026101 0.000000 0.000000
# 5 0.000000 0.000000 0.000000 0.000000 -0.068703 0.000000
# 6 0.000000 0.000000 0.000000 0.000000 0.000000 -0.109322
#
#
# Mechanical properties :
#
#
# Convention : Reuss Voigt Hill
#
# Bulk Modulus (GPa) = 40.69557 42.34410 41.51984
# Shear Modulus (GPa) = -60.69567 15.33071 -22.68248
#
# Velocity S-wave (km/s) = -5.53720 2.78286 -3.38498
# Velocity P-wave (km/s) = 4.50813 5.63169 2.38670
#
# Compressibility (1/GPa) = 0.02457270
#
# Stress axis : x y z
#
# Youngs Moduli (GPa) = 51.71536 92.96880 77.69546
#
# Poissons Ratio (x) = 0.30938 0.33323
# Poissons Ratio (y) = 0.17210 0.12267
# Poissons Ratio (z) = 0.22180 0.14678
#
# Static dielectric constant tensor:
#      x y z
#    x 1.698030 0.000000 0.000000 
#    y 0.000000 1.723030 0.000000 
#    z 0.000000 0.000000 1.704410 
# 
# From -- ./inp_files/6828.got.cif
#   From: 2010.05.17/outbox.cif.g08.bks.cpg/sg38_4_cif.got.tgz:6828.got - 2010.06.03 18:07:57.
