data_PCOD9358785
_publ_section_title
;
Structure prediction by ZEFSAII (Michael W. Deem and Ramdas Pophale) SiO2 
 PCOD9358785
Probable space group: A M M 2
;
_chemical_formula_sum "Si O2"
_cell_formula_units_Z 56
_cell_length_a 20.729072
_cell_length_b 9.863363
_cell_length_c 14.647142
_cell_angle_alpha 90.000000
_cell_angle_beta 90.000000
_cell_angle_gamma 90.000000
_cell_volume 2994.730658
_symmetry_space_group_name_H-M "A M M 2"
_symmetry_group_IT_number 38
_symmetry_cell_setting 'orthorhombic'
loop_
_space_group_symop_operation_xyz
x,y,z
-x,-y,z
-x,y,z
x,-y,z
x,1/2+y,1/2+z
-x,1/2-y,1/2+z
-x,1/2+y,1/2+z
x,1/2-y,1/2+z
loop_
_atom_site_type_symbol
_atom_site_label
_atom_site_fract_x
_atom_site_fract_y
_atom_site_fract_z
Si Si1 0.188734 0.654585 0.200420
Si Si2 0.927986 0.656077 0.922936
Si Si3 0.335069 0.163695 0.703358
Si Si4 0.188639 0.655721 0.423645
Si Si5 0.329553 0.163533 0.913773
Si Si6 0.071915 0.656359 0.700168
Si Si7 0.576219 0.661744 0.574118
O O1 0.176994 0.500000 0.171257
O O2 0.261375 0.694870 0.173431
O O3 0.189080 0.653969 0.312067
O O4 0.131401 0.751965 0.170067
O O5 0.918556 0.500000 0.950913
O O6 0.870592 0.752373 0.953779
O O7 0.927233 0.657293 0.811565
O O8 0.000000 0.700237 0.950578
O O9 0.340132 0.204379 0.809599
O O10 0.387248 0.247075 0.647621
O O11 0.343370 0.000000 0.696039
O O12 0.181018 0.500000 0.454081
O O13 0.259492 0.711253 0.448863
O O14 0.323330 0.000000 0.911656
O O15 0.388513 0.196686 0.979022
O O16 0.079550 0.500000 0.671833
O O17 0.000000 0.703700 0.673102
O O18 0.500000 0.686659 0.571546
O O19 0.586017 0.500000 0.590589
#
# Coordination Sequence:
#
# PCOD9358785 Si02
#       7
#     8   8   8   8   8   8   8
#     4   8  14  24  39  61  88 119 158 201 241 284
#     4   8  13  20  30  50  85 123 154 190 239 288
#     4   9  18  34  55  77 102 134 171 208 248 298
#     4   8  13  23  40  60  83 116 160 202 234 275
#     4   8  16  33  54  74 100 135 170 203 245 299
#     4   8  13  20  31  52  85 123 160 197 238 285
#     4  10  21  36  54  78 105 131 163 203 248 302
#
# _framework density 18.69951
#
# number of rings (size 3 to 8) (size 9 to 14) (size 15 to 20)
#    0.000    3.571    0.000    2.571    0.000    2.000 
#    0.000    7.857    0.000    0.000    0.000    1.000 
#    0.000    1.143    0.000    0.000    0.000    0.000 
#
# Total GULP energy -156043.203597 kJ/mol
# GULP energy per Si atom -5572.971557 kJ/mol
# Density = 1.865695 g / cm^3
# Si number density = 18.699510 Si / 1000 Ang^3
#
#
#
# Elastic Constant Matrix: (Units=GPa)
#
#
# Indices 1 2 3 4 5 6 
#
# 1 211.2959 96.7267 56.0441 0.0000 0.0000 0.0000
# 2 96.7267 60.5323 30.4676 0.0000 0.0000 0.0000
# 3 56.0441 30.4676 64.9805 0.0000 0.0000 0.0000
# 4 0.0000 0.0000 0.0000 10.9436 0.0000 0.0000
# 5 0.0000 0.0000 0.0000 0.0000 70.1693 0.0000
# 6 0.0000 0.0000 0.0000 0.0000 0.0000 35.9005
#
#
#
# Elastic Compliance Matrix: (Units=1/GPa)
#
#
# Indices 1 2 3 4 5 6 
#
# 1 0.017972 -0.027377 -0.002664 0.000000 0.000000 0.000000
# 2 -0.027377 0.063327 -0.006080 0.000000 0.000000 0.000000
# 3 -0.002664 -0.006080 0.020538 0.000000 0.000000 0.000000
# 4 0.000000 0.000000 0.000000 0.091378 0.000000 0.000000
# 5 0.000000 0.000000 0.000000 0.000000 0.014251 0.000000
# 6 0.000000 0.000000 0.000000 0.000000 0.000000 0.027855
#
#
# Mechanical properties :
#
#
# Convention : Reuss Voigt Hill
#
# Bulk Modulus (GPa) = 33.79051 78.14284 55.96668
# Shear Modulus (GPa) = 15.75157 33.64070 24.69614
#
# Velocity S-wave (km/s) = 2.90548 4.24608 3.63806
# Velocity P-wave (km/s) = 5.41897 8.11901 6.90230
#
# Compressibility (1/GPa) = 0.02959410
#
# Stress axis : x y z
#
# Youngs Moduli (GPa) = 55.64231 15.79096 48.69075
#
# Poissons Ratio (x) = 0.43231 0.12971
# Poissons Ratio (y) = 1.52333 0.29606
# Poissons Ratio (z) = 0.14823 0.09602
#
# Static dielectric constant tensor:
#      x y z
#    x 1.642370 0.000000 0.000000 
#    y 0.000000 1.623520 0.000000 
#    z 0.000000 0.000000 1.711750 
# 
# From -- ./inp_files/18828.got.cif
#   From: 2010.05.17/outbox.cif.g08.bks.cpg/sg38_10_cif.got.tgz:18828.got - 2010.06.03 18:07:57.
