data_PCOD9358005
_publ_section_title
;
Structure prediction by ZEFSAII (Michael W. Deem and Ramdas Pophale) SiO2 
 PCOD9358005
Probable space group: A M M 2
;
_chemical_formula_sum "Si O2"
_cell_formula_units_Z 64
_cell_length_a 7.583205
_cell_length_b 32.287275
_cell_length_c 12.197464
_cell_angle_alpha 90.000000
_cell_angle_beta 90.000000
_cell_angle_gamma 90.000000
_cell_volume 2986.439591
_symmetry_space_group_name_H-M "A M M 2"
_symmetry_group_IT_number 38
_symmetry_cell_setting 'orthorhombic'
loop_
_space_group_symop_operation_xyz
x,y,z
-x,-y,z
-x,y,z
x,-y,z
x,1/2+y,1/2+z
-x,1/2-y,1/2+z
-x,1/2+y,1/2+z
x,1/2-y,1/2+z
loop_
_atom_site_type_symbol
_atom_site_label
_atom_site_fract_x
_atom_site_fract_y
_atom_site_fract_z
Si Si1 0.708348 0.955220 0.354810
Si Si2 0.787439 0.545678 0.374317
Si Si3 0.717032 0.373420 0.980029
Si Si4 0.710576 0.798661 0.880514
Si Si5 0.289723 0.626314 0.230981
Si Si6 0.788983 0.331728 0.621115
Si Si7 0.704794 0.206756 0.349550
Si Si8 0.786718 0.427011 0.614759
O O1 0.500000 0.956040 0.378816
O O2 0.778605 0.914231 0.414616
O O3 0.729537 0.950046 0.224368
O O4 0.782923 0.000000 0.388448
O O5 0.725964 0.500000 0.338737
O O6 0.740138 0.583652 0.295917
O O7 0.725871 0.554624 0.498786
O O8 0.000000 0.544803 0.377968
O O9 0.500000 0.373425 0.976079
O O10 0.774562 0.374936 0.106198
O O11 0.778621 0.331343 0.920667
O O12 0.500000 0.796821 0.860775
O O13 0.781447 0.834726 0.800720
O O14 0.783353 0.752473 0.863113
O O15 0.740291 0.812400 0.004958
O O16 0.500000 0.631632 0.223800
O O17 0.714022 0.306836 0.723437
O O18 0.727659 0.379337 0.623672
O O19 0.000000 0.331809 0.631613
O O20 0.500000 0.210077 0.383263
O O21 0.000000 0.427647 0.613112
#
# Coordination Sequence:
#
# PCOD9358005 Si02
#       8
#     8   8   8   8   8   8   8   8
#     4  10  20  34  55  83 112 145 186 231 281 334
#     4  10  21  38  58  80 110 149 188 227 280 340
#     4   9  19  36  56  80 112 148 183 228 281 330
#     4  10  22  37  60  88 114 148 191 236 280 335
#     4  10  21  37  57  83 112 144 188 236 281 331
#     4  11  22  37  60  87 118 151 186 230 283 339
#     4  10  21  38  62  86 114 150 191 235 279 332
#     4  10  20  36  57  81 113 149 184 225 278 334
#
# _framework density 21.430199000000002
#
# number of rings (size 3 to 8) (size 9 to 14) (size 15 to 20)
#    0.000    2.000    2.500    0.750    1.750    3.000 
#    0.000    2.500    0.000    0.000    0.000    0.000 
#    0.000    0.000    0.000    0.000    0.000    0.000 
#
# Total GULP energy -178775.175913 kJ/mol
# GULP energy per Si atom -5586.724247 kJ/mol
# Density = 2.138142 g / cm^3
# Si number density = 21.430199 Si / 1000 Ang^3
#
#
#
# Elastic Constant Matrix: (Units=GPa)
#
#
# Indices 1 2 3 4 5 6 
#
# 1 46.7757 5.9655 -9.8086 0.0000 0.0000 0.0000
# 2 5.9655 218.8326 94.4246 0.0000 0.0000 0.0000
# 3 -9.8086 94.4246 153.8705 0.0000 0.0000 0.0000
# 4 0.0000 0.0000 0.0000 51.4033 0.0000 0.0000
# 5 0.0000 0.0000 0.0000 0.0000 35.3196 0.0000
# 6 0.0000 0.0000 0.0000 0.0000 0.0000 -14.6993
#
#
#
# Elastic Compliance Matrix: (Units=1/GPa)
#
#
# Indices 1 2 3 4 5 6 
#
# 1 0.022096 -0.001646 0.002419 0.000000 0.000000 0.000000
# 2 -0.001646 0.006338 -0.003994 0.000000 0.000000 0.000000
# 3 0.002419 -0.003994 0.009104 0.000000 0.000000 0.000000
# 4 0.000000 0.000000 0.000000 0.019454 0.000000 0.000000
# 5 0.000000 0.000000 0.000000 0.000000 0.028313 0.000000
# 6 0.000000 0.000000 0.000000 0.000000 0.000000 -0.068030
#
#
# Mechanical properties :
#
#
# Convention : Reuss Voigt Hill
#
# Bulk Modulus (GPa) = 32.15990 66.73797 49.44893
# Shear Modulus (GPa) = 146.69985 36.33120 91.51552
#
# Velocity S-wave (km/s) = 8.28271 4.12190 6.54192
# Velocity P-wave (km/s) = 10.32039 7.33915 8.95471
#
# Compressibility (1/GPa) = 0.03109463
#
# Stress axis : x y z
#
# Youngs Moduli (GPa) = 45.25770 157.77555 109.83760
#
# Poissons Ratio (x) = 0.25969 -0.26565
# Poissons Ratio (y) = 0.07449 0.43873
# Poissons Ratio (z) = -0.10946 0.63022
#
# Static dielectric constant tensor:
#      x y z
#    x 1.807540 0.000000 0.000000 
#    y 0.000000 1.781070 0.000000 
#    z 0.000000 0.000000 1.718470 
# 
# From -- ./inp_files/8574.got.cif
#   From: 2010.05.17/outbox.cif.g08.bks.cpg/sg38_5_cif.got.tgz:8574.got - 2010.06.03 18:07:57.
