data_PCOD9358240
_publ_section_title
;
Structure prediction by ZEFSAII (Michael W. Deem and Ramdas Pophale) SiO2 
 PCOD9358240
Probable space group: A M M 2
;
_chemical_formula_sum "Si O2"
_cell_formula_units_Z 48
_cell_length_a 8.663606
_cell_length_b 23.369460
_cell_length_c 11.929667
_cell_angle_alpha 90.000000
_cell_angle_beta 90.000000
_cell_angle_gamma 90.000000
_cell_volume 2415.325640
_symmetry_space_group_name_H-M "A M M 2"
_symmetry_group_IT_number 38
_symmetry_cell_setting 'orthorhombic'
loop_
_space_group_symop_operation_xyz
x,y,z
-x,-y,z
-x,y,z
x,-y,z
x,1/2+y,1/2+z
-x,1/2-y,1/2+z
-x,1/2+y,1/2+z
x,1/2-y,1/2+z
loop_
_atom_site_type_symbol
_atom_site_label
_atom_site_fract_x
_atom_site_fract_y
_atom_site_fract_z
Si Si1 0.683588 0.852967 0.733770
Si Si2 0.182807 0.643609 0.479173
Si Si3 0.185644 0.235800 0.170880
Si Si4 0.675714 0.932340 0.152679
Si Si5 0.685746 0.434542 0.039860
Si Si6 0.179850 0.359772 0.841182
O O1 0.500000 0.855174 0.751247
O O2 0.768820 0.848087 0.851950
O O3 0.728771 0.795706 0.666851
O O4 0.730739 0.907931 0.659916
O O5 0.217849 0.697178 0.561436
O O6 0.277509 0.591231 0.531886
O O7 0.000000 0.633359 0.487501
O O8 0.232560 0.199642 0.282639
O O9 0.000000 0.244090 0.176397
O O10 0.500000 0.914288 0.180945
O O11 0.792993 0.904390 0.240044
O O12 0.682761 0.000000 0.158225
O O13 0.500000 0.436461 0.035776
O O14 0.741847 0.500000 0.021645
O O15 0.738720 0.389161 0.946209
O O16 0.000000 0.353068 0.867750
#
# Coordination Sequence:
#
# PCOD9358240 Si02
#       6
#     8   8   8   8   8   8
#     4  11  24  39  60  88 117 156 201 248 300 362
#     4  10  22  40  60  85 117 154 196 243 298 357
#     4   9  21  40  60  85 118 154 192 245 306 360
#     4  10  20  35  58  87 119 155 194 242 297 348
#     4  10  23  42  60  84 122 164 204 249 303 359
#     4  10  21  37  60  90 120 155 199 248 301 356
#
# _framework density 19.873097000000001
#
# number of rings (size 3 to 8) (size 9 to 14) (size 15 to 20)
#    0.000    2.000    0.000    3.500    2.333    9.667 
#    0.000    1.667    0.000    0.000    0.000    0.000 
#    0.000    0.000    0.000    0.000    0.000    0.000 
#
# Total GULP energy -133972.005621 kJ/mol
# GULP energy per Si atom -5582.166901 kJ/mol
# Density = 1.982787 g / cm^3
# Si number density = 19.873097 Si / 1000 Ang^3
#
#
#
# Elastic Constant Matrix: (Units=GPa)
#
#
# Indices 1 2 3 4 5 6 
#
# 1 9.9394 7.6802 2.6543 0.0000 0.0000 0.0000
# 2 7.6802 56.8609 9.7781 0.0000 0.0000 0.0000
# 3 2.6543 9.7781 81.0923 0.0000 0.0000 0.0000
# 4 0.0000 0.0000 0.0000 17.1050 0.0000 0.0000
# 5 0.0000 0.0000 0.0000 0.0000 32.9543 0.0000
# 6 0.0000 0.0000 0.0000 0.0000 0.0000 91.3806
#
#
#
# Elastic Compliance Matrix: (Units=1/GPa)
#
#
# Indices 1 2 3 4 5 6 
#
# 1 0.112618 -0.014886 -0.001891 0.000000 0.000000 0.000000
# 2 -0.014886 0.019927 -0.001916 0.000000 0.000000 0.000000
# 3 -0.001891 -0.001916 0.012625 0.000000 0.000000 0.000000
# 4 0.000000 0.000000 0.000000 0.058462 0.000000 0.000000
# 5 0.000000 0.000000 0.000000 0.000000 0.030345 0.000000
# 6 0.000000 0.000000 0.000000 0.000000 0.000000 0.010943
#
#
# Mechanical properties :
#
#
# Convention : Reuss Voigt Hill
#
# Bulk Modulus (GPa) = 9.27786 20.90195 15.08991
# Shear Modulus (GPa) = 15.71177 36.80665 26.25921
#
# Velocity S-wave (km/s) = 2.81482 4.30825 3.63897
# Velocity P-wave (km/s) = 3.90423 5.94042 5.02651
#
# Compressibility (1/GPa) = 0.10778346
#
# Stress axis : x y z
#
# Youngs Moduli (GPa) = 8.87961 50.18360 79.21100
#
# Poissons Ratio (x) = 0.74703 0.14981
# Poissons Ratio (y) = 0.13218 0.15173
# Poissons Ratio (z) = 0.01679 0.09613
#
# Static dielectric constant tensor:
#      x y z
#    x 1.664480 0.000000 0.000000 
#    y 0.000000 1.702690 0.000000 
#    z 0.000000 0.000000 1.710940 
# 
# From -- ./inp_files/8134.got.cif
#   From: 2010.05.17/outbox.cif.g08.bks.cpg/sg38_5_cif.got.tgz:8134.got - 2010.06.03 18:07:57.
