data_PCOD9358836
_publ_section_title
;
Structure prediction by ZEFSAII (Michael W. Deem and Ramdas Pophale) SiO2 
 PCOD9358836
Probable space group: A M M 2
;
_chemical_formula_sum "Si O2"
_cell_formula_units_Z 64
_cell_length_a 8.908524
_cell_length_b 25.629121
_cell_length_c 15.123055
_cell_angle_alpha 90.000000
_cell_angle_beta 90.000000
_cell_angle_gamma 90.000000
_cell_volume 3452.860220
_symmetry_space_group_name_H-M "A M M 2"
_symmetry_group_IT_number 38
_symmetry_cell_setting 'orthorhombic'
loop_
_space_group_symop_operation_xyz
x,y,z
-x,-y,z
-x,y,z
x,-y,z
x,1/2+y,1/2+z
-x,1/2-y,1/2+z
-x,1/2+y,1/2+z
x,1/2-y,1/2+z
loop_
_atom_site_type_symbol
_atom_site_label
_atom_site_fract_x
_atom_site_fract_y
_atom_site_fract_z
Si Si1 0.824299 0.262250 0.239760
Si Si2 0.180232 0.392821 0.469544
Si Si3 0.321216 0.561871 0.291039
Si Si4 0.680346 0.845993 0.265771
Si Si5 0.824158 0.725028 0.450824
Si Si6 0.681146 0.940916 0.142101
Si Si7 0.180223 0.868105 0.642556
Si Si8 0.678890 0.833766 0.469354
O O1 0.740828 0.207867 0.225011
O O2 0.810393 0.276002 0.343946
O O3 0.772531 0.312179 0.184630
O O4 0.000000 0.254153 0.220678
O O5 0.247510 0.411612 0.376781
O O6 0.220064 0.331933 0.484962
O O7 0.245460 0.427220 0.548437
O O8 0.000000 0.395981 0.465663
O O9 0.500000 0.570619 0.292435
O O10 0.293400 0.500000 0.293675
O O11 0.250697 0.587688 0.204083
O O12 0.500000 0.844134 0.264555
O O13 0.729493 0.896804 0.211862
O O14 0.726489 0.847367 0.368930
O O15 0.727632 0.773580 0.483503
O O16 0.000000 0.734478 0.471998
O O17 0.500000 0.937957 0.133351
O O18 0.719184 0.000000 0.168902
O O19 0.240044 0.868173 0.542992
O O20 0.000000 0.870897 0.645662
O O21 0.500000 0.838915 0.476418
#
# Coordination Sequence:
#
# PCOD9358836 Si02
#       8
#     8   8   8   8   8   8   8   8
#     4   9  18  34  55  80 111 147 185 228 281 342
#     4  11  22  37  58  86 119 155 193 237 291 352
#     4  11  24  41  61  86 118 156 198 244 291 345
#     4   9  20  38  58  82 112 149 195 242 294 345
#     4   9  18  35  54  79 115 153 189 225 278 346
#     4  10  22  40  59  81 112 151 197 246 294 347
#     4  11  22  38  59  86 119 157 196 238 291 351
#     4  10  21  36  56  85 118 152 194 244 293 347
#
# _framework density 18.535357999999999
#
# number of rings (size 3 to 8) (size 9 to 14) (size 15 to 20)
#    0.000    2.000    1.250    1.875    1.750    5.750 
#    0.000    0.625    0.000    2.250    0.000    0.000 
#    0.000    0.000    0.000    0.000    0.000    0.000 
#
# Total GULP energy -178745.394138 kJ/mol
# GULP energy per Si atom -5585.793567 kJ/mol
# Density = 1.849317 g / cm^3
# Si number density = 18.535358 Si / 1000 Ang^3
#
#
#
# Elastic Constant Matrix: (Units=GPa)
#
#
# Indices 1 2 3 4 5 6 
#
# 1 31.8881 33.0515 22.2487 0.0000 0.0000 0.0000
# 2 33.0515 89.7747 24.8331 0.0000 0.0000 0.0000
# 3 22.2487 24.8331 52.4024 0.0000 0.0000 0.0000
# 4 0.0000 0.0000 0.0000 30.7260 0.0000 0.0000
# 5 0.0000 0.0000 0.0000 0.0000 24.1216 0.0000
# 6 0.0000 0.0000 0.0000 0.0000 0.0000 42.4571
#
#
#
# Elastic Compliance Matrix: (Units=1/GPa)
#
#
# Indices 1 2 3 4 5 6 
#
# 1 0.062706 -0.018093 -0.018049 0.000000 0.000000 0.000000
# 2 -0.018093 0.018040 -0.000867 0.000000 0.000000 0.000000
# 3 -0.018049 -0.000867 0.027157 0.000000 0.000000 0.000000
# 4 0.000000 0.000000 0.000000 0.032546 0.000000 0.000000
# 5 0.000000 0.000000 0.000000 0.000000 0.041457 0.000000
# 6 0.000000 0.000000 0.000000 0.000000 0.000000 0.023553
#
#
# Mechanical properties :
#
#
# Convention : Reuss Voigt Hill
#
# Bulk Modulus (GPa) = 29.51213 37.14800 33.33006
# Shear Modulus (GPa) = 17.19555 25.72304 21.45930
#
# Velocity S-wave (km/s) = 3.04915 3.72934 3.40626
# Velocity P-wave (km/s) = 5.32476 6.21523 5.78715
#
# Compressibility (1/GPa) = 0.03388437
#
# Stress axis : x y z
#
# Youngs Moduli (GPa) = 15.94741 55.43210 36.82264
#
# Poissons Ratio (x) = 1.00295 0.66462
# Poissons Ratio (y) = 0.28854 0.03193
# Poissons Ratio (z) = 0.28784 0.04807
#
# Static dielectric constant tensor:
#      x y z
#    x 1.619820 0.000000 0.000000 
#    y 0.000000 1.623540 0.000000 
#    z 0.000000 0.000000 1.642620 
# 
# From -- ./inp_files/12728.got.cif
#   From: 2010.05.17/outbox.cif.g08.bks.cpg/sg38_7_cif.got.tgz:12728.got - 2010.06.03 18:07:57.
