data_PCOD9358161
_publ_section_title
;
Structure prediction by ZEFSAII (Michael W. Deem and Ramdas Pophale) SiO2 
 PCOD9358161
Probable space group: A M M 2
;
_chemical_formula_sum "Si O2"
_cell_formula_units_Z 58
_cell_length_a 9.032757
_cell_length_b 14.942356
_cell_length_c 24.515987
_cell_angle_alpha 90.000000
_cell_angle_beta 90.000000
_cell_angle_gamma 90.000000
_cell_volume 3308.939210
_symmetry_space_group_name_H-M "A M M 2"
_symmetry_group_IT_number 38
_symmetry_cell_setting 'orthorhombic'
loop_
_space_group_symop_operation_xyz
x,y,z
-x,-y,z
-x,y,z
x,-y,z
x,1/2+y,1/2+z
-x,1/2-y,1/2+z
-x,1/2+y,1/2+z
x,1/2-y,1/2+z
loop_
_atom_site_type_symbol
_atom_site_label
_atom_site_fract_x
_atom_site_fract_y
_atom_site_fract_z
Si Si1 0.677346 0.233196 0.498340
Si Si2 0.824702 0.606460 0.307631
Si Si3 0.175474 0.394194 0.783440
Si Si4 0.676225 0.762576 0.720610
Si Si5 0.325710 0.894107 0.397582
Si Si6 0.676106 0.103997 0.922960
Si Si7 0.163250 0.686064 0.110363
Si Si8 0.000000 0.500000 0.112077
O O1 0.500000 0.228439 0.507569
O O2 0.715022 0.161874 0.450879
O O3 0.712789 0.329568 0.472068
O O4 0.762953 0.212164 0.553377
O O5 0.801600 0.500000 0.298615
O O6 0.741075 0.664288 0.262720
O O7 0.763409 0.627522 0.367861
O O8 0.000000 0.624045 0.304362
O O9 0.204958 0.500000 0.775782
O O10 0.261072 0.332344 0.741107
O O11 0.232168 0.370235 0.844208
O O12 0.000000 0.379142 0.779590
O O13 0.500000 0.763120 0.722210
O O14 0.736763 0.785595 0.660947
O O15 0.500000 0.877223 0.386038
O O16 0.307417 0.000000 0.407832
O O17 0.500000 0.113842 0.911821
O O18 0.705093 0.000000 0.935730
O O19 0.126627 0.580205 0.112087
O O20 0.000000 0.729846 0.115586
#
# Coordination Sequence:
#
# PCOD9358161 Si02
#       8
#     8   8   8   8   8   8   8   2
#     4  10  20  35  56  82 113 149 192 236 280 335
#     4  10  21  35  56  85 119 152 189 235 289 344
#     4  10  21  38  59  86 116 151 190 235 285 336
#     4  12  24  38  59  84 113 150 192 236 283 340
#     4   9  18  31  51  81 116 150 187 233 285 337
#     4   9  18  34  55  83 118 154 190 232 280 334
#     4  10  23  41  60  81 110 143 188 231 285 336
#     4   8  24  44  62  80 110 152 182 240 288 334
#
# _framework density 17.528276999999999
#
# number of rings (size 3 to 8) (size 9 to 14) (size 15 to 20)
#    0.414    1.655    0.000    3.310    1.931    3.862 
#    0.000    1.379    0.000    2.483    0.000    0.000 
#    0.000    0.000    0.000    0.000    0.000    0.000 
#
# Total GULP energy -161602.655870 kJ/mol
# GULP energy per Si atom -5572.505375 kJ/mol
# Density = 1.748838 g / cm^3
# Si number density = 17.528277 Si / 1000 Ang^3
#
#
#
# Elastic Constant Matrix: (Units=GPa)
#
#
# Indices 1 2 3 4 5 6 
#
# 1 110.4101 70.1565 84.6419 0.0000 0.0000 0.0000
# 2 70.1565 89.4874 82.2501 0.0000 0.0000 0.0000
# 3 84.6419 82.2501 136.2665 0.0000 0.0000 0.0000
# 4 0.0000 0.0000 0.0000 1.2843 0.0000 0.0000
# 5 0.0000 0.0000 0.0000 0.0000 66.5126 0.0000
# 6 0.0000 0.0000 0.0000 0.0000 0.0000 24.6530
#
#
#
# Elastic Compliance Matrix: (Units=1/GPa)
#
#
# Indices 1 2 3 4 5 6 
#
# 1 0.020530 -0.009825 -0.006822 0.000000 0.000000 0.000000
# 2 -0.009825 0.029801 -0.011885 0.000000 0.000000 0.000000
# 3 -0.006822 -0.011885 0.018750 0.000000 0.000000 0.000000
# 4 0.000000 0.000000 0.000000 0.778640 0.000000 0.000000
# 5 0.000000 0.000000 0.000000 0.000000 0.015035 0.000000
# 6 0.000000 0.000000 0.000000 0.000000 0.000000 0.040563
#
#
# Mechanical properties :
#
#
# Convention : Reuss Voigt Hill
#
# Bulk Modulus (GPa) = 83.21525 90.02902 86.62213
# Shear Modulus (GPa) = 5.18463 25.09767 15.14115
#
# Velocity S-wave (km/s) = 1.72171 3.78807 2.94226
# Velocity P-wave (km/s) = 7.17846 8.40276 7.81462
#
# Compressibility (1/GPa) = 0.01201703
#
# Stress axis : x y z
#
# Youngs Moduli (GPa) = 48.71000 33.55547 53.33388
#
# Poissons Ratio (x) = 0.32968 0.36383
# Poissons Ratio (y) = 0.47857 0.63389
# Poissons Ratio (z) = 0.33229 0.39882
#
# Static dielectric constant tensor:
#      x y z
#    x 1.589770 0.000000 0.000000 
#    y 0.000000 1.604470 0.000000 
#    z 0.000000 0.000000 1.560330 
# 
# From -- ./inp_files/22092.got.cif
#   From: 2010.05.17/outbox.cif.g08.bks.cpg/sg38_12_cif.got.tgz:22092.got - 2010.06.03 18:07:57.
