data_PCOD9358083
_publ_section_title
;
Structure prediction by ZEFSAII (Michael W. Deem and Ramdas Pophale) SiO2 
 PCOD9358083
Probable space group: A M M 2
;
_chemical_formula_sum "Si O2"
_cell_formula_units_Z 48
_cell_length_a 8.948891
_cell_length_b 32.901854
_cell_length_c 7.289687
_cell_angle_alpha 90.000000
_cell_angle_beta 90.000000
_cell_angle_gamma 90.000000
_cell_volume 2146.339758
_symmetry_space_group_name_H-M "A M M 2"
_symmetry_group_IT_number 38
_symmetry_cell_setting 'orthorhombic'
loop_
_space_group_symop_operation_xyz
x,y,z
-x,-y,z
-x,y,z
x,-y,z
x,1/2+y,1/2+z
-x,1/2-y,1/2+z
-x,1/2+y,1/2+z
x,1/2-y,1/2+z
loop_
_atom_site_type_symbol
_atom_site_label
_atom_site_fract_x
_atom_site_fract_y
_atom_site_fract_z
Si Si1 0.170529 0.873395 0.885410
Si Si2 0.178378 0.287970 0.473316
Si Si3 0.672883 0.293592 0.852551
Si Si4 0.673803 0.455075 0.822288
Si Si5 0.829234 0.126006 0.334650
Si Si6 0.326490 0.955725 0.876415
O O1 0.206929 0.826343 0.838639
O O2 0.260485 0.912422 0.818057
O O3 0.000000 0.880421 0.833135
O O4 0.177864 0.873442 0.110259
O O5 0.296632 0.294464 0.635444
O O6 0.217212 0.242858 0.409304
O O7 0.000000 0.290346 0.522925
O O8 0.500000 0.285802 0.897694
O O9 0.726335 0.338198 0.912081
O O10 0.500000 0.448477 0.869181
O O11 0.718683 0.500000 0.884868
O O12 0.773714 0.418324 0.890055
O O13 0.681323 0.455355 0.599585
O O14 0.000000 0.133685 0.385030
O O15 0.500000 0.956176 0.825035
O O16 0.260912 0.000000 0.820630
#
# Coordination Sequence:
#
# PCOD9358083 Si02
#       6
#     8   8   8   8   8   8
#     4   8  15  25  38  56  79 110 146 181 220 267
#     4  10  20  35  51  69  95 126 158 195 240 285
#     4  11  21  33  50  72  95 123 160 199 238 282
#     4   8  13  21  33  51  77 109 144 182 223 268
#     4   9  16  26  39  57  83 116 150 185 228 276
#     4   8  13  20  31  49  75 107 140 174 215 262
#
# _framework density 22.363652999999999
#
# number of rings (size 3 to 8) (size 9 to 14) (size 15 to 20)
#    0.000    3.000    0.000    4.500    0.000    5.333 
#    0.000    3.333    0.000    0.000    0.000    0.000 
#    0.000    1.333    0.000    9.667    0.000   20.333 
#
# Total GULP energy -133775.296524 kJ/mol
# GULP energy per Si atom -5573.970689 kJ/mol
# Density = 2.231275 g / cm^3
# Si number density = 22.363653 Si / 1000 Ang^3
#
#
#
# Elastic Constant Matrix: (Units=GPa)
#
#
# Indices 1 2 3 4 5 6 
#
# 1 68.2638 55.5763 -8.1443 0.0000 0.0000 0.0000
# 2 55.5763 171.3132 -19.6980 0.0000 0.0000 0.0000
# 3 -8.1443 -19.6980 52.3946 0.0000 0.0000 0.0000
# 4 0.0000 0.0000 0.0000 -3.1288 0.0000 0.0000
# 5 0.0000 0.0000 0.0000 0.0000 -3.2536 0.0000
# 6 0.0000 0.0000 0.0000 0.0000 0.0000 42.3693
#
#
#
# Elastic Compliance Matrix: (Units=1/GPa)
#
#
# Indices 1 2 3 4 5 6 
#
# 1 0.019931 -0.006386 0.000697 0.000000 0.000000 0.000000
# 2 -0.006386 0.008147 0.002070 0.000000 0.000000 0.000000
# 3 0.000697 0.002070 0.019973 0.000000 0.000000 0.000000
# 4 0.000000 0.000000 0.000000 -0.319610 0.000000 0.000000
# 5 0.000000 0.000000 0.000000 0.000000 -0.307349 0.000000
# 6 0.000000 0.000000 0.000000 0.000000 0.000000 0.023602
#
#
# Mechanical properties :
#
#
# Convention : Reuss Voigt Hill
#
# Bulk Modulus (GPa) = 24.50105 38.60439 31.55272
# Shear Modulus (GPa) = -9.35514 24.81321 7.72903
#
# Velocity S-wave (km/s) = -2.04750 3.33458 1.86107
# Velocity P-wave (km/s) = 2.32160 5.66793 4.33101
#
# Compressibility (1/GPa) = 0.04081458
#
# Stress axis : x y z
#
# Youngs Moduli (GPa) = 50.17269 122.74566 50.06840
#
# Poissons Ratio (x) = 0.78382 -0.03492
# Poissons Ratio (y) = 0.32039 -0.10365
# Poissons Ratio (z) = -0.03499 -0.25411
#
# Static dielectric constant tensor:
#      x y z
#    x 1.736370 0.000000 0.000000 
#    y 0.000000 1.880320 0.000000 
#    z 0.000000 0.000000 1.999920 
# 
# From -- ./inp_files/3800.got.cif
#   From: 2010.05.17/outbox.cif.g08.bks.cpg/sg38_2_cif.got.tgz:3800.got - 2010.06.03 18:07:57.
