data_PCOD9358955
_publ_section_title
;
Structure prediction by ZEFSAII (Michael W. Deem and Ramdas Pophale) SiO2 
 PCOD9358955
Probable space group: A M M 2
;
_chemical_formula_sum "Si O2"
_cell_formula_units_Z 48
_cell_length_a 7.697098
_cell_length_b 8.300677
_cell_length_c 34.187036
_cell_angle_alpha 90.000000
_cell_angle_beta 90.000000
_cell_angle_gamma 90.000000
_cell_volume 2184.248168
_symmetry_space_group_name_H-M "A M M 2"
_symmetry_group_IT_number 38
_symmetry_cell_setting 'orthorhombic'
loop_
_space_group_symop_operation_xyz
x,y,z
-x,-y,z
-x,y,z
x,-y,z
x,1/2+y,1/2+z
-x,1/2-y,1/2+z
-x,1/2+y,1/2+z
x,1/2-y,1/2+z
loop_
_atom_site_type_symbol
_atom_site_label
_atom_site_fract_x
_atom_site_fract_y
_atom_site_fract_z
Si Si1 0.709764 0.500000 0.622850
Si Si2 0.208866 0.000000 0.214131
Si Si3 0.209632 0.687139 0.412657
Si Si4 0.202545 0.173574 0.752515
Si Si5 0.704203 0.321388 0.829466
Si Si6 0.789844 0.811286 0.999264
Si Si7 0.295422 0.323410 0.081594
O O1 0.500000 0.500000 0.617788
O O2 0.752983 0.500000 0.668352
O O3 0.777693 0.335584 0.602855
O O4 0.278702 0.835181 0.233374
O O5 0.000000 0.000000 0.220356
O O6 0.261980 0.500000 0.408856
O O7 0.272085 0.780731 0.374824
O O8 0.266255 0.742889 0.455846
O O9 0.000000 0.692456 0.412363
O O10 0.211831 0.198342 0.799238
O O11 0.000000 0.168759 0.741161
O O12 0.280724 0.000000 0.741938
O O13 0.500000 0.320159 0.821108
O O14 0.775550 0.500000 0.821651
O O15 0.722293 0.709213 0.035351
O O16 0.000000 0.806168 0.000247
O O17 0.739222 0.000000 0.004079
O O18 0.500000 0.328790 0.091169
O O19 0.221066 0.500000 0.091425
#
# Coordination Sequence:
#
# PCOD9358955 Si02
#       7
#     4   4   8   8   8   8   8
#     4  10  22  40  60  84 118 154 188 232 286 342
#     4  10  22  40  62  90 118 146 186 236 286 340
#     4   9  19  35  54  78 109 148 193 239 287 340
#     4  10  21  39  63  87 113 149 189 230 283 344
#     4  11  23  36  52  79 115 152 193 237 283 336
#     4   9  18  34  56  81 111 148 192 240 289 338
#     4  10  21  37  58  84 114 152 194 232 279 342
#
# _framework density 21.975525999999999
#
# number of rings (size 3 to 8) (size 9 to 14) (size 15 to 20)
#    0.000    2.167    1.667    2.000    0.000    7.333 
#    0.000    5.000    0.000    0.000    0.000    0.000 
#    0.000    0.000    0.000    0.000    0.000    0.000 
#
# Total GULP energy -134018.843538 kJ/mol
# GULP energy per Si atom -5584.118481 kJ/mol
# Density = 2.192551 g / cm^3
# Si number density = 21.975526 Si / 1000 Ang^3
#
#
#
# Elastic Constant Matrix: (Units=GPa)
#
#
# Indices 1 2 3 4 5 6 
#
# 1 37.8409 13.4720 -9.4849 0.0000 0.0000 0.0000
# 2 13.4720 185.5846 74.8894 0.0000 0.0000 0.0000
# 3 -9.4849 74.8894 110.4764 0.0000 0.0000 0.0000
# 4 0.0000 0.0000 0.0000 18.8040 0.0000 0.0000
# 5 0.0000 0.0000 0.0000 0.0000 32.2609 0.0000
# 6 0.0000 0.0000 0.0000 0.0000 0.0000 6.3096
#
#
#
# Elastic Compliance Matrix: (Units=1/GPa)
#
#
# Indices 1 2 3 4 5 6 
#
# 1 0.029335 -0.004330 0.005454 0.000000 0.000000 0.000000
# 2 -0.004330 0.008057 -0.005833 0.000000 0.000000 0.000000
# 3 0.005454 -0.005833 0.013474 0.000000 0.000000 0.000000
# 4 0.000000 0.000000 0.000000 0.053180 0.000000 0.000000
# 5 0.000000 0.000000 0.000000 0.000000 0.030997 0.000000
# 6 0.000000 0.000000 0.000000 0.000000 0.000000 0.158489
#
#
# Mechanical properties :
#
#
# Convention : Reuss Voigt Hill
#
# Bulk Modulus (GPa) = 24.12728 54.62833 39.37780
# Shear Modulus (GPa) = 15.78449 28.47659 22.13054
#
# Velocity S-wave (km/s) = 2.68297 3.60367 3.17685
# Velocity P-wave (km/s) = 4.53881 6.49830 5.60485
#
# Compressibility (1/GPa) = 0.04144687
#
# Stress axis : x y z
#
# Youngs Moduli (GPa) = 34.08876 124.12177 74.21632
#
# Poissons Ratio (x) = 0.53750 -0.40478
# Poissons Ratio (y) = 0.14762 0.43292
# Poissons Ratio (z) = -0.18592 0.72402
#
# Static dielectric constant tensor:
#      x y z
#    x 1.801360 0.000000 0.000000 
#    y 0.000000 1.835730 0.000000 
#    z 0.000000 0.000000 1.764270 
# 
# From -- ./inp_files/24337.got.cif
#   From: 2010.05.17/outbox.cif.g08.bks.cpg/sg38_13_cif.got.tgz:24337.got - 2010.06.03 18:07:57.
