data_PCOD9358722
_publ_section_title
;
Structure prediction by ZEFSAII (Michael W. Deem and Ramdas Pophale) SiO2 
 PCOD9358722
Probable space group: A M M 2
;
_chemical_formula_sum "Si O2"
_cell_formula_units_Z 64
_cell_length_a 8.697509
_cell_length_b 20.124991
_cell_length_c 21.201646
_cell_angle_alpha 90.000000
_cell_angle_beta 90.000000
_cell_angle_gamma 90.000000
_cell_volume 3711.078667
_symmetry_space_group_name_H-M "A M M 2"
_symmetry_group_IT_number 38
_symmetry_cell_setting 'orthorhombic'
loop_
_space_group_symop_operation_xyz
x,y,z
-x,-y,z
-x,y,z
x,-y,z
x,1/2+y,1/2+z
-x,1/2-y,1/2+z
-x,1/2+y,1/2+z
x,1/2-y,1/2+z
loop_
_atom_site_type_symbol
_atom_site_label
_atom_site_fract_x
_atom_site_fract_y
_atom_site_fract_z
Si Si1 0.814776 0.790442 0.948340
Si Si2 0.685124 0.925537 0.992646
Si Si3 0.816072 0.291321 0.072606
Si Si4 0.686806 0.073389 0.140575
Si Si5 0.684697 0.574997 0.872699
Si Si6 0.816334 0.289889 0.824763
Si Si7 0.315617 0.714161 0.691658
Si Si8 0.315427 0.575253 0.022087
O O1 0.762632 0.752573 0.885373
O O2 0.000000 0.790223 0.948405
O O3 0.756165 0.865375 0.954095
O O4 0.763618 0.750491 0.010912
O O5 0.500000 0.921596 0.989781
O O6 0.728199 0.918482 0.066717
O O7 0.730988 0.000000 0.972571
O O8 0.743222 0.259614 0.134759
O O9 0.765616 0.366862 0.060527
O O10 0.000000 0.286935 0.076549
O O11 0.500000 0.072645 0.143331
O O12 0.738751 0.138264 0.177871
O O13 0.739378 0.000000 0.161856
O O14 0.500000 0.580037 0.865225
O O15 0.729548 0.500000 0.853785
O O16 0.763609 0.634373 0.835896
O O17 0.719570 0.582616 0.947364
O O18 0.746809 0.264740 0.759412
O O19 0.000000 0.286898 0.822194
O O20 0.500000 0.714331 0.692018
O O21 0.500000 0.581258 0.028420
O O22 0.271887 0.500000 0.040365
#
# Coordination Sequence:
#
# PCOD9358722 Si02
#       8
#     8   8   8   8   8   8   8   8
#     4  10  21  35  53  78 109 144 179 216 265 318
#     4   9  17  31  54  82 107 133 171 220 268 312
#     4  11  21  35  55  81 110 143 181 224 272 325
#     4   8  15  29  49  74 104 136 171 211 257 310
#     4   9  18  33  53  78 108 144 185 224 265 318
#     4  11  23  38  52  75 111 148 183 224 272 326
#     4  11  22  36  55  79 106 145 186 226 273 319
#     4   9  18  33  55  83 111 139 178 227 272 318
#
# _framework density 17.245659
#
# number of rings (size 3 to 8) (size 9 to 14) (size 15 to 20)
#    0.000    2.250    2.500    2.625    0.000    2.750 
#    0.000    2.500    0.000    1.875    0.000    3.500 
#    0.000    0.000    0.000    0.000    0.000    0.000 
#
# Total GULP energy -178553.637660 kJ/mol
# GULP energy per Si atom -5579.801177 kJ/mol
# Density = 1.720641 g / cm^3
# Si number density = 17.245659 Si / 1000 Ang^3
#
#
#
# Elastic Constant Matrix: (Units=GPa)
#
#
# Indices 1 2 3 4 5 6 
#
# 1 25.1091 27.2164 36.0567 0.0000 0.0000 0.0000
# 2 27.2164 112.1391 66.1530 0.0000 0.0000 0.0000
# 3 36.0567 66.1530 118.2895 0.0000 0.0000 0.0000
# 4 0.0000 0.0000 0.0000 20.8895 0.0000 0.0000
# 5 0.0000 0.0000 0.0000 0.0000 23.4910 0.0000
# 6 0.0000 0.0000 0.0000 0.0000 0.0000 15.8341
#
#
#
# Elastic Compliance Matrix: (Units=1/GPa)
#
#
# Indices 1 2 3 4 5 6 
#
# 1 0.074313 -0.006974 -0.018752 0.000000 0.000000 0.000000
# 2 -0.006974 0.013962 -0.005683 0.000000 0.000000 0.000000
# 3 -0.018752 -0.005683 0.017348 0.000000 0.000000 0.000000
# 4 0.000000 0.000000 0.000000 0.047871 0.000000 0.000000
# 5 0.000000 0.000000 0.000000 0.000000 0.042570 0.000000
# 6 0.000000 0.000000 0.000000 0.000000 0.000000 0.063155
#
#
# Mechanical properties :
#
#
# Convention : Reuss Voigt Hill
#
# Bulk Modulus (GPa) = 23.36098 57.15445 40.25772
# Shear Modulus (GPa) = 14.86751 20.45035 17.65893
#
# Velocity S-wave (km/s) = 2.93934 3.44732 3.20341
# Velocity P-wave (km/s) = 5.00950 7.00419 6.08908
#
# Compressibility (1/GPa) = 0.04280643
#
# Stress axis : x y z
#
# Youngs Moduli (GPa) = 13.45661 71.62106 57.64452
#
# Poissons Ratio (x) = 0.49948 1.08094
# Poissons Ratio (y) = 0.09384 0.32757
# Poissons Ratio (z) = 0.25234 0.40700
#
# Static dielectric constant tensor:
#      x y z
#    x 1.581370 0.000000 0.000000 
#    y 0.000000 1.587300 0.000000 
#    z 0.000000 0.000000 1.575560 
# 
# From -- ./inp_files/17204.got.cif
#   From: 2010.05.17/outbox.cif.g08.bks.cpg/sg38_9_cif.got.tgz:17204.got - 2010.06.03 18:07:57.
