data_PCOD9358143
_publ_section_title
;
Structure prediction by ZEFSAII (Michael W. Deem and Ramdas Pophale) SiO2 
 PCOD9358143
Probable space group: A M M 2
;
_chemical_formula_sum "Si O2"
_cell_formula_units_Z 64
_cell_length_a 13.832247
_cell_length_b 24.301588
_cell_length_c 9.357433
_cell_angle_alpha 90.000000
_cell_angle_beta 90.000000
_cell_angle_gamma 90.000000
_cell_volume 3145.459628
_symmetry_space_group_name_H-M "A M M 2"
_symmetry_group_IT_number 38
_symmetry_cell_setting 'orthorhombic'
loop_
_space_group_symop_operation_xyz
x,y,z
-x,-y,z
-x,y,z
x,-y,z
x,1/2+y,1/2+z
-x,1/2-y,1/2+z
-x,1/2+y,1/2+z
x,1/2-y,1/2+z
loop_
_atom_site_type_symbol
_atom_site_label
_atom_site_fract_x
_atom_site_fract_y
_atom_site_fract_z
Si Si1 0.274528 0.937051 0.906940
Si Si2 0.888893 0.622119 0.224516
Si Si3 0.112030 0.720265 0.437212
Si Si4 0.248632 0.348428 0.645081
Si Si5 0.886655 0.650545 0.897219
Si Si6 0.616977 0.679391 0.097210
Si Si7 0.385723 0.440316 0.129452
Si Si8 0.616291 0.233308 0.306870
O O1 0.185189 0.916601 0.808278
O O2 0.365073 0.935168 0.798611
O O3 0.260248 0.000000 0.951872
O O4 0.282600 0.896038 0.038813
O O5 0.880089 0.682855 0.295049
O O6 0.000000 0.604518 0.248473
O O7 0.872474 0.626319 0.055454
O O8 0.180245 0.692685 0.554542
O O9 0.133054 0.783779 0.406710
O O10 0.000000 0.717320 0.486235
O O11 0.183491 0.371474 0.774793
O O12 0.336136 0.313903 0.711503
O O13 0.000000 0.643500 0.859891
O O14 0.500000 0.676367 0.101659
O O15 0.651821 0.617617 0.068765
O O16 0.648830 0.707708 0.244825
O O17 0.642828 0.720179 0.969166
O O18 0.500000 0.442036 0.101839
O O19 0.344426 0.500000 0.084065
O O20 0.500000 0.230898 0.296398
#
# Coordination Sequence:
#
# PCOD9358143 Si02
#       8
#     8   8   8   8   8   8   8   8
#     4  10  23  41  58  80 108 145 194 243 286 337
#     4   9  19  35  57  81 109 147 187 227 278 340
#     4   9  18  34  54  82 117 149 181 221 275 343
#     4  11  23  34  57  83 113 153 189 231 287 349
#     4  10  20  35  55  84 118 145 179 230 285 344
#     4   9  20  38  58  83 120 156 192 237 286 339
#     4   9  19  37  63  88 111 149 199 245 286 334
#     4  10  23  38  55  87 124 158 189 232 288 345
#
# _framework density 20.346786000000002
#
# number of rings (size 3 to 8) (size 9 to 14) (size 15 to 20)
#    0.000    2.375    0.000    1.125    5.250    4.250 
#    0.000    1.250    0.000    1.500    0.000    0.000 
#    0.000    0.000    0.000    0.000    0.000    0.000 
#
# Total GULP energy -178731.755115 kJ/mol
# GULP energy per Si atom -5585.367347 kJ/mol
# Density = 2.030048 g / cm^3
# Si number density = 20.346786 Si / 1000 Ang^3
#
#
#
# Elastic Constant Matrix: (Units=GPa)
#
#
# Indices 1 2 3 4 5 6 
#
# 1 57.2356 -7.2502 -9.1745 0.0000 0.0000 0.0000
# 2 -7.2502 84.3662 9.3359 0.0000 0.0000 0.0000
# 3 -9.1745 9.3359 58.6376 0.0000 0.0000 0.0000
# 4 0.0000 0.0000 0.0000 21.0336 0.0000 0.0000
# 5 0.0000 0.0000 0.0000 0.0000 27.6883 0.0000
# 6 0.0000 0.0000 0.0000 0.0000 0.0000 16.0214
#
#
#
# Elastic Compliance Matrix: (Units=1/GPa)
#
#
# Indices 1 2 3 4 5 6 
#
# 1 0.018052 0.001261 0.002624 0.000000 0.000000 0.000000
# 2 0.001261 0.012154 -0.001738 0.000000 0.000000 0.000000
# 3 0.002624 -0.001738 0.017741 0.000000 0.000000 0.000000
# 4 0.000000 0.000000 0.000000 0.047543 0.000000 0.000000
# 5 0.000000 0.000000 0.000000 0.000000 0.036116 0.000000
# 6 0.000000 0.000000 0.000000 0.000000 0.000000 0.062416
#
#
# Mechanical properties :
#
#
# Convention : Reuss Voigt Hill
#
# Bulk Modulus (GPa) = 19.14220 20.67353 19.90787
# Shear Modulus (GPa) = 24.13801 26.77055 25.45428
#
# Velocity S-wave (km/s) = 3.44805 3.63121 3.54082
# Velocity P-wave (km/s) = 5.02797 5.26912 5.14995
#
# Compressibility (1/GPa) = 0.05224059
#
# Stress axis : x y z
#
# Youngs Moduli (GPa) = 55.39576 82.27910 56.36636
#
# Poissons Ratio (x) = -0.10375 -0.14789
# Poissons Ratio (y) = -0.06985 0.09795
# Poissons Ratio (z) = -0.14534 0.14298
#
# Static dielectric constant tensor:
#      x y z
#    x 1.741760 0.000000 0.000000 
#    y 0.000000 1.720810 0.000000 
#    z 0.000000 0.000000 1.723920 
# 
# From -- ./inp_files/5880.got.cif
#   From: 2010.05.17/outbox.cif.g08.bks.cpg/sg38_3_cif.got.tgz:5880.got - 2010.06.03 18:07:57.
