data_PCOD9358073
_publ_section_title
;
Structure prediction by ZEFSAII (Michael W. Deem and Ramdas Pophale) SiO2 
 PCOD9358073
Probable space group: A M M 2
;
_chemical_formula_sum "Si O2"
_cell_formula_units_Z 40
_cell_length_a 9.565807
_cell_length_b 7.960377
_cell_length_c 29.424705
_cell_angle_alpha 90.000000
_cell_angle_beta 90.000000
_cell_angle_gamma 90.000000
_cell_volume 2240.615665
_symmetry_space_group_name_H-M "A M M 2"
_symmetry_group_IT_number 38
_symmetry_cell_setting 'orthorhombic'
loop_
_space_group_symop_operation_xyz
x,y,z
-x,-y,z
-x,y,z
x,-y,z
x,1/2+y,1/2+z
-x,1/2-y,1/2+z
-x,1/2+y,1/2+z
x,1/2-y,1/2+z
loop_
_atom_site_type_symbol
_atom_site_label
_atom_site_fract_x
_atom_site_fract_y
_atom_site_fract_z
Si Si1 0.343439 0.696256 0.802560
Si Si2 0.834079 0.000000 0.968300
Si Si3 0.842325 0.807283 0.881635
Si Si4 0.157417 0.800072 0.718251
Si Si5 0.333400 0.000000 0.061189
Si Si6 0.666586 0.199001 0.630041
O O1 0.500000 0.770178 0.801412
O O2 0.354050 0.500000 0.792804
O O3 0.271844 0.717285 0.851606
O O4 0.241850 0.767716 0.764217
O O5 0.747082 0.000000 0.013722
O O6 0.807185 0.159188 0.934612
O O7 0.000000 0.000000 0.977394
O O8 0.000000 0.737338 0.877648
O O9 0.847927 0.000000 0.863459
O O10 0.246688 0.746185 0.674438
O O11 0.000000 0.729030 0.719641
O O12 0.145956 0.000000 0.713632
O O13 0.300659 0.831372 0.090127
O O14 0.500000 0.000000 0.053283
O O15 0.500000 0.211186 0.639401
O O16 0.695129 0.000000 0.619887
#
# Coordination Sequence:
#
# PCOD9358073 Si02
#       6
#     8   4   8   8   4   8
#     4  11  23  34  48  76 111 144 180 222 270 326
#     4   8  18  36  58  82 106 136 178 226 277 330
#     4   8  17  35  56  75  99 133 176 222 265 319
#     4  10  21  36  54  77 105 141 184 226 272 328
#     4  10  20  34  58  86 110 146 188 228 281 336
#     4   9  19  36  55  78 112 148 184 230 278 326
#
# _framework density 17.852236999999999
#
# number of rings (size 3 to 8) (size 9 to 14) (size 15 to 20)
#    0.600    2.000    0.000    1.800    1.400    7.200 
#    0.000    1.000    0.000    3.600    0.000    0.000 
#    0.000    0.000    0.000    0.000    0.000    0.000 
#
# Total GULP energy -111344.288427 kJ/mol
# GULP energy per Si atom -5567.214421 kJ/mol
# Density = 1.781160 g / cm^3
# Si number density = 17.852237 Si / 1000 Ang^3
#
#
#
# Elastic Constant Matrix: (Units=GPa)
#
#
# Indices 1 2 3 4 5 6 
#
# 1 106.7845 25.8900 87.9412 0.0000 0.0000 0.0000
# 2 25.8900 36.5579 27.7750 0.0000 0.0000 0.0000
# 3 87.9412 27.7750 143.0423 0.0000 0.0000 0.0000
# 4 0.0000 0.0000 0.0000 2.8370 0.0000 0.0000
# 5 0.0000 0.0000 0.0000 0.0000 37.2284 0.0000
# 6 0.0000 0.0000 0.0000 0.0000 0.0000 -92.3813
#
#
#
# Elastic Compliance Matrix: (Units=1/GPa)
#
#
# Indices 1 2 3 4 5 6 
#
# 1 0.019910 -0.005631 -0.011147 0.000000 0.000000 0.000000
# 2 -0.005631 0.033680 -0.003078 0.000000 0.000000 0.000000
# 3 -0.011147 -0.003078 0.014442 0.000000 0.000000 0.000000
# 4 0.000000 0.000000 0.000000 0.352488 0.000000 0.000000
# 5 0.000000 0.000000 0.000000 0.000000 0.026861 0.000000
# 6 0.000000 0.000000 0.000000 0.000000 0.000000 -0.010825
#
#
# Mechanical properties :
#
#
# Convention : Reuss Voigt Hill
#
# Bulk Modulus (GPa) = 35.31092 63.28854 49.29973
# Shear Modulus (GPa) = 10.29426 -0.81129 4.74148
#
# Velocity S-wave (km/s) = 2.40393 -0.67486 1.63148
# Velocity P-wave (km/s) = 5.24668 5.90940 5.58788
#
# Compressibility (1/GPa) = 0.02831985
#
# Stress axis : x y z
#
# Youngs Moduli (GPa) = 50.22615 29.69107 69.24393
#
# Poissons Ratio (x) = 0.16719 0.77187
# Poissons Ratio (y) = 0.28283 0.21312
# Poissons Ratio (z) = 0.55987 0.09139
#
# Static dielectric constant tensor:
#      x y z
#    x 1.638550 0.000000 0.000000 
#    y 0.000000 1.628430 0.000000 
#    z 0.000000 0.000000 1.583260 
# 
# From -- ./inp_files/23243.got.cif
#   From: 2010.05.17/outbox.cif.g08.bks.cpg/sg38_12_cif.got.tgz:23243.got - 2010.06.03 18:07:57.
