data_PCOD9358347
_publ_section_title
;
Structure prediction by ZEFSAII (Michael W. Deem and Ramdas Pophale) SiO2 
 PCOD9358347
Probable space group: A M M 2
;
_chemical_formula_sum "Si O2"
_cell_formula_units_Z 64
_cell_length_a 16.049952
_cell_length_b 22.126116
_cell_length_c 9.678428
_cell_angle_alpha 90.000000
_cell_angle_beta 90.000000
_cell_angle_gamma 90.000000
_cell_volume 3437.033352
_symmetry_space_group_name_H-M "A M M 2"
_symmetry_group_IT_number 38
_symmetry_cell_setting 'orthorhombic'
loop_
_space_group_symop_operation_xyz
x,y,z
-x,-y,z
-x,y,z
x,-y,z
x,1/2+y,1/2+z
-x,1/2-y,1/2+z
-x,1/2+y,1/2+z
x,1/2-y,1/2+z
loop_
_atom_site_type_symbol
_atom_site_label
_atom_site_fract_x
_atom_site_fract_y
_atom_site_fract_z
Si Si1 0.813377 0.746093 0.376340
Si Si2 0.198402 0.931554 0.126772
Si Si3 0.346822 0.565876 0.843385
Si Si4 0.294685 0.636718 0.390121
Si Si5 0.902763 0.691285 0.638231
Si Si6 0.401619 0.929003 0.656797
Si Si7 0.591101 0.725023 0.570202
Si Si8 0.639810 0.193704 0.350318
O O1 0.773676 0.682411 0.324403
O O2 0.849636 0.728144 0.524558
O O3 0.883633 0.774399 0.280484
O O4 0.737767 0.794859 0.375291
O O5 0.259175 0.932619 0.261479
O O6 0.132804 0.877141 0.143134
O O7 0.165461 0.000000 0.111259
O O8 0.251769 0.912876 0.990210
O O9 0.384817 0.500000 0.813222
O O10 0.386758 0.628397 0.795728
O O11 0.352255 0.573845 0.009601
O O12 0.354480 0.608481 0.275052
O O13 0.343844 0.680953 0.495931
O O14 0.000000 0.691075 0.605017
O O15 0.500000 0.912820 0.639318
O O16 0.400124 0.000000 0.696365
O O17 0.500000 0.698431 0.558144
O O18 0.595069 0.787431 0.488416
O O19 0.613728 0.737447 0.727210
#
# Coordination Sequence:
#
# PCOD9358347 Si02
#       8
#     8   8   8   8   8   8   8   8
#     4  10  21  36  57  83 112 148 182 220 271 340
#     4  10  20  39  62  84 110 146 189 229 273 337
#     4  10  21  38  59  80 110 153 194 232 280 336
#     4  10  20  36  59  79 112 150 194 234 279 333
#     4  11  22  38  60  89 117 142 174 223 282 338
#     4  10  22  37  53  80 114 151 196 243 286 323
#     4  11  23  35  52  83 113 148 192 243 292 324
#     4  11  21  39  57  79 113 150 192 234 280 338
#
# _framework density 18.620709000000002
#
# number of rings (size 3 to 8) (size 9 to 14) (size 15 to 20)
#    0.000    1.625    2.500    3.000    5.250    1.250 
#    0.000    0.000    0.000    0.000    0.000    0.000 
#    0.000    3.000    0.000    0.000    0.000    0.000 
#
# Total GULP energy -178321.992859 kJ/mol
# GULP energy per Si atom -5572.562277 kJ/mol
# Density = 1.857833 g / cm^3
# Si number density = 18.620709 Si / 1000 Ang^3
#
#
#
# Elastic Constant Matrix: (Units=GPa)
#
#
# Indices 1 2 3 4 5 6 
#
# 1 69.3381 19.0244 17.2847 0.0000 0.0000 0.0000
# 2 19.0244 102.6241 32.2332 0.0000 0.0000 0.0000
# 3 17.2847 32.2332 54.2575 0.0000 0.0000 0.0000
# 4 0.0000 0.0000 0.0000 18.0169 0.0000 0.0000
# 5 0.0000 0.0000 0.0000 0.0000 34.5725 0.0000
# 6 0.0000 0.0000 0.0000 0.0000 0.0000 19.3245
#
#
#
# Elastic Compliance Matrix: (Units=1/GPa)
#
#
# Indices 1 2 3 4 5 6 
#
# 1 0.015895 -0.001667 -0.004073 0.000000 0.000000 0.000000
# 2 -0.001667 0.012155 -0.006690 0.000000 0.000000 0.000000
# 3 -0.004073 -0.006690 0.023702 0.000000 0.000000 0.000000
# 4 0.000000 0.000000 0.000000 0.055504 0.000000 0.000000
# 5 0.000000 0.000000 0.000000 0.000000 0.028925 0.000000
# 6 0.000000 0.000000 0.000000 0.000000 0.000000 0.051748
#
#
# Mechanical properties :
#
#
# Convention : Reuss Voigt Hill
#
# Bulk Modulus (GPa) = 37.18611 40.36718 38.77665
# Shear Modulus (GPa) = 22.54776 24.89461 23.72119
#
# Velocity S-wave (km/s) = 3.48357 3.66037 3.57307
# Velocity P-wave (km/s) = 6.01614 6.29207 6.15565
#
# Compressibility (1/GPa) = 0.02689176
#
# Stress axis : x y z
#
# Youngs Moduli (GPa) = 62.91333 82.27400 42.18993
#
# Poissons Ratio (x) = 0.13717 0.17184
# Poissons Ratio (y) = 0.10489 0.28223
# Poissons Ratio (z) = 0.25625 0.55038
#
# Static dielectric constant tensor:
#      x y z
#    x 1.629200 0.000000 0.000000 
#    y 0.000000 1.711700 0.000000 
#    z 0.000000 0.000000 1.644940 
# 
# From -- ./inp_files/5910.got.cif
#   From: 2010.05.17/outbox.cif.g08.bks.cpg/sg38_3_cif.got.tgz:5910.got - 2010.06.03 18:07:57.
