data_PCOD9358243
_publ_section_title
;
Structure prediction by ZEFSAII (Michael W. Deem and Ramdas Pophale) SiO2 
 PCOD9358243
Probable space group: A M M 2
;
_chemical_formula_sum "Si O2"
_cell_formula_units_Z 64
_cell_length_a 24.265906
_cell_length_b 8.850327
_cell_length_c 15.787622
_cell_angle_alpha 90.000000
_cell_angle_beta 90.000000
_cell_angle_gamma 90.000000
_cell_volume 3390.568694
_symmetry_space_group_name_H-M "A M M 2"
_symmetry_group_IT_number 38
_symmetry_cell_setting 'orthorhombic'
loop_
_space_group_symop_operation_xyz
x,y,z
-x,-y,z
-x,y,z
x,-y,z
x,1/2+y,1/2+z
-x,1/2-y,1/2+z
-x,1/2+y,1/2+z
x,1/2-y,1/2+z
loop_
_atom_site_type_symbol
_atom_site_label
_atom_site_fract_x
_atom_site_fract_y
_atom_site_fract_z
Si Si1 0.867527 0.180078 0.941640
Si Si2 0.740974 0.178982 0.959710
Si Si3 0.745616 0.821417 0.642214
Si Si4 0.563057 0.184320 0.045615
Si Si5 0.363213 0.320116 0.703444
Si Si6 0.626011 0.319369 0.376437
Si Si7 0.065053 0.319808 0.786023
Si Si8 0.128191 0.681733 0.128722
O O1 0.802198 0.205391 0.924331
O O2 0.903052 0.252425 0.866912
O O3 0.876638 0.000000 0.944614
O O4 0.879688 0.249795 0.034600
O O5 0.689975 0.212097 0.899034
O O6 0.737228 0.000000 0.982372
O O7 0.735209 0.275080 0.044874
O O8 0.699080 0.739389 0.695870
O O9 0.809263 0.779252 0.657963
O O10 0.740199 0.000000 0.654339
O O11 0.500000 0.233713 0.054518
O O12 0.601745 0.234682 0.122662
O O13 0.563468 0.000000 0.046629
O O14 0.589625 0.229577 0.956407
O O15 0.362489 0.500000 0.701909
O O16 0.389041 0.261057 0.789945
O O17 0.620491 0.500000 0.366682
O O18 0.073678 0.500000 0.782739
O O19 0.087563 0.246510 0.699391
O O20 0.000000 0.290329 0.794514
O O21 0.124099 0.500000 0.123737
#
# Coordination Sequence:
#
# PCOD9358243 Si02
#       8
#     8   8   8   8   8   8   8   8
#     4  10  21  38  62  90 121 156 196 242 296 357
#     4   9  18  35  58  85 118 153 190 236 294 351
#     4  10  20  35  58  87 120 153 192 240 292 349
#     4   9  19  38  61  81 111 157 200 239 288 346
#     4  11  22  36  56  86 118 154 195 238 292 348
#     4  10  20  36  57  84 117 152 192 239 290 345
#     4  11  25  43  62  87 120 158 202 247 292 351
#     4  10  22  40  62  89 120 157 199 247 300 352
#
# _framework density 18.875889999999998
#
# number of rings (size 3 to 8) (size 9 to 14) (size 15 to 20)
#    0.000    2.000    1.250    1.875    1.750    4.500 
#    0.000    0.000    0.000    2.625    0.000    0.000 
#    0.000    0.000    0.000    0.000    0.000    0.000 
#
# Total GULP energy -178703.326543 kJ/mol
# GULP energy per Si atom -5584.478954 kJ/mol
# Density = 1.883293 g / cm^3
# Si number density = 18.875890 Si / 1000 Ang^3
#
#
#
# Elastic Constant Matrix: (Units=GPa)
#
#
# Indices 1 2 3 4 5 6 
#
# 1 75.4533 35.2583 32.7430 0.0000 0.0000 0.0000
# 2 35.2583 35.6219 24.9157 0.0000 0.0000 0.0000
# 3 32.7430 24.9157 70.6183 0.0000 0.0000 0.0000
# 4 0.0000 0.0000 0.0000 36.0254 0.0000 0.0000
# 5 0.0000 0.0000 0.0000 0.0000 5.6652 0.0000
# 6 0.0000 0.0000 0.0000 0.0000 0.0000 13.3791
#
#
#
# Elastic Compliance Matrix: (Units=1/GPa)
#
#
# Indices 1 2 3 4 5 6 
#
# 1 0.025428 -0.022466 -0.003863 0.000000 0.000000 0.000000
# 2 -0.022466 0.057120 -0.009736 0.000000 0.000000 0.000000
# 3 -0.003863 -0.009736 0.019387 0.000000 0.000000 0.000000
# 4 0.000000 0.000000 0.000000 0.027758 0.000000 0.000000
# 5 0.000000 0.000000 0.000000 0.000000 0.176517 0.000000
# 6 0.000000 0.000000 0.000000 0.000000 0.000000 0.074743
#
#
# Mechanical properties :
#
#
# Convention : Reuss Voigt Hill
#
# Bulk Modulus (GPa) = 33.55385 40.83639 37.19512
# Shear Modulus (GPa) = 10.79869 16.93237 13.86553
#
# Velocity S-wave (km/s) = 2.39443 2.99831 2.71322
# Velocity P-wave (km/s) = 5.04570 5.80238 5.43722
#
# Compressibility (1/GPa) = 0.02980284
#
# Stress axis : x y z
#
# Youngs Moduli (GPa) = 39.32692 17.50713 51.58052
#
# Poissons Ratio (x) = 0.39332 0.19928
# Poissons Ratio (y) = 0.88352 0.50221
# Poissons Ratio (z) = 0.15194 0.17046
#
# Static dielectric constant tensor:
#      x y z
#    x 1.650550 0.000000 0.000000 
#    y 0.000000 1.635080 0.000000 
#    z 0.000000 0.000000 1.635990 
# 
# From -- ./inp_files/15768.got.cif
#   From: 2010.05.17/outbox.cif.g08.bks.cpg/sg38_8_cif.got.tgz:15768.got - 2010.06.03 18:07:57.
