data_PCOD9358419
_publ_section_title
;
Structure prediction by ZEFSAII (Michael W. Deem and Ramdas Pophale) SiO2 
 PCOD9358419
Probable space group: A M M 2
;
_chemical_formula_sum "Si O2"
_cell_formula_units_Z 58
_cell_length_a 25.921707
_cell_length_b 8.920056
_cell_length_c 14.645874
_cell_angle_alpha 90.000000
_cell_angle_beta 90.000000
_cell_angle_gamma 90.000000
_cell_volume 3386.464067
_symmetry_space_group_name_H-M "A M M 2"
_symmetry_group_IT_number 38
_symmetry_cell_setting 'orthorhombic'
loop_
_space_group_symop_operation_xyz
x,y,z
-x,-y,z
-x,y,z
x,-y,z
x,1/2+y,1/2+z
-x,1/2-y,1/2+z
-x,1/2+y,1/2+z
x,1/2-y,1/2+z
loop_
_atom_site_type_symbol
_atom_site_label
_atom_site_fract_x
_atom_site_fract_y
_atom_site_fract_z
Si Si1 0.606698 0.334246 0.492080
Si Si2 0.129716 0.822453 0.998555
Si Si3 0.500000 0.000000 0.991508
Si Si4 0.759062 0.678025 0.992305
Si Si5 0.941135 0.177420 0.650658
Si Si6 0.327694 0.321117 0.142178
Si Si7 0.940617 0.677763 0.848601
Si Si8 0.672853 0.679085 0.842350
O O1 0.632628 0.500000 0.492123
O O2 0.546292 0.371591 0.491576
O O3 0.625965 0.247405 0.581695
O O4 0.626439 0.246857 0.402995
O O5 0.188755 0.770659 0.993816
O O6 0.099385 0.769303 0.908749
O O7 0.125968 0.000000 0.010111
O O8 0.100332 0.738559 0.080282
O O9 0.770891 0.500000 0.991771
O O10 0.723838 0.710000 0.903396
O O11 0.723213 0.708323 0.080679
O O12 0.936834 0.267502 0.744747
O O13 0.000000 0.198470 0.615841
O O14 0.934179 0.000000 0.666582
O O15 0.333712 0.500000 0.149259
O O16 0.324823 0.249820 0.242172
O O17 0.930869 0.500000 0.856278
O O18 0.000000 0.705063 0.878218
O O19 0.667263 0.500000 0.835799
#
# Coordination Sequence:
#
# PCOD9358419 Si02
#       8
#     8   8   2   8   8   8   8   8
#     4   9  18  36  59  82 119 150 189 228 279 322
#     4  12  24  36  55  82 115 147 184 230 286 339
#     4   8  20  36  62  84 124 154 190 232 286 312
#     4   9  21  39  55  79 112 146 190 238 284 333
#     4  10  21  38  59  81 107 144 187 231 284 342
#     4  10  20  36  61  87 112 150 193 233 279 336
#     4  10  21  38  59  81 107 144 187 231 284 342
#     4  10  20  36  61  87 112 150 193 233 279 336
#
# _framework density 17.127009000000001
#
# number of rings (size 3 to 8) (size 9 to 14) (size 15 to 20)
#    0.414    1.655    0.000    4.552    0.000    7.724 
#    0.000    4.828    0.000    0.000    0.000    0.000 
#    0.000    0.000    0.000    0.000    0.000    0.000 
#
# Total GULP energy -161512.743267 kJ/mol
# GULP energy per Si atom -5569.404940 kJ/mol
# Density = 1.708803 g / cm^3
# Si number density = 17.127009 Si / 1000 Ang^3
#
#
#
# Elastic Constant Matrix: (Units=GPa)
#
#
# Indices 1 2 3 4 5 6 
#
# 1 99.5158 45.8834 38.0727 0.0000 0.0000 0.0000
# 2 45.8834 75.7222 35.1662 0.0000 0.0000 0.0000
# 3 38.0727 35.1662 113.9193 0.0000 0.0000 0.0000
# 4 0.0000 0.0000 0.0000 33.3327 0.0000 0.0000
# 5 0.0000 0.0000 0.0000 0.0000 4.5808 0.0000
# 6 0.0000 0.0000 0.0000 0.0000 0.0000 33.7538
#
#
#
# Elastic Compliance Matrix: (Units=1/GPa)
#
#
# Indices 1 2 3 4 5 6 
#
# 1 0.014528 -0.007644 -0.002496 0.000000 0.000000 0.000000
# 2 -0.007644 0.019438 -0.003446 0.000000 0.000000 0.000000
# 3 -0.002496 -0.003446 0.010676 0.000000 0.000000 0.000000
# 4 0.000000 0.000000 0.000000 0.030001 0.000000 0.000000
# 5 0.000000 0.000000 0.000000 0.000000 0.218304 0.000000
# 6 0.000000 0.000000 0.000000 0.000000 0.000000 0.029626
#
#
# Mechanical properties :
#
#
# Convention : Reuss Voigt Hill
#
# Bulk Modulus (GPa) = 57.23745 58.60020 57.91883
# Shear Modulus (GPa) = 14.06203 25.66911 19.86557
#
# Velocity S-wave (km/s) = 2.86850 3.87557 3.40942
# Velocity P-wave (km/s) = 6.66806 7.36994 7.02777
#
# Compressibility (1/GPa) = 0.01747108
#
# Stress axis : x y z
#
# Youngs Moduli (GPa) = 68.83326 51.44483 93.66885
#
# Poissons Ratio (x) = 0.39325 0.23376
# Poissons Ratio (y) = 0.52617 0.32276
# Poissons Ratio (z) = 0.17178 0.17727
#
# Static dielectric constant tensor:
#      x y z
#    x 1.557180 0.000000 0.000000 
#    y 0.000000 1.571850 0.000000 
#    z 0.000000 0.000000 1.571310 
# 
# From -- ./inp_files/15681.got.cif
#   From: 2010.05.17/outbox.cif.g08.bks.cpg/sg38_8_cif.got.tgz:15681.got - 2010.06.03 18:07:57.
