data_PCOD9358097
_publ_section_title
;
Structure prediction by ZEFSAII (Michael W. Deem and Ramdas Pophale) SiO2 
 PCOD9358097
Probable space group: A M M 2
;
_chemical_formula_sum "Si O2"
_cell_formula_units_Z 64
_cell_length_a 13.958662
_cell_length_b 26.500039
_cell_length_c 9.877765
_cell_angle_alpha 90.000000
_cell_angle_beta 90.000000
_cell_angle_gamma 90.000000
_cell_volume 3653.835526
_symmetry_space_group_name_H-M "A M M 2"
_symmetry_group_IT_number 38
_symmetry_cell_setting 'orthorhombic'
loop_
_space_group_symop_operation_xyz
x,y,z
-x,-y,z
-x,y,z
x,-y,z
x,1/2+y,1/2+z
-x,1/2-y,1/2+z
-x,1/2+y,1/2+z
x,1/2-y,1/2+z
loop_
_atom_site_type_symbol
_atom_site_label
_atom_site_fract_x
_atom_site_fract_y
_atom_site_fract_z
Si Si1 0.611142 0.711853 0.607200
Si Si2 0.107903 0.941893 0.459523
Si Si3 0.780333 0.940345 0.922454
Si Si4 0.389409 0.130637 0.874869
Si Si5 0.610743 0.142657 0.361972
Si Si6 0.704158 0.682863 0.126333
Si Si7 0.733409 0.441269 0.734291
Si Si8 0.889936 0.129557 0.720118
O O1 0.500000 0.727133 0.580654
O O2 0.634278 0.667258 0.501468
O O3 0.616432 0.689439 0.758121
O O4 0.680651 0.759211 0.595179
O O5 0.183716 0.931128 0.343323
O O6 0.115929 0.906803 0.589499
O O7 0.000000 0.936923 0.404826
O O8 0.121370 0.000000 0.502792
O O9 0.678806 0.917965 0.871710
O O10 0.857223 0.904752 0.847413
O O11 0.793087 0.000000 0.893701
O O12 0.775010 0.933240 0.084216
O O13 0.500000 0.116524 0.885465
O O14 0.368378 0.163176 0.741461
O O15 0.500000 0.136980 0.404256
O O16 0.678510 0.152195 0.490363
O O17 0.646614 0.094839 0.275610
O O18 0.809519 0.671614 0.186967
O O19 0.705177 0.500000 0.743056
O O20 0.000000 0.146916 0.734942
#
# Coordination Sequence:
#
# PCOD9358097 Si02
#       8
#     8   8   8   8   8   8   8   8
#     4  10  20  35  57  82 110 148 193 233 274 324
#     4   9  17  32  55  79 104 136 176 222 270 323
#     4  10  21  35  55  81 111 148 186 228 278 333
#     4  10  20  35  53  80 113 146 188 231 274 330
#     4  11  21  35  55  84 115 148 188 224 268 327
#     4  11  21  35  57  81 110 145 183 236 282 328
#     4  10  20  35  53  80 113 145 182 223 275 330
#     4  10  21  37  58  82 109 142 183 232 283 336
#
# _framework density 17.515840000000001
#
# number of rings (size 3 to 8) (size 9 to 14) (size 15 to 20)
#    0.000    1.875    2.500    2.250    0.000    3.750 
#    0.000    2.500    0.000    9.000    0.000    0.000 
#    0.000    0.000    0.000    0.000    0.000    0.000 
#
# Total GULP energy -178459.899453 kJ/mol
# GULP energy per Si atom -5576.871858 kJ/mol
# Density = 1.747597 g / cm^3
# Si number density = 17.515840 Si / 1000 Ang^3
#
#
#
# Elastic Constant Matrix: (Units=GPa)
#
#
# Indices 1 2 3 4 5 6 
#
# 1 83.9895 43.7877 14.4641 0.0000 0.0000 0.0000
# 2 43.7877 56.0317 13.4688 0.0000 0.0000 0.0000
# 3 14.4641 13.4688 63.8161 0.0000 0.0000 0.0000
# 4 0.0000 0.0000 0.0000 19.1298 0.0000 0.0000
# 5 0.0000 0.0000 0.0000 0.0000 20.9229 0.0000
# 6 0.0000 0.0000 0.0000 0.0000 0.0000 17.7827
#
#
#
# Elastic Compliance Matrix: (Units=1/GPa)
#
#
# Indices 1 2 3 4 5 6 
#
# 1 0.020196 -0.015467 -0.001313 0.000000 0.000000 0.000000
# 2 -0.015467 0.030647 -0.002962 0.000000 0.000000 0.000000
# 3 -0.001313 -0.002962 0.016593 0.000000 0.000000 0.000000
# 4 0.000000 0.000000 0.000000 0.052275 0.000000 0.000000
# 5 0.000000 0.000000 0.000000 0.000000 0.047795 0.000000
# 6 0.000000 0.000000 0.000000 0.000000 0.000000 0.056234
#
#
# Mechanical properties :
#
#
# Convention : Reuss Voigt Hill
#
# Bulk Modulus (GPa) = 35.77813 38.58648 37.18230
# Shear Modulus (GPa) = 18.34584 20.37486 19.36035
#
# Velocity S-wave (km/s) = 3.23984 3.41431 3.32822
# Velocity P-wave (km/s) = 5.87077 6.13357 6.00361
#
# Compressibility (1/GPa) = 0.02795004
#
# Stress axis : x y z
#
# Youngs Moduli (GPa) = 49.51425 32.63008 60.26683
#
# Poissons Ratio (x) = 0.50470 0.07913
# Poissons Ratio (y) = 0.76585 0.17854
# Poissons Ratio (z) = 0.06501 0.09666
#
# Static dielectric constant tensor:
#      x y z
#    x 1.600360 0.000000 0.000000 
#    y 0.000000 1.595790 0.000000 
#    z 0.000000 0.000000 1.596930 
# 
# From -- ./inp_files/5882.got.cif
#   From: 2010.05.17/outbox.cif.g08.bks.cpg/sg38_3_cif.got.tgz:5882.got - 2010.06.03 18:07:57.
