data_PCOD9358169
_publ_section_title
;
Structure prediction by ZEFSAII (Michael W. Deem and Ramdas Pophale) SiO2 
 PCOD9358169
Probable space group: A M M 2
;
_chemical_formula_sum "Si O2"
_cell_formula_units_Z 58
_cell_length_a 14.926783
_cell_length_b 8.097582
_cell_length_c 25.826730
_cell_angle_alpha 90.000000
_cell_angle_beta 90.000000
_cell_angle_gamma 90.000000
_cell_volume 3121.698791
_symmetry_space_group_name_H-M "A M M 2"
_symmetry_group_IT_number 38
_symmetry_cell_setting 'orthorhombic'
loop_
_space_group_symop_operation_xyz
x,y,z
-x,-y,z
-x,y,z
x,-y,z
x,1/2+y,1/2+z
-x,1/2-y,1/2+z
-x,1/2+y,1/2+z
x,1/2-y,1/2+z
loop_
_atom_site_type_symbol
_atom_site_label
_atom_site_fract_x
_atom_site_fract_y
_atom_site_fract_z
Si Si1 0.098560 0.186467 0.250000
Si Si2 0.500000 0.000000 0.396053
Si Si3 0.362522 0.691440 0.411210
Si Si4 0.604193 0.300002 0.727660
Si Si5 0.703127 0.194449 0.122078
Si Si6 0.604357 0.195173 0.520116
Si Si7 0.100180 0.309822 0.137637
Si Si8 0.259429 0.190131 0.812484
O O1 0.107436 0.301069 0.200061
O O2 0.177689 0.207526 0.290011
O O3 0.000000 0.211488 0.273191
O O4 0.103000 0.000000 0.228606
O O5 0.424406 0.849109 0.397336
O O6 0.394882 0.500000 0.401947
O O7 0.349081 0.710925 0.472689
O O8 0.278926 0.710442 0.372871
O O9 0.500000 0.249547 0.723648
O O10 0.606145 0.500000 0.729981
O O11 0.661884 0.247588 0.677265
O O12 0.652163 0.234790 0.779177
O O13 0.651877 0.277185 0.074531
O O14 0.809466 0.223719 0.118474
O O15 0.684882 0.000000 0.119425
O O16 0.500000 0.248996 0.522049
O O17 0.603201 0.000000 0.508183
O O18 0.103224 0.500000 0.120937
O O19 0.000000 0.243282 0.124825
O O20 0.238208 0.000000 0.802089
#
# Coordination Sequence:
#
# PCOD9358169 Si02
#       8
#     8   2   8   8   8   8   8   8
#     4  10  20  35  58  84 112 149 191 237 291 352
#     4  12  22  40  64  86 114 160 206 252 300 336
#     4  11  24  40  60  89 119 154 203 254 296 346
#     4  10  22  36  52  76 114 158 193 228 284 346
#     4  11  22  36  56  84 115 153 193 239 290 347
#     4  11  22  39  61  85 114 156 201 245 294 344
#     4  10  20  35  56  83 114 148 190 240 292 350
#     4  11  24  37  56  84 117 152 192 239 293 348
#
# _framework density 18.579626999999999
#
# number of rings (size 3 to 8) (size 9 to 14) (size 15 to 20)
#    0.000    1.379    2.759    2.690    2.897    3.862 
#    0.000    0.000    0.000    0.828    0.000    3.862 
#    0.000    0.000    0.000    0.000    0.000    0.000 
#
# Total GULP energy -161489.445408 kJ/mol
# GULP energy per Si atom -5568.601566 kJ/mol
# Density = 1.853734 g / cm^3
# Si number density = 18.579627 Si / 1000 Ang^3
#
#
#
# Elastic Constant Matrix: (Units=GPa)
#
#
# Indices 1 2 3 4 5 6 
#
# 1 79.2770 6.2320 30.7422 0.0000 0.0000 0.0000
# 2 6.2320 69.7780 1.8355 0.0000 0.0000 0.0000
# 3 30.7422 1.8355 79.4216 0.0000 0.0000 0.0000
# 4 0.0000 0.0000 0.0000 24.7344 0.0000 0.0000
# 5 0.0000 0.0000 0.0000 0.0000 40.6413 0.0000
# 6 0.0000 0.0000 0.0000 0.0000 0.0000 20.0924
#
#
#
# Elastic Compliance Matrix: (Units=1/GPa)
#
#
# Indices 1 2 3 4 5 6 
#
# 1 0.014939 -0.001183 -0.005755 0.000000 0.000000 0.000000
# 2 -0.001183 0.014434 0.000124 0.000000 0.000000 0.000000
# 3 -0.005755 0.000124 0.014816 0.000000 0.000000 0.000000
# 4 0.000000 0.000000 0.000000 0.040429 0.000000 0.000000
# 5 0.000000 0.000000 0.000000 0.000000 0.024606 0.000000
# 6 0.000000 0.000000 0.000000 0.000000 0.000000 0.049770
#
#
# Mechanical properties :
#
#
# Convention : Reuss Voigt Hill
#
# Bulk Modulus (GPa) = 32.72166 34.01067 33.36617
# Shear Modulus (GPa) = 27.35124 29.73810 28.54467
#
# Velocity S-wave (km/s) = 3.84097 4.00506 3.92387
# Velocity P-wave (km/s) = 6.10905 6.30337 6.20697
#
# Compressibility (1/GPa) = 0.03056079
#
# Stress axis : x y z
#
# Youngs Moduli (GPa) = 66.94030 69.28307 67.49552
#
# Poissons Ratio (x) = 0.08195 0.38844
# Poissons Ratio (y) = 0.07918 -0.00839
# Poissons Ratio (z) = 0.38525 -0.00861
#
# Static dielectric constant tensor:
#      x y z
#    x 1.640090 0.000000 0.000000 
#    y 0.000000 1.654140 0.000000 
#    z 0.000000 0.000000 1.634550 
# 
# From -- ./inp_files/22848.got.cif
#   From: 2010.05.17/outbox.cif.g08.bks.cpg/sg38_12_cif.got.tgz:22848.got - 2010.06.03 18:07:57.
