data_PCOD9358279
_publ_section_title
;
Structure prediction by ZEFSAII (Michael W. Deem and Ramdas Pophale) SiO2 
 PCOD9358279
Probable space group: A M M 2
;
_chemical_formula_sum "Si O2"
_cell_formula_units_Z 32
_cell_length_a 7.580268
_cell_length_b 8.087244
_cell_length_c 24.336955
_cell_angle_alpha 90.000000
_cell_angle_beta 90.000000
_cell_angle_gamma 90.000000
_cell_volume 1491.939959
_symmetry_space_group_name_H-M "A M M 2"
_symmetry_group_IT_number 38
_symmetry_cell_setting 'orthorhombic'
loop_
_space_group_symop_operation_xyz
x,y,z
-x,-y,z
-x,y,z
x,-y,z
x,1/2+y,1/2+z
-x,1/2-y,1/2+z
-x,1/2+y,1/2+z
x,1/2-y,1/2+z
loop_
_atom_site_type_symbol
_atom_site_label
_atom_site_fract_x
_atom_site_fract_y
_atom_site_fract_z
Si Si1 0.283694 0.178821 0.929210
Si Si2 0.298069 0.000000 0.368344
Si Si3 0.201613 0.500000 0.745606
Si Si4 0.713924 0.808013 0.545161
Si Si5 0.286812 0.309786 0.168618
O O1 0.500000 0.177951 0.928416
O O2 0.220088 0.332237 0.893057
O O3 0.225691 0.000000 0.908838
O O4 0.228496 0.205291 0.992521
O O5 0.302659 0.000000 0.302942
O O6 0.500000 0.000000 0.388970
O O7 0.235909 0.665129 0.710180
O O8 0.000000 0.500000 0.762417
O O9 0.500000 0.797982 0.546294
O O10 0.774127 0.765000 0.606621
O O11 0.759355 0.000000 0.535464
O O12 0.500000 0.314241 0.167810
O O13 0.229156 0.500000 0.180819
#
# Coordination Sequence:
#
# PCOD9358279 Si02
#       5
#     8   4   4   8   8
#     4   9  16  26  47  82 113 137 167 217 284 339
#     4  10  20  36  54  76 110 144 187 238 277 324
#     4  12  26  40  56  78 112 160 205 236 277 336
#     4   8  13  25  48  82 117 138 162 214 283 341
#     4   9  19  36  60  89 116 145 185 236 289 339
#
# _framework density 21.448582999999999
#
# number of rings (size 3 to 8) (size 9 to 14) (size 15 to 20)
#    0.000    2.750    1.250    2.625    1.750    1.500 
#    0.000    2.500    0.000    1.500    0.000    0.000 
#    0.000    0.000    0.000    0.000    0.000    0.000 
#
# Total GULP energy -89258.857307 kJ/mol
# GULP energy per Si atom -5578.678582 kJ/mol
# Density = 2.139977 g / cm^3
# Si number density = 21.448583 Si / 1000 Ang^3
#
#
#
# Elastic Constant Matrix: (Units=GPa)
#
#
# Indices 1 2 3 4 5 6 
#
# 1 49.3230 3.7588 -9.5341 0.0000 0.0000 0.0000
# 2 3.7588 184.5366 98.7870 0.0000 0.0000 0.0000
# 3 -9.5341 98.7870 105.9591 0.0000 0.0000 0.0000
# 4 0.0000 0.0000 0.0000 18.3742 0.0000 0.0000
# 5 0.0000 0.0000 0.0000 0.0000 -56.1791 0.0000
# 6 0.0000 0.0000 0.0000 0.0000 0.0000 80.8735
#
#
#
# Elastic Compliance Matrix: (Units=1/GPa)
#
#
# Indices 1 2 3 4 5 6 
#
# 1 0.021397 -0.002928 0.004655 0.000000 0.000000 0.000000
# 2 -0.002928 0.011219 -0.010723 0.000000 0.000000 0.000000
# 3 0.004655 -0.010723 0.019854 0.000000 0.000000 0.000000
# 4 0.000000 0.000000 0.000000 0.054424 0.000000 0.000000
# 5 0.000000 0.000000 0.000000 0.000000 -0.017800 0.000000
# 6 0.000000 0.000000 0.000000 0.000000 0.000000 0.012365
#
#
# Mechanical properties :
#
#
# Convention : Reuss Voigt Hill
#
# Bulk Modulus (GPa) = 29.00375 58.42692 43.71533
# Shear Modulus (GPa) = 38.18456 25.06752 31.62604
#
# Velocity S-wave (km/s) = 4.22392 3.42237 3.84409
# Velocity P-wave (km/s) = 6.11068 6.55106 6.33470
#
# Compressibility (1/GPa) = 0.03447830
#
# Stress axis : x y z
#
# Youngs Moduli (GPa) = 46.73459 89.13565 50.36881
#
# Poissons Ratio (x) = 0.26096 -0.23446
# Poissons Ratio (y) = 0.13682 0.54010
# Poissons Ratio (z) = -0.21754 0.95579
#
# Static dielectric constant tensor:
#      x y z
#    x 1.807780 0.000000 0.000000 
#    y 0.000000 1.773260 0.000000 
#    z 0.000000 0.000000 1.751850 
# 
# From -- ./inp_files/21607.got.cif
#   From: 2010.05.17/outbox.cif.g08.bks.cpg/sg38_11_cif.got.tgz:21607.got - 2010.06.03 18:07:57.
