data_PCOD9358675
_publ_section_title
;
Structure prediction by ZEFSAII (Michael W. Deem and Ramdas Pophale) SiO2 
 PCOD9358675
Probable space group: A M M 2
;
_chemical_formula_sum "Si O2"
_cell_formula_units_Z 40
_cell_length_a 15.970805
_cell_length_b 7.339445
_cell_length_c 14.713331
_cell_angle_alpha 90.000000
_cell_angle_beta 90.000000
_cell_angle_gamma 90.000000
_cell_volume 1724.650238
_symmetry_space_group_name_H-M "A M M 2"
_symmetry_group_IT_number 38
_symmetry_cell_setting 'orthorhombic'
loop_
_space_group_symop_operation_xyz
x,y,z
-x,-y,z
-x,y,z
x,-y,z
x,1/2+y,1/2+z
-x,1/2-y,1/2+z
-x,1/2+y,1/2+z
x,1/2-y,1/2+z
loop_
_atom_site_type_symbol
_atom_site_label
_atom_site_fract_x
_atom_site_fract_y
_atom_site_fract_z
Si Si1 0.094006 0.714779 0.655640
Si Si2 0.409928 0.717207 0.295435
Si Si3 0.229016 0.219050 0.805258
Si Si4 0.589314 0.282775 0.515427
Si Si5 0.770727 0.776744 0.014507
O O1 0.086257 0.500000 0.637808
O O2 0.148969 0.733456 0.746164
O O3 0.153267 0.788743 0.575926
O O4 0.000000 0.789270 0.661623
O O5 0.500000 0.791148 0.262855
O O6 0.411416 0.500000 0.278236
O O7 0.318673 0.787724 0.266321
O O8 0.409191 0.739831 0.405526
O O9 0.235227 0.000000 0.806798
O O10 0.219822 0.277991 0.909629
O O11 0.500000 0.208136 0.548354
O O12 0.588068 0.500000 0.531671
O O13 0.678993 0.214020 0.548502
O O14 0.769362 0.000000 0.016397
#
# Coordination Sequence:
#
# PCOD9358675 Si02
#       5
#     8   8   8   8   8
#     4  10  21  35  48  65  94 128 157 193 246 293
#     4   7  10  19  39  68  97 120 144 179 224 270
#     4   9  17  31  53  76  94 119 159 199 228 266
#     4   7   9  16  35  63  90 114 144 183 221 260
#     4   8  15  29  48  68  91 122 157 188 225 279
#
# _framework density 23.193109
#
# number of rings (size 3 to 8) (size 9 to 14) (size 15 to 20)
#    0.000    3.800    0.000    3.600    0.000    1.200 
#    0.000    4.000    0.000    1.800    0.000    0.000 
#    0.000    1.600    0.000    0.000    0.000    0.000 
#
# Total GULP energy -111535.421598 kJ/mol
# GULP energy per Si atom -5576.771080 kJ/mol
# Density = 2.314032 g / cm^3
# Si number density = 23.193109 Si / 1000 Ang^3
#
#
#
# Elastic Constant Matrix: (Units=GPa)
#
#
# Indices 1 2 3 4 5 6 
#
# 1 316.4234 13.8862 87.9950 0.0000 0.0000 0.0000
# 2 13.8862 89.1202 -2.5007 0.0000 0.0000 0.0000
# 3 87.9950 -2.5007 96.3377 0.0000 0.0000 0.0000
# 4 0.0000 0.0000 0.0000 5.0672 0.0000 0.0000
# 5 0.0000 0.0000 0.0000 0.0000 27.4328 0.0000
# 6 0.0000 0.0000 0.0000 0.0000 0.0000 -8.7590
#
#
#
# Elastic Compliance Matrix: (Units=1/GPa)
#
#
# Indices 1 2 3 4 5 6 
#
# 1 0.004290 -0.000779 -0.003939 0.000000 0.000000 0.000000
# 2 -0.000779 0.011370 0.001007 0.000000 0.000000 0.000000
# 3 -0.003939 0.001007 0.014004 0.000000 0.000000 0.000000
# 4 0.000000 0.000000 0.000000 0.197349 0.000000 0.000000
# 5 0.000000 0.000000 0.000000 0.000000 0.036453 0.000000
# 6 0.000000 0.000000 0.000000 0.000000 0.000000 -0.114168
#
#
# Mechanical properties :
#
#
# Convention : Reuss Voigt Hill
#
# Bulk Modulus (GPa) = 44.95941 77.84913 61.40427
# Shear Modulus (GPa) = 30.46298 31.58158 31.02228
#
# Velocity S-wave (km/s) = 3.62809 3.69410 3.66124
# Velocity P-wave (km/s) = 6.08092 7.19956 6.66375
#
# Compressibility (1/GPa) = 0.02224229
#
# Stress axis : x y z
#
# Youngs Moduli (GPa) = 233.11252 87.94755 71.40963
#
# Poissons Ratio (x) = 0.06850 0.28125
# Poissons Ratio (y) = 0.18158 -0.07188
# Poissons Ratio (z) = 0.91811 -0.08853
#
# Static dielectric constant tensor:
#      x y z
#    x 1.908970 0.000000 0.000000 
#    y 0.000000 1.956750 0.000000 
#    z 0.000000 0.000000 1.870670 
# 
# From -- ./inp_files/9872.got.cif
#   From: 2010.05.17/outbox.cif.g08.bks.cpg/sg38_5_cif.got.tgz:9872.got - 2010.06.03 18:07:57.
