data_PCOD9358908
_publ_section_title
;
Structure prediction by ZEFSAII (Michael W. Deem and Ramdas Pophale) SiO2 
 PCOD9358908
Probable space group: A M M 2
;
_chemical_formula_sum "Si O2"
_cell_formula_units_Z 48
_cell_length_a 8.125133
_cell_length_b 7.572624
_cell_length_c 35.557487
_cell_angle_alpha 90.000000
_cell_angle_beta 90.000000
_cell_angle_gamma 90.000000
_cell_volume 2187.801582
_symmetry_space_group_name_H-M "A M M 2"
_symmetry_group_IT_number 38
_symmetry_cell_setting 'orthorhombic'
loop_
_space_group_symop_operation_xyz
x,y,z
-x,-y,z
-x,y,z
x,-y,z
x,1/2+y,1/2+z
-x,1/2-y,1/2+z
-x,1/2+y,1/2+z
x,1/2-y,1/2+z
loop_
_atom_site_type_symbol
_atom_site_label
_atom_site_fract_x
_atom_site_fract_y
_atom_site_fract_z
Si Si1 0.500000 0.287640 0.741451
Si Si2 0.500000 0.212724 0.829514
Si Si3 0.821700 0.790925 0.871741
Si Si4 0.186337 0.294026 0.696925
Si Si5 0.802721 0.297296 0.112876
Si Si6 0.690666 0.213952 0.452442
Si Si7 0.697689 0.703749 0.033634
O O1 0.500000 0.500000 0.735492
O O2 0.500000 0.252376 0.785593
O O3 0.332835 0.217392 0.722099
O O4 0.335699 0.282575 0.849770
O O5 0.500000 0.000000 0.834354
O O6 0.791444 0.769011 0.916174
O O7 0.000000 0.715904 0.861360
O O8 0.826355 0.000000 0.863862
O O9 0.172237 0.500000 0.706855
O O10 0.238439 0.284330 0.653100
O O11 0.000000 0.217705 0.700410
O O12 0.741747 0.500000 0.114320
O O13 0.742359 0.214732 0.073762
O O14 0.000000 0.297756 0.110762
O O15 0.500000 0.270755 0.447166
O O16 0.752641 0.278091 0.493314
O O17 0.690369 0.000000 0.454170
O O18 0.500000 0.699029 0.031131
O O19 0.759298 0.500000 0.035334
#
# Coordination Sequence:
#
# PCOD9358908 Si02
#       7
#     4   4   8   8   8   8   8
#     4  10  22  38  58  81 102 131 169 206 253 316
#     4  10  22  40  58  79 108 135 163 210 265 312
#     4  10  21  37  57  80 107 141 176 211 260 318
#     4   9  19  36  54  74 105 138 166 206 258 305
#     4   9  17  29  47  72 101 135 175 216 254 296
#     4   9  17  31  52  77 107 142 181 223 263 306
#     4   8  15  27  44  70 103 137 172 214 259 297
#
# _framework density 21.939831999999999
#
# number of rings (size 3 to 8) (size 9 to 14) (size 15 to 20)
#    0.000    2.833    0.833    1.000    1.167    3.000 
#    0.000    2.500    0.000    3.000    0.000    0.000 
#    0.000    0.000    0.000    0.000    0.000    0.000 
#
# Total GULP energy -133848.209199 kJ/mol
# GULP energy per Si atom -5577.008717 kJ/mol
# Density = 2.188990 g / cm^3
# Si number density = 21.939832 Si / 1000 Ang^3
#
#
#
# Elastic Constant Matrix: (Units=GPa)
#
#
# Indices 1 2 3 4 5 6 
#
# 1 136.0876 11.6030 98.7381 0.0000 0.0000 0.0000
# 2 11.6030 49.4290 -7.4659 0.0000 0.0000 0.0000
# 3 98.7381 -7.4659 166.5224 0.0000 0.0000 0.0000
# 4 0.0000 0.0000 0.0000 16.8488 0.0000 0.0000
# 5 0.0000 0.0000 0.0000 0.0000 -37.3226 0.0000
# 6 0.0000 0.0000 0.0000 0.0000 0.0000 0.9211
#
#
#
# Elastic Compliance Matrix: (Units=1/GPa)
#
#
# Indices 1 2 3 4 5 6 
#
# 1 0.013830 -0.004516 -0.008403 0.000000 0.000000 0.000000
# 2 -0.004516 0.021843 0.003657 0.000000 0.000000 0.000000
# 3 -0.008403 0.003657 0.011151 0.000000 0.000000 0.000000
# 4 0.000000 0.000000 0.000000 0.059351 0.000000 0.000000
# 5 0.000000 0.000000 0.000000 0.000000 -0.026793 0.000000
# 6 0.000000 0.000000 0.000000 0.000000 0.000000 1.085647
#
#
# Mechanical properties :
#
#
# Convention : Reuss Voigt Hill
#
# Bulk Modulus (GPa) = 35.33366 61.97660 48.65513
# Shear Modulus (GPa) = 4.19116 12.70037 8.44577
#
# Velocity S-wave (km/s) = 1.38363 2.40859 1.96415
# Velocity P-wave (km/s) = 4.32347 6.00373 5.23150
#
# Compressibility (1/GPa) = 0.02830163
#
# Stress axis : x y z
#
# Youngs Moduli (GPa) = 72.30775 45.78053 89.67435
#
# Poissons Ratio (x) = 0.20673 0.75351
# Poissons Ratio (y) = 0.32651 -0.32792
# Poissons Ratio (z) = 0.60758 -0.16741
#
# Static dielectric constant tensor:
#      x y z
#    x 1.819220 0.000000 0.000000 
#    y 0.000000 1.846820 0.000000 
#    z 0.000000 0.000000 1.784640 
# 
# From -- ./inp_files/24424.got.cif
#   From: 2010.05.17/outbox.cif.g08.bks.cpg/sg38_13_cif.got.tgz:24424.got - 2010.06.03 18:07:57.
