data_PCOD9358690
_publ_section_title
;
Structure prediction by ZEFSAII (Michael W. Deem and Ramdas Pophale) SiO2 
 PCOD9358690
Probable space group: A M M 2
;
_chemical_formula_sum "Si O2"
_cell_formula_units_Z 64
_cell_length_a 9.018990
_cell_length_b 14.661601
_cell_length_c 28.754926
_cell_angle_alpha 90.000000
_cell_angle_beta 90.000000
_cell_angle_gamma 90.000000
_cell_volume 3802.345322
_symmetry_space_group_name_H-M "A M M 2"
_symmetry_group_IT_number 38
_symmetry_cell_setting 'orthorhombic'
loop_
_space_group_symop_operation_xyz
x,y,z
-x,-y,z
-x,y,z
x,-y,z
x,1/2+y,1/2+z
-x,1/2-y,1/2+z
-x,1/2+y,1/2+z
x,1/2-y,1/2+z
loop_
_atom_site_type_symbol
_atom_site_label
_atom_site_fract_x
_atom_site_fract_y
_atom_site_fract_z
Si Si1 0.677609 0.105872 0.443470
Si Si2 0.823293 0.105819 0.072738
Si Si3 0.674759 0.107693 0.170704
Si Si4 0.175496 0.608382 0.113645
Si Si5 0.821819 0.106137 0.721279
Si Si6 0.677142 0.724289 0.032732
Si Si7 0.677497 0.722235 0.762444
Si Si8 0.177242 0.893455 0.344080
O O1 0.500000 0.113431 0.436335
O O2 0.720726 0.171539 0.485699
O O3 0.760311 0.126428 0.395452
O O4 0.708902 0.000000 0.455917
O O5 0.767487 0.129737 0.124725
O O6 0.748052 0.176227 0.037826
O O7 0.000000 0.113809 0.070753
O O8 0.782106 0.000000 0.064488
O O9 0.500000 0.123030 0.160845
O O10 0.716770 0.165621 0.215693
O O11 0.694279 0.000000 0.180692
O O12 0.195201 0.500000 0.105855
O O13 0.217801 0.626587 0.167295
O O14 0.266180 0.665683 0.076569
O O15 0.000000 0.628542 0.108690
O O16 0.740263 0.176771 0.754429
O O17 0.000000 0.116001 0.725112
O O18 0.786015 0.000000 0.730114
O O19 0.500000 0.730494 0.034105
O O20 0.500000 0.722758 0.766758
O O21 0.748967 0.671312 0.806077
O O22 0.000000 0.884005 0.343306
O O23 0.213790 0.000000 0.333931
#
# Coordination Sequence:
#
# PCOD9358690 Si02
#       8
#     8   8   8   8   8   8   8   8
#     4   9  19  36  55  76 104 133 160 197 248 302
#     4  10  21  35  50  70  99 136 175 214 254 294
#     4   9  18  32  49  72 103 136 169 205 248 299
#     4   9  18  32  50  74 105 139 172 207 248 294
#     4   9  19  35  51  69  99 138 176 213 251 290
#     4  11  21  32  51  77 103 134 170 207 251 301
#     4  11  21  32  51  77 103 133 168 207 253 302
#     4  10  21  36  55  79 104 131 164 202 247 300
#
# _framework density 16.831717000000001
#
# number of rings (size 3 to 8) (size 9 to 14) (size 15 to 20)
#    0.000    2.250    0.000    3.750    0.000    7.500 
#    0.000    3.750    0.000    0.750    0.000    3.500 
#    0.000    0.000    0.000    0.000    0.000    0.000 
#
# Total GULP energy -178665.971320 kJ/mol
# GULP energy per Si atom -5583.311604 kJ/mol
# Density = 1.679341 g / cm^3
# Si number density = 16.831717 Si / 1000 Ang^3
#
#
#
# Elastic Constant Matrix: (Units=GPa)
#
#
# Indices 1 2 3 4 5 6 
#
# 1 49.3256 58.4247 58.4254 0.0000 0.0000 0.0000
# 2 58.4247 110.7121 97.5193 0.0000 0.0000 0.0000
# 3 58.4254 97.5193 114.3630 0.0000 0.0000 0.0000
# 4 0.0000 0.0000 0.0000 33.0704 0.0000 0.0000
# 5 0.0000 0.0000 0.0000 0.0000 -3.4850 0.0000
# 6 0.0000 0.0000 0.0000 0.0000 0.0000 28.3549
#
#
#
# Elastic Compliance Matrix: (Units=1/GPa)
#
#
# Indices 1 2 3 4 5 6 
#
# 1 0.059557 -0.018597 -0.014568 0.000000 0.000000 0.000000
# 2 -0.018597 0.042097 -0.026396 0.000000 0.000000 0.000000
# 3 -0.014568 -0.026396 0.038695 0.000000 0.000000 0.000000
# 4 0.000000 0.000000 0.000000 0.030238 0.000000 0.000000
# 5 0.000000 0.000000 0.000000 0.000000 -0.286941 0.000000
# 6 0.000000 0.000000 0.000000 0.000000 0.000000 0.035267
#
#
# Mechanical properties :
#
#
# Convention : Reuss Voigt Hill
#
# Bulk Modulus (GPa) = 47.11126 78.12659 62.61893
# Shear Modulus (GPa) = 110.83533 15.59015 63.21274
#
# Velocity S-wave (km/s) = 8.12355 3.04671 6.13492
# Velocity P-wave (km/s) = 10.77217 7.67422 9.35236
#
# Compressibility (1/GPa) = 0.02122635
#
# Stress axis : x y z
#
# Youngs Moduli (GPa) = 16.79066 23.75469 25.84298
#
# Poissons Ratio (x) = 0.44176 0.37649
# Poissons Ratio (y) = 0.31225 0.68216
# Poissons Ratio (z) = 0.24461 0.62703
#
# Static dielectric constant tensor:
#      x y z
#    x 1.557300 0.000000 0.000000 
#    y 0.000000 1.575190 0.000000 
#    z 0.000000 0.000000 1.536190 
# 
# From -- ./inp_files/22134.got.cif
#   From: 2010.05.17/outbox.cif.g08.bks.cpg/sg38_12_cif.got.tgz:22134.got - 2010.06.03 18:07:57.
