data_PCOD9358868
_publ_section_title
;
Structure prediction by ZEFSAII (Michael W. Deem and Ramdas Pophale) SiO2 
 PCOD9358868
Probable space group: A M M 2
;
_chemical_formula_sum "Si O2"
_cell_formula_units_Z 56
_cell_length_a 24.306616
_cell_length_b 8.683462
_cell_length_c 14.714958
_cell_angle_alpha 90.000000
_cell_angle_beta 90.000000
_cell_angle_gamma 90.000000
_cell_volume 3105.821092
_symmetry_space_group_name_H-M "A M M 2"
_symmetry_group_IT_number 38
_symmetry_cell_setting 'orthorhombic'
loop_
_space_group_symop_operation_xyz
x,y,z
-x,-y,z
-x,y,z
x,-y,z
x,1/2+y,1/2+z
-x,1/2-y,1/2+z
-x,1/2+y,1/2+z
x,1/2-y,1/2+z
loop_
_atom_site_type_symbol
_atom_site_label
_atom_site_fract_x
_atom_site_fract_y
_atom_site_fract_z
Si Si1 0.737384 0.815382 0.932910
Si Si2 0.354056 0.185645 0.079691
Si Si3 0.562953 0.185713 0.436102
Si Si4 0.936929 0.682540 0.582892
Si Si5 0.062587 0.817842 0.781883
Si Si6 0.140653 0.181955 0.434319
Si Si7 0.346330 0.686358 0.789424
O O1 0.797415 0.743252 0.939068
O O2 0.704987 0.756715 0.843879
O O3 0.741393 0.000000 0.930663
O O4 0.699362 0.771248 0.019540
O O5 0.350139 0.235460 0.184475
O O6 0.357849 0.000000 0.078917
O O7 0.405986 0.251694 0.024941
O O8 0.500000 0.238695 0.429918
O O9 0.599795 0.230001 0.348561
O O10 0.563056 0.000000 0.439954
O O11 0.929326 0.500000 0.569047
O O12 0.931296 0.725752 0.688296
O O13 0.892961 0.774482 0.524554
O O14 0.000000 0.721239 0.556366
O O15 0.107231 0.763785 0.853667
O O16 0.000000 0.791115 0.816156
O O17 0.067870 0.000000 0.764165
O O18 0.140630 0.000000 0.420007
O O19 0.341685 0.500000 0.791262
#
# Coordination Sequence:
#
# PCOD9358868 Si02
#       7
#     8   8   8   8   8   8   8
#     4  10  21  37  54  76 106 137 177 227 275 321
#     4   9  19  35  56  78 102 138 178 219 265 313
#     4   9  18  32  51  78 111 142 173 213 259 311
#     4  10  21  38  59  83 112 145 181 223 272 328
#     4  10  21  38  59  83 111 142 178 223 276 332
#     4  12  24  37  56  81 110 146 186 227 275 327
#     4   9  18  35  56  77 104 139 179 218 264 320
#
# _framework density 18.030659
#
# number of rings (size 3 to 8) (size 9 to 14) (size 15 to 20)
#    0.000    2.143    0.000    3.000    0.000    6.571 
#    0.000    5.714    0.000    0.000    0.000    0.000 
#    0.000    0.000    0.000    0.000    0.000    0.000 
#
# Total GULP energy -156330.068663 kJ/mol
# GULP energy per Si atom -5583.216738 kJ/mol
# Density = 1.798962 g / cm^3
# Si number density = 18.030659 Si / 1000 Ang^3
#
#
#
# Elastic Constant Matrix: (Units=GPa)
#
#
# Indices 1 2 3 4 5 6 
#
# 1 131.8153 22.5940 49.4004 0.0000 0.0000 0.0000
# 2 22.5940 26.8553 8.5619 0.0000 0.0000 0.0000
# 3 49.4004 8.5619 112.9055 0.0000 0.0000 0.0000
# 4 0.0000 0.0000 0.0000 26.6535 0.0000 0.0000
# 5 0.0000 0.0000 0.0000 0.0000 15.4079 0.0000
# 6 0.0000 0.0000 0.0000 0.0000 0.0000 29.7734
#
#
#
# Elastic Compliance Matrix: (Units=1/GPa)
#
#
# Indices 1 2 3 4 5 6 
#
# 1 0.010347 -0.007442 -0.003963 0.000000 0.000000 0.000000
# 2 -0.007442 0.043512 -0.000043 0.000000 0.000000 0.000000
# 3 -0.003963 -0.000043 0.010594 0.000000 0.000000 0.000000
# 4 0.000000 0.000000 0.000000 0.037519 0.000000 0.000000
# 5 0.000000 0.000000 0.000000 0.000000 0.064902 0.000000
# 6 0.000000 0.000000 0.000000 0.000000 0.000000 0.033587
#
#
# Mechanical properties :
#
#
# Convention : Reuss Voigt Hill
#
# Bulk Modulus (GPa) = 24.06373 48.07650 36.07012
# Shear Modulus (GPa) = 21.07848 27.10160 24.09004
#
# Velocity S-wave (km/s) = 3.42283 3.88117 3.65918
# Velocity P-wave (km/s) = 5.38479 6.84151 6.15639
#
# Compressibility (1/GPa) = 0.04155631
#
# Stress axis : x y z
#
# Youngs Moduli (GPa) = 96.64500 22.98243 94.39129
#
# Poissons Ratio (x) = 0.17103 0.37407
# Poissons Ratio (y) = 0.71922 0.00410
# Poissons Ratio (z) = 0.38300 0.00100
#
# Static dielectric constant tensor:
#      x y z
#    x 1.594120 0.000000 0.000000 
#    y 0.000000 1.602300 0.000000 
#    z 0.000000 0.000000 1.602350 
# 
# From -- ./inp_files/15423.got.cif
#   From: 2010.05.17/outbox.cif.g08.bks.cpg/sg38_8_cif.got.tgz:15423.got - 2010.06.03 18:07:57.
