data_PCOD9358842
_publ_section_title
;
Structure prediction by ZEFSAII (Michael W. Deem and Ramdas Pophale) SiO2 
 PCOD9358842
Probable space group: A M M 2
;
_chemical_formula_sum "Si O2"
_cell_formula_units_Z 64
_cell_length_a 24.914997
_cell_length_b 7.819080
_cell_length_c 15.638939
_cell_angle_alpha 90.000000
_cell_angle_beta 90.000000
_cell_angle_gamma 90.000000
_cell_volume 3046.658532
_symmetry_space_group_name_H-M "A M M 2"
_symmetry_group_IT_number 38
_symmetry_cell_setting 'orthorhombic'
loop_
_space_group_symop_operation_xyz
x,y,z
-x,-y,z
-x,y,z
x,-y,z
x,1/2+y,1/2+z
-x,1/2-y,1/2+z
-x,1/2+y,1/2+z
x,1/2-y,1/2+z
loop_
_atom_site_type_symbol
_atom_site_label
_atom_site_fract_x
_atom_site_fract_y
_atom_site_fract_z
Si Si1 0.441575 0.707583 0.286280
Si Si2 0.325255 0.698732 0.333020
Si Si3 0.330140 0.300754 0.014129
Si Si4 0.939351 0.706177 0.328518
Si Si5 0.741259 0.699338 0.671846
Si Si6 0.441455 0.208029 0.584486
Si Si7 0.938848 0.208873 0.023202
Si Si8 0.862583 0.795048 0.173926
O O1 0.500000 0.770515 0.317416
O O2 0.442807 0.500000 0.292800
O O3 0.386619 0.767468 0.329330
O O4 0.437323 0.749839 0.185290
O O5 0.327304 0.500000 0.308117
O O6 0.306027 0.715223 0.430040
O O7 0.287978 0.785022 0.262899
O O8 0.335860 0.500000 0.993566
O O9 0.294365 0.284573 0.098466
O O10 0.389207 0.227318 0.035786
O O11 0.940542 0.500000 0.329554
O O12 0.927362 0.762595 0.425712
O O13 0.895907 0.760131 0.259586
O O14 0.000000 0.765335 0.306260
O O15 0.743759 0.500000 0.648678
O O16 0.801680 0.770118 0.676502
O O17 0.500000 0.266366 0.553201
O O18 0.440608 0.000000 0.580410
O O19 0.896680 0.270902 0.093134
O O20 0.000000 0.260249 0.044578
O O21 0.938121 0.000000 0.024057
O O22 0.859399 0.000000 0.165310
#
# Coordination Sequence:
#
# PCOD9358842 Si02
#       8
#     8   8   8   8   8   8   8   8
#     4   8  14  28  53  82 109 139 179 227 280 343
#     4  11  22  38  60  84 110 149 191 233 290 347
#     4  11  22  38  60  85 112 148 188 233 290 348
#     4   9  18  33  55  85 118 149 182 221 268 327
#     4  11  24  41  57  80 114 150 196 249 288 333
#     4   8  14  28  53  82 110 141 178 223 279 345
#     4   8  15  31  55  81 110 143 176 212 261 323
#     4  10  21  36  57  82 108 144 190 234 278 325
#
# _framework density 21.006618
#
# number of rings (size 3 to 8) (size 9 to 14) (size 15 to 20)
#    0.000    2.500    1.250    3.000    0.000    3.250 
#    0.000    1.875    0.000    3.750    0.000    0.000 
#    0.000    0.000    0.000    0.000    0.000    0.000 
#
# Total GULP energy -178634.587837 kJ/mol
# GULP energy per Si atom -5582.330870 kJ/mol
# Density = 2.095881 g / cm^3
# Si number density = 21.006618 Si / 1000 Ang^3
#
#
#
# Elastic Constant Matrix: (Units=GPa)
#
#
# Indices 1 2 3 4 5 6 
#
# 1 151.2489 3.3448 77.0741 0.0000 0.0000 0.0000
# 2 3.3448 30.8488 -5.6444 0.0000 0.0000 0.0000
# 3 77.0741 -5.6444 107.8614 0.0000 0.0000 0.0000
# 4 0.0000 0.0000 0.0000 19.6286 0.0000 0.0000
# 5 0.0000 0.0000 0.0000 0.0000 -8.3332 0.0000
# 6 0.0000 0.0000 0.0000 0.0000 0.0000 15.0196
#
#
#
# Elastic Compliance Matrix: (Units=1/GPa)
#
#
# Indices 1 2 3 4 5 6 
#
# 1 0.010594 -0.002558 -0.007704 0.000000 0.000000 0.000000
# 2 -0.002558 0.033347 0.003573 0.000000 0.000000 0.000000
# 3 -0.007704 0.003573 0.014963 0.000000 0.000000 0.000000
# 4 0.000000 0.000000 0.000000 0.050946 0.000000 0.000000
# 5 0.000000 0.000000 0.000000 0.000000 -0.120002 0.000000
# 6 0.000000 0.000000 0.000000 0.000000 0.000000 0.066580
#
#
# Mechanical properties :
#
#
# Convention : Reuss Voigt Hill
#
# Bulk Modulus (GPa) = 21.96536 48.83425 35.39980
# Shear Modulus (GPa) = 58.83572 19.60864 39.22218
#
# Velocity S-wave (km/s) = 5.29802 3.05856 4.32572
# Velocity P-wave (km/s) = 6.92130 5.98085 6.46819
#
# Compressibility (1/GPa) = 0.04552623
#
# Stress axis : x y z
#
# Youngs Moduli (GPa) = 94.39263 29.98740 66.83074
#
# Poissons Ratio (x) = 0.07672 0.51487
# Poissons Ratio (y) = 0.24148 -0.23880
# Poissons Ratio (z) = 0.72720 -0.10715
#
# Static dielectric constant tensor:
#      x y z
#    x 1.764410 0.000000 0.000000 
#    y 0.000000 1.773000 0.000000 
#    z 0.000000 0.000000 1.728650 
# 
# From -- ./inp_files/15838.got.cif
#   From: 2010.05.17/outbox.cif.g08.bks.cpg/sg38_8_cif.got.tgz:15838.got - 2010.06.03 18:07:57.
