data_PCOD9358617
_publ_section_title
;
Structure prediction by ZEFSAII (Michael W. Deem and Ramdas Pophale) SiO2 
 PCOD9358617
Probable space group: A M M 2
;
_chemical_formula_sum "Si O2"
_cell_formula_units_Z 58
_cell_length_a 7.816774
_cell_length_b 18.097759
_cell_length_c 17.412605
_cell_angle_alpha 90.000000
_cell_angle_beta 90.000000
_cell_angle_gamma 90.000000
_cell_volume 2463.293181
_symmetry_space_group_name_H-M "A M M 2"
_symmetry_group_IT_number 38
_symmetry_cell_setting 'orthorhombic'
loop_
_space_group_symop_operation_xyz
x,y,z
-x,-y,z
-x,y,z
x,-y,z
x,1/2+y,1/2+z
-x,1/2-y,1/2+z
-x,1/2+y,1/2+z
x,1/2-y,1/2+z
loop_
_atom_site_type_symbol
_atom_site_label
_atom_site_fract_x
_atom_site_fract_y
_atom_site_fract_z
Si Si1 0.291606 0.584543 0.572770
Si Si2 0.805200 0.219525 0.180172
Si Si3 0.198967 0.080257 0.795971
Si Si4 0.500000 0.000000 0.259473
Si Si5 0.802872 0.110071 0.300393
Si Si6 0.307188 0.627175 0.131847
Si Si7 0.298505 0.821076 0.930031
Si Si8 0.290553 0.154975 0.463965
O O1 0.500000 0.584100 0.579455
O O2 0.236321 0.500000 0.585472
O O3 0.220283 0.645375 0.630925
O O4 0.239030 0.615682 0.489403
O O5 0.777691 0.192749 0.267034
O O6 0.689996 0.285078 0.149993
O O7 0.000000 0.245920 0.172458
O O8 0.216801 0.091911 0.704927
O O9 0.274084 0.147179 0.845067
O O10 0.000000 0.079273 0.815150
O O11 0.275571 0.000000 0.816442
O O12 0.348049 0.937382 0.264183
O O13 0.775282 0.109607 0.391406
O O14 0.000000 0.089576 0.281971
O O15 0.500000 0.597896 0.130519
O O16 0.234429 0.622868 0.046013
O O17 0.500000 0.814176 0.943514
O O18 0.229588 0.739931 0.951497
O O19 0.500000 0.153637 0.463017
#
# Coordination Sequence:
#
# PCOD9358617 Si02
#       8
#     8   8   8   2   8   8   8   8
#     4  10  21  36  60  92 129 172 216 265 323 386
#     4  11  24  40  62  96 134 170 217 267 326 399
#     4  11  25  43  62  92 134 175 216 269 337 396
#     4  12  26  48  72  90 136 176 222 288 336 402
#     4  11  26  44  68 100 131 176 227 276 340 407
#     4  11  23  42  70  97 129 169 221 273 328 400
#     4  10  20  39  67  95 127 168 219 272 325 397
#     4  10  21  42  67  97 130 169 220 280 340 397
#
# _framework density 23.545715999999999
#
# number of rings (size 3 to 8) (size 9 to 14) (size 15 to 20)
#    0.000    1.379    2.069    2.690    2.897    6.345 
#    1.241    0.000    0.000    0.000    0.000    0.000 
#    0.000    0.000    0.000    0.000    0.000    0.000 
#
# Total GULP energy -161875.704474 kJ/mol
# GULP energy per Si atom -5581.920844 kJ/mol
# Density = 2.349212 g / cm^3
# Si number density = 23.545716 Si / 1000 Ang^3
#
#
#
# Elastic Constant Matrix: (Units=GPa)
#
#
# Indices 1 2 3 4 5 6 
#
# 1 76.6858 11.4234 -1.8492 0.0000 0.0000 0.0000
# 2 11.4234 59.3777 -10.8671 0.0000 0.0000 0.0000
# 3 -1.8492 -10.8671 94.8156 0.0000 0.0000 0.0000
# 4 0.0000 0.0000 0.0000 3.5930 0.0000 0.0000
# 5 0.0000 0.0000 0.0000 0.0000 32.0984 0.0000
# 6 0.0000 0.0000 0.0000 0.0000 0.0000 26.1457
#
#
#
# Elastic Compliance Matrix: (Units=1/GPa)
#
#
# Indices 1 2 3 4 5 6 
#
# 1 0.013425 -0.002589 -0.000035 0.000000 0.000000 0.000000
# 2 -0.002589 0.017702 0.001978 0.000000 0.000000 0.000000
# 3 -0.000035 0.001978 0.010773 0.000000 0.000000 0.000000
# 4 0.000000 0.000000 0.000000 0.278322 0.000000 0.000000
# 5 0.000000 0.000000 0.000000 0.000000 0.031154 0.000000
# 6 0.000000 0.000000 0.000000 0.000000 0.000000 0.038247
#
#
# Mechanical properties :
#
#
# Convention : Reuss Voigt Hill
#
# Bulk Modulus (GPa) = 24.62575 25.36593 24.99584
# Shear Modulus (GPa) = 12.36246 27.84556 20.10401
#
# Velocity S-wave (km/s) = 2.29386 3.44265 2.92520
# Velocity P-wave (km/s) = 4.18296 5.15741 4.69553
#
# Compressibility (1/GPa) = 0.04060790
#
# Stress axis : x y z
#
# Youngs Moduli (GPa) = 74.48748 56.49228 92.82600
#
# Poissons Ratio (x) = 0.14627 0.00324
# Poissons Ratio (y) = 0.19286 -0.18364
# Poissons Ratio (z) = 0.00260 -0.11176
#
# Static dielectric constant tensor:
#      x y z
#    x 1.830410 0.000000 0.000000 
#    y 0.000000 1.898860 0.000000 
#    z 0.000000 0.000000 1.934610 
# 
# From -- ./inp_files/17007.got.cif
#   From: 2010.05.17/outbox.cif.g08.bks.cpg/sg38_9_cif.got.tgz:17007.got - 2010.06.03 18:07:57.
