data_PCOD9358897
_publ_section_title
;
Structure prediction by ZEFSAII (Michael W. Deem and Ramdas Pophale) SiO2 
 PCOD9358897
Probable space group: A M M 2
;
_chemical_formula_sum "Si O2"
_cell_formula_units_Z 64
_cell_length_a 14.215233
_cell_length_b 8.879013
_cell_length_c 26.602060
_cell_angle_alpha 90.000000
_cell_angle_beta 90.000000
_cell_angle_gamma 90.000000
_cell_volume 3357.638554
_symmetry_space_group_name_H-M "A M M 2"
_symmetry_group_IT_number 38
_symmetry_cell_setting 'orthorhombic'
loop_
_space_group_symop_operation_xyz
x,y,z
-x,-y,z
-x,y,z
x,-y,z
x,1/2+y,1/2+z
-x,1/2-y,1/2+z
-x,1/2+y,1/2+z
x,1/2-y,1/2+z
loop_
_atom_site_type_symbol
_atom_site_label
_atom_site_fract_x
_atom_site_fract_y
_atom_site_fract_z
Si Si1 0.110096 0.180312 0.562340
Si Si2 0.783025 0.680588 0.467676
Si Si3 0.391687 0.319278 0.711581
Si Si4 0.389848 0.179047 0.422496
Si Si5 0.614182 0.829513 0.817033
Si Si6 0.886050 0.823733 0.756054
Si Si7 0.206274 0.321003 0.659515
Si Si8 0.108409 0.316938 0.367169
O O1 0.162504 0.252511 0.514915
O O2 0.159543 0.236445 0.613113
O O3 0.000000 0.224131 0.562664
O O4 0.115316 0.000000 0.559385
O O5 0.784317 0.500000 0.470011
O O6 0.677196 0.740260 0.462240
O O7 0.834455 0.730184 0.415998
O O8 0.500000 0.275734 0.700835
O O9 0.389874 0.500000 0.718739
O O10 0.360302 0.242972 0.763825
O O11 0.316000 0.281915 0.668908
O O12 0.500000 0.215837 0.429730
O O13 0.362112 0.236428 0.366728
O O14 0.378847 0.000000 0.425153
O O15 0.500000 0.834928 0.816225
O O16 0.650447 0.000000 0.821756
O O17 0.845641 0.726871 0.710835
O O18 0.855538 0.771670 0.811915
O O19 0.000000 0.817881 0.755760
O O20 0.859805 0.000000 0.749115
O O21 0.198503 0.500000 0.651893
O O22 0.108084 0.500000 0.366239
O O23 0.000000 0.267889 0.372233
#
# Coordination Sequence:
#
# PCOD9358897 Si02
#       8
#     8   8   8   8   8   8   8   8
#     4  11  25  45  66  87 114 153 198 244 298 363
#     4  11  22  37  62  92 118 150 197 251 302 351
#     4   9  19  36  55  79 116 157 194 235 291 355
#     4  10  21  37  56  81 120 165 203 242 291 349
#     4   9  17  30  51  80 113 152 199 245 286 335
#     4   9  18  34  55  80 114 153 187 226 286 359
#     4  11  23  37  58  87 114 148 197 249 298 347
#     4   8  16  32  54  82 115 149 184 226 287 357
#
# _framework density 19.061015000000001
#
# number of rings (size 3 to 8) (size 9 to 14) (size 15 to 20)
#    0.000    2.250    0.000    3.375    1.750    6.500 
#    0.000    1.250    0.000    3.750    0.000    0.000 
#    0.000    0.000    0.000    0.000    0.000    0.000 
#
# Total GULP energy -178724.982083 kJ/mol
# GULP energy per Si atom -5585.155690 kJ/mol
# Density = 1.901763 g / cm^3
# Si number density = 19.061015 Si / 1000 Ang^3
#
#
#
# Elastic Constant Matrix: (Units=GPa)
#
#
# Indices 1 2 3 4 5 6 
#
# 1 116.7030 51.8025 79.0046 0.0000 0.0000 0.0000
# 2 51.8025 52.0276 46.1898 0.0000 0.0000 0.0000
# 3 79.0046 46.1898 136.6036 0.0000 0.0000 0.0000
# 4 0.0000 0.0000 0.0000 32.8026 0.0000 0.0000
# 5 0.0000 0.0000 0.0000 0.0000 36.4000 0.0000
# 6 0.0000 0.0000 0.0000 0.0000 0.0000 23.8159
#
#
#
# Elastic Compliance Matrix: (Units=1/GPa)
#
#
# Indices 1 2 3 4 5 6 
#
# 1 0.018614 -0.012826 -0.006428 0.000000 0.000000 0.000000
# 2 -0.012826 0.036304 -0.004857 0.000000 0.000000 0.000000
# 3 -0.006428 -0.004857 0.012681 0.000000 0.000000 0.000000
# 4 0.000000 0.000000 0.000000 0.030485 0.000000 0.000000
# 5 0.000000 0.000000 0.000000 0.000000 0.027472 0.000000
# 6 0.000000 0.000000 0.000000 0.000000 0.000000 0.041989
#
#
# Mechanical properties :
#
#
# Convention : Reuss Voigt Hill
#
# Bulk Modulus (GPa) = 51.61466 73.25867 62.43667
# Shear Modulus (GPa) = 22.49948 27.15952 24.82950
#
# Velocity S-wave (km/s) = 3.43941 3.77884 3.61312
# Velocity P-wave (km/s) = 6.55059 7.58662 7.08756
#
# Compressibility (1/GPa) = 0.01937434
#
# Stress axis : x y z
#
# Youngs Moduli (GPa) = 53.72290 27.54540 78.85985
#
# Poissons Ratio (x) = 0.35331 0.50695
# Poissons Ratio (y) = 0.68907 0.38304
# Poissons Ratio (z) = 0.34535 0.13379
#
# Static dielectric constant tensor:
#      x y z
#    x 1.707840 0.000000 0.000000 
#    y 0.000000 1.638800 0.000000 
#    z 0.000000 0.000000 1.627650 
# 
# From -- ./inp_files/22914.got.cif
#   From: 2010.05.17/outbox.cif.g08.bks.cpg/sg38_12_cif.got.tgz:22914.got - 2010.06.03 18:07:57.
