data_PCOD9358153
_publ_section_title
;
Structure prediction by ZEFSAII (Michael W. Deem and Ramdas Pophale) SiO2 
 PCOD9358153
Probable space group: A M M 2
;
_chemical_formula_sum "Si O2"
_cell_formula_units_Z 40
_cell_length_a 15.874956
_cell_length_b 7.688041
_cell_length_c 14.790059
_cell_angle_alpha 90.000000
_cell_angle_beta 90.000000
_cell_angle_gamma 90.000000
_cell_volume 1805.086954
_symmetry_space_group_name_H-M "A M M 2"
_symmetry_group_IT_number 38
_symmetry_cell_setting 'orthorhombic'
loop_
_space_group_symop_operation_xyz
x,y,z
-x,-y,z
-x,y,z
x,-y,z
x,1/2+y,1/2+z
-x,1/2-y,1/2+z
-x,1/2+y,1/2+z
x,1/2-y,1/2+z
loop_
_atom_site_type_symbol
_atom_site_label
_atom_site_fract_x
_atom_site_fract_y
_atom_site_fract_z
Si Si1 0.909373 0.706682 0.979810
Si Si2 0.090837 0.298849 0.270676
Si Si3 0.727603 0.714400 0.287991
Si Si4 0.405636 0.294303 0.145346
Si Si5 0.272656 0.206460 0.995639
O O1 0.909709 0.500000 0.964674
O O2 0.907116 0.795262 0.880871
O O3 0.000000 0.753462 0.022474
O O4 0.822004 0.748852 0.028242
O O5 0.089569 0.500000 0.240054
O O6 0.182424 0.224528 0.247845
O O7 0.000000 0.219931 0.245240
O O8 0.730230 0.500000 0.287047
O O9 0.649667 0.775866 0.228433
O O10 0.720486 0.770207 0.392120
O O11 0.500000 0.222117 0.136258
O O12 0.413554 0.500000 0.161599
O O13 0.347127 0.273861 0.057847
O O14 0.279463 0.000000 0.993850
#
# Coordination Sequence:
#
# PCOD9358153 Si02
#       5
#     8   8   8   8   8
#     4   9  16  27  47  76 108 141 175 210 251 304
#     4   8  13  24  45  72 101 134 172 213 256 304
#     4   8  16  32  53  75 100 135 175 211 255 313
#     4  10  21  37  55  75 102 136 176 224 272 316
#     4  10  20  35  56  80 107 139 175 217 262 311
#
# _framework density 22.159597000000002
#
# number of rings (size 3 to 8) (size 9 to 14) (size 15 to 20)
#    0.000    3.000    0.000    2.400    0.000    2.400 
#    0.000    8.000    0.000    3.600    0.000    0.000 
#    0.000    0.000    0.000    0.000    0.000    0.000 
#
# Total GULP energy -111523.401037 kJ/mol
# GULP energy per Si atom -5576.170052 kJ/mol
# Density = 2.210916 g / cm^3
# Si number density = 22.159597 Si / 1000 Ang^3
#
#
#
# Elastic Constant Matrix: (Units=GPa)
#
#
# Indices 1 2 3 4 5 6 
#
# 1 267.6802 5.5865 74.4790 0.0000 0.0000 0.0000
# 2 5.5865 42.1610 -3.0246 0.0000 0.0000 0.0000
# 3 74.4790 -3.0246 88.6287 0.0000 0.0000 0.0000
# 4 0.0000 0.0000 0.0000 8.5180 0.0000 0.0000
# 5 0.0000 0.0000 0.0000 0.0000 60.9599 0.0000
# 6 0.0000 0.0000 0.0000 0.0000 0.0000 16.6722
#
#
#
# Elastic Compliance Matrix: (Units=1/GPa)
#
#
# Indices 1 2 3 4 5 6 
#
# 1 0.004913 -0.000950 -0.004161 0.000000 0.000000 0.000000
# 2 -0.000950 0.023960 0.001616 0.000000 0.000000 0.000000
# 3 -0.004161 0.001616 0.014835 0.000000 0.000000 0.000000
# 4 0.000000 0.000000 0.000000 0.117398 0.000000 0.000000
# 5 0.000000 0.000000 0.000000 0.000000 0.016404 0.000000
# 6 0.000000 0.000000 0.000000 0.000000 0.000000 0.059980
#
#
# Mechanical properties :
#
#
# Convention : Reuss Voigt Hill
#
# Bulk Modulus (GPa) = 27.23432 61.39462 44.31447
# Shear Modulus (GPa) = 19.47631 38.65861 29.06746
#
# Velocity S-wave (km/s) = 2.96786 4.18132 3.62571
# Velocity P-wave (km/s) = 4.90520 7.14682 6.12936
#
# Compressibility (1/GPa) = 0.03671837
#
# Stress axis : x y z
#
# Youngs Moduli (GPa) = 203.52091 41.73560 67.40702
#
# Poissons Ratio (x) = 0.03963 0.28051
# Poissons Ratio (y) = 0.19326 -0.10891
# Poissons Ratio (z) = 0.84694 -0.06743
#
# Static dielectric constant tensor:
#      x y z
#    x 1.816610 0.000000 0.000000 
#    y 0.000000 1.816100 0.000000 
#    z 0.000000 0.000000 1.828390 
# 
# From -- ./inp_files/14262.got.cif
#   From: 2010.05.17/outbox.cif.g08.bks.cpg/sg38_8_cif.got.tgz:14262.got - 2010.06.03 18:07:57.
