data_PCOD9358434
_publ_section_title
;
Structure prediction by ZEFSAII (Michael W. Deem and Ramdas Pophale) SiO2 
 PCOD9358434
Probable space group: A M M 2
;
_chemical_formula_sum "Si O2"
_cell_formula_units_Z 34
_cell_length_a 10.087107
_cell_length_b 7.322950
_cell_length_c 20.480062
_cell_angle_alpha 90.000000
_cell_angle_beta 90.000000
_cell_angle_gamma 90.000000
_cell_volume 1512.808526
_symmetry_space_group_name_H-M "A M M 2"
_symmetry_group_IT_number 38
_symmetry_cell_setting 'orthorhombic'
loop_
_space_group_symop_operation_xyz
x,y,z
-x,-y,z
-x,y,z
x,-y,z
x,1/2+y,1/2+z
-x,1/2-y,1/2+z
-x,1/2+y,1/2+z
x,1/2-y,1/2+z
loop_
_atom_site_type_symbol
_atom_site_label
_atom_site_fract_x
_atom_site_fract_y
_atom_site_fract_z
Si Si1 0.148144 0.778457 0.314320
Si Si2 0.853923 0.720694 0.590945
Si Si3 0.347602 0.277144 0.701820
Si Si4 0.500000 0.500000 0.466898
Si Si5 0.262537 0.709384 0.953724
O O1 0.262561 0.718707 0.264615
O O2 0.185901 0.731513 0.388270
O O3 0.000000 0.715701 0.297302
O O4 0.145460 0.000000 0.310408
O O5 0.851405 0.500000 0.591129
O O6 0.735355 0.780438 0.638272
O O7 0.829398 0.783177 0.517453
O O8 0.000000 0.776753 0.614472
O O9 0.500000 0.216570 0.702414
O O10 0.350521 0.500000 0.701660
O O11 0.384437 0.341754 0.466239
O O12 0.305974 0.500000 0.943365
#
# Coordination Sequence:
#
# PCOD9358434 Si02
#       5
#     8   8   8   2   8
#     4   9  18  35  60  93 128 169 220 268 317 382
#     4  10  20  36  61  93 130 175 221 269 323 382
#     4   9  18  31  55  89 130 175 221 264 318 382
#     4  12  26  44  62  98 140 164 212 270 328 390
#     4  11  24  41  68  96 128 172 215 266 327 387
#
# _framework density 22.474754000000001
#
# number of rings (size 3 to 8) (size 9 to 14) (size 15 to 20)
#    0.000    2.118    1.176    1.765    3.294    4.235 
#    0.000    0.000    2.588    0.000    0.000    0.000 
#    0.000    0.000    0.000    0.000    0.000    0.000 
#
# Total GULP energy -94798.207920 kJ/mol
# GULP energy per Si atom -5576.365172 kJ/mol
# Density = 2.242360 g / cm^3
# Si number density = 22.474754 Si / 1000 Ang^3
#
#
#
# Elastic Constant Matrix: (Units=GPa)
#
#
# Indices 1 2 3 4 5 6 
#
# 1 216.3470 23.1500 85.6385 0.0000 0.0000 0.0000
# 2 23.1500 109.9264 -7.0913 0.0000 0.0000 0.0000
# 3 85.6385 -7.0913 161.3679 0.0000 0.0000 0.0000
# 4 0.0000 0.0000 0.0000 5.8169 0.0000 0.0000
# 5 0.0000 0.0000 0.0000 0.0000 53.2774 0.0000
# 6 0.0000 0.0000 0.0000 0.0000 0.0000 17.6743
#
#
#
# Elastic Compliance Matrix: (Units=1/GPa)
#
#
# Indices 1 2 3 4 5 6 
#
# 1 0.006087 -0.001494 -0.003296 0.000000 0.000000 0.000000
# 2 -0.001494 0.009490 0.001210 0.000000 0.000000 0.000000
# 3 -0.003296 0.001210 0.007999 0.000000 0.000000 0.000000
# 4 0.000000 0.000000 0.000000 0.171913 0.000000 0.000000
# 5 0.000000 0.000000 0.000000 0.000000 0.018770 0.000000
# 6 0.000000 0.000000 0.000000 0.000000 0.000000 0.056579
#
#
# Mechanical properties :
#
#
# Convention : Reuss Voigt Hill
#
# Bulk Modulus (GPa) = 60.91842 76.78176 68.85009
# Shear Modulus (GPa) = 17.63855 41.08333 29.36094
#
# Velocity S-wave (km/s) = 2.80450 4.28012 3.61833
# Velocity P-wave (km/s) = 6.13604 7.65922 6.93955
#
# Compressibility (1/GPa) = 0.01641540
#
# Stress axis : x y z
#
# Youngs Moduli (GPa) = 164.29038 105.37642 125.00983
#
# Poissons Ratio (x) = 0.15748 0.41203
# Poissons Ratio (y) = 0.24553 -0.15128
# Poissons Ratio (z) = 0.54149 -0.12752
#
# Static dielectric constant tensor:
#      x y z
#    x 1.771770 0.000000 0.000000 
#    y 0.000000 1.858390 0.000000 
#    z 0.000000 0.000000 1.799130 
# 
# From -- ./inp_files/19242.got.cif
#   From: 2010.05.17/outbox.cif.g08.bks.cpg/sg38_10_cif.got.tgz:19242.got - 2010.06.03 18:07:57.
