data_PCOD9358105
_publ_section_title
;
Structure prediction by ZEFSAII (Michael W. Deem and Ramdas Pophale) SiO2 
 PCOD9358105
Probable space group: A M M 2
;
_chemical_formula_sum "Si O2"
_cell_formula_units_Z 40
_cell_length_a 7.784517
_cell_length_b 30.757994
_cell_length_c 7.539747
_cell_angle_alpha 90.000000
_cell_angle_beta 90.000000
_cell_angle_gamma 90.000000
_cell_volume 1805.287822
_symmetry_space_group_name_H-M "A M M 2"
_symmetry_group_IT_number 38
_symmetry_cell_setting 'orthorhombic'
loop_
_space_group_symop_operation_xyz
x,y,z
-x,-y,z
-x,y,z
x,-y,z
x,1/2+y,1/2+z
-x,1/2-y,1/2+z
-x,1/2+y,1/2+z
x,1/2-y,1/2+z
loop_
_atom_site_type_symbol
_atom_site_label
_atom_site_fract_x
_atom_site_fract_y
_atom_site_fract_z
Si Si1 0.290288 0.893243 0.486160
Si Si2 0.691603 0.698810 0.068407
Si Si3 0.807450 0.209110 0.189426
Si Si4 0.710133 0.548953 0.298941
Si Si5 0.707553 0.878887 0.080372
O O1 0.500000 0.891450 0.484344
O O2 0.234472 0.849430 0.590196
O O3 0.239444 0.934260 0.603629
O O4 0.236035 0.891520 0.281205
O O5 0.500000 0.700612 0.146296
O O6 0.789525 0.741817 0.125310
O O7 0.683448 0.702208 0.854846
O O8 0.767974 0.170834 0.049987
O O9 0.000000 0.202270 0.255319
O O10 0.500000 0.548652 0.304001
O O11 0.768229 0.500000 0.335486
O O12 0.766488 0.584881 0.441837
O O13 0.500000 0.878318 0.075847
#
# Coordination Sequence:
#
# PCOD9358105 Si02
#       5
#     8   8   8   8   8
#     4   8  16  30  47  72 104 138 178 223 270 325
#     4  10  20  35  54  77 107 149 191 227 276 344
#     4  11  22  35  52  80 112 144 185 235 284 333
#     4   9  17  29  50  81 109 136 179 235 287 331
#     4   9  18  33  52  75 107 146 184 223 277 342
#
# _framework density 22.157131
#
# number of rings (size 3 to 8) (size 9 to 14) (size 15 to 20)
#    0.000    2.600    0.000    3.600    2.800    0.800 
#    0.000    4.000    0.000    0.600    0.000    0.000 
#    0.000    0.000    0.000    0.000    0.000    0.000 
#
# Total GULP energy -111589.484407 kJ/mol
# GULP energy per Si atom -5579.474220 kJ/mol
# Density = 2.210670 g / cm^3
# Si number density = 22.157131 Si / 1000 Ang^3
#
#
#
# Elastic Constant Matrix: (Units=GPa)
#
#
# Indices 1 2 3 4 5 6 
#
# 1 53.2752 5.8084 -0.7665 0.0000 0.0000 0.0000
# 2 5.8084 114.4493 21.6301 0.0000 0.0000 0.0000
# 3 -0.7665 21.6301 43.2142 0.0000 0.0000 0.0000
# 4 0.0000 0.0000 0.0000 37.6990 0.0000 0.0000
# 5 0.0000 0.0000 0.0000 0.0000 -0.6220 0.0000
# 6 0.0000 0.0000 0.0000 0.0000 0.0000 -14.6970
#
#
#
# Elastic Compliance Matrix: (Units=1/GPa)
#
#
# Indices 1 2 3 4 5 6 
#
# 1 0.018907 -0.001130 0.000901 0.000000 0.000000 0.000000
# 2 -0.001130 0.009718 -0.004884 0.000000 0.000000 0.000000
# 3 0.000901 -0.004884 0.025601 0.000000 0.000000 0.000000
# 4 0.000000 0.000000 0.000000 0.026526 0.000000 0.000000
# 5 0.000000 0.000000 0.000000 0.000000 -1.607763 0.000000
# 6 0.000000 0.000000 0.000000 0.000000 0.000000 -0.068041
#
#
# Mechanical properties :
#
#
# Convention : Reuss Voigt Hill
#
# Bulk Modulus (GPa) = 22.72752 29.36473 26.04613
# Shear Modulus (GPa) = -3.18439 16.76045 6.78803
#
# Velocity S-wave (km/s) = -1.20013 2.75332 1.75221
# Velocity P-wave (km/s) = 2.89124 4.83626 3.98426
#
# Compressibility (1/GPa) = 0.04399952
#
# Stress axis : x y z
#
# Youngs Moduli (GPa) = 52.89157 102.90284 39.06064
#
# Poissons Ratio (x) = 0.11626 -0.03519
# Poissons Ratio (y) = 0.05976 0.19078
# Poissons Ratio (z) = -0.04765 0.50259
#
# Static dielectric constant tensor:
#      x y z
#    x 1.805430 0.000000 0.000000 
#    y 0.000000 1.835290 0.000000 
#    z 0.000000 0.000000 1.820040 
# 
# From -- ./inp_files/3295.got.cif
#   From: 2010.05.17/outbox.cif.g08.bks.cpg/sg38_2_cif.got.tgz:3295.got - 2010.06.03 18:07:57.
