data_PCOD9358010
_publ_section_title
;
Structure prediction by ZEFSAII (Michael W. Deem and Ramdas Pophale) SiO2 
 PCOD9358010
Probable space group: A M M 2
;
_chemical_formula_sum "Si O2"
_cell_formula_units_Z 64
_cell_length_a 24.310720
_cell_length_b 8.701497
_cell_length_c 15.937912
_cell_angle_alpha 90.000000
_cell_angle_beta 90.000000
_cell_angle_gamma 90.000000
_cell_volume 3371.500440
_symmetry_space_group_name_H-M "A M M 2"
_symmetry_group_IT_number 38
_symmetry_cell_setting 'orthorhombic'
loop_
_space_group_symop_operation_xyz
x,y,z
-x,-y,z
-x,y,z
x,-y,z
x,1/2+y,1/2+z
-x,1/2-y,1/2+z
-x,1/2+y,1/2+z
x,1/2-y,1/2+z
loop_
_atom_site_type_symbol
_atom_site_label
_atom_site_fract_x
_atom_site_fract_y
_atom_site_fract_z
Si Si1 0.129068 0.315234 0.803040
Si Si2 0.064776 0.316061 0.143722
Si Si3 0.323351 0.314733 0.970773
Si Si4 0.256218 0.312902 0.806512
Si Si5 0.438536 0.183845 0.708462
Si Si6 0.561115 0.185023 0.396289
Si Si7 0.673519 0.683545 0.646192
Si Si8 0.064822 0.183889 0.962408
O O1 0.126967 0.500000 0.802717
O O2 0.099062 0.252743 0.720231
O O3 0.192858 0.265731 0.803708
O O4 0.098881 0.253698 0.885946
O O5 0.069967 0.500000 0.142999
O O6 0.000000 0.277863 0.155436
O O7 0.081715 0.249815 0.053111
O O8 0.321216 0.500000 0.976325
O O9 0.386776 0.270377 0.951940
O O10 0.304504 0.244289 0.058026
O O11 0.286945 0.264741 0.891488
O O12 0.257414 0.500000 0.806054
O O13 0.290265 0.261309 0.725112
O O14 0.500000 0.228853 0.679493
O O15 0.388456 0.257021 0.658661
O O16 0.434546 0.000000 0.703971
O O17 0.433701 0.238268 0.805034
O O18 0.500000 0.221155 0.430015
O O19 0.564077 0.000000 0.384669
O O20 0.673451 0.500000 0.646805
O O21 0.000000 0.221477 0.950927
O O22 0.070278 0.000000 0.962734
#
# Coordination Sequence:
#
# PCOD9358010 Si02
#       8
#     8   8   8   8   8   8   8   8
#     4  11  22  37  60  87 118 156 197 242 290 344
#     4  10  21  38  60  88 122 157 195 240 288 340
#     4  10  20  38  59  81 112 149 187 232 284 340
#     4   9  21  41  59  79 114 154 193 237 285 335
#     4  10  20  34  55  84 115 144 180 229 283 340
#     4   9  17  32  57  83 109 145 182 222 280 343
#     4  11  22  39  60  83 111 147 190 235 283 339
#     4  10  21  38  60  88 122 156 192 237 289 346
#
# _framework density 18.982645999999999
#
# number of rings (size 3 to 8) (size 9 to 14) (size 15 to 20)
#    0.000    2.000    1.250    2.250    0.000    5.750 
#    0.000    7.500    0.000    0.000    0.000    0.000 
#    0.000    0.000    0.000    0.000    0.000    0.000 
#
# Total GULP energy -178731.157641 kJ/mol
# GULP energy per Si atom -5585.348676 kJ/mol
# Density = 1.893944 g / cm^3
# Si number density = 18.982646 Si / 1000 Ang^3
#
#
#
# Elastic Constant Matrix: (Units=GPa)
#
#
# Indices 1 2 3 4 5 6 
#
# 1 122.5840 40.7133 101.1112 0.0000 0.0000 0.0000
# 2 40.7133 33.2717 43.6069 0.0000 0.0000 0.0000
# 3 101.1112 43.6069 182.7790 0.0000 0.0000 0.0000
# 4 0.0000 0.0000 0.0000 35.1589 0.0000 0.0000
# 5 0.0000 0.0000 0.0000 0.0000 -4.7108 0.0000
# 6 0.0000 0.0000 0.0000 0.0000 0.0000 19.5628
#
#
#
# Elastic Compliance Matrix: (Units=1/GPa)
#
#
# Indices 1 2 3 4 5 6 
#
# 1 0.018310 -0.013284 -0.006960 0.000000 0.000000 0.000000
# 2 -0.013284 0.053366 -0.005384 0.000000 0.000000 0.000000
# 3 -0.006960 -0.005384 0.010606 0.000000 0.000000 0.000000
# 4 0.000000 0.000000 0.000000 0.028442 0.000000 0.000000
# 5 0.000000 0.000000 0.000000 0.000000 -0.212277 0.000000
# 6 0.000000 0.000000 0.000000 0.000000 0.000000 0.051117
#
#
# Mechanical properties :
#
#
# Convention : Reuss Voigt Hill
#
# Bulk Modulus (GPa) = 32.22918 78.83304 55.53111
# Shear Modulus (GPa) = 447.98276 20.21573 234.09925
#
# Velocity S-wave (km/s) = 15.37883 3.26691 11.11713
# Velocity P-wave (km/s) = 18.23073 7.47325 13.93214
#
# Compressibility (1/GPa) = 0.03102779
#
# Stress axis : x y z
#
# Youngs Moduli (GPa) = 54.61434 18.73845 94.29029
#
# Poissons Ratio (x) = 0.24892 0.65624
# Poissons Ratio (y) = 0.72549 0.50761
# Poissons Ratio (z) = 0.38010 0.10088
#
# Static dielectric constant tensor:
#      x y z
#    x 1.656050 0.000000 0.000000 
#    y 0.000000 1.640370 0.000000 
#    z 0.000000 0.000000 1.639160 
# 
# From -- ./inp_files/15854.got.cif
#   From: 2010.05.17/outbox.cif.g08.bks.cpg/sg38_8_cif.got.tgz:15854.got - 2010.06.03 18:07:57.
