data_PCOD9358424
_publ_section_title
;
Structure prediction by ZEFSAII (Michael W. Deem and Ramdas Pophale) SiO2 
 PCOD9358424
Probable space group: A M M 2
;
_chemical_formula_sum "Si O2"
_cell_formula_units_Z 58
_cell_length_a 7.471391
_cell_length_b 20.137440
_cell_length_c 15.966207
_cell_angle_alpha 90.000000
_cell_angle_beta 90.000000
_cell_angle_gamma 90.000000
_cell_volume 2402.190692
_symmetry_space_group_name_H-M "A M M 2"
_symmetry_group_IT_number 38
_symmetry_cell_setting 'orthorhombic'
loop_
_space_group_symop_operation_xyz
x,y,z
-x,-y,z
-x,y,z
x,-y,z
x,1/2+y,1/2+z
-x,1/2-y,1/2+z
-x,1/2+y,1/2+z
x,1/2-y,1/2+z
loop_
_atom_site_type_symbol
_atom_site_label
_atom_site_fract_x
_atom_site_fract_y
_atom_site_fract_z
Si Si1 0.795074 0.610139 0.373600
Si Si2 0.285468 0.282163 0.623348
Si Si3 0.710731 0.102881 0.369250
Si Si4 0.215587 0.073645 0.057285
Si Si5 0.783765 0.425592 0.190861
Si Si6 0.295447 0.840191 0.534122
Si Si7 0.711153 0.747697 0.306102
Si Si8 0.000000 0.500000 0.810760
O O1 0.717419 0.587526 0.462269
O O2 0.717718 0.584419 0.285827
O O3 0.793187 0.689392 0.361211
O O4 0.000000 0.586047 0.375186
O O5 0.500000 0.273670 0.625141
O O6 0.257117 0.360291 0.609880
O O7 0.216611 0.233221 0.549920
O O8 0.215673 0.254831 0.711857
O O9 0.500000 0.083442 0.362170
O O10 0.775575 0.107375 0.466347
O O11 0.728563 0.179382 0.343098
O O12 0.842131 0.057267 0.317062
O O13 0.000000 0.071185 0.055864
O O14 0.276436 0.000000 0.085610
O O15 0.741722 0.500000 0.163670
O O16 0.707992 0.374473 0.124400
O O17 0.000000 0.417302 0.191481
O O18 0.500000 0.829964 0.505615
O O19 0.500000 0.732028 0.301944
#
# Coordination Sequence:
#
# PCOD9358424 Si02
#       8
#     8   8   8   8   8   8   8   2
#     4  10  20  36  61  89 121 161 205 254 308 377
#     4  10  21  40  64  90 121 161 205 253 313 378
#     4  10  24  43  63  92 128 166 209 270 323 369
#     4  10  22  40  60  88 126 163 200 253 317 372
#     4  10  21  34  54  86 124 162 204 254 305 370
#     4  10  21  38  59  86 123 162 203 253 314 371
#     4  10  21  41  64  88 121 158 203 261 319 368
#     4  12  26  44  68  90 120 168 222 264 312 410
#
# _framework density 24.144625999999999
#
# number of rings (size 3 to 8) (size 9 to 14) (size 15 to 20)
#    0.000    1.931    1.379    1.448    2.897    4.966 
#    1.241    0.000    0.000    2.483    0.000    0.000 
#    0.000    0.000    0.000    0.000    0.000    0.000 
#
# Total GULP energy -161755.608769 kJ/mol
# GULP energy per Si atom -5577.779613 kJ/mol
# Density = 2.408967 g / cm^3
# Si number density = 24.144626 Si / 1000 Ang^3
#
#
#
# Elastic Constant Matrix: (Units=GPa)
#
#
# Indices 1 2 3 4 5 6 
#
# 1 91.0795 14.9091 -6.5227 0.0000 0.0000 0.0000
# 2 14.9091 130.3220 -10.7050 0.0000 0.0000 0.0000
# 3 -6.5227 -10.7050 22.4625 0.0000 0.0000 0.0000
# 4 0.0000 0.0000 0.0000 11.2212 0.0000 0.0000
# 5 0.0000 0.0000 0.0000 0.0000 10.5137 0.0000
# 6 0.0000 0.0000 0.0000 0.0000 0.0000 17.3122
#
#
#
# Elastic Compliance Matrix: (Units=1/GPa)
#
#
# Indices 1 2 3 4 5 6 
#
# 1 0.011354 -0.001070 0.002787 0.000000 0.000000 0.000000
# 2 -0.001070 0.008087 0.003543 0.000000 0.000000 0.000000
# 3 0.002787 0.003543 0.047017 0.000000 0.000000 0.000000
# 4 0.000000 0.000000 0.000000 0.089117 0.000000 0.000000
# 5 0.000000 0.000000 0.000000 0.000000 0.095114 0.000000
# 6 0.000000 0.000000 0.000000 0.000000 0.000000 0.057763
#
#
# Mechanical properties :
#
#
# Convention : Reuss Voigt Hill
#
# Bulk Modulus (GPa) = 12.99069 26.58075 19.78572
# Shear Modulus (GPa) = 15.45166 24.22159 19.83663
#
# Velocity S-wave (km/s) = 2.53249 3.17075 2.86942
# Velocity P-wave (km/s) = 3.73409 4.94345 4.38070
#
# Compressibility (1/GPa) = 0.07697819
#
# Stress axis : x y z
#
# Youngs Moduli (GPa) = 88.07333 123.65889 21.26910
#
# Poissons Ratio (x) = 0.13232 -0.05928
# Poissons Ratio (y) = 0.09424 -0.07536
# Poissons Ratio (z) = -0.24547 -0.43815
#
# Static dielectric constant tensor:
#      x y z
#    x 1.918690 0.000000 0.000000 
#    y 0.000000 1.909050 0.000000 
#    z 0.000000 0.000000 2.007000 
# 
# From -- ./inp_files/16977.got.cif
#   From: 2010.05.17/outbox.cif.g08.bks.cpg/sg38_9_cif.got.tgz:16977.got - 2010.06.03 18:07:57.
