data_PCOD9358304
_publ_section_title
;
Structure prediction by ZEFSAII (Michael W. Deem and Ramdas Pophale) SiO2 
 PCOD9358304
Probable space group: A M M 2
;
_chemical_formula_sum "Si O2"
_cell_formula_units_Z 58
_cell_length_a 24.474077
_cell_length_b 7.876051
_cell_length_c 15.206474
_cell_angle_alpha 90.000000
_cell_angle_beta 90.000000
_cell_angle_gamma 90.000000
_cell_volume 2931.185917
_symmetry_space_group_name_H-M "A M M 2"
_symmetry_group_IT_number 38
_symmetry_cell_setting 'orthorhombic'
loop_
_space_group_symop_operation_xyz
x,y,z
-x,-y,z
-x,y,z
x,-y,z
x,1/2+y,1/2+z
-x,1/2-y,1/2+z
-x,1/2+y,1/2+z
x,1/2-y,1/2+z
loop_
_atom_site_type_symbol
_atom_site_label
_atom_site_fract_x
_atom_site_fract_y
_atom_site_fract_z
Si Si1 0.558540 0.687252 0.463420
Si Si2 0.136217 0.706936 0.460114
Si Si3 0.500000 0.500000 0.036615
Si Si4 0.660170 0.306501 0.855562
Si Si5 0.849749 0.295878 0.261947
Si Si6 0.268497 0.299441 0.193750
Si Si7 0.061667 0.705116 0.615780
Si Si8 0.258334 0.197408 0.001734
O O1 0.500000 0.686427 0.413083
O O2 0.564459 0.500000 0.505578
O O3 0.608190 0.714759 0.397744
O O4 0.547596 0.847451 0.527285
O O5 0.133716 0.500000 0.459216
O O6 0.135593 0.766626 0.359629
O O7 0.088284 0.766194 0.524175
O O8 0.195143 0.753118 0.500499
O O9 0.644789 0.500000 0.838548
O O10 0.686116 0.230909 0.767520
O O11 0.706689 0.296360 0.930460
O O12 0.845387 0.500000 0.267540
O O13 0.790147 0.233810 0.230231
O O14 0.896656 0.252311 0.192924
O O15 0.263155 0.500000 0.178108
O O16 0.280440 0.216010 0.100041
O O17 0.059763 0.500000 0.612569
O O18 0.000000 0.767755 0.629136
O O19 0.259875 0.000000 0.974305
#
# Coordination Sequence:
#
# PCOD9358304 Si02
#       8
#     8   8   2   8   8   8   8   8
#     4   9  17  32  55  84 118 159 202 250 294 346
#     4   9  18  35  56  78 105 141 182 225 281 346
#     4   8  14  32  52  86 116 156 210 242 298 350
#     4  12  22  36  58  87 119 156 199 244 296 353
#     4  10  20  36  57  80 107 140 182 230 283 342
#     4  11  22  36  54  85 117 149 190 239 293 354
#     4  10  21  37  57  79 106 141 183 229 279 343
#     4  11  21  36  56  83 115 151 189 238 295 353
#
# _framework density 19.787213000000001
#
# number of rings (size 3 to 8) (size 9 to 14) (size 15 to 20)
#    0.414    1.379    3.448    2.069    0.000    1.379 
#    0.000    2.069    0.000    0.828    0.000    0.000 
#    0.000    0.000    0.000    0.000    0.000    0.000 
#
# Total GULP energy -161480.981733 kJ/mol
# GULP energy per Si atom -5568.309715 kJ/mol
# Density = 1.974218 g / cm^3
# Si number density = 19.787213 Si / 1000 Ang^3
#
#
#
# Elastic Constant Matrix: (Units=GPa)
#
#
# Indices 1 2 3 4 5 6 
#
# 1 29.7224 1.0583 -26.4089 0.0000 0.0000 0.0000
# 2 1.0583 71.3036 -6.3369 0.0000 0.0000 0.0000
# 3 -26.4089 -6.3369 60.0222 0.0000 0.0000 0.0000
# 4 0.0000 0.0000 0.0000 20.6981 0.0000 0.0000
# 5 0.0000 0.0000 0.0000 0.0000 -16.8518 0.0000
# 6 0.0000 0.0000 0.0000 0.0000 0.0000 23.1036
#
#
#
# Elastic Compliance Matrix: (Units=1/GPa)
#
#
# Indices 1 2 3 4 5 6 
#
# 1 0.055370 0.001356 0.024505 0.000000 0.000000 0.000000
# 2 0.001356 0.014191 0.002095 0.000000 0.000000 0.000000
# 3 0.024505 0.002095 0.027664 0.000000 0.000000 0.000000
# 4 0.000000 0.000000 0.000000 0.048314 0.000000 0.000000
# 5 0.000000 0.000000 0.000000 0.000000 -0.059341 0.000000
# 6 0.000000 0.000000 0.000000 0.000000 0.000000 0.043283
#
#
# Mechanical properties :
#
#
# Convention : Reuss Voigt Hill
#
# Bulk Modulus (GPa) = 6.53017 10.85258 8.69137
# Shear Modulus (GPa) = 40.12416 18.23903 29.18159
#
# Velocity S-wave (km/s) = 4.50798 3.03934 3.84444
# Velocity P-wave (km/s) = 5.51391 4.22059 4.91002
#
# Compressibility (1/GPa) = 0.15313546
#
# Stress axis : x y z
#
# Youngs Moduli (GPa) = 18.06042 70.46932 36.14865
#
# Poissons Ratio (x) = -0.09555 -0.88582
# Poissons Ratio (y) = -0.02449 -0.07572
# Poissons Ratio (z) = -0.44257 -0.14762
#
# Static dielectric constant tensor:
#      x y z
#    x 1.704960 0.000000 0.000000 
#    y 0.000000 1.740140 0.000000 
#    z 0.000000 0.000000 1.671940 
# 
# From -- ./inp_files/15665.got.cif
#   From: 2010.05.17/outbox.cif.g08.bks.cpg/sg38_8_cif.got.tgz:15665.got - 2010.06.03 18:07:57.
