data_PCOD9358270
_publ_section_title
;
Structure prediction by ZEFSAII (Michael W. Deem and Ramdas Pophale) SiO2 
 PCOD9358270
Probable space group: A M M 2
;
_chemical_formula_sum "Si O2"
_cell_formula_units_Z 64
_cell_length_a 8.496669
_cell_length_b 31.687995
_cell_length_c 12.321250
_cell_angle_alpha 90.000000
_cell_angle_beta 90.000000
_cell_angle_gamma 90.000000
_cell_volume 3317.402980
_symmetry_space_group_name_H-M "A M M 2"
_symmetry_group_IT_number 38
_symmetry_cell_setting 'orthorhombic'
loop_
_space_group_symop_operation_xyz
x,y,z
-x,-y,z
-x,y,z
x,-y,z
x,1/2+y,1/2+z
-x,1/2-y,1/2+z
-x,1/2+y,1/2+z
x,1/2-y,1/2+z
loop_
_atom_site_type_symbol
_atom_site_label
_atom_site_fract_x
_atom_site_fract_y
_atom_site_fract_z
Si Si1 0.311396 0.330297 0.498850
Si Si2 0.687563 0.201466 0.762653
Si Si3 0.690566 0.453228 0.253077
Si Si4 0.188157 0.373949 0.116144
Si Si5 0.309397 0.546627 0.732181
Si Si6 0.310927 0.430257 0.492954
Si Si7 0.813193 0.294338 0.721153
Si Si8 0.190249 0.373360 0.866497
O O1 0.500000 0.324202 0.511846
O O2 0.261285 0.310783 0.384366
O O3 0.282183 0.380278 0.495307
O O4 0.224997 0.310089 0.600453
O O5 0.500000 0.196395 0.758108
O O6 0.759657 0.168289 0.678310
O O7 0.733428 0.249412 0.739775
O O8 0.500000 0.450974 0.254227
O O9 0.735976 0.500000 0.213707
O O10 0.750292 0.414793 0.180609
O O11 0.746655 0.447903 0.377989
O O12 0.000000 0.375486 0.115238
O O13 0.244105 0.373729 0.991312
O O14 0.500000 0.549166 0.731667
O O15 0.264734 0.500000 0.772954
O O16 0.253844 0.551173 0.607005
O O17 0.246838 0.585252 0.802766
O O18 0.500000 0.437129 0.492321
O O19 0.757030 0.331099 0.803310
O O20 0.000000 0.289387 0.735127
O O21 0.000000 0.373231 0.865204
#
# Coordination Sequence:
#
# PCOD9358270 Si02
#       8
#     8   8   8   8   8   8   8   8
#     4  10  20  38  64  91 120 155 195 242 296 355
#     4  11  24  42  64  92 121 153 199 246 298 355
#     4  10  20  37  62  90 120 156 198 244 296 354
#     4  11  24  42  61  84 119 160 202 246 298 353
#     4  10  20  35  60  91 118 150 195 244 293 348
#     4   9  16  33  59  88 121 151 186 237 296 350
#     4  11  24  41  62  89 121 156 199 245 298 355
#     4  10  24  43  59  81 117 161 200 240 292 351
#
# _framework density 19.292200000000001
#
# number of rings (size 3 to 8) (size 9 to 14) (size 15 to 20)
#    0.000    1.750    2.500    1.500    1.750    5.000 
#    0.000    3.125    0.000    1.500    0.000    0.000 
#    0.000    0.000    0.000    0.000    0.000    0.000 
#
# Total GULP energy -178750.125224 kJ/mol
# GULP energy per Si atom -5585.941413 kJ/mol
# Density = 1.924829 g / cm^3
# Si number density = 19.292200 Si / 1000 Ang^3
#
#
#
# Elastic Constant Matrix: (Units=GPa)
#
#
# Indices 1 2 3 4 5 6 
#
# 1 13.6628 21.0883 20.8007 0.0000 0.0000 0.0000
# 2 21.0883 138.5773 88.2472 0.0000 0.0000 0.0000
# 3 20.8007 88.2472 155.8756 0.0000 0.0000 0.0000
# 4 0.0000 0.0000 0.0000 54.7851 0.0000 0.0000
# 5 0.0000 0.0000 0.0000 0.0000 19.1126 0.0000
# 6 0.0000 0.0000 0.0000 0.0000 0.0000 30.2962
#
#
#
# Elastic Compliance Matrix: (Units=1/GPa)
#
#
# Indices 1 2 3 4 5 6 
#
# 1 0.100924 -0.010606 -0.007463 0.000000 0.000000 0.000000
# 2 -0.010606 0.012399 -0.005604 0.000000 0.000000 0.000000
# 3 -0.007463 -0.005604 0.010584 0.000000 0.000000 0.000000
# 4 0.000000 0.000000 0.000000 0.018253 0.000000 0.000000
# 5 0.000000 0.000000 0.000000 0.000000 0.052321 0.000000
# 6 0.000000 0.000000 0.000000 0.000000 0.000000 0.033007
#
#
# Mechanical properties :
#
#
# Convention : Reuss Voigt Hill
#
# Bulk Modulus (GPa) = 13.06161 63.15425 38.10793
# Shear Modulus (GPa) = 16.64695 32.70409 24.67552
#
# Velocity S-wave (km/s) = 2.94068 4.12174 3.58025
# Velocity P-wave (km/s) = 4.27963 7.44704 6.07345
#
# Compressibility (1/GPa) = 0.07656024
#
# Stress axis : x y z
#
# Youngs Moduli (GPa) = 9.90848 80.65186 94.48103
#
# Poissons Ratio (x) = 0.85535 0.70516
# Poissons Ratio (y) = 0.10508 0.52950
# Poissons Ratio (z) = 0.07395 0.45200
#
# Static dielectric constant tensor:
#      x y z
#    x 1.667340 0.000000 0.000000 
#    y 0.000000 1.645900 0.000000 
#    z 0.000000 0.000000 1.664200 
# 
# From -- ./inp_files/8554.got.cif
#   From: 2010.05.17/outbox.cif.g08.bks.cpg/sg38_5_cif.got.tgz:8554.got - 2010.06.03 18:07:57.
