data_PCOD9358746
_publ_section_title
;
Structure prediction by ZEFSAII (Michael W. Deem and Ramdas Pophale) SiO2 
 PCOD9358746
Probable space group: A M M 2
;
_chemical_formula_sum "Si O2"
_cell_formula_units_Z 48
_cell_length_a 19.420541
_cell_length_b 7.968690
_cell_length_c 15.869303
_cell_angle_alpha 90.000000
_cell_angle_beta 90.000000
_cell_angle_gamma 90.000000
_cell_volume 2455.874153
_symmetry_space_group_name_H-M "A M M 2"
_symmetry_group_IT_number 38
_symmetry_cell_setting 'orthorhombic'
loop_
_space_group_symop_operation_xyz
x,y,z
-x,-y,z
-x,y,z
x,-y,z
x,1/2+y,1/2+z
-x,1/2-y,1/2+z
-x,1/2+y,1/2+z
x,1/2-y,1/2+z
loop_
_atom_site_type_symbol
_atom_site_label
_atom_site_fract_x
_atom_site_fract_y
_atom_site_fract_z
Si Si1 0.421274 0.297344 0.390800
Si Si2 0.420907 0.704970 0.582061
Si Si3 0.168903 0.798606 0.739467
Si Si4 0.672848 0.699149 0.734916
Si Si5 0.078811 0.702298 0.083777
Si Si6 0.078794 0.702325 0.395138
O O1 0.500000 0.241967 0.372977
O O2 0.421268 0.500000 0.390650
O O3 0.403473 0.243181 0.486342
O O4 0.369372 0.238820 0.319447
O O5 0.500000 0.755286 0.599701
O O6 0.420156 0.500000 0.582878
O O7 0.369397 0.766501 0.654033
O O8 0.249420 0.762141 0.739127
O O9 0.129741 0.734773 0.656128
O O10 0.129761 0.734800 0.822816
O O11 0.161142 0.000000 0.739613
O O12 0.675920 0.500000 0.725608
O O13 0.077207 0.500000 0.088036
O O14 0.000000 0.762080 0.096947
O O15 0.100270 0.750207 0.989484
O O16 0.077176 0.500000 0.390831
O O17 0.000000 0.762211 0.382006
#
# Coordination Sequence:
#
# PCOD9358746 Si02
#       6
#     8   8   8   8   8   8
#     4   9  18  35  58  79 100 132 173 211 251 305
#     4   8  16  33  55  75  97 130 169 206 248 300
#     4  10  21  36  52  72 104 142 174 205 250 311
#     4  11  22  34  51  77 108 138 170 211 257 301
#     4   9  18  34  56  79 102 131 169 215 263 305
#     4   9  18  34  56  78  99 130 173 215 255 305
#
# _framework density 19.544975000000001
#
# number of rings (size 3 to 8) (size 9 to 14) (size 15 to 20)
#    0.000    2.667    0.000    2.500    0.000    5.667 
#    0.000    6.667    0.000    7.000    0.000    0.000 
#    0.000    0.000    0.000    0.000    0.000    0.000 
#
# Total GULP energy -133925.787517 kJ/mol
# GULP energy per Si atom -5580.241147 kJ/mol
# Density = 1.950049 g / cm^3
# Si number density = 19.544975 Si / 1000 Ang^3
#
#
#
# Elastic Constant Matrix: (Units=GPa)
#
#
# Indices 1 2 3 4 5 6 
#
# 1 143.3266 5.2979 141.1786 0.0000 0.0000 0.0000
# 2 5.2979 14.6380 8.7045 0.0000 0.0000 0.0000
# 3 141.1786 8.7045 197.2334 0.0000 0.0000 0.0000
# 4 0.0000 0.0000 0.0000 25.1280 0.0000 0.0000
# 5 0.0000 0.0000 0.0000 0.0000 -8.1190 0.0000
# 6 0.0000 0.0000 0.0000 0.0000 0.0000 14.6059
#
#
#
# Elastic Compliance Matrix: (Units=1/GPa)
#
#
# Indices 1 2 3 4 5 6 
#
# 1 0.023691 0.001550 -0.017026 0.000000 0.000000 0.000000
# 2 0.001550 0.070258 -0.004210 0.000000 0.000000 0.000000
# 3 -0.017026 -0.004210 0.017443 0.000000 0.000000 0.000000
# 4 0.000000 0.000000 0.000000 0.039796 0.000000 0.000000
# 5 0.000000 0.000000 0.000000 0.000000 -0.123168 0.000000
# 6 0.000000 0.000000 0.000000 0.000000 0.000000 0.068466
#
#
# Mechanical properties :
#
#
# Convention : Reuss Voigt Hill
#
# Bulk Modulus (GPa) = 13.88515 73.95112 43.91814
# Shear Modulus (GPa) = 31.27648 19.65744 25.46696
#
# Velocity S-wave (km/s) = 4.00463 3.17480 3.61361
# Velocity P-wave (km/s) = 5.33876 7.16643 6.31902
#
# Compressibility (1/GPa) = 0.07201936
#
# Stress axis : x y z
#
# Youngs Moduli (GPa) = 42.21064 14.23328 57.32911
#
# Poissons Ratio (x) = -0.02207 0.97609
# Poissons Ratio (y) = -0.06544 0.24138
# Poissons Ratio (z) = 0.71868 0.05993
#
# Static dielectric constant tensor:
#      x y z
#    x 1.661680 0.000000 0.000000 
#    y 0.000000 1.709150 0.000000 
#    z 0.000000 0.000000 1.679990 
# 
# From -- ./inp_files/14956.got.cif
#   From: 2010.05.17/outbox.cif.g08.bks.cpg/sg38_8_cif.got.tgz:14956.got - 2010.06.03 18:07:57.
