data_PCOD9358314
_publ_section_title
;
Structure prediction by ZEFSAII (Michael W. Deem and Ramdas Pophale) SiO2 
 PCOD9358314
Probable space group: A M M 2
;
_chemical_formula_sum "Si O2"
_cell_formula_units_Z 26
_cell_length_a 7.292464
_cell_length_b 27.233219
_cell_length_c 4.898398
_cell_angle_alpha 90.000000
_cell_angle_beta 90.000000
_cell_angle_gamma 90.000000
_cell_volume 972.808466
_symmetry_space_group_name_H-M "A M M 2"
_symmetry_group_IT_number 38
_symmetry_cell_setting 'orthorhombic'
loop_
_space_group_symop_operation_xyz
x,y,z
-x,-y,z
-x,y,z
x,-y,z
x,1/2+y,1/2+z
-x,1/2-y,1/2+z
-x,1/2+y,1/2+z
x,1/2-y,1/2+z
loop_
_atom_site_type_symbol
_atom_site_label
_atom_site_fract_x
_atom_site_fract_y
_atom_site_fract_z
Si Si1 0.718245 0.447497 0.514220
Si Si2 0.500000 0.783099 0.976371
Si Si3 0.294678 0.146986 0.337840
Si Si4 0.000000 0.787153 0.604209
Si Si5 0.000000 0.500000 0.188235
O O1 0.500000 0.443563 0.463282
O O2 0.755627 0.500000 0.665651
O O3 0.777323 0.401916 0.694568
O O4 0.839022 0.457196 0.247067
O O5 0.500000 0.735097 0.170312
O O6 0.666788 0.815352 0.088107
O O7 0.500000 0.135359 0.450915
O O8 0.168031 0.176140 0.542781
O O9 0.000000 0.756616 0.880517
#
# Coordination Sequence:
#
# PCOD9358314 Si02
#       5
#     8   4   8   4   2
#     4   8  14  26  47  80 113 147 194 238 293 353
#     4  10  20  36  57  82 115 152 190 238 286 336
#     4   9  20  35  57  85 119 160 200 246 302 353
#     4  12  25  40  61  90 123 160 206 247 296 356
#     4   8  12  20  44  70 120 138 190 228 300 328
#
# _framework density 26.726742999999999
#
# number of rings (size 3 to 8) (size 9 to 14) (size 15 to 20)
#    1.846    0.923    0.000    2.769    0.000    0.000 
#    0.000    0.000    0.000    0.000    0.000   12.923 
#    0.000    0.000    0.000    0.000    0.000    0.000 
#
# Total GULP energy -72379.933966 kJ/mol
# GULP energy per Si atom -5567.687228 kJ/mol
# Density = 2.666591 g / cm^3
# Si number density = 26.726743 Si / 1000 Ang^3
#
#
#
# Elastic Constant Matrix: (Units=GPa)
#
#
# Indices 1 2 3 4 5 6 
#
# 1 94.6596 5.9702 7.5450 0.0000 0.0000 0.0000
# 2 5.9702 129.7644 20.8007 0.0000 0.0000 0.0000
# 3 7.5450 20.8007 87.1107 0.0000 0.0000 0.0000
# 4 0.0000 0.0000 0.0000 15.7589 0.0000 0.0000
# 5 0.0000 0.0000 0.0000 0.0000 1.4106 0.0000
# 6 0.0000 0.0000 0.0000 0.0000 0.0000 31.5786
#
#
#
# Elastic Compliance Matrix: (Units=1/GPa)
#
#
# Indices 1 2 3 4 5 6 
#
# 1 0.010653 -0.000356 -0.000838 0.000000 0.000000 0.000000
# 2 -0.000356 0.008025 -0.001885 0.000000 0.000000 0.000000
# 3 -0.000838 -0.001885 0.012002 0.000000 0.000000 0.000000
# 4 0.000000 0.000000 0.000000 0.063456 0.000000 0.000000
# 5 0.000000 0.000000 0.000000 0.000000 0.708900 0.000000
# 6 0.000000 0.000000 0.000000 0.000000 0.000000 0.031667
#
#
# Mechanical properties :
#
#
# Convention : Reuss Voigt Hill
#
# Bulk Modulus (GPa) = 40.77864 42.24075 41.50969
# Shear Modulus (GPa) = 5.88903 28.23087 17.05995
#
# Velocity S-wave (km/s) = 1.48600 3.25357 2.52922
# Velocity P-wave (km/s) = 4.27025 5.47296 4.90858
#
# Compressibility (1/GPa) = 0.02452264
#
# Stress axis : x y z
#
# Youngs Moduli (GPa) = 93.86686 124.61266 83.31659
#
# Poissons Ratio (x) = 0.04434 0.06980
# Poissons Ratio (y) = 0.03340 0.15708
# Poissons Ratio (z) = 0.07864 0.23494
#
# Static dielectric constant tensor:
#      x y z
#    x 2.190190 0.000000 0.000000 
#    y 0.000000 2.097920 0.000000 
#    z 0.000000 0.000000 2.119320 
# 
# From -- ./inp_files/375.got.cif
#   From: 2010.05.17/outbox.cif.g08.bks.cpg/sg38_1_cif.got.tgz:375.got - 2010.06.03 18:07:57.
