data_PCOD9358370
_publ_section_title
;
Structure prediction by ZEFSAII (Michael W. Deem and Ramdas Pophale) SiO2 
 PCOD9358370
Probable space group: A M M 2
;
_chemical_formula_sum "Si O2"
_cell_formula_units_Z 48
_cell_length_a 8.116927
_cell_length_b 19.057790
_cell_length_c 15.545029
_cell_angle_alpha 90.000000
_cell_angle_beta 90.000000
_cell_angle_gamma 90.000000
_cell_volume 2404.671265
_symmetry_space_group_name_H-M "A M M 2"
_symmetry_group_IT_number 38
_symmetry_cell_setting 'orthorhombic'
loop_
_space_group_symop_operation_xyz
x,y,z
-x,-y,z
-x,y,z
x,-y,z
x,1/2+y,1/2+z
-x,1/2-y,1/2+z
-x,1/2+y,1/2+z
x,1/2-y,1/2+z
loop_
_atom_site_type_symbol
_atom_site_label
_atom_site_fract_x
_atom_site_fract_y
_atom_site_fract_z
Si Si1 0.798949 0.075684 0.244680
Si Si2 0.798441 0.500000 0.416581
Si Si3 0.694446 0.346479 0.164547
Si Si4 0.197020 0.000000 0.722204
Si Si5 0.200662 0.110691 0.054463
Si Si6 0.800668 0.729440 0.805882
Si Si7 0.198962 0.762253 0.503785
O O1 0.750672 0.077519 0.144500
O O2 0.743492 0.150682 0.281163
O O3 0.000000 0.076462 0.249285
O O4 0.745584 0.000000 0.282146
O O5 0.737948 0.500000 0.320111
O O6 0.746050 0.432994 0.471868
O O7 0.000000 0.500000 0.414311
O O8 0.500000 0.344424 0.169032
O O9 0.751214 0.426089 0.181366
O O10 0.755505 0.290371 0.237358
O O11 0.748664 0.322795 0.069037
O O12 0.000000 0.000000 0.724707
O O13 0.255541 0.190284 0.048040
O O14 0.000000 0.110145 0.053902
O O15 0.000000 0.728671 0.805578
O O16 0.745216 0.740005 0.904619
O O17 0.000000 0.762736 0.501394
#
# Coordination Sequence:
#
# PCOD9358370 Si02
#       7
#     8   4   8   4   8   8   8
#     4   9  15  26  49  82 118 145 177 235 298 347
#     4   9  16  27  51  90 119 142 180 242 310 354
#     4  12  25  41  61  86 124 165 202 249 316 383
#     4  11  23  41  63  86 115 152 208 264 306 360
#     4   9  14  24  47  79 114 144 178 230 297 353
#     4  10  20  37  62  90 118 155 206 256 302 357
#     4  10  20  36  59  86 115 156 208 256 298 353
#
# _framework density 19.961148999999999
#
# number of rings (size 3 to 8) (size 9 to 14) (size 15 to 20)
#    0.000    2.000    2.500    2.750    0.000    3.333 
#    1.500    0.000    0.000    0.500    0.000    0.000 
#    0.000    0.000    0.000    0.000    0.000    0.000 
#
# Total GULP energy -133821.699599 kJ/mol
# GULP energy per Si atom -5575.904150 kJ/mol
# Density = 1.991572 g / cm^3
# Si number density = 19.961149 Si / 1000 Ang^3
#
#
#
# Elastic Constant Matrix: (Units=GPa)
#
#
# Indices 1 2 3 4 5 6 
#
# 1 23.4295 11.9216 14.1120 0.0000 0.0000 0.0000
# 2 11.9216 151.9395 43.3337 0.0000 0.0000 0.0000
# 3 14.1120 43.3337 83.3687 0.0000 0.0000 0.0000
# 4 0.0000 0.0000 0.0000 12.7617 0.0000 0.0000
# 5 0.0000 0.0000 0.0000 0.0000 -4.0883 0.0000
# 6 0.0000 0.0000 0.0000 0.0000 0.0000 -5.5847
#
#
#
# Elastic Compliance Matrix: (Units=1/GPa)
#
#
# Indices 1 2 3 4 5 6 
#
# 1 0.047897 -0.001697 -0.007225 0.000000 0.000000 0.000000
# 2 -0.001697 0.007787 -0.003760 0.000000 0.000000 0.000000
# 3 -0.007225 -0.003760 0.015173 0.000000 0.000000 0.000000
# 4 0.000000 0.000000 0.000000 0.078360 0.000000 0.000000
# 5 0.000000 0.000000 0.000000 0.000000 -0.244603 0.000000
# 6 0.000000 0.000000 0.000000 0.000000 0.000000 -0.179059
#
#
# Mechanical properties :
#
#
# Convention : Reuss Voigt Hill
#
# Bulk Modulus (GPa) = 21.98263 44.16359 33.07311
# Shear Modulus (GPa) = -21.37519 13.24242 -4.06639
#
# Velocity S-wave (km/s) = -3.27592 2.57847 -1.42884
# Velocity P-wave (km/s) = 1.80893 5.57113 3.72594
#
# Compressibility (1/GPa) = 0.04549047
#
# Stress axis : x y z
#
# Youngs Moduli (GPa) = 20.87814 128.41562 65.90859
#
# Poissons Ratio (x) = 0.21798 0.47621
# Poissons Ratio (y) = 0.03544 0.24784
# Poissons Ratio (z) = 0.15085 0.48289
#
# Static dielectric constant tensor:
#      x y z
#    x 1.714050 0.000000 0.000000 
#    y 0.000000 3.676600 0.000000 
#    z 0.000000 0.000000 1.701360 
# 
# From -- ./inp_files/12139.got.cif
#   From: 2010.05.17/outbox.cif.g08.bks.cpg/sg38_7_cif.got.tgz:12139.got - 2010.06.03 18:07:57.
