data_PCOD9358247
_publ_section_title
;
Structure prediction by ZEFSAII (Michael W. Deem and Ramdas Pophale) SiO2 
 PCOD9358247
Probable space group: A M M 2
;
_chemical_formula_sum "Si O2"
_cell_formula_units_Z 56
_cell_length_a 8.888286
_cell_length_b 18.995327
_cell_length_c 17.319362
_cell_angle_alpha 90.000000
_cell_angle_beta 90.000000
_cell_angle_gamma 90.000000
_cell_volume 2924.130054
_symmetry_space_group_name_H-M "A M M 2"
_symmetry_group_IT_number 38
_symmetry_cell_setting 'orthorhombic'
loop_
_space_group_symop_operation_xyz
x,y,z
-x,-y,z
-x,y,z
x,-y,z
x,1/2+y,1/2+z
-x,1/2-y,1/2+z
-x,1/2+y,1/2+z
x,1/2-y,1/2+z
loop_
_atom_site_type_symbol
_atom_site_label
_atom_site_fract_x
_atom_site_fract_y
_atom_site_fract_z
Si Si1 0.820093 0.306549 0.943210
Si Si2 0.679930 0.917962 0.336542
Si Si3 0.318447 0.081352 0.731477
Si Si4 0.181134 0.806682 0.622721
Si Si5 0.679201 0.834244 0.885264
Si Si6 0.176788 0.583748 0.525477
Si Si7 0.180490 0.342805 0.688661
O O1 0.752607 0.377708 0.908619
O O2 0.757602 0.241120 0.894134
O O3 0.000000 0.307529 0.938006
O O4 0.777427 0.296786 0.033009
O O5 0.500000 0.913305 0.340934
O O6 0.737588 0.878222 0.260211
O O7 0.723197 0.000000 0.333550
O O8 0.500000 0.082316 0.728012
O O9 0.252546 0.124386 0.659924
O O10 0.272893 0.122693 0.809314
O O11 0.269778 0.000000 0.733704
O O12 0.226523 0.737596 0.671421
O O13 0.000000 0.811222 0.625994
O O14 0.500000 0.824619 0.882543
O O15 0.725570 0.879183 0.960147
O O16 0.196756 0.500000 0.524272
O O17 0.210791 0.614107 0.610067
O O18 0.000000 0.599869 0.510228
O O19 0.000000 0.344276 0.702049
#
# Coordination Sequence:
#
# PCOD9358247 Si02
#       7
#     8   8   8   8   8   8   8
#     4  11  23  42  65  89 120 157 203 252 303 361
#     4  11  25  42  60  89 126 160 201 251 303 361
#     4  10  23  41  59  84 121 160 197 242 297 356
#     4  10  22  40  63  90 118 151 198 252 298 351
#     4  11  22  38  61  89 122 159 201 247 302 364
#     4  10  20  35  58  88 123 162 202 246 298 357
#     4  10  20  39  63  88 120 158 202 249 300 358
#
# _framework density 19.150994000000001
#
# number of rings (size 3 to 8) (size 9 to 14) (size 15 to 20)
#    0.000    1.571    1.429    3.000    0.000    9.143 
#    0.000    2.857    0.000    0.000    0.000    0.000 
#    0.000    0.000    0.000    0.000    0.000    0.000 
#
# Total GULP energy -156543.813964 kJ/mol
# GULP energy per Si atom -5590.850499 kJ/mol
# Density = 1.910741 g / cm^3
# Si number density = 19.150994 Si / 1000 Ang^3
#
#
#
# Elastic Constant Matrix: (Units=GPa)
#
#
# Indices 1 2 3 4 5 6 
#
# 1 31.4094 44.4881 29.3921 0.0000 0.0000 0.0000
# 2 44.4881 151.3094 63.0134 0.0000 0.0000 0.0000
# 3 29.3921 63.0134 54.0774 0.0000 0.0000 0.0000
# 4 0.0000 0.0000 0.0000 22.9687 0.0000 0.0000
# 5 0.0000 0.0000 0.0000 0.0000 30.1848 0.0000
# 6 0.0000 0.0000 0.0000 0.0000 0.0000 29.3098
#
#
#
# Elastic Compliance Matrix: (Units=1/GPa)
#
#
# Indices 1 2 3 4 5 6 
#
# 1 0.070982 -0.009332 -0.027706 0.000000 0.000000 0.000000
# 2 -0.009332 0.014067 -0.011319 0.000000 0.000000 0.000000
# 3 -0.027706 -0.011319 0.046740 0.000000 0.000000 0.000000
# 4 0.000000 0.000000 0.000000 0.043537 0.000000 0.000000
# 5 0.000000 0.000000 0.000000 0.000000 0.033129 0.000000
# 6 0.000000 0.000000 0.000000 0.000000 0.000000 0.034118
#
#
# Mechanical properties :
#
#
# Convention : Reuss Voigt Hill
#
# Bulk Modulus (GPa) = 28.51058 56.73148 42.62103
# Shear Modulus (GPa) = 14.24590 23.15285 18.69937
#
# Velocity S-wave (km/s) = 2.73036 3.48079 3.12816
# Velocity P-wave (km/s) = 4.98592 6.77068 5.94565
#
# Compressibility (1/GPa) = 0.03507469
#
# Stress axis : x y z
#
# Youngs Moduli (GPa) = 14.08817 71.09076 21.39491
#
# Poissons Ratio (x) = 0.66340 0.59277
# Poissons Ratio (y) = 0.13147 0.24217
# Poissons Ratio (z) = 0.39033 0.80467
#
# Static dielectric constant tensor:
#      x y z
#    x 1.643870 0.000000 0.000000 
#    y 0.000000 1.653040 0.000000 
#    z 0.000000 0.000000 1.645630 
# 
# From -- ./inp_files/12398.got.cif
#   From: 2010.05.17/outbox.cif.g08.bks.cpg/sg38_7_cif.got.tgz:12398.got - 2010.06.03 18:07:57.
