data_PCOD9358642
_publ_section_title
;
Structure prediction by ZEFSAII (Michael W. Deem and Ramdas Pophale) SiO2 
 PCOD9358642
Probable space group: A M M 2
;
_chemical_formula_sum "Si O2"
_cell_formula_units_Z 64
_cell_length_a 8.658516
_cell_length_b 28.679978
_cell_length_c 15.159507
_cell_angle_alpha 90.000000
_cell_angle_beta 90.000000
_cell_angle_gamma 90.000000
_cell_volume 3764.500469
_symmetry_space_group_name_H-M "A M M 2"
_symmetry_group_IT_number 38
_symmetry_cell_setting 'orthorhombic'
loop_
_space_group_symop_operation_xyz
x,y,z
-x,-y,z
-x,y,z
x,-y,z
x,1/2+y,1/2+z
-x,1/2-y,1/2+z
-x,1/2+y,1/2+z
x,1/2-y,1/2+z
loop_
_atom_site_type_symbol
_atom_site_label
_atom_site_fract_x
_atom_site_fract_y
_atom_site_fract_z
Si Si1 0.813802 0.946324 0.296360
Si Si2 0.811410 0.863696 0.621726
Si Si3 0.684154 0.364475 0.678207
Si Si4 0.188375 0.946758 0.497543
Si Si5 0.185177 0.277616 0.000179
Si Si6 0.684448 0.674736 0.495869
Si Si7 0.813705 0.825615 0.804268
Si Si8 0.815504 0.717686 0.795957
O O1 0.751119 0.909398 0.227217
O O2 0.765499 0.934514 0.397129
O O3 0.000000 0.944629 0.294823
O O4 0.767487 0.000000 0.279026
O O5 0.758246 0.909240 0.568964
O O6 0.765391 0.817643 0.567287
O O7 0.763093 0.857746 0.722984
O O8 0.000000 0.864317 0.621138
O O9 0.500000 0.367801 0.677754
O O10 0.738130 0.357010 0.577459
O O11 0.733083 0.318709 0.733081
O O12 0.000000 0.946257 0.498194
O O13 0.236167 0.000000 0.515699
O O14 0.262735 0.227789 0.014843
O O15 0.000000 0.271198 0.008398
O O16 0.214665 0.292867 0.899135
O O17 0.500000 0.673467 0.492095
O O18 0.749894 0.661841 0.400071
O O19 0.770128 0.771764 0.783121
O O20 0.000000 0.826081 0.809422
O O21 0.000000 0.714096 0.781375
#
# Coordination Sequence:
#
# PCOD9358642 Si02
#       8
#     8   8   8   8   8   8   8   8
#     4   9  18  33  53  75  97 122 152 187 230 279
#     4   9  15  25  45  70  93 119 153 188 224 272
#     4  11  22  32  46  69  95 126 160 192 233 282
#     4   8  14  26  46  73 101 122 141 175 227 280
#     4   9  17  30  48  69  94 124 156 191 232 277
#     4  10  21  34  45  62  92 127 161 195 232 274
#     4   9  18  31  47  67  90 122 162 198 232 268
#     4   9  17  29  46  68  94 124 157 192 230 274
#
# _framework density 17.000927000000001
#
# number of rings (size 3 to 8) (size 9 to 14) (size 15 to 20)
#    0.000    2.750    0.000    3.750    0.000    7.250 
#    0.000    0.625    0.000    1.500    0.000    1.750 
#    0.000    0.000    0.000    0.000    0.000    0.000 
#
# Total GULP energy -178437.788368 kJ/mol
# GULP energy per Si atom -5576.180887 kJ/mol
# Density = 1.696223 g / cm^3
# Si number density = 17.000927 Si / 1000 Ang^3
#
#
#
# Elastic Constant Matrix: (Units=GPa)
#
#
# Indices 1 2 3 4 5 6 
#
# 1 9.5723 21.7514 30.4146 0.0000 0.0000 0.0000
# 2 21.7514 94.3043 106.1794 0.0000 0.0000 0.0000
# 3 30.4146 106.1794 158.4170 0.0000 0.0000 0.0000
# 4 0.0000 0.0000 0.0000 29.2527 0.0000 0.0000
# 5 0.0000 0.0000 0.0000 0.0000 10.8849 0.0000
# 6 0.0000 0.0000 0.0000 0.0000 0.0000 0.0368
#
#
#
# Elastic Compliance Matrix: (Units=1/GPa)
#
#
# Indices 1 2 3 4 5 6 
#
# 1 0.273798 -0.016164 -0.041733 0.000000 0.000000 0.000000
# 2 -0.016164 0.044175 -0.026505 0.000000 0.000000 0.000000
# 3 -0.041733 -0.026505 0.032090 0.000000 0.000000 0.000000
# 4 0.000000 0.000000 0.000000 0.034185 0.000000 0.000000
# 5 0.000000 0.000000 0.000000 0.000000 0.091870 0.000000
# 6 0.000000 0.000000 0.000000 0.000000 0.000000 27.141671
#
#
# Mechanical properties :
#
#
# Convention : Reuss Voigt Hill
#
# Bulk Modulus (GPa) = 5.51695 64.33162 34.92429
# Shear Modulus (GPa) = 0.17955 14.96477 7.57216
#
# Velocity S-wave (km/s) = 0.32533 2.97009 2.11273
# Velocity P-wave (km/s) = 1.84208 7.04870 5.15157
#
# Compressibility (1/GPa) = 0.18125947
#
# Stress axis : x y z
#
# Youngs Moduli (GPa) = 3.65232 22.63747 31.16260
#
# Poissons Ratio (x) = 0.36591 1.30051
# Poissons Ratio (y) = 0.05904 0.82596
# Poissons Ratio (z) = 0.15242 0.60000
#
# Static dielectric constant tensor:
#      x y z
#    x 1.574410 0.000000 0.000000 
#    y 0.000000 1.558790 0.000000 
#    z 0.000000 0.000000 1.588590 
# 
# From -- ./inp_files/13082.got.cif
#   From: 2010.05.17/outbox.cif.g08.bks.cpg/sg38_7_cif.got.tgz:13082.got - 2010.06.03 18:07:57.
