data_PCOD9358195
_publ_section_title
;
Structure prediction by ZEFSAII (Michael W. Deem and Ramdas Pophale) SiO2 
 PCOD9358195
Probable space group: A M M 2
;
_chemical_formula_sum "Si O2"
_cell_formula_units_Z 64
_cell_length_a 17.931683
_cell_length_b 9.148737
_cell_length_c 21.189354
_cell_angle_alpha 90.000000
_cell_angle_beta 90.000000
_cell_angle_gamma 90.000000
_cell_volume 3476.161236
_symmetry_space_group_name_H-M "A M M 2"
_symmetry_group_IT_number 38
_symmetry_cell_setting 'orthorhombic'
loop_
_space_group_symop_operation_xyz
x,y,z
-x,-y,z
-x,y,z
x,-y,z
x,1/2+y,1/2+z
-x,1/2-y,1/2+z
-x,1/2+y,1/2+z
x,1/2-y,1/2+z
loop_
_atom_site_type_symbol
_atom_site_label
_atom_site_fract_x
_atom_site_fract_y
_atom_site_fract_z
Si Si1 0.668189 0.674265 0.697180
Si Si2 0.171424 0.175067 0.695125
Si Si3 0.909930 0.330369 0.580506
Si Si4 0.909117 0.668161 0.953126
Si Si5 0.911760 0.326815 0.325798
Si Si6 0.409849 0.168434 0.581641
Si Si7 0.409286 0.831674 0.956162
Si Si8 0.410484 0.673178 0.313617
O O1 0.672406 0.500000 0.696657
O O2 0.749189 0.746962 0.693703
O O3 0.622046 0.732797 0.637256
O O4 0.628797 0.732355 0.760558
O O5 0.122953 0.237429 0.637679
O O6 0.131477 0.207786 0.761766
O O7 0.178897 0.000000 0.689843
O O8 0.887552 0.500000 0.585333
O O9 0.885548 0.262150 0.513608
O O10 0.000000 0.324128 0.582769
O O11 0.885803 0.500000 0.959133
O O12 0.885209 0.737760 0.886788
O O13 0.000000 0.671208 0.952603
O O14 0.903875 0.500000 0.338711
O O15 0.000000 0.297853 0.316410
O O16 0.500000 0.173838 0.583530
O O17 0.385185 0.229378 0.513443
O O18 0.387053 0.000000 0.590375
O O19 0.500000 0.830756 0.955598
O O20 0.386562 0.788846 0.885226
O O21 0.386507 0.000000 0.967415
O O22 0.500000 0.690884 0.309234
O O23 0.394858 0.500000 0.304016
#
# Coordination Sequence:
#
# PCOD9358195 Si02
#       8
#     8   8   8   8   8   8   8   8
#     4  12  25  38  53  76 109 146 184 226 270 319
#     4  11  23  39  57  77 107 145 184 226 270 320
#     4  10  20  35  57  84 113 143 177 220 268 319
#     4   9  17  30  52  82 112 141 176 219 264 312
#     4   9  18  34  57  83 108 136 173 219 271 323
#     4  10  20  35  57  83 110 141 179 223 269 319
#     4   8  15  30  54  83 111 137 170 217 270 321
#     4   9  18  35  59  84 110 141 177 218 266 320
#
# _framework density 18.411114000000001
#
# number of rings (size 3 to 8) (size 9 to 14) (size 15 to 20)
#    0.000    2.250    0.000    4.125    0.000    6.750 
#    0.000    3.750    0.000    4.500    0.000    0.000 
#    0.000    0.000    0.000    0.000    0.000    0.000 
#
# Total GULP energy -178641.953555 kJ/mol
# GULP energy per Si atom -5582.561049 kJ/mol
# Density = 1.836921 g / cm^3
# Si number density = 18.411114 Si / 1000 Ang^3
#
#
#
# Elastic Constant Matrix: (Units=GPa)
#
#
# Indices 1 2 3 4 5 6 
#
# 1 24.6896 40.1576 36.5684 0.0000 0.0000 0.0000
# 2 40.1576 127.3848 99.8748 0.0000 0.0000 0.0000
# 3 36.5684 99.8748 164.1721 0.0000 0.0000 0.0000
# 4 0.0000 0.0000 0.0000 39.8055 0.0000 0.0000
# 5 0.0000 0.0000 0.0000 0.0000 -13.3437 0.0000
# 6 0.0000 0.0000 0.0000 0.0000 0.0000 23.5447
#
#
#
# Elastic Compliance Matrix: (Units=1/GPa)
#
#
# Indices 1 2 3 4 5 6 
#
# 1 0.085257 -0.022920 -0.005047 0.000000 0.000000 0.000000
# 2 -0.022920 0.021171 -0.007774 0.000000 0.000000 0.000000
# 3 -0.005047 -0.007774 0.011945 0.000000 0.000000 0.000000
# 4 0.000000 0.000000 0.000000 0.025122 0.000000 0.000000
# 5 0.000000 0.000000 0.000000 0.000000 -0.074942 0.000000
# 6 0.000000 0.000000 0.000000 0.000000 0.000000 0.042472
#
#
# Mechanical properties :
#
#
# Convention : Reuss Voigt Hill
#
# Bulk Modulus (GPa) = 21.32616 74.38310 47.85463
# Shear Modulus (GPa) = 25.23486 19.31101 22.27293
#
# Velocity S-wave (km/s) = 3.70622 3.24215 3.48193
# Velocity P-wave (km/s) = 5.47021 7.38270 6.49721
#
# Compressibility (1/GPa) = 0.04689077
#
# Stress axis : x y z
#
# Youngs Moduli (GPa) = 11.72918 47.23483 83.71840
#
# Poissons Ratio (x) = 1.08262 0.42254
# Poissons Ratio (y) = 0.26883 0.65083
# Poissons Ratio (z) = 0.05920 0.36721
#
# Static dielectric constant tensor:
#      x y z
#    x 1.625490 0.000000 0.000000 
#    y 0.000000 1.613480 0.000000 
#    z 0.000000 0.000000 1.617470 
# 
# From -- ./inp_files/21355.got.cif
#   From: 2010.05.17/outbox.cif.g08.bks.cpg/sg38_11_cif.got.tgz:21355.got - 2010.06.03 18:07:57.
