data_PCOD9358943
_publ_section_title
;
Structure prediction by ZEFSAII (Michael W. Deem and Ramdas Pophale) SiO2 
 PCOD9358943
Probable space group: A M M 2
;
_chemical_formula_sum "Si O2"
_cell_formula_units_Z 58
_cell_length_a 25.318176
_cell_length_b 7.505260
_cell_length_c 14.520181
_cell_angle_alpha 90.000000
_cell_angle_beta 90.000000
_cell_angle_gamma 90.000000
_cell_volume 2759.117441
_symmetry_space_group_name_H-M "A M M 2"
_symmetry_group_IT_number 38
_symmetry_cell_setting 'orthorhombic'
loop_
_space_group_symop_operation_xyz
x,y,z
-x,-y,z
-x,y,z
x,-y,z
x,1/2+y,1/2+z
-x,1/2-y,1/2+z
-x,1/2+y,1/2+z
x,1/2-y,1/2+z
loop_
_atom_site_type_symbol
_atom_site_label
_atom_site_fract_x
_atom_site_fract_y
_atom_site_fract_z
Si Si1 0.500000 0.500000 0.042100
Si Si2 0.418573 0.205812 0.103835
Si Si3 0.653247 0.284149 0.952735
Si Si4 0.853825 0.712631 0.258107
Si Si5 0.143575 0.786753 0.551526
Si Si6 0.769996 0.785724 0.406129
Si Si7 0.059680 0.786047 0.903010
Si Si8 0.439684 0.783885 0.317311
O O1 0.454763 0.344019 0.049253
O O2 0.361734 0.224711 0.055902
O O3 0.435512 0.000000 0.096203
O O4 0.424119 0.254969 0.211495
O O5 0.653608 0.500000 0.949895
O O6 0.710426 0.221280 0.919401
O O7 0.605996 0.220117 0.885522
O O8 0.861387 0.500000 0.252682
O O9 0.854932 0.784092 0.154871
O O10 0.798728 0.743123 0.310416
O O11 0.900791 0.782921 0.323602
O O12 0.190568 0.717950 0.485965
O O13 0.088830 0.752305 0.499063
O O14 0.150347 0.000000 0.556205
O O15 0.768390 0.000000 0.412860
O O16 0.000000 0.717901 0.897890
O O17 0.057481 0.000000 0.893856
O O18 0.500000 0.720756 0.334071
O O19 0.441968 0.000000 0.326609
#
# Coordination Sequence:
#
# PCOD9358943 Si02
#       8
#     2   8   8   8   8   8   8   8
#     4  12  22  40  64  82 116 150 182 228 290 338
#     4  11  23  40  60  86 113 147 189 230 277 346
#     4  10  21  37  58  82 115 151 181 231 290 332
#     4   9  18  33  54  74 102 142 183 225 269 317
#     4   9  18  33  53  77 106 144 186 224 268 323
#     4   9  19  35  53  78 110 143 181 225 274 322
#     4   9  18  32  49  74 106 138 177 225 274 329
#     4   9  19  35  56  78 108 141 179 226 277 335
#
# _framework density 21.021212999999999
#
# number of rings (size 3 to 8) (size 9 to 14) (size 15 to 20)
#    0.000    2.483    1.379    0.207    0.966    3.034 
#    1.241    1.379    0.000    0.000    0.000    0.000 
#    0.000    0.000    0.000    0.000    0.000    0.000 
#
# Total GULP energy -161638.034057 kJ/mol
# GULP energy per Si atom -5573.725312 kJ/mol
# Density = 2.097337 g / cm^3
# Si number density = 21.021213 Si / 1000 Ang^3
#
#
#
# Elastic Constant Matrix: (Units=GPa)
#
#
# Indices 1 2 3 4 5 6 
#
# 1 136.5014 7.2838 64.2426 0.0000 0.0000 0.0000
# 2 7.2838 74.2921 10.6864 0.0000 0.0000 0.0000
# 3 64.2426 10.6864 109.7122 0.0000 0.0000 0.0000
# 4 0.0000 0.0000 0.0000 -9.3960 0.0000 0.0000
# 5 0.0000 0.0000 0.0000 0.0000 11.5726 0.0000
# 6 0.0000 0.0000 0.0000 0.0000 0.0000 20.8564
#
#
#
# Elastic Compliance Matrix: (Units=1/GPa)
#
#
# Indices 1 2 3 4 5 6 
#
# 1 0.010114 -0.000142 -0.005909 0.000000 0.000000 0.000000
# 2 -0.000142 0.013654 -0.001247 0.000000 0.000000 0.000000
# 3 -0.005909 -0.001247 0.012696 0.000000 0.000000 0.000000
# 4 0.000000 0.000000 0.000000 -0.106428 0.000000 0.000000
# 5 0.000000 0.000000 0.000000 0.000000 0.086411 0.000000
# 6 0.000000 0.000000 0.000000 0.000000 0.000000 0.047947
#
#
# Mechanical properties :
#
#
# Convention : Reuss Voigt Hill
#
# Bulk Modulus (GPa) = 45.72608 53.88125 49.80366
# Shear Modulus (GPa) = 57.95179 20.49279 39.22229
#
# Velocity S-wave (km/s) = 5.25624 3.12567 4.32423
# Velocity P-wave (km/s) = 7.65748 6.22205 6.97678
#
# Compressibility (1/GPa) = 0.02186936
#
# Stress axis : x y z
#
# Youngs Moduli (GPa) = 98.86934 73.24060 78.76435
#
# Poissons Ratio (x) = 0.01038 0.46540
# Poissons Ratio (y) = 0.01401 0.09821
# Poissons Ratio (z) = 0.58419 0.09133
#
# Static dielectric constant tensor:
#      x y z
#    x 1.734310 0.000000 0.000000 
#    y 0.000000 1.784770 0.000000 
#    z 0.000000 0.000000 1.775110 
# 
# From -- ./inp_files/15724.got.cif
#   From: 2010.05.17/outbox.cif.g08.bks.cpg/sg38_8_cif.got.tgz:15724.got - 2010.06.03 18:07:57.
