data_PCOD9358517
_publ_section_title
;
Structure prediction by ZEFSAII (Michael W. Deem and Ramdas Pophale) SiO2 
 PCOD9358517
Probable space group: A M M 2
;
_chemical_formula_sum "Si O2"
_cell_formula_units_Z 48
_cell_length_a 10.356548
_cell_length_b 8.535476
_cell_length_c 28.222100
_cell_angle_alpha 90.000000
_cell_angle_beta 90.000000
_cell_angle_gamma 90.000000
_cell_volume 2494.779084
_symmetry_space_group_name_H-M "A M M 2"
_symmetry_group_IT_number 38
_symmetry_cell_setting 'orthorhombic'
loop_
_space_group_symop_operation_xyz
x,y,z
-x,-y,z
-x,y,z
x,-y,z
x,1/2+y,1/2+z
-x,1/2-y,1/2+z
-x,1/2+y,1/2+z
x,1/2-y,1/2+z
loop_
_atom_site_type_symbol
_atom_site_label
_atom_site_fract_x
_atom_site_fract_y
_atom_site_fract_z
Si Si1 0.647688 0.810320 0.147730
Si Si2 0.500000 0.686771 0.815987
Si Si3 0.000000 0.687513 0.896943
Si Si4 0.500000 0.189501 0.922807
Si Si5 0.000000 0.311609 0.787057
Si Si6 0.853513 0.308843 0.569157
Si Si7 0.271360 0.313293 0.250562
Si Si8 0.225283 0.810533 0.963448
O O1 0.500000 0.767124 0.135968
O O2 0.749285 0.757734 0.107915
O O3 0.684973 0.743721 0.198806
O O4 0.653234 0.000000 0.150364
O O5 0.500000 0.500000 0.814558
O O6 0.500000 0.744843 0.869835
O O7 0.374006 0.748604 0.788548
O O8 0.124846 0.748576 0.924859
O O9 0.000000 0.500000 0.897673
O O10 0.000000 0.738684 0.842234
O O11 0.629998 0.237679 0.949900
O O12 0.500000 0.000000 0.920155
O O13 0.129258 0.249383 0.762531
O O14 0.000000 0.500000 0.785253
O O15 0.852345 0.500000 0.569189
O O16 0.815502 0.259002 0.516084
O O17 0.000000 0.259254 0.580133
O O18 0.272504 0.500000 0.252408
O O19 0.219434 0.000000 0.962841
#
# Coordination Sequence:
#
# PCOD9358517 Si02
#       8
#     8   4   4   4   4   8   8   8
#     4  10  21  37  61  90 121 160 204 249 302 364
#     4  12  24  42  65  88 121 167 212 253 305 372
#     4  11  23  39  60  87 118 157 204 251 298 355
#     4  10  22  36  59  94 125 157 200 253 305 358
#     4  11  25  43  64  91 124 165 210 251 300 371
#     4   9  18  34  59  90 119 156 203 248 295 357
#     4  12  25  42  64  92 126 160 202 259 314 365
#     4  10  20  37  61  89 124 161 199 247 301 356
#
# _framework density 19.240181
#
# number of rings (size 3 to 8) (size 9 to 14) (size 15 to 20)
#    0.000    1.500    1.667    3.750    2.333    4.667 
#    0.000    0.833    0.000    0.000    0.000    0.000 
#    0.000    0.000    0.000    0.000    0.000    0.000 
#
# Total GULP energy -134179.040345 kJ/mol
# GULP energy per Si atom -5590.793348 kJ/mol
# Density = 1.919639 g / cm^3
# Si number density = 19.240181 Si / 1000 Ang^3
#
#
#
# Elastic Constant Matrix: (Units=GPa)
#
#
# Indices 1 2 3 4 5 6 
#
# 1 208.8210 39.7675 82.3808 0.0000 0.0000 0.0000
# 2 39.7675 31.0835 25.4297 0.0000 0.0000 0.0000
# 3 82.3808 25.4297 116.3662 0.0000 0.0000 0.0000
# 4 0.0000 0.0000 0.0000 28.4178 0.0000 0.0000
# 5 0.0000 0.0000 0.0000 0.0000 44.8493 0.0000
# 6 0.0000 0.0000 0.0000 0.0000 0.0000 21.5326
#
#
#
# Elastic Compliance Matrix: (Units=1/GPa)
#
#
# Indices 1 2 3 4 5 6 
#
# 1 0.007579 -0.006462 -0.003953 0.000000 0.000000 0.000000
# 2 -0.006462 0.044685 -0.005190 0.000000 0.000000 0.000000
# 3 -0.003953 -0.005190 0.012527 0.000000 0.000000 0.000000
# 4 0.000000 0.000000 0.000000 0.035189 0.000000 0.000000
# 5 0.000000 0.000000 0.000000 0.000000 0.022297 0.000000
# 6 0.000000 0.000000 0.000000 0.000000 0.000000 0.046441
#
#
# Mechanical properties :
#
#
# Convention : Reuss Voigt Hill
#
# Bulk Modulus (GPa) = 29.78033 72.38075 51.08054
# Shear Modulus (GPa) = 23.68291 32.87280 28.27785
#
# Velocity S-wave (km/s) = 3.51224 4.13794 3.83786
# Velocity P-wave (km/s) = 5.65328 7.78019 6.80040
#
# Compressibility (1/GPa) = 0.03357921
#
# Stress axis : x y z
#
# Youngs Moduli (GPa) = 131.94246 22.37878 79.83047
#
# Poissons Ratio (x) = 0.14462 0.31560
# Poissons Ratio (y) = 0.85264 0.41434
# Poissons Ratio (z) = 0.52162 0.11615
#
# Static dielectric constant tensor:
#      x y z
#    x 1.656250 0.000000 0.000000 
#    y 0.000000 1.654640 0.000000 
#    z 0.000000 0.000000 1.634290 
# 
# From -- ./inp_files/24479.got.cif
#   From: 2010.05.17/outbox.cif.g08.bks.cpg/sg38_13_cif.got.tgz:24479.got - 2010.06.03 18:07:57.
