data_PCOD9358447
_publ_section_title
;
Structure prediction by ZEFSAII (Michael W. Deem and Ramdas Pophale) SiO2 
 PCOD9358447
Probable space group: A M M 2
;
_chemical_formula_sum "Si O2"
_cell_formula_units_Z 38
_cell_length_a 11.328230
_cell_length_b 11.898310
_cell_length_c 15.331338
_cell_angle_alpha 90.000000
_cell_angle_beta 90.000000
_cell_angle_gamma 90.000000
_cell_volume 2066.461871
_symmetry_space_group_name_H-M "A M M 2"
_symmetry_group_IT_number 38
_symmetry_cell_setting 'orthorhombic'
loop_
_space_group_symop_operation_xyz
x,y,z
-x,-y,z
-x,y,z
x,-y,z
x,1/2+y,1/2+z
-x,1/2-y,1/2+z
-x,1/2+y,1/2+z
x,1/2-y,1/2+z
loop_
_atom_site_type_symbol
_atom_site_label
_atom_site_fract_x
_atom_site_fract_y
_atom_site_fract_z
Si Si1 0.500000 0.374324 0.623840
Si Si2 0.141745 0.277957 0.434171
Si Si3 0.745800 0.500000 0.355217
Si Si4 0.354988 0.500000 0.160419
Si Si5 0.858453 0.371622 0.773576
Si Si6 0.736755 0.241874 0.620544
Si Si7 0.500000 0.500000 0.454944
O O1 0.500000 0.500000 0.662109
O O2 0.617694 0.308946 0.643642
O O3 0.500000 0.394227 0.519669
O O4 0.181463 0.391124 0.384859
O O5 0.176664 0.176802 0.368450
O O6 0.205608 0.272976 0.527750
O O7 0.000000 0.276235 0.446296
O O8 0.705932 0.500000 0.255460
O O9 0.620154 0.500000 0.403441
O O10 0.500000 0.500000 0.163736
O O11 0.303622 0.387285 0.117504
O O12 0.815230 0.500000 0.757828
O O13 0.821112 0.283590 0.698651
O O14 0.000000 0.375923 0.773270
#
# Coordination Sequence:
#
# PCOD9358447 Si02
#       7
#     4   8   4   4   8   8   2
#     4  10  20  36  62  94 119 156 211 261 305 372
#     4  11  24  41  63  92 126 169 212 261 318 385
#     4  12  21  42  65  93 127 164 217 269 320 383
#     4  12  26  41  65  96 133 172 213 271 330 379
#     4  10  23  42  62  89 124 162 209 260 315 380
#     4  12  23  42  64  91 127 167 211 261 317 382
#     4  10  20  36  64  94 118 164 208 266 318 360
#
# _framework density 18.388918
#
# number of rings (size 3 to 8) (size 9 to 14) (size 15 to 20)
#    0.316    0.632    5.789    1.579    2.947    0.000 
#    0.000    2.632    0.000    0.000    0.000    0.000 
#    0.000    0.000    0.000    0.000    0.000    0.000 
#
# Total GULP energy -105940.399238 kJ/mol
# GULP energy per Si atom -5575.810486 kJ/mol
# Density = 1.834706 g / cm^3
# Si number density = 18.388918 Si / 1000 Ang^3
#
#
#
# Elastic Constant Matrix: (Units=GPa)
#
#
# Indices 1 2 3 4 5 6 
#
# 1 55.7610 24.1214 13.2429 0.0000 0.0000 0.0000
# 2 24.1214 115.8114 0.6504 0.0000 0.0000 0.0000
# 3 13.2429 0.6504 61.1881 0.0000 0.0000 0.0000
# 4 0.0000 0.0000 0.0000 31.9413 0.0000 0.0000
# 5 0.0000 0.0000 0.0000 0.0000 34.6906 0.0000
# 6 0.0000 0.0000 0.0000 0.0000 0.0000 49.1969
#
#
#
# Elastic Compliance Matrix: (Units=1/GPa)
#
#
# Indices 1 2 3 4 5 6 
#
# 1 0.020864 -0.004321 -0.004470 0.000000 0.000000 0.000000
# 2 -0.004321 0.009530 0.000834 0.000000 0.000000 0.000000
# 3 -0.004470 0.000834 0.017302 0.000000 0.000000 0.000000
# 4 0.000000 0.000000 0.000000 0.031307 0.000000 0.000000
# 5 0.000000 0.000000 0.000000 0.000000 0.028826 0.000000
# 6 0.000000 0.000000 0.000000 0.000000 0.000000 0.020326
#
#
# Mechanical properties :
#
#
# Convention : Reuss Voigt Hill
#
# Bulk Modulus (GPa) = 31.46354 34.30999 32.88677
# Shear Modulus (GPa) = 32.32835 36.14881 34.23858
#
# Velocity S-wave (km/s) = 4.19744 4.43854 4.31967
# Velocity P-wave (km/s) = 6.37484 6.70567 6.54234
#
# Compressibility (1/GPa) = 0.03178282
#
# Stress axis : x y z
#
# Youngs Moduli (GPa) = 47.92898 104.93257 57.79826
#
# Poissons Ratio (x) = 0.45336 0.25834
# Poissons Ratio (y) = 0.20708 -0.04819
# Poissons Ratio (z) = 0.21423 -0.08749
#
# Static dielectric constant tensor:
#      x y z
#    x 1.173070 0.000000 0.000000 
#    y 0.000000 1.638870 0.000000 
#    z 0.000000 0.000000 1.610490 
# 
# From -- ./inp_files/13560.got.cif
#   From: 2010.05.17/outbox.cif.g08.bks.cpg/sg38_7_cif.got.tgz:13560.got - 2010.06.03 18:07:57.
