data_PCOD9358784
_publ_section_title
;
Structure prediction by ZEFSAII (Michael W. Deem and Ramdas Pophale) SiO2 
 PCOD9358784
Probable space group: A M M 2
;
_chemical_formula_sum "Si O2"
_cell_formula_units_Z 56
_cell_length_a 20.617262
_cell_length_b 9.029568
_cell_length_c 15.507497
_cell_angle_alpha 90.000000
_cell_angle_beta 90.000000
_cell_angle_gamma 90.000000
_cell_volume 2886.952701
_symmetry_space_group_name_H-M "A M M 2"
_symmetry_group_IT_number 38
_symmetry_cell_setting 'orthorhombic'
loop_
_space_group_symop_operation_xyz
x,y,z
-x,-y,z
-x,y,z
x,-y,z
x,1/2+y,1/2+z
-x,1/2-y,1/2+z
-x,1/2+y,1/2+z
x,1/2-y,1/2+z
loop_
_atom_site_type_symbol
_atom_site_label
_atom_site_fract_x
_atom_site_fract_y
_atom_site_fract_z
Si Si1 0.829623 0.677294 0.609300
Si Si2 0.702480 0.334292 0.316529
Si Si3 0.428936 0.822849 0.368795
Si Si4 0.698474 0.834623 0.612402
Si Si5 0.165262 0.177129 0.312463
Si Si6 0.924432 0.178227 0.954362
Si Si7 0.570686 0.676111 0.556285
O O1 0.819999 0.500000 0.606518
O O2 0.763157 0.755276 0.579148
O O3 0.843527 0.714370 0.710174
O O4 0.886477 0.716868 0.542707
O O5 0.701615 0.500000 0.355158
O O6 0.634579 0.252730 0.330708
O O7 0.709380 0.348092 0.214119
O O8 0.765600 0.242648 0.343990
O O9 0.500000 0.784771 0.329755
O O10 0.430870 0.761998 0.465960
O O11 0.422622 0.000000 0.366493
O O12 0.633959 0.738403 0.601929
O O13 0.689892 0.000000 0.575303
O O14 0.110469 0.245625 0.373383
O O15 0.166053 0.000000 0.319330
O O16 0.000000 0.218194 0.959523
O O17 0.919705 0.000000 0.944348
O O18 0.500000 0.701928 0.599163
O O19 0.576600 0.500000 0.542765
#
# Coordination Sequence:
#
# PCOD9358784 Si02
#       7
#     8   8   8   8   8   8   8
#     4   9  20  39  61  85 117 157 198 240 289 349
#     4  10  21  37  57  81 111 149 190 233 287 348
#     4  10  21  36  54  78 109 145 188 239 290 339
#     4  10  21  36  56  82 111 145 188 237 287 340
#     4  10  21  38  61  89 120 154 196 246 293 343
#     4  10  22  40  62  89 120 156 195 234 288 357
#     4  10  21  36  54  77 108 148 191 234 285 344
#
# _framework density 19.397615999999999
#
# number of rings (size 3 to 8) (size 9 to 14) (size 15 to 20)
#    0.000    2.143    0.000    2.143    2.000    6.000 
#    0.000    4.286    0.000    0.000    0.000    0.000 
#    0.000    0.000    0.000    0.000    0.000    0.000 
#
# Total GULP energy -156202.897358 kJ/mol
# GULP energy per Si atom -5578.674906 kJ/mol
# Density = 1.935347 g / cm^3
# Si number density = 19.397616 Si / 1000 Ang^3
#
#
#
# Elastic Constant Matrix: (Units=GPa)
#
#
# Indices 1 2 3 4 5 6 
#
# 1 194.6017 74.1656 55.2939 0.0000 0.0000 0.0000
# 2 74.1656 75.7896 32.6104 0.0000 0.0000 0.0000
# 3 55.2939 32.6104 57.6267 0.0000 0.0000 0.0000
# 4 0.0000 0.0000 0.0000 29.3312 0.0000 0.0000
# 5 0.0000 0.0000 0.0000 0.0000 33.7205 0.0000
# 6 0.0000 0.0000 0.0000 0.0000 0.0000 31.2333
#
#
#
# Elastic Compliance Matrix: (Units=1/GPa)
#
#
# Indices 1 2 3 4 5 6 
#
# 1 0.009134 -0.006830 -0.004899 0.000000 0.000000 0.000000
# 2 -0.006830 0.022549 -0.006206 0.000000 0.000000 0.000000
# 3 -0.004899 -0.006206 0.025566 0.000000 0.000000 0.000000
# 4 0.000000 0.000000 0.000000 0.034093 0.000000 0.000000
# 5 0.000000 0.000000 0.000000 0.000000 0.029656 0.000000
# 6 0.000000 0.000000 0.000000 0.000000 0.000000 0.032017
#
#
# Mechanical properties :
#
#
# Convention : Reuss Voigt Hill
#
# Bulk Modulus (GPa) = 46.77860 72.46199 59.62029
# Shear Modulus (GPa) = 25.50879 29.92022 27.71451
#
# Velocity S-wave (km/s) = 3.63029 3.93169 3.78399
# Velocity P-wave (km/s) = 6.46065 7.61893 7.06357
#
# Compressibility (1/GPa) = 0.02137730
#
# Stress axis : x y z
#
# Youngs Moduli (GPa) = 109.48428 44.34846 39.11481
#
# Poissons Ratio (x) = 0.30291 0.19162
# Poissons Ratio (y) = 0.74779 0.24276
# Poissons Ratio (z) = 0.53635 0.27525
#
# Static dielectric constant tensor:
#      x y z
#    x 1.676340 0.000000 0.000000 
#    y 0.000000 1.678170 0.000000 
#    z 0.000000 0.000000 1.704620 
# 
# From -- ./inp_files/15459.got.cif
#   From: 2010.05.17/outbox.cif.g08.bks.cpg/sg38_8_cif.got.tgz:15459.got - 2010.06.03 18:07:57.
