data_PCOD9358050
_publ_section_title
;
Structure prediction by ZEFSAII (Michael W. Deem and Ramdas Pophale) SiO2 
 PCOD9358050
Probable space group: A M M 2
;
_chemical_formula_sum "Si O2"
_cell_formula_units_Z 64
_cell_length_a 8.808792
_cell_length_b 33.292417
_cell_length_c 11.770656
_cell_angle_alpha 90.000000
_cell_angle_beta 90.000000
_cell_angle_gamma 90.000000
_cell_volume 3451.932926
_symmetry_space_group_name_H-M "A M M 2"
_symmetry_group_IT_number 38
_symmetry_cell_setting 'orthorhombic'
loop_
_space_group_symop_operation_xyz
x,y,z
-x,-y,z
-x,y,z
x,-y,z
x,1/2+y,1/2+z
-x,1/2-y,1/2+z
-x,1/2+y,1/2+z
x,1/2-y,1/2+z
loop_
_atom_site_type_symbol
_atom_site_label
_atom_site_fract_x
_atom_site_fract_y
_atom_site_fract_z
Si Si1 0.173510 0.047877 0.025090
Si Si2 0.679234 0.896402 0.863984
Si Si3 0.181267 0.621264 0.897471
Si Si4 0.681124 0.850883 0.636494
Si Si5 0.321619 0.688987 0.736346
Si Si6 0.821858 0.224352 0.770239
Si Si7 0.317901 0.952587 0.266765
Si Si8 0.175267 0.324349 0.499073
O O1 0.255898 0.060107 0.142282
O O2 0.000000 0.062812 0.024287
O O3 0.169638 0.000000 0.027228
O O4 0.263529 0.061854 0.913820
O O5 0.500000 0.891325 0.884026
O O6 0.707596 0.884716 0.733576
O O7 0.774206 0.865173 0.939139
O O8 0.235618 0.655029 0.808149
O O9 0.248625 0.578403 0.857203
O O10 0.000000 0.619062 0.899212
O O11 0.243589 0.635372 0.019660
O O12 0.500000 0.846002 0.622026
O O13 0.749544 0.809557 0.688031
O O14 0.500000 0.685584 0.758560
O O15 0.261825 0.733389 0.764108
O O16 0.283360 0.683066 0.604400
O O17 0.810771 0.208311 0.899154
O O18 0.000000 0.228876 0.741542
O O19 0.500000 0.949507 0.267397
O O20 0.278460 0.000000 0.285267
O O21 0.000000 0.325618 0.536770
#
# Coordination Sequence:
#
# PCOD9358050 Si02
#       8
#     8   8   8   8   8   8   8   8
#     4  10  20  34  56  87 121 154 191 238 292 350
#     4  10  20  36  59  84 113 148 189 235 287 347
#     4  12  25  41  62  88 120 158 203 251 300 360
#     4  10  22  41  62  85 116 156 200 245 297 356
#     4  12  25  39  59  85 118 154 196 245 293 351
#     4  10  22  40  61  85 115 152 194 241 297 352
#     4  10  21  39  63  90 122 158 198 247 304 362
#     4  10  21  38  59  82 111 146 188 235 286 343
#
# _framework density 18.540337000000001
#
# number of rings (size 3 to 8) (size 9 to 14) (size 15 to 20)
#    0.000    1.500    0.000    5.250    1.750    4.500 
#    0.000    0.625    0.000    0.750    0.000    0.000 
#    0.000    0.000    0.000    0.000    0.000    0.000 
#
# Total GULP energy -178773.517127 kJ/mol
# GULP energy per Si atom -5586.672410 kJ/mol
# Density = 1.849814 g / cm^3
# Si number density = 18.540337 Si / 1000 Ang^3
#
#
#
# Elastic Constant Matrix: (Units=GPa)
#
#
# Indices 1 2 3 4 5 6 
#
# 1 106.9711 43.0935 46.6587 0.0000 0.0000 0.0000
# 2 43.0935 75.7694 51.2883 0.0000 0.0000 0.0000
# 3 46.6587 51.2883 70.0534 0.0000 0.0000 0.0000
# 4 0.0000 0.0000 0.0000 9.8835 0.0000 0.0000
# 5 0.0000 0.0000 0.0000 0.0000 33.6876 0.0000
# 6 0.0000 0.0000 0.0000 0.0000 0.0000 29.7855
#
#
#
# Elastic Compliance Matrix: (Units=1/GPa)
#
#
# Indices 1 2 3 4 5 6 
#
# 1 0.013549 -0.003167 -0.006706 0.000000 0.000000 0.000000
# 2 -0.003167 0.026905 -0.017589 0.000000 0.000000 0.000000
# 3 -0.006706 -0.017589 0.031618 0.000000 0.000000 0.000000
# 4 0.000000 0.000000 0.000000 0.101178 0.000000 0.000000
# 5 0.000000 0.000000 0.000000 0.000000 0.029685 0.000000
# 6 0.000000 0.000000 0.000000 0.000000 0.000000 0.033573
#
#
# Mechanical properties :
#
#
# Convention : Reuss Voigt Hill
#
# Bulk Modulus (GPa) = 58.30965 59.43053 58.87009
# Shear Modulus (GPa) = 16.82669 22.12157 19.47413
#
# Velocity S-wave (km/s) = 3.01586 3.45796 3.24445
# Velocity P-wave (km/s) = 6.60649 6.93308 6.77175
#
# Compressibility (1/GPa) = 0.01714982
#
# Stress axis : x y z
#
# Youngs Moduli (GPa) = 73.80638 37.16812 31.62732
#
# Poissons Ratio (x) = 0.11771 0.21208
# Poissons Ratio (y) = 0.23373 0.55628
# Poissons Ratio (z) = 0.49492 0.65373
#
# Static dielectric constant tensor:
#      x y z
#    x 1.625710 0.000000 0.000000 
#    y 0.000000 1.670490 0.000000 
#    z 0.000000 0.000000 1.630640 
# 
# From -- ./inp_files/8556.got.cif
#   From: 2010.05.17/outbox.cif.g08.bks.cpg/sg38_5_cif.got.tgz:8556.got - 2010.06.03 18:07:57.
