data_PCOD9358800
_publ_section_title
;
Structure prediction by ZEFSAII (Michael W. Deem and Ramdas Pophale) SiO2 
 PCOD9358800
Probable space group: A M M 2
;
_chemical_formula_sum "Si O2"
_cell_formula_units_Z 56
_cell_length_a 17.025507
_cell_length_b 7.769463
_cell_length_c 21.154899
_cell_angle_alpha 90.000000
_cell_angle_beta 90.000000
_cell_angle_gamma 90.000000
_cell_volume 2798.349873
_symmetry_space_group_name_H-M "A M M 2"
_symmetry_group_IT_number 38
_symmetry_cell_setting 'orthorhombic'
loop_
_space_group_symop_operation_xyz
x,y,z
-x,-y,z
-x,y,z
x,-y,z
x,1/2+y,1/2+z
-x,1/2-y,1/2+z
-x,1/2+y,1/2+z
x,1/2-y,1/2+z
loop_
_atom_site_type_symbol
_atom_site_label
_atom_site_fract_x
_atom_site_fract_y
_atom_site_fract_z
Si Si1 0.000000 0.793777 0.352860
Si Si2 0.828815 0.795597 0.891741
Si Si3 0.588326 0.207196 0.473677
Si Si4 0.410693 0.291964 0.828760
Si Si5 0.745686 0.701506 0.265761
Si Si6 0.838223 0.299212 0.645208
Si Si7 0.752954 0.793243 0.020959
Si Si8 0.000000 0.288412 0.706034
O O1 0.921419 0.732456 0.387114
O O2 0.000000 0.733584 0.279543
O O3 0.000000 0.000000 0.352091
O O4 0.790418 0.724693 0.827438
O O5 0.812749 0.000000 0.891219
O O6 0.790651 0.725076 0.955726
O O7 0.500000 0.266811 0.490456
O O8 0.605479 0.265380 0.401293
O O9 0.660003 0.258612 0.518120
O O10 0.586058 0.000000 0.471982
O O11 0.500000 0.241675 0.813619
O O12 0.406848 0.500000 0.828084
O O13 0.345652 0.222608 0.781534
O O14 0.764785 0.500000 0.259685
O O15 0.776641 0.787457 0.202489
O O16 0.854011 0.500000 0.632147
O O17 0.798816 0.224374 0.582141
O O18 0.921077 0.228214 0.670756
O O19 0.761772 0.000000 0.021187
O O20 0.000000 0.500000 0.707228
#
# Coordination Sequence:
#
# PCOD9358800 Si02
#       8
#     4   8   8   8   8   8   8   4
#     4  11  21  34  57  85 107 140 190 233 273 320
#     4  10  21  36  54  81 114 142 174 226 284 328
#     4   9  18  33  55  82 112 146 182 227 281 329
#     4   9  18  33  55  83 112 145 186 230 275 324
#     4  11  21  34  55  83 113 144 179 224 281 331
#     4  10  21  38  59  80 108 148 191 229 270 327
#     4  10  21  37  57  83 113 148 185 225 277 332
#     4   9  18  34  55  79 103 136 186 231 267 318
#
# _framework density 20.011792
#
# number of rings (size 3 to 8) (size 9 to 14) (size 15 to 20)
#    0.000    2.143    2.857    1.500    0.000    2.857 
#    0.000    4.643    0.000    0.857    0.000    0.000 
#    0.000    0.000    0.000    0.000    0.000    0.000 
#
# Total GULP energy -156294.279385 kJ/mol
# GULP energy per Si atom -5581.938549 kJ/mol
# Density = 1.996624 g / cm^3
# Si number density = 20.011792 Si / 1000 Ang^3
#
#
#
# Elastic Constant Matrix: (Units=GPa)
#
#
# Indices 1 2 3 4 5 6 
#
# 1 127.0873 -13.1830 52.6830 0.0000 0.0000 0.0000
# 2 -13.1830 26.3149 0.5258 0.0000 0.0000 0.0000
# 3 52.6830 0.5258 103.5269 0.0000 0.0000 0.0000
# 4 0.0000 0.0000 0.0000 11.5301 0.0000 0.0000
# 5 0.0000 0.0000 0.0000 0.0000 21.3758 0.0000
# 6 0.0000 0.0000 0.0000 0.0000 0.0000 16.4865
#
#
#
# Elastic Compliance Matrix: (Units=1/GPa)
#
#
# Indices 1 2 3 4 5 6 
#
# 1 0.010706 0.005473 -0.005476 0.000000 0.000000 0.000000
# 2 0.005473 0.040803 -0.002992 0.000000 0.000000 0.000000
# 3 -0.005476 -0.002992 0.012461 0.000000 0.000000 0.000000
# 4 0.000000 0.000000 0.000000 0.086729 0.000000 0.000000
# 5 0.000000 0.000000 0.000000 0.000000 0.046782 0.000000
# 6 0.000000 0.000000 0.000000 0.000000 0.000000 0.060656
#
#
# Mechanical properties :
#
#
# Convention : Reuss Voigt Hill
#
# Bulk Modulus (GPa) = 17.24745 37.44231 27.34488
# Shear Modulus (GPa) = 17.63949 24.33870 20.98909
#
# Velocity S-wave (km/s) = 2.97215 3.49121 3.24209
# Velocity P-wave (km/s) = 4.51836 5.91626 5.26392
#
# Compressibility (1/GPa) = 0.05797958
#
# Stress axis : x y z
#
# Youngs Moduli (GPa) = 93.40209 24.50808 80.24898
#
# Poissons Ratio (x) = -0.13413 0.43945
# Poissons Ratio (y) = -0.51119 0.24013
# Poissons Ratio (z) = 0.51148 0.07334
#
# Static dielectric constant tensor:
#      x y z
#    x 1.704190 0.000000 0.000000 
#    y 0.000000 1.740030 0.000000 
#    z 0.000000 0.000000 1.694860 
# 
# From -- ./inp_files/21137.got.cif
#   From: 2010.05.17/outbox.cif.g08.bks.cpg/sg38_11_cif.got.tgz:21137.got - 2010.06.03 18:07:57.
