data_PCOD9358413
_publ_section_title
;
Structure prediction by ZEFSAII (Michael W. Deem and Ramdas Pophale) SiO2 
 PCOD9358413
Probable space group: A M M 2
;
_chemical_formula_sum "Si O2"
_cell_formula_units_Z 48
_cell_length_a 13.120461
_cell_length_b 16.591514
_cell_length_c 11.308503
_cell_angle_alpha 90.000000
_cell_angle_beta 90.000000
_cell_angle_gamma 90.000000
_cell_volume 2461.728933
_symmetry_space_group_name_H-M "A M M 2"
_symmetry_group_IT_number 38
_symmetry_cell_setting 'orthorhombic'
loop_
_space_group_symop_operation_xyz
x,y,z
-x,-y,z
-x,y,z
x,-y,z
x,1/2+y,1/2+z
-x,1/2-y,1/2+z
-x,1/2+y,1/2+z
x,1/2-y,1/2+z
loop_
_atom_site_type_symbol
_atom_site_label
_atom_site_fract_x
_atom_site_fract_y
_atom_site_fract_z
Si Si1 0.203866 0.196264 0.415890
Si Si2 0.262251 0.852032 0.798527
Si Si3 0.693968 0.909371 0.045557
Si Si4 0.617925 0.235125 0.592374
Si Si5 0.113771 0.411808 0.108157
Si Si6 0.882494 0.405257 0.703064
O O1 0.191841 0.284985 0.362578
O O2 0.313120 0.201468 0.483432
O O3 0.131612 0.161222 0.517890
O O4 0.181568 0.138412 0.305634
O O5 0.313219 0.900815 0.904269
O O6 0.339878 0.804140 0.713097
O O7 0.194197 0.904700 0.712272
O O8 0.663164 0.000000 0.082671
O O9 0.635163 0.831825 0.096205
O O10 0.811820 0.897784 0.087013
O O11 0.500000 0.216952 0.575134
O O12 0.125646 0.500000 0.048614
O O13 0.000000 0.407309 0.155656
O O14 0.888289 0.500000 0.730061
O O15 0.000000 0.375387 0.693841
#
# Coordination Sequence:
#
# PCOD9358413 Si02
#       6
#     8   8   8   8   8   8
#     4  10  20  37  57  86 116 150 197 240 293 345
#     4  10  21  38  57  86 116 153 191 247 296 344
#     4  10  21  39  61  88 120 154 198 244 291 355
#     4  10  22  41  63  84 114 154 200 252 310 352
#     4  10  21  36  56  82 115 156 194 233 286 346
#     4  10  20  36  60  89 125 165 197 235 294 356
#
# _framework density 19.498491999999999
#
# number of rings (size 3 to 8) (size 9 to 14) (size 15 to 20)
#    0.000    2.000    1.667    1.500    0.000    6.333 
#    0.000    4.167    0.000   17.500    0.000    0.000 
#    0.000    0.000    0.000    0.000    0.000    0.000 
#
# Total GULP energy -133711.468729 kJ/mol
# GULP energy per Si atom -5571.311197 kJ/mol
# Density = 1.945411 g / cm^3
# Si number density = 19.498492 Si / 1000 Ang^3
#
#
#
# Elastic Constant Matrix: (Units=GPa)
#
#
# Indices 1 2 3 4 5 6 
#
# 1 83.4510 42.3867 23.8570 0.0000 0.0000 0.0000
# 2 42.3867 75.3325 22.5218 0.0000 0.0000 0.0000
# 3 23.8570 22.5218 78.9529 0.0000 0.0000 0.0000
# 4 0.0000 0.0000 0.0000 27.6548 0.0000 0.0000
# 5 0.0000 0.0000 0.0000 0.0000 3.5983 0.0000
# 6 0.0000 0.0000 0.0000 0.0000 0.0000 14.9656
#
#
#
# Elastic Compliance Matrix: (Units=1/GPa)
#
#
# Indices 1 2 3 4 5 6 
#
# 1 0.017280 -0.008923 -0.002676 0.000000 0.000000 0.000000
# 2 -0.008923 0.019120 -0.002758 0.000000 0.000000 0.000000
# 3 -0.002676 -0.002758 0.014261 0.000000 0.000000 0.000000
# 4 0.000000 0.000000 0.000000 0.036160 0.000000 0.000000
# 5 0.000000 0.000000 0.000000 0.000000 0.277910 0.000000
# 6 0.000000 0.000000 0.000000 0.000000 0.000000 0.066820
#
#
# Mechanical properties :
#
#
# Convention : Reuss Voigt Hill
#
# Bulk Modulus (GPa) = 45.56388 46.14081 45.85234
# Shear Modulus (GPa) = 10.69334 19.17511 14.93423
#
# Velocity S-wave (km/s) = 2.34438 3.13935 2.77052
# Velocity P-wave (km/s) = 5.54498 6.07090 5.81389
#
# Compressibility (1/GPa) = 0.02194721
#
# Stress axis : x y z
#
# Youngs Moduli (GPa) = 57.86937 52.30257 70.12068
#
# Poissons Ratio (x) = 0.46669 0.18766
# Poissons Ratio (y) = 0.51636 0.19338
# Poissons Ratio (z) = 0.15487 0.14424
#
# Static dielectric constant tensor:
#      x y z
#    x 1.662870 0.000000 0.000000 
#    y 0.000000 1.730220 0.000000 
#    z 0.000000 0.000000 1.701410 
# 
# From -- ./inp_files/9221.got.cif
#   From: 2010.05.17/outbox.cif.g08.bks.cpg/sg38_5_cif.got.tgz:9221.got - 2010.06.03 18:07:57.
