data_PCOD9358425
_publ_section_title
;
Structure prediction by ZEFSAII (Michael W. Deem and Ramdas Pophale) SiO2 
 PCOD9358425
Probable space group: A M M 2
;
_chemical_formula_sum "Si O2"
_cell_formula_units_Z 48
_cell_length_a 21.497877
_cell_length_b 12.820091
_cell_length_c 8.563165
_cell_angle_alpha 90.000000
_cell_angle_beta 90.000000
_cell_angle_gamma 90.000000
_cell_volume 2360.048859
_symmetry_space_group_name_H-M "A M M 2"
_symmetry_group_IT_number 38
_symmetry_cell_setting 'orthorhombic'
loop_
_space_group_symop_operation_xyz
x,y,z
-x,-y,z
-x,y,z
x,-y,z
x,1/2+y,1/2+z
-x,1/2-y,1/2+z
-x,1/2+y,1/2+z
x,1/2-y,1/2+z
loop_
_atom_site_type_symbol
_atom_site_label
_atom_site_fract_x
_atom_site_fract_y
_atom_site_fract_z
Si Si1 0.926584 0.874253 0.108880
Si Si2 0.573607 0.621359 0.762867
Si Si3 0.646437 0.772664 0.542202
Si Si4 0.721598 0.875911 0.819431
Si Si5 0.073366 0.373884 0.951170
Si Si6 0.866413 0.873339 0.779987
O O1 0.899458 0.844995 0.279961
O O2 0.000000 0.850981 0.111972
O O3 0.921169 0.000000 0.105477
O O4 0.898876 0.840191 0.942435
O O5 0.500000 0.633082 0.789612
O O6 0.585949 0.500000 0.725606
O O7 0.596589 0.698096 0.626896
O O8 0.612367 0.656760 0.914062
O O9 0.680901 0.843692 0.669359
O O10 0.695291 0.695202 0.458815
O O11 0.793420 0.849329 0.787573
O O12 0.716600 0.000000 0.851004
O O13 0.077282 0.500000 0.953978
O O14 0.000000 0.348976 0.951976
O O15 0.103170 0.339882 0.115478
O O16 0.871381 0.000000 0.778843
#
# Coordination Sequence:
#
# PCOD9358425 Si02
#       6
#     8   8   8   8   8   8
#     4   8  13  22  38  65 100 134 177 237 296 350
#     4  10  20  36  61  91 119 152 193 235 284 339
#     4  10  21  38  58  84 121 156 192 236 288 334
#     4  10  21  38  57  81 116 156 199 239 286 347
#     4   8  13  22  38  65 100 134 177 237 296 350
#     4   9  16  27  44  70 103 142 188 237 287 347
#
# _framework density 20.338562
#
# number of rings (size 3 to 8) (size 9 to 14) (size 15 to 20)
#    0.000    2.833    0.000    3.000    0.000    2.000 
#    6.000    0.000    0.000    8.000    0.000    4.667 
#    0.000    0.000    0.000    0.000    0.000   18.667 
#
# Total GULP energy -134013.075900 kJ/mol
# GULP energy per Si atom -5583.878162 kJ/mol
# Density = 2.029227 g / cm^3
# Si number density = 20.338562 Si / 1000 Ang^3
#
#
#
# Elastic Constant Matrix: (Units=GPa)
#
#
# Indices 1 2 3 4 5 6 
#
# 1 67.2473 8.8830 21.6549 0.0000 0.0000 0.0000
# 2 8.8830 63.8242 30.9791 0.0000 0.0000 0.0000
# 3 21.6549 30.9791 93.8524 0.0000 0.0000 0.0000
# 4 0.0000 0.0000 0.0000 42.5593 0.0000 0.0000
# 5 0.0000 0.0000 0.0000 0.0000 5.0793 0.0000
# 6 0.0000 0.0000 0.0000 0.0000 0.0000 -3.5235
#
#
#
# Elastic Compliance Matrix: (Units=1/GPa)
#
#
# Indices 1 2 3 4 5 6 
#
# 1 0.016079 -0.000520 -0.003538 0.000000 0.000000 0.000000
# 2 -0.000520 0.018674 -0.006044 0.000000 0.000000 0.000000
# 3 -0.003538 -0.006044 0.013466 0.000000 0.000000 0.000000
# 4 0.000000 0.000000 0.000000 0.023497 0.000000 0.000000
# 5 0.000000 0.000000 0.000000 0.000000 0.196879 0.000000
# 6 0.000000 0.000000 0.000000 0.000000 0.000000 -0.283805
#
#
# Mechanical properties :
#
#
# Convention : Reuss Voigt Hill
#
# Bulk Modulus (GPa) = 35.69629 38.66198 37.17913
# Shear Modulus (GPa) = 348.85229 19.71679 184.28454
#
# Velocity S-wave (km/s) = 13.11087 3.11694 9.52917
# Velocity P-wave (km/s) = 15.70931 5.65723 11.80650
#
# Compressibility (1/GPa) = 0.02801411
#
# Stress axis : x y z
#
# Youngs Moduli (GPa) = 62.19460 53.55014 74.25905
#
# Poissons Ratio (x) = 0.02787 0.26273
# Poissons Ratio (y) = 0.03237 0.44882
# Poissons Ratio (z) = 0.22005 0.32365
#
# Static dielectric constant tensor:
#      x y z
#    x 1.659710 0.000000 0.000000 
#    y 0.000000 1.785520 0.000000 
#    z 0.000000 0.000000 1.725610 
# 
# From -- ./inp_files/6189.got.cif
#   From: 2010.05.17/outbox.cif.g08.bks.cpg/sg38_4_cif.got.tgz:6189.got - 2010.06.03 18:07:57.
