data_PCOD9358702
_publ_section_title
;
Structure prediction by ZEFSAII (Michael W. Deem and Ramdas Pophale) SiO2 
 PCOD9358702
Probable space group: A M M 2
;
_chemical_formula_sum "Si O2"
_cell_formula_units_Z 56
_cell_length_a 9.441494
_cell_length_b 16.953206
_cell_length_c 18.016316
_cell_angle_alpha 90.000000
_cell_angle_beta 90.000000
_cell_angle_gamma 90.000000
_cell_volume 2883.756267
_symmetry_space_group_name_H-M "A M M 2"
_symmetry_group_IT_number 38
_symmetry_cell_setting 'orthorhombic'
loop_
_space_group_symop_operation_xyz
x,y,z
-x,-y,z
-x,y,z
x,-y,z
x,1/2+y,1/2+z
-x,1/2-y,1/2+z
-x,1/2+y,1/2+z
x,1/2-y,1/2+z
loop_
_atom_site_type_symbol
_atom_site_label
_atom_site_fract_x
_atom_site_fract_y
_atom_site_fract_z
Si Si1 0.828311 0.408847 0.073580
Si Si2 0.330819 0.664490 0.773336
Si Si3 0.158042 0.135902 0.890502
Si Si4 0.344100 0.907649 0.019577
Si Si5 0.168363 0.677311 0.225889
Si Si6 0.157260 0.592504 0.649123
Si Si7 0.164142 0.676168 0.920514
O O1 0.779399 0.500000 0.068463
O O2 0.786986 0.367701 0.151247
O O3 0.000000 0.410911 0.075021
O O4 0.791277 0.357739 0.000525
O O5 0.500000 0.666348 0.773231
O O6 0.263197 0.746179 0.742425
O O7 0.263895 0.602439 0.716805
O O8 0.267040 0.649028 0.854739
O O9 0.279791 0.097026 0.938145
O O10 0.178178 0.127950 0.802401
O O11 0.163556 0.228747 0.912873
O O12 0.000000 0.106737 0.910168
O O13 0.500000 0.871494 0.025039
O O14 0.356815 0.000000 0.038539
O O15 0.231992 0.870880 0.076839
O O16 0.000000 0.697775 0.219894
O O17 0.139793 0.500000 0.635497
O O18 0.000000 0.625551 0.663040
O O19 0.000000 0.651110 0.906808
#
# Coordination Sequence:
#
# PCOD9358702 Si02
#       7
#     8   8   8   8   8   8   8
#     4   9  18  34  59  89 116 145 187 240 290 334
#     4  11  22  36  56  83 114 149 186 230 283 335
#     4   9  18  32  52  79 109 146 192 234 274 325
#     4  10  21  35  51  77 112 145 180 225 278 335
#     4   9  19  36  58  84 112 146 190 236 278 330
#     4  10  21  37  57  80 107 142 183 226 275 332
#     4   9  19  36  56  82 112 146 190 234 276 331
#
# _framework density 19.419117
#
# number of rings (size 3 to 8) (size 9 to 14) (size 15 to 20)
#    0.000    2.429    0.000    3.000    2.000    5.143 
#    0.000    3.571    0.000    1.286    0.000    0.000 
#    0.000    0.000    0.000    0.000    0.000    0.000 
#
# Total GULP energy -156057.995852 kJ/mol
# GULP energy per Si atom -5573.499852 kJ/mol
# Density = 1.937492 g / cm^3
# Si number density = 19.419117 Si / 1000 Ang^3
#
#
#
# Elastic Constant Matrix: (Units=GPa)
#
#
# Indices 1 2 3 4 5 6 
#
# 1 125.0337 18.2515 60.5213 0.0000 0.0000 0.0000
# 2 18.2515 26.7973 40.4568 0.0000 0.0000 0.0000
# 3 60.5213 40.4568 156.0952 0.0000 0.0000 0.0000
# 4 0.0000 0.0000 0.0000 20.5817 0.0000 0.0000
# 5 0.0000 0.0000 0.0000 0.0000 23.5883 0.0000
# 6 0.0000 0.0000 0.0000 0.0000 0.0000 15.4249
#
#
#
# Elastic Compliance Matrix: (Units=1/GPa)
#
#
# Indices 1 2 3 4 5 6 
#
# 1 0.009885 -0.001555 -0.003430 0.000000 0.000000 0.000000
# 2 -0.001555 0.061550 -0.015350 0.000000 0.000000 0.000000
# 3 -0.003430 -0.015350 0.011714 0.000000 0.000000 0.000000
# 4 0.000000 0.000000 0.000000 0.048587 0.000000 0.000000
# 5 0.000000 0.000000 0.000000 0.000000 0.042394 0.000000
# 6 0.000000 0.000000 0.000000 0.000000 0.000000 0.064830
#
#
# Mechanical properties :
#
#
# Convention : Reuss Voigt Hill
#
# Bulk Modulus (GPa) = 23.53975 60.70950 42.12462
# Shear Modulus (GPa) = 17.01899 24.49875 20.75887
#
# Velocity S-wave (km/s) = 2.96362 3.55572 3.27309
# Velocity P-wave (km/s) = 4.88457 6.94177 6.00197
#
# Compressibility (1/GPa) = 0.04248133
#
# Stress axis : x y z
#
# Youngs Moduli (GPa) = 101.16476 16.24684 85.36458
#
# Poissons Ratio (x) = 0.02526 0.29277
# Poissons Ratio (y) = 0.15729 1.31033
# Poissons Ratio (z) = 0.34696 0.24939
#
# Static dielectric constant tensor:
#      x y z
#    x 1.669150 0.000000 0.000000 
#    y 0.000000 1.713390 0.000000 
#    z 0.000000 0.000000 1.692840 
# 
# From -- ./inp_files/12381.got.cif
#   From: 2010.05.17/outbox.cif.g08.bks.cpg/sg38_7_cif.got.tgz:12381.got - 2010.06.03 18:07:57.
