data_PCOD9358462
_publ_section_title
;
Structure prediction by ZEFSAII (Michael W. Deem and Ramdas Pophale) SiO2 
 PCOD9358462
Probable space group: A M M 2
;
_chemical_formula_sum "Si O2"
_cell_formula_units_Z 48
_cell_length_a 10.513189
_cell_length_b 8.690077
_cell_length_c 29.051005
_cell_angle_alpha 90.000000
_cell_angle_beta 90.000000
_cell_angle_gamma 90.000000
_cell_volume 2654.112074
_symmetry_space_group_name_H-M "A M M 2"
_symmetry_group_IT_number 38
_symmetry_cell_setting 'orthorhombic'
loop_
_space_group_symop_operation_xyz
x,y,z
-x,-y,z
-x,y,z
x,-y,z
x,1/2+y,1/2+z
-x,1/2-y,1/2+z
-x,1/2+y,1/2+z
x,1/2-y,1/2+z
loop_
_atom_site_type_symbol
_atom_site_label
_atom_site_fract_x
_atom_site_fract_y
_atom_site_fract_z
Si Si1 0.000000 0.316311 0.563441
Si Si2 0.746338 0.814092 0.720644
Si Si3 0.647674 0.814872 0.416307
Si Si4 0.500000 0.182529 0.170346
Si Si5 0.751674 0.185195 0.513408
Si Si6 0.500000 0.183624 0.061205
Si Si7 0.000000 0.313325 0.166883
Si Si8 0.648568 0.314801 0.317860
O O1 0.124753 0.256055 0.537050
O O2 0.000000 0.500000 0.564470
O O3 0.000000 0.253327 0.615601
O O4 0.624727 0.754624 0.693042
O O5 0.729803 0.764204 0.773750
O O6 0.874827 0.765242 0.695177
O O7 0.743725 0.000000 0.720546
O O8 0.500000 0.765489 0.423854
O O9 0.731850 0.768474 0.459998
O O10 0.689348 0.750949 0.367021
O O11 0.647520 0.000000 0.414417
O O12 0.500000 0.210392 0.115830
O O13 0.500000 0.000000 0.178194
O O14 0.625405 0.241741 0.539448
O O15 0.758851 0.000000 0.515712
O O16 0.500000 0.000000 0.052930
O O17 0.000000 0.500000 0.163627
O O18 0.500000 0.269925 0.310402
O O19 0.652123 0.500000 0.320174
#
# Coordination Sequence:
#
# PCOD9358462 Si02
#       8
#     4   8   8   4   8   4   4   8
#     4  12  26  42  59  84 119 155 194 245 299 350
#     4  10  20  37  58  83 113 147 192 236 279 337
#     4   9  18  34  56  85 116 147 187 234 282 337
#     4  11  23  35  52  81 112 145 186 235 290 339
#     4  11  22  40  62  85 114 154 200 239 285 351
#     4  11  23  37  56  87 120 147 188 247 300 343
#     4  10  22  40  63  84 109 155 198 233 285 348
#     4   9  17  31  53  82 115 150 185 229 285 337
#
# _framework density 18.085145000000001
#
# number of rings (size 3 to 8) (size 9 to 14) (size 15 to 20)
#    0.000    1.833    1.667    2.750    0.000    6.667 
#    0.000    0.833    0.000    1.000    0.000    0.000 
#    0.000    0.000    0.000    0.000    0.000    0.000 
#
# Total GULP energy -134027.206290 kJ/mol
# GULP energy per Si atom -5584.466929 kJ/mol
# Density = 1.804398 g / cm^3
# Si number density = 18.085145 Si / 1000 Ang^3
#
#
#
# Elastic Constant Matrix: (Units=GPa)
#
#
# Indices 1 2 3 4 5 6 
#
# 1 156.5754 38.7480 105.0408 0.0000 0.0000 0.0000
# 2 38.7480 32.4126 53.8906 0.0000 0.0000 0.0000
# 3 105.0408 53.8906 190.3639 0.0000 0.0000 0.0000
# 4 0.0000 0.0000 0.0000 32.6555 0.0000 0.0000
# 5 0.0000 0.0000 0.0000 0.0000 27.7053 0.0000
# 6 0.0000 0.0000 0.0000 0.0000 0.0000 -6.8403
#
#
#
# Elastic Compliance Matrix: (Units=1/GPa)
#
#
# Indices 1 2 3 4 5 6 
#
# 1 0.010652 -0.005595 -0.004294 0.000000 0.000000 0.000000
# 2 -0.005595 0.061226 -0.014245 0.000000 0.000000 0.000000
# 3 -0.004294 -0.014245 0.011655 0.000000 0.000000 0.000000
# 4 0.000000 0.000000 0.000000 0.030623 0.000000 0.000000
# 5 0.000000 0.000000 0.000000 0.000000 0.036094 0.000000
# 6 0.000000 0.000000 0.000000 0.000000 0.000000 -0.146193
#
#
# Mechanical properties :
#
#
# Convention : Reuss Voigt Hill
#
# Bulk Modulus (GPa) = 28.35698 86.07898 57.21798
# Shear Modulus (GPa) = 78.02787 22.81558 50.42172
#
# Velocity S-wave (km/s) = 6.57559 3.55570 5.28590
# Velocity P-wave (km/s) = 8.56533 8.03475 8.30428
#
# Compressibility (1/GPa) = 0.03526468
#
# Stress axis : x y z
#
# Youngs Moduli (GPa) = 93.88142 16.33299 85.79996
#
# Poissons Ratio (x) = 0.09138 0.36839
# Poissons Ratio (y) = 0.52527 1.22225
# Poissons Ratio (z) = 0.40309 0.23267
#
# Static dielectric constant tensor:
#      x y z
#    x 1.590810 0.000000 0.000000 
#    y 0.000000 1.610460 0.000000 
#    z 0.000000 0.000000 1.617440 
# 
# From -- ./inp_files/24464.got.cif
#   From: 2010.05.17/outbox.cif.g08.bks.cpg/sg38_13_cif.got.tgz:24464.got - 2010.06.03 18:07:57.
