data_PCOD9358362
_publ_section_title
;
Structure prediction by ZEFSAII (Michael W. Deem and Ramdas Pophale) SiO2 
 PCOD9358362
Probable space group: A M M 2
;
_chemical_formula_sum "Si O2"
_cell_formula_units_Z 64
_cell_length_a 24.386304
_cell_length_b 7.676452
_cell_length_c 15.959373
_cell_angle_alpha 90.000000
_cell_angle_beta 90.000000
_cell_angle_gamma 90.000000
_cell_volume 2987.599288
_symmetry_space_group_name_H-M "A M M 2"
_symmetry_group_IT_number 38
_symmetry_cell_setting 'orthorhombic'
loop_
_space_group_symop_operation_xyz
x,y,z
-x,-y,z
-x,y,z
x,-y,z
x,1/2+y,1/2+z
-x,1/2-y,1/2+z
-x,1/2+y,1/2+z
x,1/2-y,1/2+z
loop_
_atom_site_type_symbol
_atom_site_label
_atom_site_fract_x
_atom_site_fract_y
_atom_site_fract_z
Si Si1 0.438290 0.208343 0.255240
Si Si2 0.638501 0.710640 0.604898
Si Si3 0.254555 0.787524 0.853772
Si Si4 0.759015 0.206076 0.660981
Si Si5 0.627674 0.289877 0.419888
Si Si6 0.123059 0.800342 0.101046
Si Si7 0.137472 0.214250 0.918288
Si Si8 0.061420 0.204766 0.767567
O O1 0.500000 0.277217 0.246193
O O2 0.396629 0.276336 0.184036
O O3 0.414568 0.240577 0.347542
O O4 0.440614 0.000000 0.244013
O O5 0.636933 0.500000 0.606529
O O6 0.701987 0.761725 0.614207
O O7 0.616117 0.769386 0.514569
O O8 0.248880 0.733455 0.756945
O O9 0.311853 0.727254 0.892210
O O10 0.200372 0.731970 0.903232
O O11 0.255640 0.000000 0.854346
O O12 0.812014 0.292493 0.620321
O O13 0.770406 0.000000 0.663160
O O14 0.629356 0.500000 0.421692
O O15 0.090850 0.718296 0.178096
O O16 0.104990 0.000000 0.098983
O O17 0.115585 0.725589 0.008144
O O18 0.100623 0.275565 0.840678
O O19 0.137968 0.000000 0.919305
O O20 0.000000 0.279088 0.766368
O O21 0.056735 0.000000 0.786071
#
# Coordination Sequence:
#
# PCOD9358362 Si02
#       8
#     8   8   8   8   8   8   8   8
#     4  10  22  39  56  79 114 150 185 234 290 333
#     4  10  21  37  59  85 114 146 185 233 284 335
#     4   9  16  30  55  82 108 139 180 226 269 321
#     4  11  20  34  59  86 116 150 185 226 277 339
#     4  10  20  36  59  85 110 145 191 233 274 334
#     4  11  22  36  59  88 116 146 186 235 283 331
#     4   9  18  35  58  82 110 147 187 226 272 334
#     4  10  21  39  61  82 109 150 195 234 278 334
#
# _framework density 21.421882
#
# number of rings (size 3 to 8) (size 9 to 14) (size 15 to 20)
#    0.000    2.000    2.500    1.500    0.000    4.000 
#    0.000    3.750    0.000    0.000    0.000    0.000 
#    0.000    0.000    0.000    0.000    0.000    0.000 
#
# Total GULP energy -178781.601240 kJ/mol
# GULP energy per Si atom -5586.925039 kJ/mol
# Density = 2.137312 g / cm^3
# Si number density = 21.421882 Si / 1000 Ang^3
#
#
#
# Elastic Constant Matrix: (Units=GPa)
#
#
# Indices 1 2 3 4 5 6 
#
# 1 96.0191 -7.6594 9.9005 0.0000 0.0000 0.0000
# 2 -7.6594 37.1412 -4.8379 0.0000 0.0000 0.0000
# 3 9.9005 -4.8379 99.5979 0.0000 0.0000 0.0000
# 4 0.0000 0.0000 0.0000 9.5386 0.0000 0.0000
# 5 0.0000 0.0000 0.0000 0.0000 1.1804 0.0000
# 6 0.0000 0.0000 0.0000 0.0000 0.0000 21.7084
#
#
#
# Elastic Compliance Matrix: (Units=1/GPa)
#
#
# Indices 1 2 3 4 5 6 
#
# 1 0.010679 0.002077 -0.000961 0.000000 0.000000 0.000000
# 2 0.002077 0.027500 0.001129 0.000000 0.000000 0.000000
# 3 -0.000961 0.001129 0.010191 0.000000 0.000000 0.000000
# 4 0.000000 0.000000 0.000000 0.104837 0.000000 0.000000
# 5 0.000000 0.000000 0.000000 0.000000 0.847188 0.000000
# 6 0.000000 0.000000 0.000000 0.000000 0.000000 0.046065
#
#
# Mechanical properties :
#
#
# Convention : Reuss Voigt Hill
#
# Bulk Modulus (GPa) = 18.91738 25.28496 22.10117
# Shear Modulus (GPa) = 4.71881 22.17580 13.44731
#
# Velocity S-wave (km/s) = 1.48579 3.22093 2.50819
# Velocity P-wave (km/s) = 3.43416 5.06572 4.32753
#
# Compressibility (1/GPa) = 0.05286144
#
# Stress axis : x y z
#
# Youngs Moduli (GPa) = 93.63866 36.36396 98.12848
#
# Poissons Ratio (x) = -0.07553 0.09427
# Poissons Ratio (y) = -0.19451 -0.11082
# Poissons Ratio (z) = 0.08996 -0.04107
#
# Static dielectric constant tensor:
#      x y z
#    x 1.742940 0.000000 0.000000 
#    y 0.000000 1.817030 0.000000 
#    z 0.000000 0.000000 1.771100 
# 
# From -- ./inp_files/15745.got.cif
#   From: 2010.05.17/outbox.cif.g08.bks.cpg/sg38_8_cif.got.tgz:15745.got - 2010.06.03 18:07:57.
