data_PCOD9358375
_publ_section_title
;
Structure prediction by ZEFSAII (Michael W. Deem and Ramdas Pophale) SiO2 
 PCOD9358375
Probable space group: A M M 2
;
_chemical_formula_sum "Si O2"
_cell_formula_units_Z 64
_cell_length_a 19.701144
_cell_length_b 20.402382
_cell_length_c 8.688088
_cell_angle_alpha 90.000000
_cell_angle_beta 90.000000
_cell_angle_gamma 90.000000
_cell_volume 3492.179280
_symmetry_space_group_name_H-M "A M M 2"
_symmetry_group_IT_number 38
_symmetry_cell_setting 'orthorhombic'
loop_
_space_group_symop_operation_xyz
x,y,z
-x,-y,z
-x,y,z
x,-y,z
x,1/2+y,1/2+z
-x,1/2-y,1/2+z
-x,1/2+y,1/2+z
x,1/2-y,1/2+z
loop_
_atom_site_type_symbol
_atom_site_label
_atom_site_fract_x
_atom_site_fract_y
_atom_site_fract_z
Si Si1 0.646567 0.718770 0.218610
Si Si2 0.887146 0.306115 0.967092
Si Si3 0.726971 0.822071 0.425116
Si Si4 0.177446 0.574686 0.470714
Si Si5 0.076487 0.571628 0.758532
Si Si6 0.579988 0.665917 0.522714
Si Si7 0.923789 0.830663 0.813315
Si Si8 0.693617 0.921431 0.160623
O O1 0.699453 0.763022 0.316744
O O2 0.605934 0.678632 0.348221
O O3 0.598965 0.769776 0.124748
O O4 0.685272 0.678697 0.085085
O O5 0.805529 0.310149 0.961759
O O6 0.913158 0.366701 0.866400
O O7 0.911343 0.236555 0.903855
O O8 0.916293 0.314202 0.135683
O O9 0.714715 0.886395 0.320316
O O10 0.183777 0.500000 0.414353
O O11 0.130565 0.574519 0.622784
O O12 0.136575 0.619879 0.355126
O O13 0.250440 0.598197 0.531126
O O14 0.084548 0.500000 0.836649
O O15 0.000000 0.573948 0.695720
O O16 0.500000 0.654780 0.524948
O O17 0.622703 0.607615 0.601457
O O18 0.000000 0.855783 0.845972
O O19 0.694496 0.000000 0.174343
#
# Coordination Sequence:
#
# PCOD9358375 Si02
#       8
#     8   8   8   8   8   8   8   8
#     4   9  20  35  59  92 125 151 191 238 286 343
#     4  12  24  37  59  83 119 154 195 246 299 357
#     4  10  20  36  59  87 117 155 195 242 291 341
#     4  10  22  41  61  82 110 152 199 244 294 351
#     4  10  20  37  60  82 110 151 197 242 292 349
#     4  10  20  36  63  92 124 157 188 233 286 345
#     4  12  26  39  56  84 119 154 196 250 305 356
#     4  10  22  40  61  88 117 153 200 240 284 346
#
# _framework density 18.326664999999998
#
# number of rings (size 3 to 8) (size 9 to 14) (size 15 to 20)
#    0.000    1.625    1.250    3.375    7.000    1.500 
#    0.000    1.250    0.000    0.000    0.000    0.000 
#    0.000    0.000    0.000    0.000    0.000    0.000 
#
# Total GULP energy -178693.241672 kJ/mol
# GULP energy per Si atom -5584.163802 kJ/mol
# Density = 1.828495 g / cm^3
# Si number density = 18.326665 Si / 1000 Ang^3
#
#
#
# Elastic Constant Matrix: (Units=GPa)
#
#
# Indices 1 2 3 4 5 6 
#
# 1 127.2422 8.8495 11.0724 0.0000 0.0000 0.0000
# 2 8.8495 30.5688 3.6472 0.0000 0.0000 0.0000
# 3 11.0724 3.6472 62.9965 0.0000 0.0000 0.0000
# 4 0.0000 0.0000 0.0000 17.9834 0.0000 0.0000
# 5 0.0000 0.0000 0.0000 0.0000 26.4391 0.0000
# 6 0.0000 0.0000 0.0000 0.0000 0.0000 16.2847
#
#
#
# Elastic Compliance Matrix: (Units=1/GPa)
#
#
# Indices 1 2 3 4 5 6 
#
# 1 0.008125 -0.002197 -0.001301 0.000000 0.000000 0.000000
# 2 -0.002197 0.033535 -0.001555 0.000000 0.000000 0.000000
# 3 -0.001301 -0.001555 0.016193 0.000000 0.000000 0.000000
# 4 0.000000 0.000000 0.000000 0.055607 0.000000 0.000000
# 5 0.000000 0.000000 0.000000 0.000000 0.037823 0.000000
# 6 0.000000 0.000000 0.000000 0.000000 0.000000 0.061407
#
#
# Mechanical properties :
#
#
# Convention : Reuss Voigt Hill
#
# Bulk Modulus (GPa) = 20.94421 29.77175 25.35798
# Shear Modulus (GPa) = 20.94583 25.29066 23.11824
#
# Velocity S-wave (km/s) = 3.38437 3.71885 3.55555
# Velocity P-wave (km/s) = 5.16963 5.89238 5.54280
#
# Compressibility (1/GPa) = 0.04774589
#
# Stress axis : x y z
#
# Youngs Moduli (GPa) = 123.07654 29.81990 61.75666
#
# Poissons Ratio (x) = 0.06551 0.08034
# Poissons Ratio (y) = 0.27039 0.09605
# Poissons Ratio (z) = 0.16011 0.04638
#
# Static dielectric constant tensor:
#      x y z
#    x 1.626400 0.000000 0.000000 
#    y 0.000000 1.678890 0.000000 
#    z 0.000000 0.000000 1.611120 
# 
# From -- ./inp_files/6495.got.cif
#   From: 2010.05.17/outbox.cif.g08.bks.cpg/sg38_4_cif.got.tgz:6495.got - 2010.06.03 18:07:57.
