data_PCOD9358582
_publ_section_title
;
Structure prediction by ZEFSAII (Michael W. Deem and Ramdas Pophale) SiO2 
 PCOD9358582
Probable space group: A M M 2
;
_chemical_formula_sum "Si O2"
_cell_formula_units_Z 48
_cell_length_a 10.354543
_cell_length_b 8.598056
_cell_length_c 28.223368
_cell_angle_alpha 90.000000
_cell_angle_beta 90.000000
_cell_angle_gamma 90.000000
_cell_volume 2512.696552
_symmetry_space_group_name_H-M "A M M 2"
_symmetry_group_IT_number 38
_symmetry_cell_setting 'orthorhombic'
loop_
_space_group_symop_operation_xyz
x,y,z
-x,-y,z
-x,y,z
x,-y,z
x,1/2+y,1/2+z
-x,1/2-y,1/2+z
-x,1/2+y,1/2+z
x,1/2-y,1/2+z
loop_
_atom_site_type_symbol
_atom_site_label
_atom_site_fract_x
_atom_site_fract_y
_atom_site_fract_z
Si Si1 0.000000 0.315433 0.560410
Si Si2 0.768214 0.813433 0.736509
Si Si3 0.646486 0.810215 0.416967
Si Si4 0.500000 0.184978 0.198041
Si Si5 0.732282 0.187927 0.522155
Si Si6 0.500000 0.311731 0.091732
Si Si7 0.000000 0.312188 0.166669
Si Si8 0.852599 0.188183 0.338555
O O1 0.128283 0.251526 0.535414
O O2 0.000000 0.259412 0.614804
O O3 0.000000 0.500000 0.558797
O O4 0.628445 0.749817 0.722765
O O5 0.873732 0.766944 0.696871
O O6 0.813643 0.751380 0.787266
O O7 0.764917 0.000000 0.737640
O O8 0.500000 0.760121 0.406289
O O9 0.686264 0.762326 0.469967
O O10 0.750618 0.758914 0.378199
O O11 0.646531 0.000000 0.416724
O O12 0.500000 0.238969 0.143466
O O13 0.500000 0.000000 0.200836
O O14 0.626017 0.233124 0.561356
O O15 0.737380 0.000000 0.522133
O O16 0.500000 0.500000 0.096450
O O17 0.000000 0.500000 0.162031
O O18 0.000000 0.234359 0.349784
O O19 0.848583 0.000000 0.337032
#
# Coordination Sequence:
#
# PCOD9358582 Si02
#       8
#     4   8   8   4   8   4   4   8
#     4  12  26  38  55  88 125 159 198 249 301 356
#     4  11  23  42  64  88 120 159 203 250 298 358
#     4   9  18  35  61  92 120 151 198 247 289 344
#     4  12  26  40  59  90 123 161 200 247 303 360
#     4  10  20  38  64  89 119 159 203 247 292 350
#     4  10  20  38  63  92 119 153 200 251 299 352
#     4  10  22  42  65  86 113 157 206 249 295 354
#     4  10  21  36  59  92 125 156 194 244 300 355
#
# _framework density 19.102985
#
# number of rings (size 3 to 8) (size 9 to 14) (size 15 to 20)
#    0.000    1.667    1.667    3.000    2.333    6.000 
#    0.000    0.833    0.000    1.000    0.000    0.000 
#    0.000    0.000    0.000    0.000    0.000    0.000 
#
# Total GULP energy -134149.159257 kJ/mol
# GULP energy per Si atom -5589.548302 kJ/mol
# Density = 1.905951 g / cm^3
# Si number density = 19.102985 Si / 1000 Ang^3
#
#
#
# Elastic Constant Matrix: (Units=GPa)
#
#
# Indices 1 2 3 4 5 6 
#
# 1 212.8519 35.3880 87.6642 0.0000 0.0000 0.0000
# 2 35.3880 19.4895 21.7608 0.0000 0.0000 0.0000
# 3 87.6642 21.7608 121.1201 0.0000 0.0000 0.0000
# 4 0.0000 0.0000 0.0000 25.6049 0.0000 0.0000
# 5 0.0000 0.0000 0.0000 0.0000 42.9655 0.0000
# 6 0.0000 0.0000 0.0000 0.0000 0.0000 5.6564
#
#
#
# Elastic Compliance Matrix: (Units=1/GPa)
#
#
# Indices 1 2 3 4 5 6 
#
# 1 0.008023 -0.010112 -0.003990 0.000000 0.000000 0.000000
# 2 -0.010112 0.076931 -0.006503 0.000000 0.000000 0.000000
# 3 -0.003990 -0.006503 0.012312 0.000000 0.000000 0.000000
# 4 0.000000 0.000000 0.000000 0.039055 0.000000 0.000000
# 5 0.000000 0.000000 0.000000 0.000000 0.023274 0.000000
# 6 0.000000 0.000000 0.000000 0.000000 0.000000 0.176791
#
#
# Mechanical properties :
#
#
# Convention : Reuss Voigt Hill
#
# Bulk Modulus (GPa) = 17.83903 71.45418 44.64661
# Shear Modulus (GPa) = 12.61728 28.75525 20.68627
#
# Velocity S-wave (km/s) = 2.57278 3.88400 3.29429
# Velocity P-wave (km/s) = 4.26430 7.58946 6.15565
#
# Compressibility (1/GPa) = 0.05605685
#
# Stress axis : x y z
#
# Youngs Moduli (GPa) = 124.64931 12.99859 81.21969
#
# Poissons Ratio (x) = 0.13144 0.32405
# Poissons Ratio (y) = 1.26047 0.52816
# Poissons Ratio (z) = 0.49732 0.08453
#
# Static dielectric constant tensor:
#      x y z
#    x 1.647350 0.000000 0.000000 
#    y 0.000000 1.652710 0.000000 
#    z 0.000000 0.000000 1.627130 
# 
# From -- ./inp_files/24462.got.cif
#   From: 2010.05.17/outbox.cif.g08.bks.cpg/sg38_13_cif.got.tgz:24462.got - 2010.06.03 18:07:57.
