data_PCOD9358737
_publ_section_title
;
Structure prediction by ZEFSAII (Michael W. Deem and Ramdas Pophale) SiO2 
 PCOD9358737
Probable space group: A M M 2
;
_chemical_formula_sum "Si O2"
_cell_formula_units_Z 58
_cell_length_a 7.763241
_cell_length_b 15.515150
_cell_length_c 23.308668
_cell_angle_alpha 90.000000
_cell_angle_beta 90.000000
_cell_angle_gamma 90.000000
_cell_volume 2807.478914
_symmetry_space_group_name_H-M "A M M 2"
_symmetry_group_IT_number 38
_symmetry_cell_setting 'orthorhombic'
loop_
_space_group_symop_operation_xyz
x,y,z
-x,-y,z
-x,y,z
x,-y,z
x,1/2+y,1/2+z
-x,1/2-y,1/2+z
-x,1/2+y,1/2+z
x,1/2-y,1/2+z
loop_
_atom_site_type_symbol
_atom_site_label
_atom_site_fract_x
_atom_site_fract_y
_atom_site_fract_z
Si Si1 0.699841 0.675821 0.443750
Si Si2 0.000000 0.000000 0.428413
Si Si3 0.701615 0.636909 0.903206
Si Si4 0.792448 0.401432 0.201539
Si Si5 0.705463 0.783174 0.165905
Si Si6 0.807015 0.102506 0.826180
Si Si7 0.711492 0.902283 0.061547
Si Si8 0.796013 0.600068 0.775041
O O1 0.500000 0.685284 0.457727
O O2 0.758018 0.770937 0.427847
O O3 0.715348 0.624107 0.384767
O O4 0.775231 0.628429 0.499042
O O5 0.154108 0.072558 0.425152
O O6 0.500000 0.619472 0.918861
O O7 0.709765 0.633067 0.833626
O O8 0.734136 0.500000 0.186845
O O9 0.753021 0.318066 0.163503
O O10 0.725152 0.374647 0.265024
O O11 0.000000 0.406731 0.206305
O O12 0.500000 0.787526 0.167030
O O13 0.767824 0.836032 0.110520
O O14 0.767494 0.834957 0.222370
O O15 0.000000 0.140867 0.829255
O O16 0.821938 0.000000 0.822585
O O17 0.500000 0.903635 0.061903
O O18 0.767066 0.000000 0.073528
O O19 0.740789 0.500000 0.763081
O O20 0.000000 0.596356 0.787004
#
# Coordination Sequence:
#
# PCOD9358737 Si02
#       8
#     8   2   8   8   8   8   8   8
#     4  10  21  35  57  83 110 148 196 245 293 353
#     4  12  22  40  60  86 122 168 190 252 312 356
#     4  11  22  37  60  90 121 159 205 246 301 371
#     4   9  19  37  58  78 110 150 187 231 294 360
#     4  11  22  34  56  86 114 151 200 249 299 360
#     4   9  18  32  52  81 113 148 183 226 288 357
#     4   9  19  38  59  81 114 154 194 243 302 355
#     4  11  21  36  56  84 123 163 196 242 302 356
#
# _framework density 20.659105
#
# number of rings (size 3 to 8) (size 9 to 14) (size 15 to 20)
#    0.000    1.931    1.379    3.517    0.966    5.241 
#    0.000    2.759    1.517    3.310    0.000    0.000 
#    0.000    0.000    0.000    0.000    0.000    0.000 
#
# Total GULP energy -161463.147088 kJ/mol
# GULP energy per Si atom -5567.694727 kJ/mol
# Density = 2.061208 g / cm^3
# Si number density = 20.659105 Si / 1000 Ang^3
#
#
#
# Elastic Constant Matrix: (Units=GPa)
#
#
# Indices 1 2 3 4 5 6 
#
# 1 58.4711 17.5241 5.5096 0.0000 0.0000 0.0000
# 2 17.5241 148.0361 79.3102 0.0000 0.0000 0.0000
# 3 5.5096 79.3102 64.4331 0.0000 0.0000 0.0000
# 4 0.0000 0.0000 0.0000 15.8972 0.0000 0.0000
# 5 0.0000 0.0000 0.0000 0.0000 176.1824 0.0000
# 6 0.0000 0.0000 0.0000 0.0000 0.0000 28.2850
#
#
#
# Elastic Compliance Matrix: (Units=1/GPa)
#
#
# Indices 1 2 3 4 5 6 
#
# 1 0.017950 -0.003825 0.003173 0.000000 0.000000 0.000000
# 2 -0.003825 0.020651 -0.025092 0.000000 0.000000 0.000000
# 3 0.003173 -0.025092 0.046134 0.000000 0.000000 0.000000
# 4 0.000000 0.000000 0.000000 0.062904 0.000000 0.000000
# 5 0.000000 0.000000 0.000000 0.000000 0.005676 0.000000
# 6 0.000000 0.000000 0.000000 0.000000 0.000000 0.035354
#
#
# Mechanical properties :
#
#
# Convention : Reuss Voigt Hill
#
# Bulk Modulus (GPa) = 30.07757 52.84758 41.46257
# Shear Modulus (GPa) = 19.90136 55.31269 37.60703
#
# Velocity S-wave (km/s) = 3.10711 5.17997 4.27120
# Velocity P-wave (km/s) = 5.24049 7.83661 6.66615
#
# Compressibility (1/GPa) = 0.03324737
#
# Stress axis : x y z
#
# Youngs Moduli (GPa) = 55.71100 48.42408 21.67591
#
# Poissons Ratio (x) = 0.18521 -0.06878
# Poissons Ratio (y) = 0.21308 0.54389
# Poissons Ratio (z) = -0.17677 1.21506
#
# Static dielectric constant tensor:
#      x y z
#    x 1.763680 0.000000 0.000000 
#    y 0.000000 1.788130 0.000000 
#    z 0.000000 0.000000 1.758140 
# 
# From -- ./inp_files/22088.got.cif
#   From: 2010.05.17/outbox.cif.g08.bks.cpg/sg38_12_cif.got.tgz:22088.got - 2010.06.03 18:07:57.
