data_PCOD9358840
_publ_section_title
;
Structure prediction by ZEFSAII (Michael W. Deem and Ramdas Pophale) SiO2 
 PCOD9358840
Probable space group: A M M 2
;
_chemical_formula_sum "Si O2"
_cell_formula_units_Z 56
_cell_length_a 21.801991
_cell_length_b 8.700904
_cell_length_c 15.836409
_cell_angle_alpha 90.000000
_cell_angle_beta 90.000000
_cell_angle_gamma 90.000000
_cell_volume 3004.119764
_symmetry_space_group_name_H-M "A M M 2"
_symmetry_group_IT_number 38
_symmetry_cell_setting 'orthorhombic'
loop_
_space_group_symop_operation_xyz
x,y,z
-x,-y,z
-x,y,z
x,-y,z
x,1/2+y,1/2+z
-x,1/2-y,1/2+z
-x,1/2+y,1/2+z
x,1/2-y,1/2+z
loop_
_atom_site_type_symbol
_atom_site_label
_atom_site_fract_x
_atom_site_fract_y
_atom_site_fract_z
Si Si1 0.629109 0.815650 0.450490
Si Si2 0.500000 0.316728 0.711238
Si Si3 0.070906 0.685374 0.451908
Si Si4 0.500000 0.316728 0.510077
Si Si5 0.288860 0.685447 0.110657
Si Si6 0.847672 0.186033 0.110657
Si Si7 0.629110 0.184350 0.770825
Si Si8 0.929094 0.314626 0.769406
O O1 0.561088 0.754198 0.470302
O O2 0.673254 0.767456 0.527369
O O3 0.649783 0.750000 0.360657
O O4 0.627606 0.000000 0.447319
O O5 0.500000 0.500000 0.723894
O O6 0.500000 0.285304 0.610657
O O7 0.561088 0.245802 0.751013
O O8 0.072295 0.500000 0.448637
O O9 0.114999 0.735998 0.527409
O O10 0.088952 0.750000 0.360657
O O11 0.000000 0.731223 0.468231
O O12 0.500000 0.500000 0.497421
O O13 0.285690 0.500000 0.110658
O O14 0.221005 0.752412 0.110657
O O15 0.326746 0.732545 0.193946
O O16 0.885001 0.235998 0.193905
O O17 0.846541 0.000000 0.110657
O O18 0.627607 0.000000 0.773995
O O19 0.927704 0.500000 0.772678
O O20 0.000000 0.268777 0.753084
#
# Coordination Sequence:
#
# PCOD9358840 Si02
#       8
#     8   4   8   4   8   8   8   8
#     4  11  23  41  62  85 114 150 190 233 285 338
#     4  11  22  37  62  92 118 146 184 233 285 337
#     4   9  18  34  56  83 113 145 183 228 278 331
#     4  11  22  37  62  92 118 146 184 233 285 337
#     4  10  24  42  58  79 113 153 190 233 280 331
#     4  10  21  36  57  81 110 149 189 229 276 332
#     4  11  23  41  62  85 114 150 190 233 285 338
#     4   9  18  34  56  83 113 145 183 228 278 331
#
# _framework density 18.641067
#
# number of rings (size 3 to 8) (size 9 to 14) (size 15 to 20)
#    0.000    1.857    1.429    2.143    0.000    6.857 
#    0.000    5.714    0.000    4.286    0.000    0.000 
#    0.000    0.000    0.000    0.000    0.000    0.000 
#
# Total GULP energy -156450.016231 kJ/mol
# GULP energy per Si atom -5587.500580 kJ/mol
# Density = 1.859864 g / cm^3
# Si number density = 18.641067 Si / 1000 Ang^3
#
#
#
# Elastic Constant Matrix: (Units=GPa)
#
#
# Indices 1 2 3 4 5 6 
#
# 1 146.8587 27.7117 118.1065 0.0000 0.0000 0.0000
# 2 27.7117 25.8332 47.4402 0.0000 0.0000 0.0000
# 3 118.1065 47.4402 203.3381 0.0000 0.0000 0.0000
# 4 0.0000 0.0000 0.0000 32.7839 0.0000 0.0000
# 5 0.0000 0.0000 0.0000 0.0000 -7.4810 0.0000
# 6 0.0000 0.0000 0.0000 0.0000 0.0000 33.4090
#
#
#
# Elastic Compliance Matrix: (Units=1/GPa)
#
#
# Indices 1 2 3 4 5 6 
#
# 1 0.012779 -0.000136 -0.007391 0.000000 0.000000 0.000000
# 2 -0.000136 0.067729 -0.015723 0.000000 0.000000 0.000000
# 3 -0.007391 -0.015723 0.012879 0.000000 0.000000 0.000000
# 4 0.000000 0.000000 0.000000 0.030503 0.000000 0.000000
# 5 0.000000 0.000000 0.000000 0.000000 -0.133671 0.000000
# 6 0.000000 0.000000 0.000000 0.000000 0.000000 0.029932
#
#
# Mechanical properties :
#
#
# Convention : Reuss Voigt Hill
#
# Bulk Modulus (GPa) = 21.32730 84.72742 53.02736
# Shear Modulus (GPa) = 60.76993 23.92716 42.34854
#
# Velocity S-wave (km/s) = 5.71584 3.58658 4.77150
# Velocity P-wave (km/s) = 7.41801 7.91847 7.67232
#
# Compressibility (1/GPa) = 0.04688826
#
# Stress axis : x y z
#
# Youngs Moduli (GPa) = 78.25626 14.76473 77.64611
#
# Poissons Ratio (x) = 0.00200 0.57385
# Poissons Ratio (y) = 0.01061 1.22082
# Poissons Ratio (z) = 0.57836 0.23214
#
# Static dielectric constant tensor:
#      x y z
#    x 1.605590 0.000000 0.000000 
#    y 0.000000 1.631360 0.000000 
#    z 0.000000 0.000000 1.642070 
# 
# From -- ./inp_files/15581.got.cif
#   From: 2010.05.17/outbox.cif.g08.bks.cpg/sg38_8_cif.got.tgz:15581.got - 2010.06.03 18:07:57.
