data_PCOD9358700
_publ_section_title
;
Structure prediction by ZEFSAII (Michael W. Deem and Ramdas Pophale) SiO2 
 PCOD9358700
Probable space group: A M M 2
;
_chemical_formula_sum "Si O2"
_cell_formula_units_Z 48
_cell_length_a 14.506966
_cell_length_b 13.279330
_cell_length_c 13.243706
_cell_angle_alpha 90.000000
_cell_angle_beta 90.000000
_cell_angle_gamma 90.000000
_cell_volume 2551.304458
_symmetry_space_group_name_H-M "A M M 2"
_symmetry_group_IT_number 38
_symmetry_cell_setting 'orthorhombic'
loop_
_space_group_symop_operation_xyz
x,y,z
-x,-y,z
-x,y,z
x,-y,z
x,1/2+y,1/2+z
-x,1/2-y,1/2+z
-x,1/2+y,1/2+z
x,1/2-y,1/2+z
loop_
_atom_site_type_symbol
_atom_site_label
_atom_site_fract_x
_atom_site_fract_y
_atom_site_fract_z
Si Si1 0.297881 0.819846 0.401540
Si Si2 0.104073 0.121761 0.329049
Si Si3 0.390096 0.389175 0.105642
Si Si4 0.390488 0.825208 0.194696
Si Si5 0.292164 0.385586 0.492576
Si Si6 0.898607 0.378261 0.595253
O O1 0.188622 0.834988 0.391428
O O2 0.337566 0.874578 0.499975
O O3 0.342404 0.858590 0.297757
O O4 0.323524 0.702217 0.417735
O O5 0.115493 0.153759 0.211542
O O6 0.000000 0.149736 0.360566
O O7 0.109669 0.000000 0.332045
O O8 0.500000 0.384079 0.085825
O O9 0.369284 0.500000 0.148161
O O10 0.368379 0.293141 0.174853
O O11 0.500000 0.837768 0.201972
O O12 0.351826 0.879748 0.095267
O O13 0.293408 0.500000 0.454097
O O14 0.188881 0.354944 0.527295
O O15 0.901453 0.500000 0.598082
O O16 0.000000 0.343004 0.561418
#
# Coordination Sequence:
#
# PCOD9358700 Si02
#       6
#     8   8   8   8   8   8
#     4  11  20  32  54  79 104 131 171 213 254 302
#     4   9  17  30  51  78 104 131 168 213 257 302
#     4   9  19  35  53  74 100 131 168 208 252 305
#     4  10  21  36  52  72 101 136 171 211 256 303
#     4  10  21  35  51  77 108 136 170 210 254 304
#     4   8  14  28  50  72  97 130 165 202 246 297
#
# _framework density 18.813904999999998
#
# number of rings (size 3 to 8) (size 9 to 14) (size 15 to 20)
#    0.000    2.500    1.667    2.000    0.000    3.000 
#    0.000    0.000    0.000    0.000    0.000    0.000 
#    0.000    0.000    0.000    0.000    0.000    0.000 
#
# Total GULP energy -133807.006685 kJ/mol
# GULP energy per Si atom -5575.291945 kJ/mol
# Density = 1.877108 g / cm^3
# Si number density = 18.813905 Si / 1000 Ang^3
#
#
#
# Elastic Constant Matrix: (Units=GPa)
#
#
# Indices 1 2 3 4 5 6 
#
# 1 47.4179 -0.5556 7.7103 0.0000 0.0000 0.0000
# 2 -0.5556 56.6276 -8.9166 0.0000 0.0000 0.0000
# 3 7.7103 -8.9166 37.3408 0.0000 0.0000 0.0000
# 4 0.0000 0.0000 0.0000 5.4356 0.0000 0.0000
# 5 0.0000 0.0000 0.0000 0.0000 14.5518 0.0000
# 6 0.0000 0.0000 0.0000 0.0000 0.0000 22.3731
#
#
#
# Elastic Compliance Matrix: (Units=1/GPa)
#
#
# Indices 1 2 3 4 5 6 
#
# 1 0.021836 -0.000515 -0.004632 0.000000 0.000000 0.000000
# 2 -0.000515 0.018361 0.004491 0.000000 0.000000 0.000000
# 3 -0.004632 0.004491 0.028809 0.000000 0.000000 0.000000
# 4 0.000000 0.000000 0.000000 0.183971 0.000000 0.000000
# 5 0.000000 0.000000 0.000000 0.000000 0.068720 0.000000
# 6 0.000000 0.000000 0.000000 0.000000 0.000000 0.044697
#
#
# Mechanical properties :
#
#
# Convention : Reuss Voigt Hill
#
# Bulk Modulus (GPa) = 14.77227 15.31807 15.04517
# Shear Modulus (GPa) = 12.81159 18.01531 15.41345
#
# Velocity S-wave (km/s) = 2.61236 3.09779 2.86537
# Velocity P-wave (km/s) = 4.11923 4.57763 4.35446
#
# Compressibility (1/GPa) = 0.06769442
#
# Stress axis : x y z
#
# Youngs Moduli (GPa) = 45.79554 54.46239 34.71125
#
# Poissons Ratio (x) = 0.02805 0.16078
# Poissons Ratio (y) = 0.02359 -0.15588
# Poissons Ratio (z) = 0.21212 -0.24458
#
# Static dielectric constant tensor:
#      x y z
#    x 1.663420 0.000000 0.000000 
#    y 0.000000 1.664710 0.000000 
#    z 0.000000 0.000000 1.622270 
# 
# From -- ./inp_files/10005.got.cif
#   From: 2010.05.17/outbox.cif.g08.bks.cpg/sg38_6_cif.got.tgz:10005.got - 2010.06.03 18:07:57.
