data_PCOD9358429
_publ_section_title
;
Structure prediction by ZEFSAII (Michael W. Deem and Ramdas Pophale) SiO2 
 PCOD9358429
Probable space group: A M M 2
;
_chemical_formula_sum "Si O2"
_cell_formula_units_Z 64
_cell_length_a 23.583294
_cell_length_b 8.921430
_cell_length_c 15.329410
_cell_angle_alpha 90.000000
_cell_angle_beta 90.000000
_cell_angle_gamma 90.000000
_cell_volume 3225.257378
_symmetry_space_group_name_H-M "A M M 2"
_symmetry_group_IT_number 38
_symmetry_cell_setting 'orthorhombic'
loop_
_space_group_symop_operation_xyz
x,y,z
-x,-y,z
-x,y,z
x,-y,z
x,1/2+y,1/2+z
-x,1/2-y,1/2+z
-x,1/2+y,1/2+z
x,1/2-y,1/2+z
loop_
_atom_site_type_symbol
_atom_site_label
_atom_site_fract_x
_atom_site_fract_y
_atom_site_fract_z
Si Si1 0.870731 0.179139 0.783120
Si Si2 0.268562 0.825956 0.128174
Si Si3 0.141457 0.821917 0.092492
Si Si4 0.367856 0.676354 0.873029
Si Si5 0.258599 0.175641 0.812163
Si Si6 0.933910 0.178549 0.441091
Si Si7 0.608272 0.325092 0.547751
Si Si8 0.433881 0.826209 0.718326
O O1 0.872466 0.254786 0.687956
O O2 0.807944 0.208339 0.823240
O O3 0.915572 0.246100 0.850217
O O4 0.876771 0.000000 0.774092
O O5 0.209182 0.799011 0.079374
O O6 0.270626 0.717288 0.211172
O O7 0.324942 0.810186 0.071876
O O8 0.266794 0.000000 0.160045
O O9 0.131060 0.000000 0.092029
O O10 0.104791 0.744406 0.018002
O O11 0.371341 0.500000 0.885230
O O12 0.302573 0.729027 0.867936
O O13 0.396634 0.725849 0.782696
O O14 0.398788 0.761685 0.951382
O O15 0.268480 0.000000 0.828448
O O16 0.000000 0.208586 0.459217
O O17 0.925833 0.000000 0.435099
O O18 0.593128 0.500000 0.552868
O O19 0.575380 0.231453 0.620418
O O20 0.500000 0.814353 0.741254
O O21 0.416382 0.000000 0.726053
#
# Coordination Sequence:
#
# PCOD9358429 Si02
#       8
#     8   8   8   8   8   8   8   8
#     4  10  22  40  63  92 124 162 206 255 311 371
#     4   9  19  36  60  91 126 161 200 250 309 372
#     4  10  21  39  63  92 125 161 205 254 309 369
#     4  12  25  40  62  94 129 168 211 255 307 368
#     4  10  20  36  61  91 127 163 203 254 311 371
#     4  11  25  43  62  88 123 164 212 260 308 367
#     4  11  23  40  64  95 129 165 207 255 310 370
#     4  11  25  46  69  93 125 165 211 262 312 366
#
# _framework density 19.843378000000001
#
# number of rings (size 3 to 8) (size 9 to 14) (size 15 to 20)
#    0.000    1.500    1.250    3.375    1.750    5.500 
#    0.000    0.000    0.000    0.000    0.000    0.000 
#    0.000    0.000    0.000    0.000    0.000    0.000 
#
# Total GULP energy -178930.929106 kJ/mol
# GULP energy per Si atom -5591.591535 kJ/mol
# Density = 1.979821 g / cm^3
# Si number density = 19.843378 Si / 1000 Ang^3
#
#
#
# Elastic Constant Matrix: (Units=GPa)
#
#
# Indices 1 2 3 4 5 6 
#
# 1 47.8024 21.5343 -2.4459 0.0000 0.0000 0.0000
# 2 21.5343 55.3582 -7.4217 0.0000 0.0000 0.0000
# 3 -2.4459 -7.4217 30.3866 0.0000 0.0000 0.0000
# 4 0.0000 0.0000 0.0000 35.7640 0.0000 0.0000
# 5 0.0000 0.0000 0.0000 0.0000 20.8455 0.0000
# 6 0.0000 0.0000 0.0000 0.0000 0.0000 27.3816
#
#
#
# Elastic Compliance Matrix: (Units=1/GPa)
#
#
# Indices 1 2 3 4 5 6 
#
# 1 0.025368 -0.009919 -0.000381 0.000000 0.000000 0.000000
# 2 -0.009919 0.022554 0.004710 0.000000 0.000000 0.000000
# 3 -0.000381 0.004710 0.034029 0.000000 0.000000 0.000000
# 4 0.000000 0.000000 0.000000 0.027961 0.000000 0.000000
# 5 0.000000 0.000000 0.000000 0.000000 0.047972 0.000000
# 6 0.000000 0.000000 0.000000 0.000000 0.000000 0.036521
#
#
# Mechanical properties :
#
#
# Convention : Reuss Voigt Hill
#
# Bulk Modulus (GPa) = 14.12986 17.43120 15.78053
# Shear Modulus (GPa) = 21.81727 24.92358 23.37043
#
# Velocity S-wave (km/s) = 3.31943 3.54788 3.43555
# Velocity P-wave (km/s) = 4.67200 5.05833 4.86900
#
# Compressibility (1/GPa) = 0.07077209
#
# Stress axis : x y z
#
# Youngs Moduli (GPa) = 39.41899 44.33747 29.38664
#
# Poissons Ratio (x) = 0.43980 0.01119
# Poissons Ratio (y) = 0.39101 -0.13842
# Poissons Ratio (z) = 0.01501 -0.20884
#
# Static dielectric constant tensor:
#      x y z
#    x 1.699510 0.000000 0.000000 
#    y 0.000000 1.659940 0.000000 
#    z 0.000000 0.000000 1.671540 
# 
# From -- ./inp_files/15797.got.cif
#   From: 2010.05.17/outbox.cif.g08.bks.cpg/sg38_8_cif.got.tgz:15797.got - 2010.06.03 18:07:57.
