data_PCOD9358649
_publ_section_title
;
Structure prediction by ZEFSAII (Michael W. Deem and Ramdas Pophale) SiO2 
 PCOD9358649
Probable space group: A M M 2
;
_chemical_formula_sum "Si O2"
_cell_formula_units_Z 56
_cell_length_a 13.835939
_cell_length_b 13.571581
_cell_length_c 13.350673
_cell_angle_alpha 90.000000
_cell_angle_beta 90.000000
_cell_angle_gamma 90.000000
_cell_volume 2506.930190
_symmetry_space_group_name_H-M "A M M 2"
_symmetry_group_IT_number 38
_symmetry_cell_setting 'orthorhombic'
loop_
_space_group_symop_operation_xyz
x,y,z
-x,-y,z
-x,y,z
x,-y,z
x,1/2+y,1/2+z
-x,1/2-y,1/2+z
-x,1/2+y,1/2+z
x,1/2-y,1/2+z
loop_
_atom_site_type_symbol
_atom_site_label
_atom_site_fract_x
_atom_site_fract_y
_atom_site_fract_z
Si Si1 0.383838 0.108590 0.095290
Si Si2 0.883771 0.607038 0.260012
Si Si3 0.609055 0.117370 0.878018
Si Si4 0.115513 0.682430 0.845123
Si Si5 0.201348 0.320092 0.054566
Si Si6 0.614536 0.688885 0.167365
Si Si7 0.115174 0.387418 0.622165
O O1 0.500000 0.101850 0.082653
O O2 0.369779 0.193602 0.174820
O O3 0.348398 0.000000 0.121092
O O4 0.348008 0.142765 0.985516
O O5 0.847848 0.500000 0.296265
O O6 0.856195 0.703786 0.322551
O O7 0.853834 0.624566 0.144978
O O8 0.000000 0.605532 0.263997
O O9 0.500000 0.160577 0.874162
O O10 0.650932 0.143663 0.770936
O O11 0.601724 0.000000 0.881964
O O12 0.133448 0.624233 0.741637
O O13 0.000000 0.678472 0.863626
O O14 0.169955 0.648642 0.944337
O O15 0.313894 0.340776 0.078684
O O16 0.169020 0.205120 0.071641
O O17 0.500000 0.668178 0.151170
O O18 0.137047 0.500000 0.589553
O O19 0.000000 0.372478 0.606502
#
# Coordination Sequence:
#
# PCOD9358649 Si02
#       7
#     8   8   8   8   8   8   8
#     4   8  15  30  51  71  91 122 169 220 264 306
#     4   9  19  36  57  83 113 138 164 208 265 321
#     4   8  15  31  54  73  90 122 170 219 265 310
#     4   9  18  34  55  79 107 138 171 210 260 318
#     4  11  21  33  53  80 108 140 179 219 257 305
#     4  10  21  34  50  75 107 142 181 224 264 299
#     4   9  19  36  56  79 108 138 168 208 261 321
#
# _framework density 22.338076999999998
#
# number of rings (size 3 to 8) (size 9 to 14) (size 15 to 20)
#    0.000    2.857    0.000    3.000    0.000    4.571 
#    0.000    4.286    0.000    0.857    0.000    6.000 
#    0.000    0.000    0.000    0.000    0.000    0.000 
#
# Total GULP energy -156222.662698 kJ/mol
# GULP energy per Si atom -5579.380811 kJ/mol
# Density = 2.228723 g / cm^3
# Si number density = 22.338077 Si / 1000 Ang^3
#
#
#
# Elastic Constant Matrix: (Units=GPa)
#
#
# Indices 1 2 3 4 5 6 
#
# 1 100.2579 -6.5083 -1.4617 0.0000 0.0000 0.0000
# 2 -6.5083 41.3148 1.9052 0.0000 0.0000 0.0000
# 3 -1.4617 1.9052 30.8305 0.0000 0.0000 0.0000
# 4 0.0000 0.0000 0.0000 22.1981 0.0000 0.0000
# 5 0.0000 0.0000 0.0000 0.0000 32.3987 0.0000
# 6 0.0000 0.0000 0.0000 0.0000 0.0000 2.4999
#
#
#
# Elastic Compliance Matrix: (Units=1/GPa)
#
#
# Indices 1 2 3 4 5 6 
#
# 1 0.010082 0.001571 0.000381 0.000000 0.000000 0.000000
# 2 0.001571 0.024518 -0.001441 0.000000 0.000000 0.000000
# 3 0.000381 -0.001441 0.032542 0.000000 0.000000 0.000000
# 4 0.000000 0.000000 0.000000 0.045049 0.000000 0.000000
# 5 0.000000 0.000000 0.000000 0.000000 0.030865 0.000000
# 6 0.000000 0.000000 0.000000 0.000000 0.000000 0.400015
#
#
# Mechanical properties :
#
#
# Convention : Reuss Voigt Hill
#
# Bulk Modulus (GPa) = 14.67045 17.80819 16.23932
# Shear Modulus (GPa) = 8.85315 23.31720 16.08517
#
# Velocity S-wave (km/s) = 1.99295 3.23434 2.68634
# Velocity P-wave (km/s) = 3.44638 4.68374 4.11187
#
# Compressibility (1/GPa) = 0.06816426
#
# Stress axis : x y z
#
# Youngs Moduli (GPa) = 99.18873 40.78593 30.72910
#
# Poissons Ratio (x) = -0.06406 -0.01171
# Poissons Ratio (y) = -0.15579 0.04427
# Poissons Ratio (z) = -0.03778 0.05876
#
# Static dielectric constant tensor:
#      x y z
#    x 1.899340 0.000000 0.000000 
#    y 0.000000 1.846540 0.000000 
#    z 0.000000 0.000000 1.787310 
# 
# From -- ./inp_files/10110.got.cif
#   From: 2010.05.17/outbox.cif.g08.bks.cpg/sg38_6_cif.got.tgz:10110.got - 2010.06.03 18:07:57.
