data_PCOD9358118
_publ_section_title
;
Structure prediction by ZEFSAII (Michael W. Deem and Ramdas Pophale) SiO2 
 PCOD9358118
Probable space group: A M M 2
;
_chemical_formula_sum "Si O2"
_cell_formula_units_Z 64
_cell_length_a 21.081995
_cell_length_b 7.668770
_cell_length_c 19.090477
_cell_angle_alpha 90.000000
_cell_angle_beta 90.000000
_cell_angle_gamma 90.000000
_cell_volume 3086.414131
_symmetry_space_group_name_H-M "A M M 2"
_symmetry_group_IT_number 38
_symmetry_cell_setting 'orthorhombic'
loop_
_space_group_symop_operation_xyz
x,y,z
-x,-y,z
-x,y,z
x,-y,z
x,1/2+y,1/2+z
-x,1/2-y,1/2+z
-x,1/2+y,1/2+z
x,1/2-y,1/2+z
loop_
_atom_site_type_symbol
_atom_site_label
_atom_site_fract_x
_atom_site_fract_y
_atom_site_fract_z
Si Si1 0.695322 0.294095 0.899210
Si Si2 0.427983 0.210804 0.811857
Si Si3 0.072193 0.791775 0.891511
Si Si4 0.807029 0.703210 0.800773
Si Si5 0.928967 0.209775 0.552934
Si Si6 0.811802 0.204835 0.640217
Si Si7 0.428492 0.212668 0.651179
Si Si8 0.688445 0.214529 0.558201
O O1 0.708963 0.500000 0.906028
O O2 0.627312 0.272887 0.862590
O O3 0.750867 0.220705 0.849427
O O4 0.694109 0.224791 0.978236
O O5 0.500000 0.266993 0.829843
O O6 0.414729 0.265544 0.731462
O O7 0.427537 0.000000 0.813000
O O8 0.126296 0.721110 0.840819
O O9 0.000000 0.728050 0.877901
O O10 0.071740 0.000000 0.883987
O O11 0.087742 0.747848 0.972191
O O12 0.793082 0.500000 0.790163
O O13 0.810065 0.780635 0.723462
O O14 0.875558 0.278773 0.605287
O O15 0.000000 0.278709 0.565798
O O16 0.932134 0.000000 0.560165
O O17 0.748588 0.274462 0.603508
O O18 0.812180 0.000000 0.622777
O O19 0.500000 0.268139 0.633584
O O20 0.375614 0.271677 0.596933
O O21 0.428201 0.000000 0.651258
O O22 0.687042 0.000000 0.558042
#
# Coordination Sequence:
#
# PCOD9358118 Si02
#       8
#     8   8   8   8   8   8   8   8
#     4  10  21  35  52  77 107 138 174 217 265 318
#     4   9  18  33  53  77 105 137 173 214 262 316
#     4  10  21  37  58  83 109 140 181 223 263 318
#     4  11  23  37  53  77 111 146 181 224 273 322
#     4   9  18  34  56  80 107 138 170 212 269 323
#     4  10  20  35  55  77 103 138 180 223 267 318
#     4   8  14  26  46  71  96 124 163 209 252 298
#     4   9  17  30  49  72  98 130 170 216 263 309
#
# _framework density 20.736037
#
# number of rings (size 3 to 8) (size 9 to 14) (size 15 to 20)
#    0.000    2.500    0.000    3.000    0.000    6.500 
#    0.000    3.125    0.000    0.750    0.000    0.000 
#    0.000    0.000    0.000    0.000    0.000    0.000 
#
# Total GULP energy -178661.250481 kJ/mol
# GULP energy per Si atom -5583.164078 kJ/mol
# Density = 2.068884 g / cm^3
# Si number density = 20.736037 Si / 1000 Ang^3
#
#
#
# Elastic Constant Matrix: (Units=GPa)
#
#
# Indices 1 2 3 4 5 6 
#
# 1 147.8597 -9.1291 120.1547 0.0000 0.0000 0.0000
# 2 -9.1291 30.7889 -14.5923 0.0000 0.0000 0.0000
# 3 120.1547 -14.5923 155.7226 0.0000 0.0000 0.0000
# 4 0.0000 0.0000 0.0000 14.8257 0.0000 0.0000
# 5 0.0000 0.0000 0.0000 0.0000 41.9883 0.0000
# 6 0.0000 0.0000 0.0000 0.0000 0.0000 5.9395
#
#
#
# Elastic Compliance Matrix: (Units=1/GPa)
#
#
# Indices 1 2 3 4 5 6 
#
# 1 0.018184 -0.001317 -0.014154 0.000000 0.000000 0.000000
# 2 -0.001317 0.034084 0.004210 0.000000 0.000000 0.000000
# 3 -0.014154 0.004210 0.017737 0.000000 0.000000 0.000000
# 4 0.000000 0.000000 0.000000 0.067450 0.000000 0.000000
# 5 0.000000 0.000000 0.000000 0.000000 0.023816 0.000000
# 6 0.000000 0.000000 0.000000 0.000000 0.000000 0.168364
#
#
# Mechanical properties :
#
#
# Convention : Reuss Voigt Hill
#
# Bulk Modulus (GPa) = 21.05988 58.58199 39.82094
# Shear Modulus (GPa) = 13.58754 28.41323 21.00039
#
# Velocity S-wave (km/s) = 2.56259 3.70568 3.18582
# Velocity P-wave (km/s) = 4.35132 6.82804 5.72521
#
# Compressibility (1/GPa) = 0.04748365
#
# Stress axis : x y z
#
# Youngs Moduli (GPa) = 54.99483 29.33926 56.37916
#
# Poissons Ratio (x) = 0.03863 0.79797
# Poissons Ratio (y) = 0.07240 -0.23734
# Poissons Ratio (z) = 0.77838 -0.12351
#
# Static dielectric constant tensor:
#      x y z
#    x 1.718380 0.000000 0.000000 
#    y 0.000000 1.778580 0.000000 
#    z 0.000000 0.000000 1.693730 
# 
# From -- ./inp_files/15794.got.cif
#   From: 2010.05.17/outbox.cif.g08.bks.cpg/sg38_8_cif.got.tgz:15794.got - 2010.06.03 18:07:57.
