data_PCOD9358814
_publ_section_title
;
Structure prediction by ZEFSAII (Michael W. Deem and Ramdas Pophale) SiO2 
 PCOD9358814
Probable space group: A M M 2
;
_chemical_formula_sum "Si O2"
_cell_formula_units_Z 48
_cell_length_a 8.924772
_cell_length_b 9.278881
_cell_length_c 31.500156
_cell_angle_alpha 90.000000
_cell_angle_beta 90.000000
_cell_angle_gamma 90.000000
_cell_volume 2608.587685
_symmetry_space_group_name_H-M "A M M 2"
_symmetry_group_IT_number 38
_symmetry_cell_setting 'orthorhombic'
loop_
_space_group_symop_operation_xyz
x,y,z
-x,-y,z
-x,y,z
x,-y,z
x,1/2+y,1/2+z
-x,1/2-y,1/2+z
-x,1/2+y,1/2+z
x,1/2-y,1/2+z
loop_
_atom_site_type_symbol
_atom_site_label
_atom_site_fract_x
_atom_site_fract_y
_atom_site_fract_z
Si Si1 0.820504 0.170665 0.062250
Si Si2 0.319180 0.668923 0.823228
Si Si3 0.819618 0.167455 0.159330
Si Si4 0.679086 0.330955 0.983515
Si Si5 0.319516 0.833475 0.737472
Si Si6 0.179587 0.669037 0.403417
O O1 0.778152 0.206176 0.110873
O O2 0.000000 0.190786 0.057984
O O3 0.791115 0.000000 0.055713
O O4 0.736246 0.264290 0.027579
O O5 0.500000 0.680579 0.826978
O O6 0.280376 0.500000 0.823856
O O7 0.274095 0.741433 0.778695
O O8 0.244803 0.751904 0.862190
O O9 0.747717 0.266294 0.194933
O O10 0.000000 0.175381 0.161906
O O11 0.776833 0.000000 0.166337
O O12 0.500000 0.317409 0.980471
O O13 0.717837 0.500000 0.980777
O O14 0.754493 0.244641 0.945096
O O15 0.500000 0.827593 0.734883
O O16 0.274845 0.000000 0.742647
O O17 0.220138 0.500000 0.402828
O O18 0.000000 0.680205 0.403870
#
# Coordination Sequence:
#
# PCOD9358814 Si02
#       6
#     8   8   8   8   8   8
#     4   9  19  37  59  82 109 143 185 230 275 325
#     4  10  21  38  60  84 110 143 184 227 272 324
#     4   9  19  36  57  81 110 145 185 229 276 325
#     4  11  24  39  56  82 114 146 182 224 271 325
#     4  10  21  36  55  81 113 148 185 226 273 324
#     4  11  24  40  59  84 112 143 181 224 271 325
#
# _framework density 18.400762
#
# number of rings (size 3 to 8) (size 9 to 14) (size 15 to 20)
#    0.000    2.000    0.000    4.000    0.000   11.333 
#    0.000    5.000    0.000    0.000    0.000    0.000 
#    0.000    0.000    0.000    0.000    0.000    0.000 
#
# Total GULP energy -134095.998804 kJ/mol
# GULP energy per Si atom -5587.333284 kJ/mol
# Density = 1.835888 g / cm^3
# Si number density = 18.400762 Si / 1000 Ang^3
#
#
#
# Elastic Constant Matrix: (Units=GPa)
#
#
# Indices 1 2 3 4 5 6 
#
# 1 30.3636 64.2022 53.5563 0.0000 0.0000 0.0000
# 2 64.2022 173.5323 126.1189 0.0000 0.0000 0.0000
# 3 53.5563 126.1189 171.1875 0.0000 0.0000 0.0000
# 4 0.0000 0.0000 0.0000 41.9273 0.0000 0.0000
# 5 0.0000 0.0000 0.0000 0.0000 40.7364 0.0000
# 6 0.0000 0.0000 0.0000 0.0000 0.0000 32.4210
#
#
#
# Elastic Compliance Matrix: (Units=1/GPa)
#
#
# Indices 1 2 3 4 5 6 
#
# 1 0.166316 -0.051052 -0.014421 0.000000 0.000000 0.000000
# 2 -0.051052 0.028075 -0.004712 0.000000 0.000000 0.000000
# 3 -0.014421 -0.004712 0.013825 0.000000 0.000000 0.000000
# 4 0.000000 0.000000 0.000000 0.023851 0.000000 0.000000
# 5 0.000000 0.000000 0.000000 0.000000 0.024548 0.000000
# 6 0.000000 0.000000 0.000000 0.000000 0.000000 0.030844
#
#
# Mechanical properties :
#
#
# Convention : Reuss Voigt Hill
#
# Bulk Modulus (GPa) = 14.73917 95.87091 55.30504
# Shear Modulus (GPa) = 11.10016 31.76400 21.43208
#
# Velocity S-wave (km/s) = 2.45877 4.15930 3.41653
# Velocity P-wave (km/s) = 4.01101 8.67647 6.75904
#
# Compressibility (1/GPa) = 0.06784644
#
# Stress axis : x y z
#
# Youngs Moduli (GPa) = 6.01264 35.61897 72.33427
#
# Poissons Ratio (x) = 1.81841 1.04314
# Poissons Ratio (y) = 0.30696 0.34084
# Poissons Ratio (z) = 0.08671 0.16784
#
# Static dielectric constant tensor:
#      x y z
#    x 1.616800 0.000000 0.000000 
#    y 0.000000 1.615440 0.000000 
#    z 0.000000 0.000000 1.600830 
# 
# From -- ./inp_files/24281.got.cif
#   From: 2010.05.17/outbox.cif.g08.bks.cpg/sg38_13_cif.got.tgz:24281.got - 2010.06.03 18:07:57.
