data_PCOD9358209
_publ_section_title
;
Structure prediction by ZEFSAII (Michael W. Deem and Ramdas Pophale) SiO2 
 PCOD9358209
Probable space group: A M M 2
;
_chemical_formula_sum "Si O2"
_cell_formula_units_Z 44
_cell_length_a 15.869309
_cell_length_b 11.149013
_cell_length_c 13.448314
_cell_angle_alpha 90.000000
_cell_angle_beta 90.000000
_cell_angle_gamma 90.000000
_cell_volume 2379.371631
_symmetry_space_group_name_H-M "A M M 2"
_symmetry_group_IT_number 38
_symmetry_cell_setting 'orthorhombic'
loop_
_space_group_symop_operation_xyz
x,y,z
-x,-y,z
-x,y,z
x,-y,z
x,1/2+y,1/2+z
-x,1/2-y,1/2+z
-x,1/2+y,1/2+z
x,1/2-y,1/2+z
loop_
_atom_site_type_symbol
_atom_site_label
_atom_site_fract_x
_atom_site_fract_y
_atom_site_fract_z
Si Si1 0.402225 0.356359 0.446630
Si Si2 0.852889 0.500000 0.005544
Si Si3 0.748536 0.234645 0.561534
Si Si4 0.000000 0.500000 0.838188
Si Si5 0.000000 0.239141 0.808923
Si Si6 0.703679 0.635681 0.267974
Si Si7 0.000000 0.000000 0.669743
Si Si8 0.144780 0.632096 0.426900
O O1 0.500000 0.334195 0.467227
O O2 0.385437 0.500000 0.461792
O O3 0.338832 0.276501 0.511432
O O4 0.378770 0.331695 0.331198
O O5 0.791338 0.615234 0.014795
O O6 0.916332 0.500000 0.101079
O O7 0.917030 0.500000 0.911334
O O8 0.731306 0.216487 0.677038
O O9 0.817571 0.334277 0.533085
O O10 0.000000 0.376907 0.774635
O O11 0.921070 0.222780 0.881728
O O12 0.000000 0.124991 0.733357
O O13 0.694023 0.500000 0.228802
O O14 0.776917 0.633583 0.350613
O O15 0.107144 0.500000 0.426486
#
# Coordination Sequence:
#
# PCOD9358209 Si02
#       8
#     8   4   8   2   4   8   2   8
#     4   9  20  39  61  86 115 150 195 248 308 371
#     4  11  22  38  57  86 120 157 202 245 307 359
#     4  11  19  33  61  87 115 151 196 247 301 356
#     4  11  24  38  56  87 128 162 192 259 320 346
#     4  12  20  36  60  86 112 160 206 251 301 346
#     4   9  18  33  57  84 110 146 197 241 288 358
#     4  11  24  38  68  83 116 168 218 251 292 366
#     4  10  20  35  57  85 114 155 208 245 289 360
#
# _framework density 18.492277000000001
#
# number of rings (size 3 to 8) (size 9 to 14) (size 15 to 20)
#    0.000    1.818    3.636    2.727    0.000    0.727 
#    0.000    0.455   32.000    1.091    0.000    0.000 
#    0.000    0.000    0.000    0.000    0.000    0.000 
#
# Total GULP energy -122587.519351 kJ/mol
# GULP energy per Si atom -5572.159970 kJ/mol
# Density = 1.845019 g / cm^3
# Si number density = 18.492277 Si / 1000 Ang^3
#
#
#
# Elastic Constant Matrix: (Units=GPa)
#
#
# Indices 1 2 3 4 5 6 
#
# 1 97.0015 34.1853 6.1436 0.0000 0.0000 0.0000
# 2 34.1853 99.6681 26.7424 0.0000 0.0000 0.0000
# 3 6.1436 26.7424 65.1290 0.0000 0.0000 0.0000
# 4 0.0000 0.0000 0.0000 27.9772 0.0000 0.0000
# 5 0.0000 0.0000 0.0000 0.0000 22.0770 0.0000
# 6 0.0000 0.0000 0.0000 0.0000 0.0000 31.6105
#
#
#
# Elastic Compliance Matrix: (Units=1/GPa)
#
#
# Indices 1 2 3 4 5 6 
#
# 1 0.011748 -0.004194 0.000614 0.000000 0.000000 0.000000
# 2 -0.004194 0.012773 -0.004849 0.000000 0.000000 0.000000
# 3 0.000614 -0.004849 0.017287 0.000000 0.000000 0.000000
# 4 0.000000 0.000000 0.000000 0.035743 0.000000 0.000000
# 5 0.000000 0.000000 0.000000 0.000000 0.045296 0.000000
# 6 0.000000 0.000000 0.000000 0.000000 0.000000 0.031635
#
#
# Mechanical properties :
#
#
# Convention : Reuss Voigt Hill
#
# Bulk Modulus (GPa) = 40.08026 43.99345 42.03685
# Shear Modulus (GPa) = 27.83057 29.31475 28.57266
#
# Velocity S-wave (km/s) = 3.88362 3.98583 3.93506
# Velocity P-wave (km/s) = 6.46770 6.71001 6.58997
#
# Compressibility (1/GPa) = 0.02494994
#
# Stress axis : x y z
#
# Youngs Moduli (GPa) = 85.11792 78.29021 57.84602
#
# Poissons Ratio (x) = 0.32838 -0.03552
# Poissons Ratio (y) = 0.35701 0.28050
# Poissons Ratio (z) = -0.05226 0.37963
#
# Static dielectric constant tensor:
#      x y z
#    x 1.591030 0.000000 0.000000 
#    y 0.000000 1.681580 0.000000 
#    z 0.000000 0.000000 1.634210 
# 
# From -- ./inp_files/14937.got.cif
#   From: 2010.05.17/outbox.cif.g08.bks.cpg/sg38_8_cif.got.tgz:14937.got - 2010.06.03 18:07:57.
