data_PCOD9358126
_publ_section_title
;
Structure prediction by ZEFSAII (Michael W. Deem and Ramdas Pophale) SiO2 
 PCOD9358126
Probable space group: A M M 2
;
_chemical_formula_sum "Si O2"
_cell_formula_units_Z 48
_cell_length_a 8.770671
_cell_length_b 16.910569
_cell_length_c 18.902676
_cell_angle_alpha 90.000000
_cell_angle_beta 90.000000
_cell_angle_gamma 90.000000
_cell_volume 2803.588898
_symmetry_space_group_name_H-M "A M M 2"
_symmetry_group_IT_number 38
_symmetry_cell_setting 'orthorhombic'
loop_
_space_group_symop_operation_xyz
x,y,z
-x,-y,z
-x,y,z
x,-y,z
x,1/2+y,1/2+z
-x,1/2-y,1/2+z
-x,1/2+y,1/2+z
x,1/2-y,1/2+z
loop_
_atom_site_type_symbol
_atom_site_label
_atom_site_fract_x
_atom_site_fract_y
_atom_site_fract_z
Si Si1 0.316060 0.589806 0.098510
Si Si2 0.181505 0.837061 0.049821
Si Si3 0.817700 0.819708 0.465305
Si Si4 0.182473 0.500000 0.733720
Si Si5 0.319015 0.000000 0.075558
Si Si6 0.317358 0.653487 0.810960
Si Si7 0.683019 0.756471 0.680904
O O1 0.500000 0.590736 0.092365
O O2 0.267924 0.500000 0.113437
O O3 0.274259 0.654540 0.158190
O O4 0.246922 0.621336 0.025051
O O5 0.237371 0.801615 0.124788
O O6 0.000000 0.848299 0.051948
O O7 0.262882 0.920230 0.038009
O O8 0.218178 0.768823 0.993082
O O9 0.745704 0.835539 0.389382
O O10 0.000000 0.827910 0.462078
O O11 0.245359 0.500000 0.653860
O O12 0.244276 0.576903 0.774273
O O13 0.000000 0.500000 0.732310
O O14 0.500000 0.000000 0.082671
O O15 0.500000 0.644154 0.812828
O O16 0.280478 0.727640 0.759630
O O17 0.500000 0.748422 0.671661
#
# Coordination Sequence:
#
# PCOD9358126 Si02
#       7
#     8   8   8   4   4   8   8
#     4   9  18  34  56  80 105 137 178 225 272 319
#     4  10  20  35  55  79 106 143 184 225 269 318
#     4  10  22  37  54  78 110 146 181 221 271 324
#     4  12  24  36  54  82 114 143 176 221 272 326
#     4  12  22  34  56  84 112 139 176 225 274 328
#     4  11  22  36  55  79 111 146 181 220 268 326
#     4   9  18  33  54  78 105 140 179 224 270 318
#
# _framework density 17.120912000000001
#
# number of rings (size 3 to 8) (size 9 to 14) (size 15 to 20)
#    0.000    1.833    1.667    3.000    1.167    3.000 
#    0.000    0.000    1.833    0.000    0.000    0.000 
#    0.000    0.000    0.000    0.000    0.000    0.000 
#
# Total GULP energy -133984.669278 kJ/mol
# GULP energy per Si atom -5582.694553 kJ/mol
# Density = 1.708194 g / cm^3
# Si number density = 17.120912 Si / 1000 Ang^3
#
#
#
# Elastic Constant Matrix: (Units=GPa)
#
#
# Indices 1 2 3 4 5 6 
#
# 1 48.8082 44.5378 25.6173 0.0000 0.0000 0.0000
# 2 44.5378 142.8106 41.6969 0.0000 0.0000 0.0000
# 3 25.6173 41.6969 74.3716 0.0000 0.0000 0.0000
# 4 0.0000 0.0000 0.0000 15.7676 0.0000 0.0000
# 5 0.0000 0.0000 0.0000 0.0000 17.3793 0.0000
# 6 0.0000 0.0000 0.0000 0.0000 0.0000 25.8567
#
#
#
# Elastic Compliance Matrix: (Units=1/GPa)
#
#
# Indices 1 2 3 4 5 6 
#
# 1 0.030902 -0.007808 -0.006267 0.000000 0.000000 0.000000
# 2 -0.007808 0.010345 -0.003111 0.000000 0.000000 0.000000
# 3 -0.006267 -0.003111 0.017349 0.000000 0.000000 0.000000
# 4 0.000000 0.000000 0.000000 0.063421 0.000000 0.000000
# 5 0.000000 0.000000 0.000000 0.000000 0.057540 0.000000
# 6 0.000000 0.000000 0.000000 0.000000 0.000000 0.038675
#
#
# Mechanical properties :
#
#
# Convention : Reuss Voigt Hill
#
# Bulk Modulus (GPa) = 41.27869 54.41048 47.84459
# Shear Modulus (GPa) = 19.18077 22.07663 20.62870
#
# Velocity S-wave (km/s) = 3.35074 3.59479 3.47491
# Velocity P-wave (km/s) = 6.25559 7.00565 6.64122
#
# Compressibility (1/GPa) = 0.02422557
#
# Stress axis : x y z
#
# Youngs Moduli (GPa) = 32.36041 96.66044 57.64094
#
# Poissons Ratio (x) = 0.75468 0.36123
# Poissons Ratio (y) = 0.25265 0.17932
# Poissons Ratio (z) = 0.20280 0.30071
#
# Static dielectric constant tensor:
#      x y z
#    x 1.569260 0.000000 0.000000 
#    y 0.000000 1.593580 0.000000 
#    z 0.000000 0.000000 1.544470 
# 
# From -- ./inp_files/16680.got.cif
#   From: 2010.05.17/outbox.cif.g08.bks.cpg/sg38_9_cif.got.tgz:16680.got - 2010.06.03 18:07:57.
