data_PCOD9358636
_publ_section_title
;
Structure prediction by ZEFSAII (Michael W. Deem and Ramdas Pophale) SiO2 
 PCOD9358636
Probable space group: A M M 2
;
_chemical_formula_sum "Si O2"
_cell_formula_units_Z 48
_cell_length_a 7.709310
_cell_length_b 9.460041
_cell_length_c 35.502660
_cell_angle_alpha 90.000000
_cell_angle_beta 90.000000
_cell_angle_gamma 90.000000
_cell_volume 2589.222793
_symmetry_space_group_name_H-M "A M M 2"
_symmetry_group_IT_number 38
_symmetry_cell_setting 'orthorhombic'
loop_
_space_group_symop_operation_xyz
x,y,z
-x,-y,z
-x,y,z
x,-y,z
x,1/2+y,1/2+z
-x,1/2-y,1/2+z
-x,1/2+y,1/2+z
x,1/2-y,1/2+z
loop_
_atom_site_type_symbol
_atom_site_label
_atom_site_fract_x
_atom_site_fract_y
_atom_site_fract_z
Si Si1 0.699235 0.827562 0.222300
Si Si2 0.300346 0.332120 0.409069
Si Si3 0.208181 0.159050 0.565859
Si Si4 0.789702 0.163149 0.994420
Si Si5 0.000000 0.171797 0.277798
Si Si6 0.291380 0.660349 0.639013
Si Si7 0.000000 0.170641 0.365531
O O1 0.500000 0.781430 0.227988
O O2 0.763741 0.786980 0.180417
O O3 0.830103 0.781185 0.254753
O O4 0.697166 0.000000 0.221813
O O5 0.500000 0.311718 0.397660
O O6 0.257793 0.500000 0.405473
O O7 0.280730 0.297241 0.453417
O O8 0.167444 0.238204 0.385597
O O9 0.272096 0.241381 0.528913
O O10 0.244896 0.243054 0.604026
O O11 0.000000 0.152740 0.562137
O O12 0.276387 0.000000 0.567674
O O13 0.000000 0.170440 0.992207
O O14 0.742606 0.000000 0.001861
O O15 0.000000 0.210846 0.321434
O O16 0.000000 0.000000 0.276746
O O17 0.500000 0.653147 0.641269
O O18 0.225879 0.500000 0.633130
O O19 0.000000 0.000000 0.368829
#
# Coordination Sequence:
#
# PCOD9358636 Si02
#       7
#     8   8   8   8   4   8   4
#     4   8  15  29  49  75 106 137 177 227 269 313
#     4  10  21  39  63  86 111 149 194 236 280 333
#     4  10  21  33  47  74 111 146 178 215 266 325
#     4   9  17  33  55  77 104 140 186 236 277 315
#     4   9  18  31  51  80 109 144 175 210 277 337
#     4   9  18  32  51  75 101 134 180 230 270 308
#     4  11  23  37  57  88 125 150 177 228 287 349
#
# _framework density 18.538381999999999
#
# number of rings (size 3 to 8) (size 9 to 14) (size 15 to 20)
#    0.000    2.667    0.833    1.750    1.167    3.667 
#    0.000    3.333    0.000    2.000    0.000    0.000 
#    0.000    0.000    0.000    0.000    0.000    0.000 
#
# Total GULP energy -133877.905588 kJ/mol
# GULP energy per Si atom -5578.246066 kJ/mol
# Density = 1.849619 g / cm^3
# Si number density = 18.538382 Si / 1000 Ang^3
#
#
#
# Elastic Constant Matrix: (Units=GPa)
#
#
# Indices 1 2 3 4 5 6 
#
# 1 79.0372 39.5827 66.7950 0.0000 0.0000 0.0000
# 2 39.5827 70.9305 82.9218 0.0000 0.0000 0.0000
# 3 66.7950 82.9218 180.2130 0.0000 0.0000 0.0000
# 4 0.0000 0.0000 0.0000 21.5221 0.0000 0.0000
# 5 0.0000 0.0000 0.0000 0.0000 -163.5170 0.0000
# 6 0.0000 0.0000 0.0000 0.0000 0.0000 13.3763
#
#
#
# Elastic Compliance Matrix: (Units=1/GPa)
#
#
# Indices 1 2 3 4 5 6 
#
# 1 0.019271 -0.005202 -0.004749 0.000000 0.000000 0.000000
# 2 -0.005202 0.031915 -0.012757 0.000000 0.000000 0.000000
# 3 -0.004749 -0.012757 0.013179 0.000000 0.000000 0.000000
# 4 0.000000 0.000000 0.000000 0.046464 0.000000 0.000000
# 5 0.000000 0.000000 0.000000 0.000000 -0.006116 0.000000
# 6 0.000000 0.000000 0.000000 0.000000 0.000000 0.074759
#
#
# Mechanical properties :
#
#
# Convention : Reuss Voigt Hill
#
# Bulk Modulus (GPa) = 52.77429 78.75330 65.76379
# Shear Modulus (GPa) = 21.62583 -16.33162 2.64710
#
# Velocity S-wave (km/s) = 3.41918 -2.97132 1.19625
# Velocity P-wave (km/s) = 6.64207 5.54993 6.12041
#
# Compressibility (1/GPa) = 0.01894862
#
# Stress axis : x y z
#
# Youngs Moduli (GPa) = 51.89128 31.33315 75.87837
#
# Poissons Ratio (x) = 0.16301 0.36034
# Poissons Ratio (y) = 0.26996 0.96797
# Poissons Ratio (z) = 0.24643 0.39971
#
# Static dielectric constant tensor:
#      x y z
#    x 1.682230 0.000000 0.000000 
#    y 0.000000 1.630030 0.000000 
#    z 0.000000 0.000000 1.624790 
# 
# From -- ./inp_files/24345.got.cif
#   From: 2010.05.17/outbox.cif.g08.bks.cpg/sg38_13_cif.got.tgz:24345.got - 2010.06.03 18:07:57.
