data_PCOD9358162
_publ_section_title
;
Structure prediction by ZEFSAII (Michael W. Deem and Ramdas Pophale) SiO2 
 PCOD9358162
Probable space group: A M M 2
;
_chemical_formula_sum "Si O2"
_cell_formula_units_Z 64
_cell_length_a 15.032120
_cell_length_b 10.874475
_cell_length_c 19.906009
_cell_angle_alpha 90.000000
_cell_angle_beta 90.000000
_cell_angle_gamma 90.000000
_cell_volume 3253.963891
_symmetry_space_group_name_H-M "A M M 2"
_symmetry_group_IT_number 38
_symmetry_cell_setting 'orthorhombic'
loop_
_space_group_symop_operation_xyz
x,y,z
-x,-y,z
-x,y,z
x,-y,z
x,1/2+y,1/2+z
-x,1/2-y,1/2+z
-x,1/2+y,1/2+z
x,1/2-y,1/2+z
loop_
_atom_site_type_symbol
_atom_site_label
_atom_site_fract_x
_atom_site_fract_y
_atom_site_fract_z
Si Si1 0.599867 0.856838 0.294020
Si Si2 0.713071 0.856944 0.169293
Si Si3 0.895049 0.368719 0.075057
Si Si4 0.897200 0.636262 0.496817
Si Si5 0.649151 0.642469 0.389844
Si Si6 0.100293 0.765659 0.207244
Si Si7 0.602778 0.351552 0.542986
Si Si8 0.854241 0.140153 0.845128
O O1 0.500000 0.861102 0.265757
O O2 0.666116 0.809176 0.236591
O O3 0.602180 0.755313 0.352254
O O4 0.621920 0.000000 0.313757
O O5 0.818415 0.846408 0.180162
O O6 0.666270 0.803878 0.102807
O O7 0.690700 0.000000 0.168771
O O8 0.854522 0.500000 0.056799
O O9 0.893276 0.348012 0.155049
O O10 0.000000 0.372494 0.056544
O O11 0.857029 0.249313 0.037704
O O12 0.854832 0.500000 0.506018
O O13 0.896842 0.665746 0.417772
O O14 0.000000 0.625585 0.518722
O O15 0.616248 0.500000 0.379940
O O16 0.642645 0.669996 0.469077
O O17 0.749637 0.644630 0.361837
O O18 0.117529 0.725965 0.283766
O O19 0.000000 0.816433 0.200443
O O20 0.500000 0.307497 0.547679
O O21 0.598909 0.500000 0.548340
O O22 0.878447 0.000000 0.826760
#
# Coordination Sequence:
#
# PCOD9358162 Si02
#       8
#     8   8   8   8   8   8   8   8
#     4  10  20  37  62  89 119 156 194 234 289 356
#     4  10  21  37  57  83 119 156 196 245 295 351
#     4   9  19  35  54  77 106 143 188 236 288 346
#     4   9  18  33  55  81 107 141 191 246 293 339
#     4  10  20  35  59  91 122 151 192 243 294 350
#     4  11  22  36  56  80 111 156 206 251 295 345
#     4   9  18  34  59  89 117 149 192 242 296 355
#     4  10  20  35  56  82 113 150 195 245 296 347
#
# _framework density 19.668319
#
# number of rings (size 3 to 8) (size 9 to 14) (size 15 to 20)
#    0.000    2.250    1.250    1.500    1.750    4.250 
#    0.000    2.500    0.000    2.250    0.000    0.000 
#    0.000    0.000    0.000    0.000    0.000    0.000 
#
# Total GULP energy -178233.677538 kJ/mol
# GULP energy per Si atom -5569.802423 kJ/mol
# Density = 1.962355 g / cm^3
# Si number density = 19.668319 Si / 1000 Ang^3
#
#
#
# Elastic Constant Matrix: (Units=GPa)
#
#
# Indices 1 2 3 4 5 6 
#
# 1 79.8286 7.9037 35.8322 0.0000 0.0000 0.0000
# 2 7.9037 77.3821 55.6851 0.0000 0.0000 0.0000
# 3 35.8322 55.6851 121.2645 0.0000 0.0000 0.0000
# 4 0.0000 0.0000 0.0000 21.4546 0.0000 0.0000
# 5 0.0000 0.0000 0.0000 0.0000 24.4637 0.0000
# 6 0.0000 0.0000 0.0000 0.0000 0.0000 15.6879
#
#
#
# Elastic Compliance Matrix: (Units=1/GPa)
#
#
# Indices 1 2 3 4 5 6 
#
# 1 0.014743 0.002433 -0.005474 0.000000 0.000000 0.000000
# 2 0.002433 0.019702 -0.009766 0.000000 0.000000 0.000000
# 3 -0.005474 -0.009766 0.014349 0.000000 0.000000 0.000000
# 4 0.000000 0.000000 0.000000 0.046610 0.000000 0.000000
# 5 0.000000 0.000000 0.000000 0.000000 0.040877 0.000000
# 6 0.000000 0.000000 0.000000 0.000000 0.000000 0.063743
#
#
# Mechanical properties :
#
#
# Convention : Reuss Voigt Hill
#
# Bulk Modulus (GPa) = 43.14061 53.03523 48.08792
# Shear Modulus (GPa) = 21.42573 24.25820 22.84197
#
# Velocity S-wave (km/s) = 3.30411 3.51574 3.41157
# Velocity P-wave (km/s) = 6.04466 6.59575 6.32621
#
# Compressibility (1/GPa) = 0.02318001
#
# Stress axis : x y z
#
# Youngs Moduli (GPa) = 67.82947 50.75542 69.69351
#
# Poissons Ratio (x) = -0.12349 0.38147
# Poissons Ratio (y) = -0.16503 0.68065
# Poissons Ratio (z) = 0.37127 0.49569
#
# Static dielectric constant tensor:
#      x y z
#    x 1.755500 0.000000 0.000000 
#    y 0.000000 1.711000 0.000000 
#    z 0.000000 0.000000 1.712850 
# 
# From -- ./inp_files/18468.got.cif
#   From: 2010.05.17/outbox.cif.g08.bks.cpg/sg38_10_cif.got.tgz:18468.got - 2010.06.03 18:07:57.
