data_PCOD9358632
_publ_section_title
;
Structure prediction by ZEFSAII (Michael W. Deem and Ramdas Pophale) SiO2 
 PCOD9358632
Probable space group: A M M 2
;
_chemical_formula_sum "Si O2"
_cell_formula_units_Z 58
_cell_length_a 14.152475
_cell_length_b 25.669842
_cell_length_c 9.528745
_cell_angle_alpha 90.000000
_cell_angle_beta 90.000000
_cell_angle_gamma 90.000000
_cell_volume 3461.714896
_symmetry_space_group_name_H-M "A M M 2"
_symmetry_group_IT_number 38
_symmetry_cell_setting 'orthorhombic'
loop_
_space_group_symop_operation_xyz
x,y,z
-x,-y,z
-x,y,z
x,-y,z
x,1/2+y,1/2+z
-x,1/2-y,1/2+z
-x,1/2+y,1/2+z
x,1/2-y,1/2+z
loop_
_atom_site_type_symbol
_atom_site_label
_atom_site_fract_x
_atom_site_fract_y
_atom_site_fract_z
Si Si1 0.108890 0.295614 0.667230
Si Si2 0.723968 0.647802 0.824531
Si Si3 0.500000 0.000000 0.468731
Si Si4 0.386260 0.783588 0.547852
Si Si5 0.691111 0.443163 0.027545
Si Si6 0.299308 0.863362 0.767639
Si Si7 0.388343 0.339906 0.558998
Si Si8 0.108825 0.811444 0.836696
O O1 0.181412 0.331054 0.752805
O O2 0.117140 0.238500 0.735312
O O3 0.127948 0.296053 0.499792
O O4 0.000000 0.312384 0.686076
O O5 0.654690 0.634676 0.696901
O O6 0.671283 0.691868 0.917938
O O7 0.738252 0.598320 0.924006
O O8 0.584464 0.955438 0.477088
O O9 0.500000 0.789936 0.531064
O O10 0.349718 0.816184 0.681858
O O11 0.365907 0.722242 0.562590
O O12 0.738304 0.500000 0.033498
O O13 0.686095 0.415173 0.177682
O O14 0.188798 0.850972 0.786653
O O15 0.344928 0.864324 0.920001
O O16 0.500000 0.344799 0.556536
O O17 0.000000 0.829892 0.829301
#
# Coordination Sequence:
#
# PCOD9358632 Si02
#       8
#     8   8   2   8   8   8   8   8
#     4  10  21  36  56  85 122 158 190 226 272 331
#     4  11  21  34  56  79 108 150 187 230 278 334
#     4   8  20  44  64  74 102 140 200 242 296 348
#     4  10  21  33  47  73 116 157 183 208 263 342
#     4   9  23  39  61  75 101 141 188 240 285 341
#     4  11  21  34  56  79 108 150 187 230 278 334
#     4  11  21  29  47  81 115 140 178 222 270 336
#     4  10  21  36  56  85 122 158 190 226 272 331
#
# _framework density 16.754701000000001
#
# number of rings (size 3 to 8) (size 9 to 14) (size 15 to 20)
#    0.414    1.379    1.379    3.310    9.655    2.207 
#    0.000    0.690    0.000    3.310    0.000    1.931 
#    0.000    0.000    0.000    0.000    0.000    0.000 
#
# Total GULP energy -161523.463697 kJ/mol
# GULP energy per Si atom -5569.774610 kJ/mol
# Density = 1.671657 g / cm^3
# Si number density = 16.754701 Si / 1000 Ang^3
#
#
#
# Elastic Constant Matrix: (Units=GPa)
#
#
# Indices 1 2 3 4 5 6 
#
# 1 55.1344 0.8601 -14.1114 0.0000 0.0000 0.0000
# 2 0.8601 46.5078 7.1343 0.0000 0.0000 0.0000
# 3 -14.1114 7.1343 53.6863 0.0000 0.0000 0.0000
# 4 0.0000 0.0000 0.0000 0.5132 0.0000 0.0000
# 5 0.0000 0.0000 0.0000 0.0000 24.4712 0.0000
# 6 0.0000 0.0000 0.0000 0.0000 0.0000 17.1795
#
#
#
# Elastic Compliance Matrix: (Units=1/GPa)
#
#
# Indices 1 2 3 4 5 6 
#
# 1 0.019508 -0.001171 0.005283 0.000000 0.000000 0.000000
# 2 -0.001171 0.022020 -0.003234 0.000000 0.000000 0.000000
# 3 0.005283 -0.003234 0.020445 0.000000 0.000000 0.000000
# 4 0.000000 0.000000 0.000000 1.948371 0.000000 0.000000
# 5 0.000000 0.000000 0.000000 0.000000 0.040864 0.000000
# 6 0.000000 0.000000 0.000000 0.000000 0.000000 0.058209
#
#
# Mechanical properties :
#
#
# Convention : Reuss Voigt Hill
#
# Bulk Modulus (GPa) = 15.69149 15.89940 15.79545
# Shear Modulus (GPa) = 2.34863 19.19582 10.77222
#
# Velocity S-wave (km/s) = 1.18525 3.38849 2.53837
# Velocity P-wave (km/s) = 3.35542 4.98189 4.24724
#
# Compressibility (1/GPa) = 0.06372881
#
# Stress axis : x y z
#
# Youngs Moduli (GPa) = 51.26100 45.41422 48.91128
#
# Poissons Ratio (x) = 0.05319 -0.25841
# Poissons Ratio (y) = 0.06004 0.15818
# Poissons Ratio (z) = -0.27083 0.14687
#
# Static dielectric constant tensor:
#      x y z
#    x 1.573050 0.000000 0.000000 
#    y 0.000000 1.553870 0.000000 
#    z 0.000000 0.000000 1.573650 
# 
# From -- ./inp_files/5866.got.cif
#   From: 2010.05.17/outbox.cif.g08.bks.cpg/sg38_3_cif.got.tgz:5866.got - 2010.06.03 18:07:57.
