data_PCOD9358346
_publ_section_title
;
Structure prediction by ZEFSAII (Michael W. Deem and Ramdas Pophale) SiO2 
 PCOD9358346
Probable space group: A M M 2
;
_chemical_formula_sum "Si O2"
_cell_formula_units_Z 44
_cell_length_a 13.480808
_cell_length_b 11.143897
_cell_length_c 14.851879
_cell_angle_alpha 90.000000
_cell_angle_beta 90.000000
_cell_angle_gamma 90.000000
_cell_volume 2231.179007
_symmetry_space_group_name_H-M "A M M 2"
_symmetry_group_IT_number 38
_symmetry_cell_setting 'orthorhombic'
loop_
_space_group_symop_operation_xyz
x,y,z
-x,-y,z
-x,y,z
x,-y,z
x,1/2+y,1/2+z
-x,1/2-y,1/2+z
-x,1/2+y,1/2+z
x,1/2-y,1/2+z
loop_
_atom_site_type_symbol
_atom_site_label
_atom_site_fract_x
_atom_site_fract_y
_atom_site_fract_z
Si Si1 0.755958 0.360925 0.855930
Si Si2 0.382502 0.264256 0.982359
Si Si3 0.620346 0.500000 0.459774
Si Si4 0.884001 0.359836 0.029756
Si Si5 0.620242 0.500000 0.100775
Si Si6 0.246363 0.500000 0.279862
Si Si7 0.881161 0.272761 0.225751
O O1 0.730722 0.500000 0.860384
O O2 0.658484 0.286606 0.881203
O O3 0.820021 0.335532 0.768337
O O4 0.825142 0.326844 0.940978
O O5 0.500000 0.270878 0.980740
O O6 0.356525 0.127124 0.008832
O O7 0.352241 0.377990 0.045222
O O8 0.500000 0.500000 0.441780
O O9 0.686790 0.500000 0.369368
O O10 0.864292 0.500000 0.051802
O O11 0.864996 0.284812 0.119135
O O12 0.000000 0.350774 0.008822
O O13 0.500000 0.500000 0.112938
O O14 0.679063 0.500000 0.194404
O O15 0.172894 0.613584 0.271788
O O16 0.000000 0.270111 0.241948
#
# Coordination Sequence:
#
# PCOD9358346 Si02
#       7
#     8   8   4   8   4   4   8
#     4  11  21  36  61  86 115 161 206 246 303 370
#     4  10  20  36  58  89 121 155 195 246 300 361
#     4  10  21  37  59  85 121 155 192 241 305 363
#     4   9  18  34  56  82 109 146 198 250 294 351
#     4  10  21  37  65  93 119 152 204 254 298 366
#     4  12  20  36  58  86 112 153 202 247 297 359
#     4  11  22  35  56  86 119 152 198 259 305 350
#
# _framework density 19.720514999999999
#
# number of rings (size 3 to 8) (size 9 to 14) (size 15 to 20)
#    0.000    1.636    3.636    2.182    0.000    1.091 
#    0.000    0.000   10.000    0.000    0.000    6.364 
#    0.000    0.000    0.000    0.000    0.000    0.000 
#
# Total GULP energy -122672.719580 kJ/mol
# GULP energy per Si atom -5576.032708 kJ/mol
# Density = 1.967563 g / cm^3
# Si number density = 19.720515 Si / 1000 Ang^3
#
#
#
# Elastic Constant Matrix: (Units=GPa)
#
#
# Indices 1 2 3 4 5 6 
#
# 1 35.4888 23.2176 -0.7263 0.0000 0.0000 0.0000
# 2 23.2176 110.4375 12.7521 0.0000 0.0000 0.0000
# 3 -0.7263 12.7521 29.7219 0.0000 0.0000 0.0000
# 4 0.0000 0.0000 0.0000 26.0990 0.0000 0.0000
# 5 0.0000 0.0000 0.0000 0.0000 26.9565 0.0000
# 6 0.0000 0.0000 0.0000 0.0000 0.0000 27.2553
#
#
#
# Elastic Compliance Matrix: (Units=1/GPa)
#
#
# Indices 1 2 3 4 5 6 
#
# 1 0.033116 -0.007423 0.003994 0.000000 0.000000 0.000000
# 2 -0.007423 0.011191 -0.004983 0.000000 0.000000 0.000000
# 3 0.003994 -0.004983 0.035881 0.000000 0.000000 0.000000
# 4 0.000000 0.000000 0.000000 0.038316 0.000000 0.000000
# 5 0.000000 0.000000 0.000000 0.000000 0.037097 0.000000
# 6 0.000000 0.000000 0.000000 0.000000 0.000000 0.036690
#
#
# Mechanical properties :
#
#
# Convention : Reuss Voigt Hill
#
# Bulk Modulus (GPa) = 15.78187 27.34834 21.56510
# Shear Modulus (GPa) = 21.71689 25.42247 23.56968
#
# Velocity S-wave (km/s) = 3.32208 3.59435 3.46090
# Velocity P-wave (km/s) = 4.76814 5.57888 5.18937
#
# Compressibility (1/GPa) = 0.06336386
#
# Stress axis : x y z
#
# Youngs Moduli (GPa) = 30.19669 89.35847 27.87017
#
# Poissons Ratio (x) = 0.66334 -0.11132
# Poissons Ratio (y) = 0.22416 0.13887
# Poissons Ratio (z) = -0.12061 0.44526
#
# Static dielectric constant tensor:
#      x y z
#    x 1.729720 0.000000 0.000000 
#    y 0.000000 1.749590 0.000000 
#    z 0.000000 0.000000 1.670830 
# 
# From -- ./inp_files/14437.got.cif
#   From: 2010.05.17/outbox.cif.g08.bks.cpg/sg38_8_cif.got.tgz:14437.got - 2010.06.03 18:07:57.
