data_PCOD9358660
_publ_section_title
;
Structure prediction by ZEFSAII (Michael W. Deem and Ramdas Pophale) SiO2 
 PCOD9358660
Probable space group: A M M 2
;
_chemical_formula_sum "Si O2"
_cell_formula_units_Z 64
_cell_length_a 14.975207
_cell_length_b 15.218659
_cell_length_c 12.921539
_cell_angle_alpha 90.000000
_cell_angle_beta 90.000000
_cell_angle_gamma 90.000000
_cell_volume 2944.851931
_symmetry_space_group_name_H-M "A M M 2"
_symmetry_group_IT_number 38
_symmetry_cell_setting 'orthorhombic'
loop_
_space_group_symop_operation_xyz
x,y,z
-x,-y,z
-x,y,z
x,-y,z
x,1/2+y,1/2+z
-x,1/2-y,1/2+z
-x,1/2+y,1/2+z
x,1/2-y,1/2+z
loop_
_atom_site_type_symbol
_atom_site_label
_atom_site_fract_x
_atom_site_fract_y
_atom_site_fract_z
Si Si1 0.248113 0.396731 0.606630
Si Si2 0.896909 0.608145 0.447597
Si Si3 0.601602 0.147311 0.948532
Si Si4 0.396859 0.105001 0.722199
Si Si5 0.891147 0.899396 0.722090
Si Si6 0.248217 0.103311 0.337652
Si Si7 0.601601 0.147431 0.495907
Si Si8 0.896918 0.891856 0.496580
O O1 0.227890 0.500000 0.617610
O O2 0.167921 0.359223 0.537275
O O3 0.336769 0.391143 0.537724
O O4 0.257425 0.359033 0.722125
O O5 0.894155 0.500000 0.443964
O O6 0.867328 0.639482 0.333321
O O7 0.000000 0.631979 0.465744
O O8 0.500000 0.111241 0.949464
O O9 0.640759 0.133585 0.833154
O O10 0.596942 0.249925 0.972310
O O11 0.500000 0.138202 0.722185
O O12 0.359218 0.133570 0.611249
O O13 0.397199 0.000000 0.722216
O O14 0.867335 0.860522 0.610855
O O15 0.000000 0.903623 0.722093
O O16 0.856885 0.000000 0.722089
O O17 0.336835 0.109070 0.406598
O O18 0.167932 0.140751 0.406915
O O19 0.228193 0.000000 0.326764
O O20 0.500000 0.111355 0.494938
O O21 0.000000 0.867997 0.478425
O O22 0.894187 0.000000 0.500204
#
# Coordination Sequence:
#
# PCOD9358660 Si02
#       8
#     8   8   8   8   8   8   8   8
#     4  10  21  34  51  80 113 145 184 226 272 330
#     4   8  14  26  45  72 107 143 179 222 270 320
#     4  10  22  38  58  80 108 145 183 228 285 342
#     4   9  18  35  59  85 109 138 185 236 279 333
#     4   7  10  19  39  67  98 133 172 214 262 313
#     4  10  21  34  51  80 113 145 184 226 272 330
#     4  10  22  38  58  80 108 145 183 228 285 342
#     4   8  14  26  45  72 107 143 179 222 270 320
#
# _framework density 21.732841000000001
#
# number of rings (size 3 to 8) (size 9 to 14) (size 15 to 20)
#    0.000    3.000    0.000    2.250    1.750    3.500 
#    0.000    6.250    0.000    0.750    0.000    0.000 
#    0.000    0.000    0.000    0.000    0.000    0.000 
#
# Total GULP energy -178469.764768 kJ/mol
# GULP energy per Si atom -5577.180149 kJ/mol
# Density = 2.168338 g / cm^3
# Si number density = 21.732841 Si / 1000 Ang^3
#
#
#
# Elastic Constant Matrix: (Units=GPa)
#
#
# Indices 1 2 3 4 5 6 
#
# 1 103.9285 -6.3432 89.5777 0.0000 0.0000 0.0000
# 2 -6.3432 33.3200 16.4390 0.0000 0.0000 0.0000
# 3 89.5777 16.4390 263.0686 0.0000 0.0000 0.0000
# 4 0.0000 0.0000 0.0000 18.0499 0.0000 0.0000
# 5 0.0000 0.0000 0.0000 0.0000 42.6381 0.0000
# 6 0.0000 0.0000 0.0000 0.0000 0.0000 -11.4604
#
#
#
# Elastic Compliance Matrix: (Units=1/GPa)
#
#
# Indices 1 2 3 4 5 6 
#
# 1 0.014490 0.005358 -0.005269 0.000000 0.000000 0.000000
# 2 0.005358 0.032948 -0.003883 0.000000 0.000000 0.000000
# 3 -0.005269 -0.003883 0.005838 0.000000 0.000000 0.000000
# 4 0.000000 0.000000 0.000000 0.055402 0.000000 0.000000
# 5 0.000000 0.000000 0.000000 0.000000 0.023453 0.000000
# 6 0.000000 0.000000 0.000000 0.000000 0.000000 -0.087257
#
#
# Mechanical properties :
#
#
# Convention : Reuss Voigt Hill
#
# Bulk Modulus (GPa) = 21.88761 66.62935 44.25848
# Shear Modulus (GPa) = 73.86367 29.88845 51.87606
#
# Velocity S-wave (km/s) = 5.83617 3.71248 4.89098
# Velocity P-wave (km/s) = 7.45034 7.00725 7.23219
#
# Compressibility (1/GPa) = 0.04568795
#
# Stress axis : x y z
#
# Youngs Moduli (GPa) = 69.01103 30.35092 171.28854
#
# Poissons Ratio (x) = -0.16262 0.90251
# Poissons Ratio (y) = -0.36977 0.66518
# Poissons Ratio (z) = 0.36362 0.11786
#
# Static dielectric constant tensor:
#      x y z
#    x 1.818070 0.000000 0.000000 
#    y 0.000000 1.800480 0.000000 
#    z 0.000000 0.000000 1.816390 
# 
# From -- ./inp_files/10255.got.cif
#   From: 2010.05.17/outbox.cif.g08.bks.cpg/sg38_6_cif.got.tgz:10255.got - 2010.06.03 18:07:57.
