data_PCOD9358623
_publ_section_title
;
Structure prediction by ZEFSAII (Michael W. Deem and Ramdas Pophale) SiO2 
 PCOD9358623
Probable space group: A M M 2
;
_chemical_formula_sum "Si O2"
_cell_formula_units_Z 58
_cell_length_a 19.809599
_cell_length_b 16.269092
_cell_length_c 7.597168
_cell_angle_alpha 90.000000
_cell_angle_beta 90.000000
_cell_angle_gamma 90.000000
_cell_volume 2448.447125
_symmetry_space_group_name_H-M "A M M 2"
_symmetry_group_IT_number 38
_symmetry_cell_setting 'orthorhombic'
loop_
_space_group_symop_operation_xyz
x,y,z
-x,-y,z
-x,y,z
x,-y,z
x,1/2+y,1/2+z
-x,1/2-y,1/2+z
-x,1/2+y,1/2+z
x,1/2-y,1/2+z
loop_
_atom_site_type_symbol
_atom_site_label
_atom_site_fract_x
_atom_site_fract_y
_atom_site_fract_z
Si Si1 0.814198 0.901102 0.898140
Si Si2 0.080242 0.330369 0.159688
Si Si3 0.572508 0.358244 0.101803
Si Si4 0.000000 0.500000 0.652596
Si Si5 0.718668 0.405053 0.093460
Si Si6 0.283840 0.599461 0.696977
Si Si7 0.573777 0.165470 0.182456
Si Si8 0.924364 0.154918 0.277410
O O1 0.885701 0.872836 0.826067
O O2 0.764377 0.867762 0.744767
O O3 0.812634 0.000000 0.898924
O O4 0.780749 0.875740 0.082032
O O5 0.099227 0.234094 0.171722
O O6 0.106696 0.362511 0.969621
O O7 0.000000 0.346634 0.173520
O O8 0.500000 0.391988 0.160823
O O9 0.572081 0.357803 0.888763
O O10 0.640972 0.402020 0.154107
O O11 0.576724 0.263699 0.162924
O O12 0.058720 0.427720 0.674203
O O13 0.739344 0.500000 0.075710
O O14 0.722608 0.368542 0.897199
O O15 0.287423 0.500000 0.701731
O O16 0.355270 0.629461 0.616175
O O17 0.500000 0.139793 0.106898
O O18 0.000000 0.185905 0.331741
#
# Coordination Sequence:
#
# PCOD9358623 Si02
#       8
#     8   8   8   2   8   8   8   8
#     4  10  22  38  61  88 119 162 209 251 310 376
#     4  10  20  40  64  90 126 156 200 258 309 368
#     4   9  18  32  52  80 111 147 192 245 298 357
#     4   8  16  32  68  94 114 160 192 234 314 376
#     4   9  19  38  58  81 115 156 198 249 303 360
#     4   9  19  38  58  80 119 153 197 255 299 359
#     4   9  18  32  52  79 112 149 193 244 299 355
#     4   8  18  35  62  89 123 150 193 244 302 367
#
# _framework density 23.688483999999999
#
# number of rings (size 3 to 8) (size 9 to 14) (size 15 to 20)
#    0.414    2.483    0.000    0.000    2.897    0.828 
#    4.966    2.759    1.517    3.310    0.000    0.000 
#    0.000    0.000    0.000    0.000    0.000    0.000 
#
# Total GULP energy -161481.390600 kJ/mol
# GULP energy per Si atom -5568.323814 kJ/mol
# Density = 2.363457 g / cm^3
# Si number density = 23.688484 Si / 1000 Ang^3
#
#
#
# Elastic Constant Matrix: (Units=GPa)
#
#
# Indices 1 2 3 4 5 6 
#
# 1 92.5302 15.7211 30.2294 0.0000 0.0000 0.0000
# 2 15.7211 32.0938 13.4551 0.0000 0.0000 0.0000
# 3 30.2294 13.4551 81.9670 0.0000 0.0000 0.0000
# 4 0.0000 0.0000 0.0000 9.2572 0.0000 0.0000
# 5 0.0000 0.0000 0.0000 0.0000 19.8233 0.0000
# 6 0.0000 0.0000 0.0000 0.0000 0.0000 26.3443
#
#
#
# Elastic Compliance Matrix: (Units=1/GPa)
#
#
# Indices 1 2 3 4 5 6 
#
# 1 0.012902 -0.004645 -0.003996 0.000000 0.000000 0.000000
# 2 -0.004645 0.035134 -0.004054 0.000000 0.000000 0.000000
# 3 -0.003996 -0.004054 0.014339 0.000000 0.000000 0.000000
# 4 0.000000 0.000000 0.000000 0.108024 0.000000 0.000000
# 5 0.000000 0.000000 0.000000 0.000000 0.050446 0.000000
# 6 0.000000 0.000000 0.000000 0.000000 0.000000 0.037959
#
#
# Mechanical properties :
#
#
# Convention : Reuss Voigt Hill
#
# Bulk Modulus (GPa) = 27.03796 36.15580 31.59688
# Shear Modulus (GPa) = 16.86221 20.89733 18.87977
#
# Velocity S-wave (km/s) = 2.67091 2.97336 2.82619
# Velocity P-wave (km/s) = 4.57716 5.20423 4.90074
#
# Compressibility (1/GPa) = 0.03698504
#
# Stress axis : x y z
#
# Youngs Moduli (GPa) = 77.50834 28.46280 69.73893
#
# Poissons Ratio (x) = 0.13220 0.27866
# Poissons Ratio (y) = 0.36001 0.28274
# Poissons Ratio (z) = 0.30970 0.11540
#
# Static dielectric constant tensor:
#      x y z
#    x 1.991560 0.000000 0.000000 
#    y 0.000000 1.852100 0.000000 
#    z 0.000000 0.000000 1.987160 
# 
# From -- ./inp_files/6366.got.cif
#   From: 2010.05.17/outbox.cif.g08.bks.cpg/sg38_4_cif.got.tgz:6366.got - 2010.06.03 18:07:57.
