data_PCOD9358193
_publ_section_title
;
Structure prediction by ZEFSAII (Michael W. Deem and Ramdas Pophale) SiO2 
 PCOD9358193
Probable space group: A M M 2
;
_chemical_formula_sum "Si O2"
_cell_formula_units_Z 64
_cell_length_a 8.983177
_cell_length_b 24.658697
_cell_length_c 13.962140
_cell_angle_alpha 90.000000
_cell_angle_beta 90.000000
_cell_angle_gamma 90.000000
_cell_volume 3092.801658
_symmetry_space_group_name_H-M "A M M 2"
_symmetry_group_IT_number 38
_symmetry_cell_setting 'orthorhombic'
loop_
_space_group_symop_operation_xyz
x,y,z
-x,-y,z
-x,y,z
x,-y,z
x,1/2+y,1/2+z
-x,1/2-y,1/2+z
-x,1/2+y,1/2+z
x,1/2-y,1/2+z
loop_
_atom_site_type_symbol
_atom_site_label
_atom_site_fract_x
_atom_site_fract_y
_atom_site_fract_z
Si Si1 0.169653 0.220394 0.459400
Si Si2 0.319235 0.558386 0.547241
Si Si3 0.327649 0.329666 0.459400
Si Si4 0.830134 0.224398 0.226151
Si Si5 0.822008 0.939313 0.638062
Si Si6 0.671054 0.165228 0.728556
Si Si7 0.322078 0.107622 0.456948
Si Si8 0.678110 0.388068 0.737949
O O1 0.233831 0.277921 0.492695
O O2 0.168793 0.224644 0.343026
O O3 0.272734 0.169063 0.482622
O O4 0.000000 0.210612 0.490578
O O5 0.500000 0.558149 0.537822
O O6 0.264007 0.500000 0.512862
O O7 0.267535 0.612425 0.494100
O O8 0.284461 0.567251 0.659114
O O9 0.500000 0.323393 0.491297
O O10 0.328902 0.331370 0.344046
O O11 0.753655 0.280247 0.194484
O O12 0.743476 0.169301 0.203478
O O13 0.000000 0.221827 0.193535
O O14 0.750275 0.889989 0.696896
O O15 0.759795 0.931330 0.530795
O O16 0.000000 0.934117 0.638693
O O17 0.782589 0.000000 0.672684
O O18 0.500000 0.164856 0.695559
O O19 0.500000 0.101842 0.463954
O O20 0.274708 0.099203 0.346387
O O21 0.500000 0.382269 0.740637
#
# Coordination Sequence:
#
# PCOD9358193 Si02
#       8
#     8   8   8   8   8   8   8   8
#     4   9  17  31  53  80 111 145 179 217 266 324
#     4   9  18  33  53  78 107 140 180 221 260 307
#     4   9  18  33  55  82 111 143 180 223 268 316
#     4   9  17  31  53  80 111 145 179 217 266 324
#     4  11  25  42  57  76 105 142 184 227 274 333
#     4  10  20  35  57  83 110 140 177 224 273 320
#     4  10  20  35  57  83 110 140 177 224 273 320
#     4   9  18  33  55  82 111 143 180 223 268 316
#
# _framework density 20.693211000000002
#
# number of rings (size 3 to 8) (size 9 to 14) (size 15 to 20)
#    0.000    2.500    0.000    1.875    0.000    7.000 
#    0.000    6.875    0.000    1.500    0.000    0.000 
#    0.000    0.000    0.000    0.000    0.000    0.000 
#
# Total GULP energy -178735.609914 kJ/mol
# GULP energy per Si atom -5585.487810 kJ/mol
# Density = 2.064611 g / cm^3
# Si number density = 20.693211 Si / 1000 Ang^3
#
#
#
# Elastic Constant Matrix: (Units=GPa)
#
#
# Indices 1 2 3 4 5 6 
#
# 1 58.7093 24.6942 -1.4392 0.0000 0.0000 0.0000
# 2 24.6942 102.4859 -5.1816 0.0000 0.0000 0.0000
# 3 -1.4392 -5.1816 29.6779 0.0000 0.0000 0.0000
# 4 0.0000 0.0000 0.0000 24.8388 0.0000 0.0000
# 5 0.0000 0.0000 0.0000 0.0000 18.0336 0.0000
# 6 0.0000 0.0000 0.0000 0.0000 0.0000 24.4850
#
#
#
# Elastic Compliance Matrix: (Units=1/GPa)
#
#
# Indices 1 2 3 4 5 6 
#
# 1 0.018954 -0.004561 0.000123 0.000000 0.000000 0.000000
# 2 -0.004561 0.010942 0.001689 0.000000 0.000000 0.000000
# 3 0.000123 0.001689 0.033996 0.000000 0.000000 0.000000
# 4 0.000000 0.000000 0.000000 0.040260 0.000000 0.000000
# 5 0.000000 0.000000 0.000000 0.000000 0.055452 0.000000
# 6 0.000000 0.000000 0.000000 0.000000 0.000000 0.040841
#
#
# Mechanical properties :
#
#
# Convention : Reuss Voigt Hill
#
# Bulk Modulus (GPa) = 17.12489 25.22445 21.17467
# Shear Modulus (GPa) = 22.18202 24.99146 23.58674
#
# Velocity S-wave (km/s) = 3.27761 3.47899 3.37980
# Velocity P-wave (km/s) = 4.75576 5.32485 5.04833
#
# Compressibility (1/GPa) = 0.05839455
#
# Stress axis : x y z
#
# Youngs Moduli (GPa) = 52.75796 91.39266 29.41523
#
# Poissons Ratio (x) = 0.41683 -0.00361
# Poissons Ratio (y) = 0.24062 -0.04969
# Poissons Ratio (z) = -0.00648 -0.15438
#
# Static dielectric constant tensor:
#      x y z
#    x 1.702420 0.000000 0.000000 
#    y 0.000000 1.713910 0.000000 
#    z 0.000000 0.000000 1.803970 
# 
# From -- ./inp_files/12792.got.cif
#   From: 2010.05.17/outbox.cif.g08.bks.cpg/sg38_7_cif.got.tgz:12792.got - 2010.06.03 18:07:57.
