data_PCOD9358622
_publ_section_title
;
Structure prediction by ZEFSAII (Michael W. Deem and Ramdas Pophale) SiO2 
 PCOD9358622
Probable space group: A M M 2
;
_chemical_formula_sum "Si O2"
_cell_formula_units_Z 48
_cell_length_a 8.068526
_cell_length_b 34.788474
_cell_length_c 8.894509
_cell_angle_alpha 90.000000
_cell_angle_beta 90.000000
_cell_angle_gamma 90.000000
_cell_volume 2496.614914
_symmetry_space_group_name_H-M "A M M 2"
_symmetry_group_IT_number 38
_symmetry_cell_setting 'orthorhombic'
loop_
_space_group_symop_operation_xyz
x,y,z
-x,-y,z
-x,y,z
x,-y,z
x,1/2+y,1/2+z
-x,1/2-y,1/2+z
-x,1/2+y,1/2+z
x,1/2-y,1/2+z
loop_
_atom_site_type_symbol
_atom_site_label
_atom_site_fract_x
_atom_site_fract_y
_atom_site_fract_z
Si Si1 0.500000 0.206970 0.320580
Si Si2 0.809026 0.655267 0.186642
Si Si3 0.500000 0.708569 0.183447
Si Si4 0.806633 0.924076 0.858771
Si Si5 0.309371 0.922922 0.191428
Si Si6 0.692378 0.500000 0.192287
Si Si7 0.814691 0.344557 0.825140
Si Si8 0.194814 0.000000 0.354731
O O1 0.500000 0.248942 0.249617
O O2 0.500000 0.210345 0.501840
O O3 0.334737 0.183310 0.276974
O O4 0.666231 0.685430 0.229756
O O5 0.772953 0.614437 0.264136
O O6 0.000000 0.666429 0.224898
O O7 0.802522 0.650745 0.005848
O O8 0.000000 0.923575 0.901603
O O9 0.772578 0.961731 0.760581
O O10 0.704405 0.925013 0.011977
O O11 0.500000 0.918217 0.238196
O O12 0.210888 0.885959 0.250259
O O13 0.240996 0.962102 0.261762
O O14 0.500000 0.500000 0.233788
O O15 0.712451 0.500000 0.013415
O O16 0.000000 0.329911 0.790202
O O17 0.000000 0.000000 0.386542
#
# Coordination Sequence:
#
# PCOD9358622 Si02
#       8
#     4   8   4   8   8   4   8   4
#     4  10  22  40  58  95 116 161 192 246 295 364
#     4   9  21  39  63  89 117 159 204 245 296 361
#     4  10  22  38  64  85 128 151 198 242 303 352
#     4  11  23  40  60  87 122 160 201 248 303 357
#     4  12  24  39  60  90 123 157 202 253 304 354
#     4  12  25  40  61  88 118 160 208 254 301 352
#     4  10  20  40  64  88 120 159 203 247 296 360
#     4  12  25  42  61  84 118 164 208 249 300 357
#
# _framework density 19.226032
#
# number of rings (size 3 to 8) (size 9 to 14) (size 15 to 20)
#    0.000    1.333    0.833    5.000    2.333    3.333 
#    0.000    0.000    0.000    0.000    0.000    0.000 
#    0.000    0.000    0.000    0.000    0.000    0.000 
#
# Total GULP energy -134163.676577 kJ/mol
# GULP energy per Si atom -5590.153191 kJ/mol
# Density = 1.918227 g / cm^3
# Si number density = 19.226032 Si / 1000 Ang^3
#
#
#
# Elastic Constant Matrix: (Units=GPa)
#
#
# Indices 1 2 3 4 5 6 
#
# 1 115.5192 76.0262 24.1061 0.0000 0.0000 0.0000
# 2 76.0262 161.3421 43.9593 0.0000 0.0000 0.0000
# 3 24.1061 43.9593 37.1601 0.0000 0.0000 0.0000
# 4 0.0000 0.0000 0.0000 33.6030 0.0000 0.0000
# 5 0.0000 0.0000 0.0000 0.0000 25.2609 0.0000
# 6 0.0000 0.0000 0.0000 0.0000 0.0000 20.3268
#
#
#
# Elastic Compliance Matrix: (Units=1/GPa)
#
#
# Indices 1 2 3 4 5 6 
#
# 1 0.012620 -0.005484 -0.001700 0.000000 0.000000 0.000000
# 2 -0.005484 0.011529 -0.010081 0.000000 0.000000 0.000000
# 3 -0.001700 -0.010081 0.039938 0.000000 0.000000 0.000000
# 4 0.000000 0.000000 0.000000 0.029759 0.000000 0.000000
# 5 0.000000 0.000000 0.000000 0.000000 0.039587 0.000000
# 6 0.000000 0.000000 0.000000 0.000000 0.000000 0.049196
#
#
# Mechanical properties :
#
#
# Convention : Reuss Voigt Hill
#
# Bulk Modulus (GPa) = 33.83078 66.91163 50.37121
# Shear Modulus (GPa) = 22.02540 27.16679 24.59610
#
# Velocity S-wave (km/s) = 3.38835 3.76310 3.58063
# Velocity P-wave (km/s) = 5.73955 7.33208 6.58414
#
# Compressibility (1/GPa) = 0.02955888
#
# Stress axis : x y z
#
# Youngs Moduli (GPa) = 79.23791 86.74128 25.03856
#
# Poissons Ratio (x) = 0.47566 0.04256
# Poissons Ratio (y) = 0.43451 0.25240
# Poissons Ratio (z) = 0.13469 0.87441
#
# Static dielectric constant tensor:
#      x y z
#    x 1.676660 0.000000 0.000000 
#    y 0.000000 1.618850 0.000000 
#    z 0.000000 0.000000 1.642880 
# 
# From -- ./inp_files/3860.got.cif
#   From: 2010.05.17/outbox.cif.g08.bks.cpg/sg38_2_cif.got.tgz:3860.got - 2010.06.03 18:07:57.
