data_PCOD9358744
_publ_section_title
;
Structure prediction by ZEFSAII (Michael W. Deem and Ramdas Pophale) SiO2 
 PCOD9358744
Probable space group: A M M 2
;
_chemical_formula_sum "Si O2"
_cell_formula_units_Z 64
_cell_length_a 9.174991
_cell_length_b 30.628610
_cell_length_c 14.821184
_cell_angle_alpha 90.000000
_cell_angle_beta 90.000000
_cell_angle_gamma 90.000000
_cell_volume 4165.007941
_symmetry_space_group_name_H-M "A M M 2"
_symmetry_group_IT_number 38
_symmetry_cell_setting 'orthorhombic'
loop_
_space_group_symop_operation_xyz
x,y,z
-x,-y,z
-x,y,z
x,-y,z
x,1/2+y,1/2+z
-x,1/2-y,1/2+z
-x,1/2+y,1/2+z
x,1/2-y,1/2+z
loop_
_atom_site_type_symbol
_atom_site_label
_atom_site_fract_x
_atom_site_fract_y
_atom_site_fract_z
Si Si1 0.825570 0.050698 0.149850
Si Si2 0.326294 0.633054 0.715286
Si Si3 0.673706 0.133054 0.872132
Si Si4 0.674366 0.291737 0.231584
Si Si5 0.167580 0.673835 0.543709
Si Si6 0.825570 0.050698 0.937569
Si Si7 0.832882 0.221502 0.543710
Si Si8 0.674366 0.208263 0.355835
O O1 0.741653 0.084802 0.212331
O O2 0.000000 0.055941 0.159210
O O3 0.790438 0.000000 0.167756
O O4 0.790147 0.059294 0.043710
O O5 0.500000 0.631000 0.702828
O O6 0.251199 0.657088 0.631168
O O7 0.296763 0.663670 0.801288
O O8 0.500000 0.131000 0.884589
O O9 0.703238 0.163670 0.786131
O O10 0.741653 0.084802 0.875088
O O11 0.748798 0.157088 0.956250
O O12 0.500000 0.287485 0.218416
O O13 0.752541 0.291977 0.135502
O O14 0.719631 0.250000 0.293710
O O15 0.166611 0.725906 0.543709
O O16 0.000000 0.657981 0.543708
O O17 0.000000 0.055941 0.928209
O O18 0.790437 0.000000 0.919663
O O19 0.752542 0.208022 0.451917
O O20 0.000000 0.206186 0.543710
O O21 0.500000 0.212515 0.369004
#
# Coordination Sequence:
#
# PCOD9358744 Si02
#       8
#     8   8   8   8   8   8   8   8
#     4   9  18  32  49  71 102 136 165 200 252 303
#     4  11  21  32  50  75  99 133 175 208 243 294
#     4  11  21  32  50  75  99 133 175 208 243 294
#     4  10  21  36  52  71 101 137 169 205 251 300
#     4  11  21  31  46  70 103 136 166 208 252 289
#     4   9  18  32  49  71 102 136 165 200 252 303
#     4  11  23  35  51  74  99 132 175 217 248 286
#     4  10  21  36  52  71 101 137 169 205 251 300
#
# _framework density 15.366116999999999
#
# number of rings (size 3 to 8) (size 9 to 14) (size 15 to 20)
#    0.000    1.750    3.750    2.250    0.000    4.000 
#    0.000    1.250    0.000    0.000    0.000    0.875 
#    0.000    7.000    0.000    0.000    0.000    0.000 
#
# Total GULP energy -178556.434479 kJ/mol
# GULP energy per Si atom -5579.888577 kJ/mol
# Density = 1.533114 g / cm^3
# Si number density = 15.366117 Si / 1000 Ang^3
#
#
#
# Elastic Constant Matrix: (Units=GPa)
#
#
# Indices 1 2 3 4 5 6 
#
# 1 67.0141 60.4583 68.9120 0.0000 0.0000 0.0000
# 2 60.4583 113.1013 57.8697 0.0000 0.0000 0.0000
# 3 68.9120 57.8697 123.8326 0.0000 0.0000 0.0000
# 4 0.0000 0.0000 0.0000 15.1237 0.0000 0.0000
# 5 0.0000 0.0000 0.0000 0.0000 4.8546 0.0000
# 6 0.0000 0.0000 0.0000 0.0000 0.0000 28.7908
#
#
#
# Elastic Compliance Matrix: (Units=1/GPa)
#
#
# Indices 1 2 3 4 5 6 
#
# 1 0.051576 -0.016933 -0.020789 0.000000 0.000000 0.000000
# 2 -0.016933 0.017180 0.001395 0.000000 0.000000 0.000000
# 3 -0.020789 0.001395 0.018992 0.000000 0.000000 0.000000
# 4 0.000000 0.000000 0.000000 0.066121 0.000000 0.000000
# 5 0.000000 0.000000 0.000000 0.000000 0.205989 0.000000
# 6 0.000000 0.000000 0.000000 0.000000 0.000000 0.034733
#
#
# Mechanical properties :
#
#
# Convention : Reuss Voigt Hill
#
# Bulk Modulus (GPa) = 66.25087 75.38089 70.81588
# Shear Modulus (GPa) = 10.58699 17.53435 14.06067
#
# Velocity S-wave (km/s) = 2.62770 3.38169 3.02825
# Velocity P-wave (km/s) = 7.23981 8.02564 7.64283
#
# Compressibility (1/GPa) = 0.01509414
#
# Stress axis : x y z
#
# Youngs Moduli (GPa) = 19.38874 58.20839 52.65308
#
# Poissons Ratio (x) = 0.98567 1.09458
# Poissons Ratio (y) = 0.32832 -0.07344
# Poissons Ratio (z) = 0.40306 -0.08119
#
# Static dielectric constant tensor:
#      x y z
#    x 1.515490 0.000000 0.000000 
#    y 0.000000 1.531010 0.000000 
#    z 0.000000 0.000000 1.478960 
# 
# From -- ./inp_files/13110.got.cif
#   From: 2010.05.17/outbox.cif.g08.bks.cpg/sg38_7_cif.got.tgz:13110.got - 2010.06.03 18:07:57.
