data_PCOD9358592
_publ_section_title
;
Structure prediction by ZEFSAII (Michael W. Deem and Ramdas Pophale) SiO2 
 PCOD9358592
Probable space group: A M M 2
;
_chemical_formula_sum "Si O2"
_cell_formula_units_Z 64
_cell_length_a 15.667041
_cell_length_b 24.793229
_cell_length_c 8.639854
_cell_angle_alpha 90.000000
_cell_angle_beta 90.000000
_cell_angle_gamma 90.000000
_cell_volume 3356.034953
_symmetry_space_group_name_H-M "A M M 2"
_symmetry_group_IT_number 38
_symmetry_cell_setting 'orthorhombic'
loop_
_space_group_symop_operation_xyz
x,y,z
-x,-y,z
-x,y,z
x,-y,z
x,1/2+y,1/2+z
-x,1/2-y,1/2+z
-x,1/2+y,1/2+z
x,1/2-y,1/2+z
loop_
_atom_site_type_symbol
_atom_site_label
_atom_site_fract_x
_atom_site_fract_y
_atom_site_fract_z
Si Si1 0.097359 0.714410 0.587810
Si Si2 0.401703 0.560893 0.864180
Si Si3 0.903666 0.118036 0.325152
Si Si4 0.595645 0.785992 0.081904
Si Si5 0.751031 0.842310 0.907113
Si Si6 0.756019 0.438660 0.631543
Si Si7 0.814167 0.172757 0.574870
Si Si8 0.639778 0.321392 0.932494
O O1 0.097614 0.676619 0.739966
O O2 0.164193 0.686999 0.471915
O O3 0.132679 0.774025 0.614789
O O4 0.000000 0.716088 0.529403
O O5 0.500000 0.563127 0.809872
O O6 0.390100 0.500000 0.933692
O O7 0.331737 0.565186 0.728733
O O8 0.386406 0.616274 0.959013
O O9 0.833258 0.082353 0.239074
O O10 0.875891 0.128399 0.501193
O O11 0.000000 0.097079 0.311357
O O12 0.500000 0.803515 0.039957
O O13 0.612623 0.803289 0.259372
O O14 0.668636 0.811252 0.973244
O O15 0.602350 0.721766 0.053061
O O16 0.760771 0.844024 0.724397
O O17 0.749782 0.900608 0.984428
O O18 0.770855 0.500000 0.588866
O O19 0.741993 0.183485 0.445194
#
# Coordination Sequence:
#
# PCOD9358592 Si02
#       8
#     8   8   8   8   8   8   8   8
#     4  10  21  38  61  86 119 161 204 250 304 369
#     4  10  20  38  66  91 115 155 210 264 308 360
#     4  10  21  38  60  88 120 162 208 252 307 369
#     4  12  24  39  59  86 128 171 207 253 309 375
#     4  11  23  38  60  90 127 161 205 253 315 379
#     4  10  21  41  65  89 116 156 211 265 313 367
#     4  12  22  35  57  89 128 162 197 250 308 375
#     4  12  23  39  60  92 128 165 207 256 311 376
#
# _framework density 19.070122000000001
#
# number of rings (size 3 to 8) (size 9 to 14) (size 15 to 20)
#    0.000    1.125    3.750    3.750    0.000    2.250 
#    0.000    2.500    0.000    0.000    0.000    1.750 
#    0.000    0.000    0.000    0.000    0.000    0.000 
#
# Total GULP energy -178661.636875 kJ/mol
# GULP energy per Si atom -5583.176152 kJ/mol
# Density = 1.902672 g / cm^3
# Si number density = 19.070122 Si / 1000 Ang^3
#
#
#
# Elastic Constant Matrix: (Units=GPa)
#
#
# Indices 1 2 3 4 5 6 
#
# 1 162.4578 41.8246 28.7532 0.0000 0.0000 0.0000
# 2 41.8246 142.8292 34.3651 0.0000 0.0000 0.0000
# 3 28.7532 34.3651 54.7820 0.0000 0.0000 0.0000
# 4 0.0000 0.0000 0.0000 9.2445 0.0000 0.0000
# 5 0.0000 0.0000 0.0000 0.0000 5.1369 0.0000
# 6 0.0000 0.0000 0.0000 0.0000 0.0000 19.7556
#
#
#
# Elastic Compliance Matrix: (Units=1/GPa)
#
#
# Indices 1 2 3 4 5 6 
#
# 1 0.007008 -0.001375 -0.002816 0.000000 0.000000 0.000000
# 2 -0.001375 0.008516 -0.004620 0.000000 0.000000 0.000000
# 3 -0.002816 -0.004620 0.022631 0.000000 0.000000 0.000000
# 4 0.000000 0.000000 0.000000 0.108172 0.000000 0.000000
# 5 0.000000 0.000000 0.000000 0.000000 0.194671 0.000000
# 6 0.000000 0.000000 0.000000 0.000000 0.000000 0.050619
#
#
# Mechanical properties :
#
#
# Convention : Reuss Voigt Hill
#
# Bulk Modulus (GPa) = 48.70403 63.32832 56.01617
# Shear Modulus (GPa) = 12.01690 23.83581 17.92636
#
# Velocity S-wave (km/s) = 2.51299 3.53923 3.06931
# Velocity P-wave (km/s) = 5.83224 7.06978 6.48062
#
# Compressibility (1/GPa) = 0.02053218
#
# Stress axis : x y z
#
# Youngs Moduli (GPa) = 142.70023 117.43211 44.18811
#
# Poissons Ratio (x) = 0.16142 0.12443
# Poissons Ratio (y) = 0.19615 0.20417
# Poissons Ratio (z) = 0.40182 0.54258
#
# Static dielectric constant tensor:
#      x y z
#    x 1.683020 0.000000 0.000000 
#    y 0.000000 1.678820 0.000000 
#    z 0.000000 0.000000 1.662090 
# 
# From -- ./inp_files/5908.got.cif
#   From: 2010.05.17/outbox.cif.g08.bks.cpg/sg38_3_cif.got.tgz:5908.got - 2010.06.03 18:07:57.
