data_PCOD9358544
_publ_section_title
;
Structure prediction by ZEFSAII (Michael W. Deem and Ramdas Pophale) SiO2 
 PCOD9358544
Probable space group: A M M 2
;
_chemical_formula_sum "Si O2"
_cell_formula_units_Z 40
_cell_length_a 14.262687
_cell_length_b 13.601636
_cell_length_c 8.695260
_cell_angle_alpha 90.000000
_cell_angle_beta 90.000000
_cell_angle_gamma 90.000000
_cell_volume 1686.844589
_symmetry_space_group_name_H-M "A M M 2"
_symmetry_group_IT_number 38
_symmetry_cell_setting 'orthorhombic'
loop_
_space_group_symop_operation_xyz
x,y,z
-x,-y,z
-x,y,z
x,-y,z
x,1/2+y,1/2+z
-x,1/2-y,1/2+z
-x,1/2+y,1/2+z
x,1/2-y,1/2+z
loop_
_atom_site_type_symbol
_atom_site_label
_atom_site_fract_x
_atom_site_fract_y
_atom_site_fract_z
Si Si1 0.631082 0.886362 0.111750
Si Si2 0.000000 0.381201 0.985176
Si Si3 0.791605 0.118491 0.619629
Si Si4 0.397976 0.693407 0.952727
Si Si5 0.000000 0.120274 0.136921
Si Si6 0.821735 0.113611 0.957903
O O1 0.606555 0.841433 0.276604
O O2 0.601296 0.000000 0.097905
O O3 0.598402 0.810581 0.981130
O O4 0.742242 0.886784 0.086077
O O5 0.000000 0.343011 0.810328
O O6 0.000000 0.500000 0.979653
O O7 0.897537 0.360196 0.060034
O O8 0.699541 0.159650 0.532458
O O9 0.789589 0.156670 0.795862
O O10 0.780066 0.000000 0.612253
O O11 0.500000 0.655508 0.014261
O O12 0.087577 0.153818 0.038221
O O13 0.000000 0.000000 0.144645
O O14 0.843478 0.000000 0.918824
#
# Coordination Sequence:
#
# PCOD9358544 Si02
#       6
#     8   4   8   8   4   8
#     4  11  25  47  72 101 142 189 239 299 364 429
#     4   9  17  31  58  97 141 189 238 295 361 429
#     4  10  20  37  64 101 144 188 241 301 361 430
#     4  12  26  44  70 102 137 185 243 298 361 435
#     4   9  15  27  52  89 132 179 232 283 344 421
#     4   9  18  34  59  91 132 182 230 284 351 419
#
# _framework density 23.712913
#
# number of rings (size 3 to 8) (size 9 to 14) (size 15 to 20)
#    0.000    1.800    0.000    4.200    0.000    8.400 
#    0.000    3.000    0.000   12.000    0.000    0.000 
#    0.000    0.000    0.000    0.000    0.000    0.000 
#
# Total GULP energy -111667.091202 kJ/mol
# GULP energy per Si atom -5583.354560 kJ/mol
# Density = 2.365894 g / cm^3
# Si number density = 23.712913 Si / 1000 Ang^3
#
#
#
# Elastic Constant Matrix: (Units=GPa)
#
#
# Indices 1 2 3 4 5 6 
#
# 1 232.6393 37.4142 80.4675 0.0000 0.0000 0.0000
# 2 37.4142 157.9917 50.9791 0.0000 0.0000 0.0000
# 3 80.4675 50.9791 136.3006 0.0000 0.0000 0.0000
# 4 0.0000 0.0000 0.0000 32.8353 0.0000 0.0000
# 5 0.0000 0.0000 0.0000 0.0000 5.1518 0.0000
# 6 0.0000 0.0000 0.0000 0.0000 0.0000 -8.1063
#
#
#
# Elastic Compliance Matrix: (Units=1/GPa)
#
#
# Indices 1 2 3 4 5 6 
#
# 1 0.005413 -0.000285 -0.003089 0.000000 0.000000 0.000000
# 2 -0.000285 0.007213 -0.002530 0.000000 0.000000 0.000000
# 3 -0.003089 -0.002530 0.010106 0.000000 0.000000 0.000000
# 4 0.000000 0.000000 0.000000 0.030455 0.000000 0.000000
# 5 0.000000 0.000000 0.000000 0.000000 0.194107 0.000000
# 6 0.000000 0.000000 0.000000 0.000000 0.000000 -0.123361
#
#
# Mechanical properties :
#
#
# Convention : Reuss Voigt Hill
#
# Bulk Modulus (GPa) = 91.53108 96.07258 93.80183
# Shear Modulus (GPa) = 35.87256 29.84754 32.86005
#
# Velocity S-wave (km/s) = 3.89367 3.55167 3.72660
# Velocity P-wave (km/s) = 7.67449 7.57773 7.62626
#
# Compressibility (1/GPa) = 0.01092525
#
# Stress axis : x y z
#
# Youngs Moduli (GPa) = 184.74840 138.63523 98.94716
#
# Poissons Ratio (x) = 0.03953 0.30564
# Poissons Ratio (y) = 0.05267 0.25029
# Poissons Ratio (z) = 0.57067 0.35068
#
# Static dielectric constant tensor:
#      x y z
#    x 1.895840 0.000000 0.000000 
#    y 0.000000 1.950510 0.000000 
#    z 0.000000 0.000000 1.863930 
# 
# From -- ./inp_files/5280.got.cif
#   From: 2010.05.17/outbox.cif.g08.bks.cpg/sg38_3_cif.got.tgz:5280.got - 2010.06.03 18:07:57.
