data_PCOD9358313
_publ_section_title
;
Structure prediction by ZEFSAII (Michael W. Deem and Ramdas Pophale) SiO2 
 PCOD9358313
Probable space group: A M M 2
;
_chemical_formula_sum "Si O2"
_cell_formula_units_Z 56
_cell_length_a 14.779905
_cell_length_b 13.712065
_cell_length_c 13.958868
_cell_angle_alpha 90.000000
_cell_angle_beta 90.000000
_cell_angle_gamma 90.000000
_cell_volume 2828.946317
_symmetry_space_group_name_H-M "A M M 2"
_symmetry_group_IT_number 38
_symmetry_cell_setting 'orthorhombic'
loop_
_space_group_symop_operation_xyz
x,y,z
-x,-y,z
-x,y,z
x,-y,z
x,1/2+y,1/2+z
-x,1/2-y,1/2+z
-x,1/2+y,1/2+z
x,1/2-y,1/2+z
loop_
_atom_site_type_symbol
_atom_site_label
_atom_site_fract_x
_atom_site_fract_y
_atom_site_fract_z
Si Si1 0.786581 0.709226 0.975570
Si Si2 0.398656 0.688997 0.638887
Si Si3 0.391079 0.390698 0.233120
Si Si4 0.106984 0.714989 0.778293
Si Si5 0.601867 0.227350 0.922681
Si Si6 0.784596 0.890484 0.121903
Si Si7 0.105585 0.388749 0.137787
O O1 0.845898 0.711874 0.880395
O O2 0.683126 0.697238 0.939905
O O3 0.792007 0.810720 0.036670
O O4 0.828576 0.631959 0.048995
O O5 0.500000 0.672892 0.678538
O O6 0.370590 0.801634 0.660962
O O7 0.404743 0.674394 0.524985
O O8 0.314510 0.624616 0.670205
O O9 0.500000 0.399287 0.228655
O O10 0.353764 0.500000 0.217156
O O11 0.370840 0.346400 0.338030
O O12 0.143669 0.634640 0.704111
O O13 0.129155 0.816327 0.723998
O O14 0.000000 0.707153 0.789441
O O15 0.500000 0.265331 0.902353
O O16 0.794048 0.000000 0.086158
O O17 0.111508 0.500000 0.168214
O O18 0.000000 0.368368 0.110440
#
# Coordination Sequence:
#
# PCOD9358313 Si02
#       7
#     8   8   8   8   8   8   8
#     4  10  20  36  57  82 110 145 186 227 271 323
#     4   9  18  34  55  81 116 153 187 226 273 324
#     4   9  17  31  54  81 106 139 187 235 274 318
#     4  10  21  38  59  83 112 143 178 227 286 339
#     4   9  18  32  50  76 112 148 181 221 268 316
#     4  10  22  38  55  82 116 147 186 231 274 324
#     4   9  19  37  60  85 112 141 177 225 280 338
#
# _framework density 19.795356000000002
#
# number of rings (size 3 to 8) (size 9 to 14) (size 15 to 20)
#    0.000    2.571    0.000    1.286    0.000    4.571 
#    0.000   13.571    0.000    2.143    0.000    4.000 
#    0.000    0.000    0.000    0.000    0.000    0.000 
#
# Total GULP energy -156014.955563 kJ/mol
# GULP energy per Si atom -5571.962699 kJ/mol
# Density = 1.975030 g / cm^3
# Si number density = 19.795356 Si / 1000 Ang^3
#
#
#
# Elastic Constant Matrix: (Units=GPa)
#
#
# Indices 1 2 3 4 5 6 
#
# 1 69.6474 -26.5794 15.3641 0.0000 0.0000 0.0000
# 2 -26.5794 38.8453 -1.1466 0.0000 0.0000 0.0000
# 3 15.3641 -1.1466 70.5991 0.0000 0.0000 0.0000
# 4 0.0000 0.0000 0.0000 6.2216 0.0000 0.0000
# 5 0.0000 0.0000 0.0000 0.0000 22.0410 0.0000
# 6 0.0000 0.0000 0.0000 0.0000 0.0000 19.0660
#
#
#
# Elastic Compliance Matrix: (Units=1/GPa)
#
#
# Indices 1 2 3 4 5 6 
#
# 1 0.020640 0.013997 -0.004265 0.000000 0.000000 0.000000
# 2 0.013997 0.035247 -0.002474 0.000000 0.000000 0.000000
# 3 -0.004265 -0.002474 0.015052 0.000000 0.000000 0.000000
# 4 0.000000 0.000000 0.000000 0.160731 0.000000 0.000000
# 5 0.000000 0.000000 0.000000 0.000000 0.045370 0.000000
# 6 0.000000 0.000000 0.000000 0.000000 0.000000 0.052449
#
#
# Mechanical properties :
#
#
# Convention : Reuss Voigt Hill
#
# Bulk Modulus (GPa) = 11.70164 17.15201 14.42682
# Shear Modulus (GPa) = 14.55777 22.22929 18.39353
#
# Velocity S-wave (km/s) = 2.71479 3.35469 3.05156
# Velocity P-wave (km/s) = 3.96875 4.86710 4.44070
#
# Compressibility (1/GPa) = 0.08545811
#
# Stress axis : x y z
#
# Youngs Moduli (GPa) = 48.44846 28.37082 66.43461
#
# Poissons Ratio (x) = -0.39711 0.28331
# Poissons Ratio (y) = -0.67814 0.16434
# Poissons Ratio (z) = 0.20661 0.07018
#
# Static dielectric constant tensor:
#      x y z
#    x 1.767610 0.000000 0.000000 
#    y 0.000000 1.683610 0.000000 
#    z 0.000000 0.000000 1.682180 
# 
# From -- ./inp_files/14560.got.cif
#   From: 2010.05.17/outbox.cif.g08.bks.cpg/sg38_8_cif.got.tgz:14560.got - 2010.06.03 18:07:57.
