data_PCOD9358061
_publ_section_title
;
Structure prediction by ZEFSAII (Michael W. Deem and Ramdas Pophale) SiO2 
 PCOD9358061
Probable space group: A M M 2
;
_chemical_formula_sum "Si O2"
_cell_formula_units_Z 64
_cell_length_a 14.250880
_cell_length_b 9.021388
_cell_length_c 26.670270
_cell_angle_alpha 90.000000
_cell_angle_beta 90.000000
_cell_angle_gamma 90.000000
_cell_volume 3428.802396
_symmetry_space_group_name_H-M "A M M 2"
_symmetry_group_IT_number 38
_symmetry_cell_setting 'orthorhombic'
loop_
_space_group_symop_operation_xyz
x,y,z
-x,-y,z
-x,y,z
x,-y,z
x,1/2+y,1/2+z
-x,1/2-y,1/2+z
-x,1/2+y,1/2+z
x,1/2-y,1/2+z
loop_
_atom_site_type_symbol
_atom_site_label
_atom_site_fract_x
_atom_site_fract_y
_atom_site_fract_z
Si Si1 0.886130 0.169162 0.165540
Si Si2 0.612790 0.326455 0.610791
Si Si3 0.292840 0.321009 0.505859
Si Si4 0.109505 0.323791 0.268644
Si Si5 0.714488 0.322659 0.808134
Si Si6 0.613268 0.673408 0.214119
Si Si7 0.893564 0.180383 0.054061
Si Si8 0.391032 0.821340 0.410305
O O1 0.862877 0.270675 0.212578
O O2 0.859641 0.223220 0.110075
O O3 0.000000 0.162574 0.163496
O O4 0.852487 0.000000 0.173692
O O5 0.500000 0.314333 0.607216
O O6 0.636614 0.500000 0.617790
O O7 0.655822 0.278487 0.557842
O O8 0.643262 0.238388 0.660228
O O9 0.298605 0.500000 0.501710
O O10 0.184052 0.277500 0.513650
O O11 0.340788 0.248319 0.458249
O O12 0.118230 0.500000 0.272470
O O13 0.181054 0.243397 0.305550
O O14 0.000000 0.283766 0.276379
O O15 0.717711 0.500000 0.805237
O O16 0.659228 0.259781 0.760133
O O17 0.661109 0.278844 0.858940
O O18 0.500000 0.688955 0.216979
O O19 0.636691 0.500000 0.217479
O O20 0.000000 0.232364 0.045309
O O21 0.896323 0.000000 0.055646
O O22 0.500000 0.776089 0.408551
O O23 0.387845 0.000000 0.414009
#
# Coordination Sequence:
#
# PCOD9358061 Si02
#       8
#     8   8   8   8   8   8   8   8
#     4   8  14  27  49  76 108 150 194 229 266 319
#     4   9  18  32  50  77 113 149 186 229 280 341
#     4  10  20  34  57  86 113 146 192 236 279 333
#     4  10  21  36  54  82 120 153 186 233 286 338
#     4  11  23  39  61  83 108 147 196 241 286 345
#     4  10  21  36  55  83 117 149 183 230 292 354
#     4   8  15  29  50  79 115 151 189 230 269 318
#     4  10  23  43  63  83 108 141 185 239 297 349
#
# _framework density 18.665407999999999
#
# number of rings (size 3 to 8) (size 9 to 14) (size 15 to 20)
#    0.000    2.500    0.000    2.625    1.750    4.250 
#    0.000    2.500    0.000    3.375    0.000    0.000 
#    0.000    0.000    0.000    0.000    0.000    0.000 
#
# Total GULP energy -178645.040181 kJ/mol
# GULP energy per Si atom -5582.657506 kJ/mol
# Density = 1.862292 g / cm^3
# Si number density = 18.665408 Si / 1000 Ang^3
#
#
#
# Elastic Constant Matrix: (Units=GPa)
#
#
# Indices 1 2 3 4 5 6 
#
# 1 121.3986 44.7354 92.6993 0.0000 0.0000 0.0000
# 2 44.7354 45.2260 52.4892 0.0000 0.0000 0.0000
# 3 92.6993 52.4892 155.6464 0.0000 0.0000 0.0000
# 4 0.0000 0.0000 0.0000 31.6777 0.0000 0.0000
# 5 0.0000 0.0000 0.0000 0.0000 36.7683 0.0000
# 6 0.0000 0.0000 0.0000 0.0000 0.0000 23.0555
#
#
#
# Elastic Compliance Matrix: (Units=1/GPa)
#
#
# Indices 1 2 3 4 5 6 
#
# 1 0.016780 -0.008214 -0.007224 0.000000 0.000000 0.000000
# 2 -0.008214 0.040352 -0.008716 0.000000 0.000000 0.000000
# 3 -0.007224 -0.008716 0.013666 0.000000 0.000000 0.000000
# 4 0.000000 0.000000 0.000000 0.031568 0.000000 0.000000
# 5 0.000000 0.000000 0.000000 0.000000 0.027197 0.000000
# 6 0.000000 0.000000 0.000000 0.000000 0.000000 0.043374
#
#
# Mechanical properties :
#
#
# Convention : Reuss Voigt Hill
#
# Bulk Modulus (GPa) = 44.46268 78.01320 61.23794
# Shear Modulus (GPa) = 21.85865 27.12343 24.49104
#
# Velocity S-wave (km/s) = 3.42581 3.81614 3.62623
# Velocity P-wave (km/s) = 6.28656 7.82966 7.10016
#
# Compressibility (1/GPa) = 0.02249077
#
# Stress axis : x y z
#
# Youngs Moduli (GPa) = 59.59326 24.78203 73.17213
#
# Poissons Ratio (x) = 0.20357 0.52858
# Poissons Ratio (y) = 0.48952 0.63775
# Poissons Ratio (z) = 0.43049 0.21599
#
# Static dielectric constant tensor:
#      x y z
#    x 1.692300 0.000000 0.000000 
#    y 0.000000 1.626110 0.000000 
#    z 0.000000 0.000000 1.612930 
# 
# From -- ./inp_files/22991.got.cif
#   From: 2010.05.17/outbox.cif.g08.bks.cpg/sg38_12_cif.got.tgz:22991.got - 2010.06.03 18:07:57.
