data_PCOD9358498
_publ_section_title
;
Structure prediction by ZEFSAII (Michael W. Deem and Ramdas Pophale) SiO2 
 PCOD9358498
Probable space group: A M M 2
;
_chemical_formula_sum "Si O2"
_cell_formula_units_Z 64
_cell_length_a 8.785548
_cell_length_b 24.348330
_cell_length_c 15.778591
_cell_angle_alpha 90.000000
_cell_angle_beta 90.000000
_cell_angle_gamma 90.000000
_cell_volume 3375.252394
_symmetry_space_group_name_H-M "A M M 2"
_symmetry_group_IT_number 38
_symmetry_cell_setting 'orthorhombic'
loop_
_space_group_symop_operation_xyz
x,y,z
-x,-y,z
-x,y,z
x,-y,z
x,1/2+y,1/2+z
-x,1/2-y,1/2+z
-x,1/2+y,1/2+z
x,1/2-y,1/2+z
loop_
_atom_site_type_symbol
_atom_site_label
_atom_site_fract_x
_atom_site_fract_y
_atom_site_fract_z
Si Si1 0.818118 0.633163 0.963400
Si Si2 0.185450 0.936919 0.300029
Si Si3 0.680746 0.245703 0.401384
Si Si4 0.317683 0.868667 0.643822
Si Si5 0.319254 0.245702 0.198674
Si Si6 0.181882 0.633163 0.636658
Si Si7 0.182313 0.935816 0.800029
Si Si8 0.682317 0.131333 0.956235
O O1 0.766904 0.595723 0.884205
O O2 0.769995 0.695443 0.942317
O O3 0.000000 0.629435 0.970535
O O4 0.742719 0.615868 0.051441
O O5 0.233096 0.904277 0.215853
O O6 0.000000 0.936815 0.300029
O O7 0.236086 0.000000 0.300029
O O8 0.500000 0.237818 0.417171
O O9 0.704512 0.246016 0.300029
O O10 0.724635 0.305051 0.437755
O O11 0.500000 0.872052 0.647287
O O12 0.275366 0.805051 0.662303
O O13 0.248006 0.905921 0.717328
O O14 0.500000 0.237817 0.182887
O O15 0.230005 0.195443 0.157741
O O16 0.257282 0.615868 0.548617
O O17 0.000000 0.629435 0.629522
O O18 0.248006 0.905921 0.882730
O O19 0.000000 0.931169 0.800029
O O20 0.223521 0.000000 0.800029
O O21 0.500000 0.127948 0.952770
#
# Coordination Sequence:
#
# PCOD9358498 Si02
#       8
#     8   8   8   8   8   8   8   8
#     4  11  22  37  60  92 121 155 202 251 303 359
#     4   9  20  39  59  80 114 157 198 243 296 349
#     4  10  20  37  60  86 120 160 197 241 301 365
#     4  11  23  41  63  90 122 161 200 241 301 366
#     4  10  20  37  60  86 120 160 197 241 301 365
#     4  11  22  37  60  92 121 155 202 251 303 359
#     4  11  25  44  65  90 120 157 202 253 304 355
#     4  11  23  41  63  90 122 161 200 241 301 366
#
# _framework density 18.961545000000001
#
# number of rings (size 3 to 8) (size 9 to 14) (size 15 to 20)
#    0.000    1.500    2.500    2.625    0.000    7.000 
#    0.000    2.500    0.000    5.250    0.000    0.000 
#    0.000    0.000    0.000    0.000    0.000    0.000 
#
# Total GULP energy -178914.366397 kJ/mol
# GULP energy per Si atom -5591.073950 kJ/mol
# Density = 1.891839 g / cm^3
# Si number density = 18.961545 Si / 1000 Ang^3
#
#
#
# Elastic Constant Matrix: (Units=GPa)
#
#
# Indices 1 2 3 4 5 6 
#
# 1 40.4120 51.7413 49.7387 0.0000 0.0000 0.0000
# 2 51.7413 153.0796 97.8177 0.0000 0.0000 0.0000
# 3 49.7387 97.8177 178.8045 0.0000 0.0000 0.0000
# 4 0.0000 0.0000 0.0000 -4.2375 0.0000 0.0000
# 5 0.0000 0.0000 0.0000 0.0000 17.7860 0.0000
# 6 0.0000 0.0000 0.0000 0.0000 0.0000 43.5180
#
#
#
# Elastic Compliance Matrix: (Units=1/GPa)
#
#
# Indices 1 2 3 4 5 6 
#
# 1 0.048704 -0.012000 -0.006984 0.000000 0.000000 0.000000
# 2 -0.012000 0.013000 -0.003774 0.000000 0.000000 0.000000
# 3 -0.006984 -0.003774 0.009600 0.000000 0.000000 0.000000
# 4 0.000000 0.000000 0.000000 -0.235990 0.000000 0.000000
# 5 0.000000 0.000000 0.000000 0.000000 0.056224 0.000000
# 6 0.000000 0.000000 0.000000 0.000000 0.000000 0.022979
#
#
# Mechanical properties :
#
#
# Convention : Reuss Voigt Hill
#
# Bulk Modulus (GPa) = 38.77502 85.65460 62.21481
# Shear Modulus (GPa) = -159.37497 22.94653 -68.21422
#
# Velocity S-wave (km/s) = -9.17792 3.48251 -6.00443
# Velocity P-wave (km/s) = 9.58220 7.83845 3.89725
#
# Compressibility (1/GPa) = 0.02578980
#
# Stress axis : x y z
#
# Youngs Moduli (GPa) = 20.53218 76.92367 104.16772
#
# Poissons Ratio (x) = 0.92305 0.72747
# Poissons Ratio (y) = 0.24638 0.39311
# Poissons Ratio (z) = 0.14339 0.29030
#
# Static dielectric constant tensor:
#      x y z
#    x 1.636320 0.000000 0.000000 
#    y 0.000000 1.633080 0.000000 
#    z 0.000000 0.000000 1.643430 
# 
# From -- ./inp_files/12832.got.cif
#   From: 2010.05.17/outbox.cif.g08.bks.cpg/sg38_7_cif.got.tgz:12832.got - 2010.06.03 18:07:57.
