data_PCOD9358119
_publ_section_title
;
Structure prediction by ZEFSAII (Michael W. Deem and Ramdas Pophale) SiO2 
 PCOD9358119
Probable space group: A M M 2
;
_chemical_formula_sum "Si O2"
_cell_formula_units_Z 48
_cell_length_a 15.186860
_cell_length_b 10.349431
_cell_length_c 15.113094
_cell_angle_alpha 90.000000
_cell_angle_beta 90.000000
_cell_angle_gamma 90.000000
_cell_volume 2375.405985
_symmetry_space_group_name_H-M "A M M 2"
_symmetry_group_IT_number 38
_symmetry_cell_setting 'orthorhombic'
loop_
_space_group_symop_operation_xyz
x,y,z
-x,-y,z
-x,y,z
x,-y,z
x,1/2+y,1/2+z
-x,1/2-y,1/2+z
-x,1/2+y,1/2+z
x,1/2-y,1/2+z
loop_
_atom_site_type_symbol
_atom_site_label
_atom_site_fract_x
_atom_site_fract_y
_atom_site_fract_z
Si Si1 0.704935 0.649201 0.626650
Si Si2 0.896862 0.360560 0.285843
Si Si3 0.146216 0.643705 0.920754
Si Si4 0.403626 0.655996 0.793134
Si Si5 0.097469 0.267604 0.602393
Si Si6 0.347588 0.852886 0.482661
O O1 0.677427 0.500000 0.612742
O O2 0.674066 0.689716 0.725314
O O3 0.810741 0.655089 0.611944
O O4 0.657015 0.749432 0.561066
O O5 0.857194 0.500000 0.309130
O O6 0.859293 0.240745 0.339223
O O7 0.893238 0.336836 0.181019
O O8 0.000000 0.363588 0.309755
O O9 0.114010 0.500000 0.898279
O O10 0.246836 0.634426 0.950940
O O11 0.098296 0.702922 0.006106
O O12 0.500000 0.693269 0.757567
O O13 0.400588 0.500000 0.799716
O O14 0.394948 0.699075 0.894550
O O15 0.000000 0.329949 0.615149
O O16 0.377838 0.000000 0.506051
#
# Coordination Sequence:
#
# PCOD9358119 Si02
#       6
#     8   8   8   8   8   8
#     4  10  21  37  57  84 115 145 184 234 280 322
#     4  10  21  35  51  74 104 138 180 231 280 322
#     4  10  20  35  55  77 104 141 185 230 274 326
#     4   9  18  35  60  86 113 147 183 222 276 340
#     4  10  21  36  54  77 110 153 193 226 269 327
#     4   9  19  36  56  79 108 144 183 221 270 334
#
# _framework density 20.207070999999999
#
# number of rings (size 3 to 8) (size 9 to 14) (size 15 to 20)
#    0.000    2.333    0.000    2.000    0.000    8.333 
#    0.000    2.500    0.000    1.000    0.000    0.000 
#    0.000    0.000    0.000    0.000    0.000    0.000 
#
# Total GULP energy -133716.407557 kJ/mol
# GULP energy per Si atom -5571.516982 kJ/mol
# Density = 2.016108 g / cm^3
# Si number density = 20.207071 Si / 1000 Ang^3
#
#
#
# Elastic Constant Matrix: (Units=GPa)
#
#
# Indices 1 2 3 4 5 6 
#
# 1 66.7092 8.8760 31.2850 0.0000 0.0000 0.0000
# 2 8.8760 93.0796 50.8700 0.0000 0.0000 0.0000
# 3 31.2850 50.8700 106.5628 0.0000 0.0000 0.0000
# 4 0.0000 0.0000 0.0000 18.9287 0.0000 0.0000
# 5 0.0000 0.0000 0.0000 0.0000 27.7067 0.0000
# 6 0.0000 0.0000 0.0000 0.0000 0.0000 10.9133
#
#
#
# Elastic Compliance Matrix: (Units=1/GPa)
#
#
# Indices 1 2 3 4 5 6 
#
# 1 0.017547 0.001545 -0.005889 0.000000 0.000000 0.000000
# 2 0.001545 0.014672 -0.007458 0.000000 0.000000 0.000000
# 3 -0.005889 -0.007458 0.014673 0.000000 0.000000 0.000000
# 4 0.000000 0.000000 0.000000 0.052830 0.000000 0.000000
# 5 0.000000 0.000000 0.000000 0.000000 0.036092 0.000000
# 6 0.000000 0.000000 0.000000 0.000000 0.000000 0.091631
#
#
# Mechanical properties :
#
#
# Convention : Reuss Voigt Hill
#
# Bulk Modulus (GPa) = 42.93900 49.82372 46.38136
# Shear Modulus (GPa) = 19.31913 23.19778 21.25846
#
# Velocity S-wave (km/s) = 3.09537 3.39190 3.24702
# Velocity P-wave (km/s) = 5.83701 6.32851 6.08772
#
# Compressibility (1/GPa) = 0.02328885
#
# Stress axis : x y z
#
# Youngs Moduli (GPa) = 56.99098 68.15763 68.15195
#
# Poissons Ratio (x) = -0.10532 0.40135
# Poissons Ratio (y) = -0.08807 0.50825
# Poissons Ratio (z) = 0.33562 0.50829
#
# Static dielectric constant tensor:
#      x y z
#    x 1.768440 0.000000 0.000000 
#    y 0.000000 1.726250 0.000000 
#    z 0.000000 0.000000 1.710310 
# 
# From -- ./inp_files/14476.got.cif
#   From: 2010.05.17/outbox.cif.g08.bks.cpg/sg38_8_cif.got.tgz:14476.got - 2010.06.03 18:07:57.
