data_PCOD9358174
_publ_section_title
;
Structure prediction by ZEFSAII (Michael W. Deem and Ramdas Pophale) SiO2 
 PCOD9358174
Probable space group: A M M 2
;
_chemical_formula_sum "Si O2"
_cell_formula_units_Z 64
_cell_length_a 7.836597
_cell_length_b 19.701161
_cell_length_c 19.163316
_cell_angle_alpha 90.000000
_cell_angle_beta 90.000000
_cell_angle_gamma 90.000000
_cell_volume 2958.625491
_symmetry_space_group_name_H-M "A M M 2"
_symmetry_group_IT_number 38
_symmetry_cell_setting 'orthorhombic'
loop_
_space_group_symop_operation_xyz
x,y,z
-x,-y,z
-x,y,z
x,-y,z
x,1/2+y,1/2+z
-x,1/2-y,1/2+z
-x,1/2+y,1/2+z
x,1/2-y,1/2+z
loop_
_atom_site_type_symbol
_atom_site_label
_atom_site_fract_x
_atom_site_fract_y
_atom_site_fract_z
Si Si1 0.696231 0.709672 0.885120
Si Si2 0.292227 0.324185 0.729730
Si Si3 0.290621 0.920708 0.105501
Si Si4 0.696949 0.339475 0.468511
Si Si5 0.800559 0.076957 0.839181
Si Si6 0.198520 0.572914 0.114663
Si Si7 0.199350 0.573523 0.948406
Si Si8 0.307284 0.324062 0.216745
O O1 0.500000 0.730341 0.872598
O O2 0.769311 0.687727 0.809464
O O3 0.773469 0.771236 0.931502
O O4 0.702101 0.639446 0.925800
O O5 0.500000 0.331531 0.732570
O O6 0.235641 0.384271 0.678109
O O7 0.243475 0.250775 0.698987
O O8 0.500000 0.920875 0.104102
O O9 0.237898 0.000000 0.100580
O O10 0.233108 0.874527 0.039180
O O11 0.500000 0.322341 0.485439
O O12 0.704871 0.395107 0.407010
O O13 0.780258 0.130731 0.776357
O O14 0.000000 0.074991 0.857124
O O15 0.746917 0.000000 0.820294
O O16 0.260177 0.500000 0.141041
O O17 0.301503 0.632921 0.147119
O O18 0.000000 0.580112 0.135622
O O19 0.203830 0.571914 0.031889
O O20 0.262578 0.500000 0.922414
O O21 0.000000 0.579995 0.927917
O O22 0.500000 0.316219 0.241914
#
# Coordination Sequence:
#
# PCOD9358174 Si02
#       8
#     8   8   8   8   8   8   8   8
#     4  10  20  35  56  84 115 145 186 242 292 338
#     4   9  19  35  52  78 114 146 180 227 285 337
#     4   9  18  33  56  83 111 148 190 231 282 344
#     4  10  20  36  58  86 115 145 187 239 290 341
#     4  11  23  37  55  80 113 152 189 230 283 346
#     4   9  19  36  54  75 109 147 183 226 274 332
#     4   9  20  38  57  79 111 150 189 230 281 343
#     4  11  21  34  54  80 112 149 186 233 284 336
#
# _framework density 21.631668000000001
#
# number of rings (size 3 to 8) (size 9 to 14) (size 15 to 20)
#    0.000    2.250    1.250    2.250    1.750    5.000 
#    0.000    2.500    0.000    0.750    0.000    1.750 
#    0.000    0.000    0.000    0.000    0.000    0.000 
#
# Total GULP energy -178332.779749 kJ/mol
# GULP energy per Si atom -5572.899367 kJ/mol
# Density = 2.158243 g / cm^3
# Si number density = 21.631668 Si / 1000 Ang^3
#
#
#
# Elastic Constant Matrix: (Units=GPa)
#
#
# Indices 1 2 3 4 5 6 
#
# 1 22.9220 14.6155 7.7204 0.0000 0.0000 0.0000
# 2 14.6155 163.8100 74.6685 0.0000 0.0000 0.0000
# 3 7.7204 74.6685 94.1391 0.0000 0.0000 0.0000
# 4 0.0000 0.0000 0.0000 45.2677 0.0000 0.0000
# 5 0.0000 0.0000 0.0000 0.0000 12.0569 0.0000
# 6 0.0000 0.0000 0.0000 0.0000 0.0000 18.9471
#
#
#
# Elastic Compliance Matrix: (Units=1/GPa)
#
#
# Indices 1 2 3 4 5 6 
#
# 1 0.046298 -0.003759 -0.000815 0.000000 0.000000 0.000000
# 2 -0.003759 0.009867 -0.007518 0.000000 0.000000 0.000000
# 3 -0.000815 -0.007518 0.016652 0.000000 0.000000 0.000000
# 4 0.000000 0.000000 0.000000 0.022091 0.000000 0.000000
# 5 0.000000 0.000000 0.000000 0.000000 0.082940 0.000000
# 6 0.000000 0.000000 0.000000 0.000000 0.000000 0.052779
#
#
# Mechanical properties :
#
#
# Convention : Reuss Voigt Hill
#
# Bulk Modulus (GPa) = 20.56237 52.76443 36.66340
# Shear Modulus (GPa) = 18.44872 27.51212 22.98042
#
# Velocity S-wave (km/s) = 2.92354 3.57016 3.26291
# Velocity P-wave (km/s) = 4.57410 6.43738 5.58401
#
# Compressibility (1/GPa) = 0.04863253
#
# Stress axis : x y z
#
# Youngs Moduli (GPa) = 21.59931 101.34968 60.05161
#
# Poissons Ratio (x) = 0.38099 0.04896
# Poissons Ratio (y) = 0.08120 0.45146
# Poissons Ratio (z) = 0.01761 0.76193
#
# Static dielectric constant tensor:
#      x y z
#    x 1.808950 0.000000 0.000000 
#    y 0.000000 1.767210 0.000000 
#    z 0.000000 0.000000 1.799510 
# 
# From -- ./inp_files/20104.got.cif
#   From: 2010.05.17/outbox.cif.g08.bks.cpg/sg38_11_cif.got.tgz:20104.got - 2010.06.03 18:07:57.
