data_PCOD9358334
_publ_section_title
;
Structure prediction by ZEFSAII (Michael W. Deem and Ramdas Pophale) SiO2 
 PCOD9358334
Probable space group: A M M 2
;
_chemical_formula_sum "Si O2"
_cell_formula_units_Z 58
_cell_length_a 25.291722
_cell_length_b 7.699038
_cell_length_c 14.246404
_cell_angle_alpha 90.000000
_cell_angle_beta 90.000000
_cell_angle_gamma 90.000000
_cell_volume 2774.087265
_symmetry_space_group_name_H-M "A M M 2"
_symmetry_group_IT_number 38
_symmetry_cell_setting 'orthorhombic'
loop_
_space_group_symop_operation_xyz
x,y,z
-x,-y,z
-x,y,z
x,-y,z
x,1/2+y,1/2+z
-x,1/2-y,1/2+z
-x,1/2+y,1/2+z
x,1/2-y,1/2+z
loop_
_atom_site_type_symbol
_atom_site_label
_atom_site_fract_x
_atom_site_fract_y
_atom_site_fract_z
Si Si1 0.271151 0.712521 0.794580
Si Si2 0.000000 0.000000 0.152681
Si Si3 0.154597 0.789135 0.240180
Si Si4 0.059744 0.209853 0.373930
Si Si5 0.635188 0.799309 0.161260
Si Si6 0.559476 0.201255 0.813270
Si Si7 0.079964 0.298567 0.093428
Si Si8 0.348321 0.799878 0.451603
O O1 0.270215 0.500000 0.796767
O O2 0.211718 0.770715 0.775277
O O3 0.311320 0.765762 0.711757
O O4 0.299041 0.771209 0.890992
O O5 0.045214 0.845984 0.145745
O O6 0.107312 0.726922 0.308947
O O7 0.138099 0.724415 0.137043
O O8 0.155259 0.000000 0.240810
O O9 0.073297 0.240744 0.483024
O O10 0.000000 0.275784 0.355078
O O11 0.056812 0.000000 0.361142
O O12 0.585036 0.710426 0.209707
O O13 0.629881 0.000000 0.188039
O O14 0.639829 0.786235 0.050404
O O15 0.500000 0.271765 0.815707
O O16 0.601054 0.289058 0.883283
O O17 0.557796 0.000000 0.841409
O O18 0.063619 0.500000 0.106459
O O19 0.337010 0.000000 0.472676
#
# Coordination Sequence:
#
# PCOD9358334 Si02
#       8
#     8   2   8   8   8   8   8   8
#     4   8  18  36  56  82 113 152 193 237 286 341
#     4  12  22  40  64  82 112 162 182 232 302 342
#     4  10  20  37  61  84 118 155 186 234 299 343
#     4   9  19  34  55  80 114 147 182 230 282 341
#     4  10  20  36  58  84 117 157 201 240 286 341
#     4  10  21  37  57  85 119 152 191 242 294 348
#     4  11  23  40  59  88 116 147 195 237 284 358
#     4  10  20  36  59  84 114 155 202 240 289 344
#
# _framework density 20.907779000000001
#
# number of rings (size 3 to 8) (size 9 to 14) (size 15 to 20)
#    0.000    2.207    1.379    2.276    0.966    2.759 
#    1.241    5.517    0.000    0.000    0.000    0.000 
#    0.000    0.000    0.000    0.000    0.000    0.000 
#
# Total GULP energy -161618.064022 kJ/mol
# GULP energy per Si atom -5573.036690 kJ/mol
# Density = 2.086019 g / cm^3
# Si number density = 20.907779 Si / 1000 Ang^3
#
#
#
# Elastic Constant Matrix: (Units=GPa)
#
#
# Indices 1 2 3 4 5 6 
#
# 1 124.8551 3.9801 39.0337 0.0000 0.0000 0.0000
# 2 3.9801 65.6341 1.3634 0.0000 0.0000 0.0000
# 3 39.0337 1.3634 93.7275 0.0000 0.0000 0.0000
# 4 0.0000 0.0000 0.0000 17.7702 0.0000 0.0000
# 5 0.0000 0.0000 0.0000 0.0000 11.8364 0.0000
# 6 0.0000 0.0000 0.0000 0.0000 0.0000 17.1574
#
#
#
# Elastic Compliance Matrix: (Units=1/GPa)
#
#
# Indices 1 2 3 4 5 6 
#
# 1 0.009223 -0.000480 -0.003834 0.000000 0.000000 0.000000
# 2 -0.000480 0.015266 -0.000022 0.000000 0.000000 0.000000
# 3 -0.003834 -0.000022 0.012266 0.000000 0.000000 0.000000
# 4 0.000000 0.000000 0.000000 0.056274 0.000000 0.000000
# 5 0.000000 0.000000 0.000000 0.000000 0.084485 0.000000
# 6 0.000000 0.000000 0.000000 0.000000 0.000000 0.058284
#
#
# Mechanical properties :
#
#
# Convention : Reuss Voigt Hill
#
# Bulk Modulus (GPa) = 35.60885 41.44124 38.52504
# Shear Modulus (GPa) = 19.69812 25.34210 22.52011
#
# Velocity S-wave (km/s) = 3.07277 3.48528 3.28551
# Velocity P-wave (km/s) = 5.44587 6.00502 5.73227
#
# Compressibility (1/GPa) = 0.02808291
#
# Stress axis : x y z
#
# Youngs Moduli (GPa) = 108.42168 65.50704 81.52416
#
# Poissons Ratio (x) = 0.03142 0.31257
# Poissons Ratio (y) = 0.05201 0.00182
# Poissons Ratio (z) = 0.41570 0.00146
#
# Static dielectric constant tensor:
#      x y z
#    x 1.738810 0.000000 0.000000 
#    y 0.000000 1.755650 0.000000 
#    z 0.000000 0.000000 1.762480 
# 
# From -- ./inp_files/15726.got.cif
#   From: 2010.05.17/outbox.cif.g08.bks.cpg/sg38_8_cif.got.tgz:15726.got - 2010.06.03 18:07:57.
