data_PCOD9358388
_publ_section_title
;
Structure prediction by ZEFSAII (Michael W. Deem and Ramdas Pophale) SiO2 
 PCOD9358388
Probable space group: A M M 2
;
_chemical_formula_sum "Si O2"
_cell_formula_units_Z 56
_cell_length_a 18.394921
_cell_length_b 15.568640
_cell_length_c 10.153242
_cell_angle_alpha 90.000000
_cell_angle_beta 90.000000
_cell_angle_gamma 90.000000
_cell_volume 2907.725071
_symmetry_space_group_name_H-M "A M M 2"
_symmetry_group_IT_number 38
_symmetry_cell_setting 'orthorhombic'
loop_
_space_group_symop_operation_xyz
x,y,z
-x,-y,z
-x,y,z
x,-y,z
x,1/2+y,1/2+z
-x,1/2-y,1/2+z
-x,1/2+y,1/2+z
x,1/2-y,1/2+z
loop_
_atom_site_type_symbol
_atom_site_label
_atom_site_fract_x
_atom_site_fract_y
_atom_site_fract_z
Si Si1 0.084826 0.901049 0.049930
Si Si2 0.084706 0.595236 0.232705
Si Si3 0.635903 0.597262 0.489696
Si Si4 0.814090 0.255989 0.132984
Si Si5 0.586108 0.782752 0.224340
Si Si6 0.417181 0.592542 0.200962
Si Si7 0.283021 0.254050 0.891271
O O1 0.140354 0.830285 0.102894
O O2 0.000000 0.883420 0.086202
O O3 0.101187 0.000000 0.088954
O O4 0.088893 0.897400 0.891059
O O5 0.111262 0.500000 0.196553
O O6 0.129897 0.669566 0.167393
O O7 0.000000 0.601598 0.196908
O O8 0.656085 0.500000 0.523525
O O9 0.601595 0.646446 0.613419
O O10 0.584479 0.594239 0.361042
O O11 0.701562 0.655683 0.436303
O O12 0.763174 0.240938 0.258677
O O13 0.764602 0.287395 0.011448
O O14 0.500000 0.780470 0.255735
O O15 0.609175 0.688342 0.167339
O O16 0.638577 0.793746 0.350785
O O17 0.500000 0.589665 0.154169
O O18 0.382106 0.500000 0.163632
#
# Coordination Sequence:
#
# PCOD9358388 Si02
#       7
#     8   8   8   8   8   8   8
#     4   9  19  37  64  95 125 167 218 258 301 365
#     4   9  19  37  63  94 126 168 217 257 304 369
#     4  10  20  36  60  85 112 152 207 254 301 374
#     4  12  21  40  62  90 132 166 209 256 314 378
#     4  10  20  37  60  87 120 155 206 270 321 369
#     4   8  15  29  52  81 107 138 185 238 295 363
#     4  11  24  39  58  90 125 163 208 256 317 385
#
# _framework density 19.259042000000001
#
# number of rings (size 3 to 8) (size 9 to 14) (size 15 to 20)
#    0.000    2.143    2.857    1.714    0.000    2.571 
#    0.000    1.429    0.000    6.000    0.000    8.000 
#    0.000    0.000    0.000    0.000    0.000    0.000 
#
# Total GULP energy -156024.390903 kJ/mol
# GULP energy per Si atom -5572.299675 kJ/mol
# Density = 1.921521 g / cm^3
# Si number density = 19.259042 Si / 1000 Ang^3
#
#
#
# Elastic Constant Matrix: (Units=GPa)
#
#
# Indices 1 2 3 4 5 6 
#
# 1 101.6906 52.9838 44.5487 0.0000 0.0000 0.0000
# 2 52.9838 97.7386 24.5789 0.0000 0.0000 0.0000
# 3 44.5487 24.5789 75.4753 0.0000 0.0000 0.0000
# 4 0.0000 0.0000 0.0000 29.5549 0.0000 0.0000
# 5 0.0000 0.0000 0.0000 0.0000 29.2558 0.0000
# 6 0.0000 0.0000 0.0000 0.0000 0.0000 -0.6785
#
#
#
# Elastic Compliance Matrix: (Units=1/GPa)
#
#
# Indices 1 2 3 4 5 6 
#
# 1 0.016978 -0.007280 -0.007651 0.000000 0.000000 0.000000
# 2 -0.007280 0.014266 -0.000349 0.000000 0.000000 0.000000
# 3 -0.007651 -0.000349 0.017879 0.000000 0.000000 0.000000
# 4 0.000000 0.000000 0.000000 0.033835 0.000000 0.000000
# 5 0.000000 0.000000 0.000000 0.000000 0.034181 0.000000
# 6 0.000000 0.000000 0.000000 0.000000 0.000000 -1.473834
#
#
# Mechanical properties :
#
#
# Convention : Reuss Voigt Hill
#
# Bulk Modulus (GPa) = 53.86771 57.68081 55.77426
# Shear Modulus (GPa) = -3.78803 21.81265 9.01231
#
# Velocity S-wave (km/s) = -1.40398 3.36905 2.16557
# Velocity P-wave (km/s) = 5.04010 6.71930 5.93934
#
# Compressibility (1/GPa) = 0.01856400
#
# Stress axis : x y z
#
# Youngs Moduli (GPa) = 58.89829 70.09912 55.93273
#
# Poissons Ratio (x) = 0.51032 0.42792
# Poissons Ratio (y) = 0.42878 0.01950
# Poissons Ratio (z) = 0.45061 0.02444
#
# Static dielectric constant tensor:
#      x y z
#    x 1.706770 0.000000 0.000000 
#    y 0.000000 1.696650 0.000000 
#    z 0.000000 0.000000 1.665660 
# 
# From -- ./inp_files/6749.got.cif
#   From: 2010.05.17/outbox.cif.g08.bks.cpg/sg38_4_cif.got.tgz:6749.got - 2010.06.03 18:07:57.
