data_PCOD9358668
_publ_section_title
;
Structure prediction by ZEFSAII (Michael W. Deem and Ramdas Pophale) SiO2 
 PCOD9358668
Probable space group: A M M 2
;
_chemical_formula_sum "Si O2"
_cell_formula_units_Z 48
_cell_length_a 7.776708
_cell_length_b 18.244447
_cell_length_c 17.737774
_cell_angle_alpha 90.000000
_cell_angle_beta 90.000000
_cell_angle_gamma 90.000000
_cell_volume 2516.666185
_symmetry_space_group_name_H-M "A M M 2"
_symmetry_group_IT_number 38
_symmetry_cell_setting 'orthorhombic'
loop_
_space_group_symop_operation_xyz
x,y,z
-x,-y,z
-x,y,z
x,-y,z
x,1/2+y,1/2+z
-x,1/2-y,1/2+z
-x,1/2+y,1/2+z
x,1/2-y,1/2+z
loop_
_atom_site_type_symbol
_atom_site_label
_atom_site_fract_x
_atom_site_fract_y
_atom_site_fract_z
Si Si1 0.000000 0.412494 0.023741
Si Si2 0.294844 0.329567 0.591160
Si Si3 0.705311 0.583451 0.274027
Si Si4 0.000000 0.410716 0.851819
Si Si5 0.299969 0.588165 0.740454
Si Si6 0.796286 0.082928 0.942413
Si Si7 0.290799 0.838252 0.620657
O O1 0.827381 0.385716 0.065356
O O2 0.000000 0.500000 0.023486
O O3 0.000000 0.385080 0.937581
O O4 0.500000 0.330112 0.595556
O O5 0.235761 0.379097 0.661249
O O6 0.250619 0.364183 0.510810
O O7 0.242284 0.245910 0.604585
O O8 0.500000 0.578464 0.269276
O O9 0.775200 0.500000 0.264857
O O10 0.746634 0.608716 0.358621
O O11 0.756363 0.635848 0.205415
O O12 0.170553 0.388160 0.806238
O O13 0.000000 0.500000 0.852749
O O14 0.500000 0.609746 0.753704
O O15 0.296202 0.500000 0.735578
O O16 0.000000 0.076833 0.943097
O O17 0.722985 0.000000 0.952953
O O18 0.500000 0.846934 0.610860
#
# Coordination Sequence:
#
# PCOD9358668 Si02
#       7
#     4   8   8   4   8   8   8
#     4  11  24  41  64  87 112 153 198 245 294 343
#     4  10  21  38  57  83 120 157 194 237 291 354
#     4   9  18  36  60  83 112 151 195 244 294 348
#     4   9  20  37  56  83 111 141 192 243 287 337
#     4   9  18  34  58  85 115 153 194 237 284 341
#     4  10  21  34  55  89 122 155 197 244 290 345
#     4  10  23  41  60  88 120 153 195 243 298 353
#
# _framework density 19.072852000000001
#
# number of rings (size 3 to 8) (size 9 to 14) (size 15 to 20)
#    0.000    2.333    0.000    1.500    3.500    3.333 
#    3.000    1.667    0.000    0.000    0.000    0.000 
#    0.000    0.000    0.000    0.000    0.000    0.000 
#
# Total GULP energy -133850.658404 kJ/mol
# GULP energy per Si atom -5577.110767 kJ/mol
# Density = 1.902944 g / cm^3
# Si number density = 19.072852 Si / 1000 Ang^3
#
#
#
# Elastic Constant Matrix: (Units=GPa)
#
#
# Indices 1 2 3 4 5 6 
#
# 1 61.5014 35.5506 48.6717 0.0000 0.0000 0.0000
# 2 35.5506 70.9171 86.9063 0.0000 0.0000 0.0000
# 3 48.6717 86.9063 205.6825 0.0000 0.0000 0.0000
# 4 0.0000 0.0000 0.0000 -1.8560 0.0000 0.0000
# 5 0.0000 0.0000 0.0000 0.0000 37.2816 0.0000
# 6 0.0000 0.0000 0.0000 0.0000 0.0000 21.4634
#
#
#
# Elastic Compliance Matrix: (Units=1/GPa)
#
#
# Indices 1 2 3 4 5 6 
#
# 1 0.023032 -0.010093 -0.001186 0.000000 0.000000 0.000000
# 2 -0.010093 0.033665 -0.011836 0.000000 0.000000 0.000000
# 3 -0.001186 -0.011836 0.010143 0.000000 0.000000 0.000000
# 4 0.000000 0.000000 0.000000 -0.538786 0.000000 0.000000
# 5 0.000000 0.000000 0.000000 0.000000 0.026823 0.000000
# 6 0.000000 0.000000 0.000000 0.000000 0.000000 0.046591
#
#
# Mechanical properties :
#
#
# Convention : Reuss Voigt Hill
#
# Bulk Modulus (GPa) = 48.51669 75.59537 62.05603
# Shear Modulus (GPa) = -14.47468 22.50928 4.01730
#
# Velocity S-wave (km/s) = -2.75783 3.43909 1.45288
# Velocity P-wave (km/s) = 3.91816 7.44922 5.95159
#
# Compressibility (1/GPa) = 0.02061146
#
# Stress axis : x y z
#
# Youngs Moduli (GPa) = 43.41705 29.70414 98.58533
#
# Poissons Ratio (x) = 0.29981 0.11689
# Poissons Ratio (y) = 0.43821 1.16687
# Poissons Ratio (z) = 0.05148 0.35158
#
# Static dielectric constant tensor:
#      x y z
#    x 1.669690 0.000000 0.000000 
#    y 0.000000 1.741930 0.000000 
#    z 0.000000 0.000000 1.668800 
# 
# From -- ./inp_files/12124.got.cif
#   From: 2010.05.17/outbox.cif.g08.bks.cpg/sg38_7_cif.got.tgz:12124.got - 2010.06.03 18:07:57.
