data_PCOD9358414
_publ_section_title
;
Structure prediction by ZEFSAII (Michael W. Deem and Ramdas Pophale) SiO2 
 PCOD9358414
Probable space group: A M M 2
;
_chemical_formula_sum "Si O2"
_cell_formula_units_Z 48
_cell_length_a 8.941714
_cell_length_b 23.071701
_cell_length_c 11.768589
_cell_angle_alpha 90.000000
_cell_angle_beta 90.000000
_cell_angle_gamma 90.000000
_cell_volume 2427.866405
_symmetry_space_group_name_H-M "A M M 2"
_symmetry_group_IT_number 38
_symmetry_cell_setting 'orthorhombic'
loop_
_space_group_symop_operation_xyz
x,y,z
-x,-y,z
-x,y,z
x,-y,z
x,1/2+y,1/2+z
-x,1/2-y,1/2+z
-x,1/2+y,1/2+z
x,1/2-y,1/2+z
loop_
_atom_site_type_symbol
_atom_site_label
_atom_site_fract_x
_atom_site_fract_y
_atom_site_fract_z
Si Si1 0.667766 0.568209 0.440420
Si Si2 0.177131 0.363021 0.003901
Si Si3 0.321328 0.933382 0.313765
Si Si4 0.825625 0.358079 0.618881
Si Si5 0.821128 0.766653 0.936586
Si Si6 0.327742 0.343412 0.243889
O O1 0.500000 0.582251 0.487668
O O2 0.681196 0.500000 0.434682
O O3 0.793942 0.595691 0.518995
O O4 0.675101 0.598014 0.318445
O O5 0.207283 0.301336 0.943128
O O6 0.233784 0.353522 0.131311
O O7 0.000000 0.373323 0.001734
O O8 0.260737 0.413525 0.936161
O O9 0.500000 0.931969 0.312010
O O10 0.259099 0.885982 0.224964
O O11 0.274690 0.000000 0.286058
O O12 0.775981 0.298583 0.555520
O O13 0.000000 0.352430 0.648034
O O14 0.000000 0.776153 0.925531
O O15 0.739528 0.795824 0.830111
O O16 0.500000 0.329437 0.216268
#
# Coordination Sequence:
#
# PCOD9358414 Si02
#       6
#     8   8   8   8   8   8
#     4   9  18  34  56  82 115 154 192 236 291 345
#     4  11  24  41  62  86 118 159 202 249 304 363
#     4  11  25  43  61  86 123 164 206 253 306 362
#     4  10  20  36  60  90 120 154 196 245 299 356
#     4   9  21  40  61  86 119 156 195 246 305 358
#     4  10  21  37  58  87 118 151 195 244 296 356
#
# _framework density 19.770444999999999
#
# number of rings (size 3 to 8) (size 9 to 14) (size 15 to 20)
#    0.000    2.000    0.000    2.500    2.333    7.000 
#    0.000    1.667    0.000    0.000    0.000    0.000 
#    0.000    0.000    0.000    0.000    0.000    0.000 
#
# Total GULP energy -133991.334966 kJ/mol
# GULP energy per Si atom -5582.972290 kJ/mol
# Density = 1.972545 g / cm^3
# Si number density = 19.770445 Si / 1000 Ang^3
#
#
#
# Elastic Constant Matrix: (Units=GPa)
#
#
# Indices 1 2 3 4 5 6 
#
# 1 37.0094 24.2834 21.2259 0.0000 0.0000 0.0000
# 2 24.2834 52.5196 10.8082 0.0000 0.0000 0.0000
# 3 21.2259 10.8082 79.0460 0.0000 0.0000 0.0000
# 4 0.0000 0.0000 0.0000 7.0522 0.0000 0.0000
# 5 0.0000 0.0000 0.0000 0.0000 38.5985 0.0000
# 6 0.0000 0.0000 0.0000 0.0000 0.0000 22.6252
#
#
#
# Elastic Compliance Matrix: (Units=1/GPa)
#
#
# Indices 1 2 3 4 5 6 
#
# 1 0.044736 -0.018740 -0.009450 0.000000 0.000000 0.000000
# 2 -0.018740 0.027442 0.001280 0.000000 0.000000 0.000000
# 3 -0.009450 0.001280 0.015014 0.000000 0.000000 0.000000
# 4 0.000000 0.000000 0.000000 0.141801 0.000000 0.000000
# 5 0.000000 0.000000 0.000000 0.000000 0.025908 0.000000
# 6 0.000000 0.000000 0.000000 0.000000 0.000000 0.044198
#
#
# Mechanical properties :
#
#
# Convention : Reuss Voigt Hill
#
# Bulk Modulus (GPa) = 29.96628 31.24559 30.60593
# Shear Modulus (GPa) = 13.73465 21.13900 17.43682
#
# Velocity S-wave (km/s) = 2.63859 3.27344 2.97301
# Velocity P-wave (km/s) = 4.94701 5.48869 5.22487
#
# Compressibility (1/GPa) = 0.03337085
#
# Stress axis : x y z
#
# Youngs Moduli (GPa) = 22.35325 36.44078 66.60646
#
# Poissons Ratio (x) = 0.68289 0.62946
# Poissons Ratio (y) = 0.41889 -0.08525
# Poissons Ratio (z) = 0.21125 -0.04664
#
# Static dielectric constant tensor:
#      x y z
#    x 1.752000 0.000000 0.000000 
#    y 0.000000 1.689010 0.000000 
#    z 0.000000 0.000000 1.700060 
# 
# From -- ./inp_files/8120.got.cif
#   From: 2010.05.17/outbox.cif.g08.bks.cpg/sg38_5_cif.got.tgz:8120.got - 2010.06.03 18:07:57.
