data_PCOD9358934
_publ_section_title
;
Structure prediction by ZEFSAII (Michael W. Deem and Ramdas Pophale) SiO2 
 PCOD9358934
Probable space group: A M M 2
;
_chemical_formula_sum "Si O2"
_cell_formula_units_Z 56
_cell_length_a 14.011861
_cell_length_b 9.000561
_cell_length_c 21.641796
_cell_angle_alpha 90.000000
_cell_angle_beta 90.000000
_cell_angle_gamma 90.000000
_cell_volume 2729.346655
_symmetry_space_group_name_H-M "A M M 2"
_symmetry_group_IT_number 38
_symmetry_cell_setting 'orthorhombic'
loop_
_space_group_symop_operation_xyz
x,y,z
-x,-y,z
-x,y,z
x,-y,z
x,1/2+y,1/2+z
-x,1/2-y,1/2+z
-x,1/2+y,1/2+z
x,1/2-y,1/2+z
loop_
_atom_site_type_symbol
_atom_site_label
_atom_site_fract_x
_atom_site_fract_y
_atom_site_fract_z
Si Si1 0.793157 0.176027 0.089760
Si Si2 0.611881 0.824142 0.540783
Si Si3 0.201473 0.679169 0.214793
Si Si4 0.615632 0.669581 0.413771
Si Si5 0.607821 0.319592 0.275944
Si Si6 0.885147 0.828353 0.845553
Si Si7 0.115402 0.829008 0.471362
O O1 0.684817 0.235186 0.083048
O O2 0.834393 0.244590 0.152799
O O3 0.796157 0.000000 0.091173
O O4 0.846733 0.237020 0.029344
O O5 0.500000 0.788368 0.550885
O O6 0.637452 0.776168 0.470622
O O7 0.623976 0.000000 0.549456
O O8 0.194494 0.500000 0.208480
O O9 0.312085 0.721200 0.227025
O O10 0.148824 0.722849 0.278202
O O11 0.500000 0.661867 0.410752
O O12 0.649363 0.500000 0.425609
O O13 0.642561 0.721258 0.345084
O O14 0.500000 0.265641 0.264708
O O15 0.603887 0.500000 0.277027
O O16 0.852461 0.738160 0.905622
O O17 0.000000 0.825856 0.845758
O O18 0.853731 0.000000 0.852218
O O19 0.000000 0.824556 0.471828
O O20 0.145853 0.000000 0.477298
#
# Coordination Sequence:
#
# PCOD9358934 Si02
#       7
#     8   8   8   8   8   8   8
#     4  12  26  41  59  86 123 165 209 253 303 361
#     4  10  21  37  57  83 117 158 204 254 306 358
#     4  10  21  37  57  84 119 159 204 245 293 354
#     4   8  14  27  49  78 109 143 188 239 291 348
#     4   8  15  29  51  79 111 149 194 241 289 345
#     4   9  19  37  62  92 123 155 193 238 292 359
#     4  10  22  42  68  95 122 154 196 249 307 365
#
# _framework density 20.517731000000001
#
# number of rings (size 3 to 8) (size 9 to 14) (size 15 to 20)
#    0.000    2.429    0.000    3.000    2.000    3.429 
#    0.000    3.571    0.000    0.857    0.000    0.000 
#    0.000    0.000    0.000    0.000    0.000    0.000 
#
# Total GULP energy -156386.126345 kJ/mol
# GULP energy per Si atom -5585.218798 kJ/mol
# Density = 2.047103 g / cm^3
# Si number density = 20.517731 Si / 1000 Ang^3
#
#
#
# Elastic Constant Matrix: (Units=GPa)
#
#
# Indices 1 2 3 4 5 6 
#
# 1 45.6036 21.4447 30.8822 0.0000 0.0000 0.0000
# 2 21.4447 88.6505 65.9250 0.0000 0.0000 0.0000
# 3 30.8822 65.9250 158.8593 0.0000 0.0000 0.0000
# 4 0.0000 0.0000 0.0000 31.2736 0.0000 0.0000
# 5 0.0000 0.0000 0.0000 0.0000 19.1052 0.0000
# 6 0.0000 0.0000 0.0000 0.0000 0.0000 20.0697
#
#
#
# Elastic Compliance Matrix: (Units=1/GPa)
#
#
# Indices 1 2 3 4 5 6 
#
# 1 0.026052 -0.003668 -0.003542 0.000000 0.000000 0.000000
# 2 -0.003668 0.016832 -0.006272 0.000000 0.000000 0.000000
# 3 -0.003542 -0.006272 0.009586 0.000000 0.000000 0.000000
# 4 0.000000 0.000000 0.000000 0.031976 0.000000 0.000000
# 5 0.000000 0.000000 0.000000 0.000000 0.052342 0.000000
# 6 0.000000 0.000000 0.000000 0.000000 0.000000 0.049826
#
#
# Mechanical properties :
#
#
# Convention : Reuss Voigt Hill
#
# Bulk Modulus (GPa) = 39.20711 58.84636 49.02673
# Shear Modulus (GPa) = 22.51448 25.74714 24.13081
#
# Velocity S-wave (km/s) = 3.31617 3.54626 3.43315
# Velocity P-wave (km/s) = 5.81490 6.74618 6.29778
#
# Compressibility (1/GPa) = 0.02550558
#
# Stress axis : x y z
#
# Youngs Moduli (GPa) = 38.38532 59.41203 104.31523
#
# Poissons Ratio (x) = 0.21790 0.36953
# Poissons Ratio (y) = 0.14078 0.65426
# Poissons Ratio (z) = 0.13598 0.37263
#
# Static dielectric constant tensor:
#      x y z
#    x 1.784310 0.000000 0.000000 
#    y 0.000000 1.686120 0.000000 
#    z 0.000000 0.000000 1.729110 
# 
# From -- ./inp_files/21050.got.cif
#   From: 2010.05.17/outbox.cif.g08.bks.cpg/sg38_11_cif.got.tgz:21050.got - 2010.06.03 18:07:57.
