data_PCOD9358973
_publ_section_title
;
Structure prediction by ZEFSAII (Michael W. Deem and Ramdas Pophale) SiO2 
 PCOD9358973
Probable space group: A M M 2
;
_chemical_formula_sum "Si O2"
_cell_formula_units_Z 40
_cell_length_a 11.763943
_cell_length_b 8.765858
_cell_length_c 20.626859
_cell_angle_alpha 90.000000
_cell_angle_beta 90.000000
_cell_angle_gamma 90.000000
_cell_volume 2127.063438
_symmetry_space_group_name_H-M "A M M 2"
_symmetry_group_IT_number 38
_symmetry_cell_setting 'orthorhombic'
loop_
_space_group_symop_operation_xyz
x,y,z
-x,-y,z
-x,y,z
x,-y,z
x,1/2+y,1/2+z
-x,1/2-y,1/2+z
-x,1/2+y,1/2+z
x,1/2-y,1/2+z
loop_
_atom_site_type_symbol
_atom_site_label
_atom_site_fract_x
_atom_site_fract_y
_atom_site_fract_z
Si Si1 0.758085 0.180729 0.898090
Si Si2 0.000000 0.316720 0.604471
Si Si3 0.634340 0.321443 0.017799
Si Si4 0.367344 0.817186 0.274087
Si Si5 0.234900 0.318489 0.151657
Si Si6 0.000000 0.685617 0.452747
O O1 0.685568 0.216894 0.962092
O O2 0.699141 0.262658 0.837879
O O3 0.885948 0.233780 0.915563
O O4 0.761065 0.000000 0.885506
O O5 0.112066 0.255263 0.639827
O O6 0.000000 0.265325 0.528416
O O7 0.000000 0.500000 0.604808
O O8 0.500000 0.300084 0.023439
O O9 0.655394 0.500000 0.000974
O O10 0.693893 0.290474 0.086091
O O11 0.500000 0.767782 0.276112
O O12 0.302942 0.749960 0.211955
O O13 0.365773 0.000000 0.271038
O O14 0.222874 0.500000 0.160305
O O15 0.000000 0.500000 0.454200
#
# Coordination Sequence:
#
# PCOD9358973 Si02
#       6
#     8   4   8   8   8   4
#     4  11  22  39  63  90 121 162 208 256 310 370
#     4  11  21  40  65  92 129 165 205 256 312 369
#     4  10  21  37  58  87 122 158 201 255 312 370
#     4  11  25  44  63  88 126 168 209 258 318 378
#     4  11  23  40  64  93 124 163 210 258 312 369
#     4   9  20  38  61  90 125 159 199 252 304 365
#
# _framework density 18.805271000000001
#
# number of rings (size 3 to 8) (size 9 to 14) (size 15 to 20)
#    0.000    1.400    2.000    3.300    0.000    6.800 
#    0.000    5.000    0.000    0.000    0.000    0.000 
#    0.000    0.000    0.000    0.000    0.000    0.000 
#
# Total GULP energy -111799.687910 kJ/mol
# GULP energy per Si atom -5589.984395 kJ/mol
# Density = 1.876247 g / cm^3
# Si number density = 18.805271 Si / 1000 Ang^3
#
#
#
# Elastic Constant Matrix: (Units=GPa)
#
#
# Indices 1 2 3 4 5 6 
#
# 1 167.3976 52.0263 83.4550 0.0000 0.0000 0.0000
# 2 52.0263 58.7839 59.4879 0.0000 0.0000 0.0000
# 3 83.4550 59.4879 129.9773 0.0000 0.0000 0.0000
# 4 0.0000 0.0000 0.0000 36.3879 0.0000 0.0000
# 5 0.0000 0.0000 0.0000 0.0000 42.6651 0.0000
# 6 0.0000 0.0000 0.0000 0.0000 0.0000 28.6546
#
#
#
# Elastic Compliance Matrix: (Units=1/GPa)
#
#
# Indices 1 2 3 4 5 6 
#
# 1 0.009281 -0.004067 -0.004097 0.000000 0.000000 0.000000
# 2 -0.004067 0.033471 -0.012707 0.000000 0.000000 0.000000
# 3 -0.004097 -0.012707 0.016140 0.000000 0.000000 0.000000
# 4 0.000000 0.000000 0.000000 0.027482 0.000000 0.000000
# 5 0.000000 0.000000 0.000000 0.000000 0.023438 0.000000
# 6 0.000000 0.000000 0.000000 0.000000 0.000000 0.034898
#
#
# Mechanical properties :
#
#
# Convention : Reuss Voigt Hill
#
# Bulk Modulus (GPa) = 58.31686 82.89971 70.60828
# Shear Modulus (GPa) = 26.01865 32.28749 29.15307
#
# Velocity S-wave (km/s) = 3.72369 4.14809 3.94161
# Velocity P-wave (km/s) = 7.04032 8.19275 7.63830
#
# Compressibility (1/GPa) = 0.01714770
#
# Stress axis : x y z
#
# Youngs Moduli (GPa) = 107.75178 29.87681 61.95685
#
# Poissons Ratio (x) = 0.12152 0.25385
# Poissons Ratio (y) = 0.43827 0.78730
# Poissons Ratio (z) = 0.44149 0.37965
#
# Static dielectric constant tensor:
#      x y z
#    x 1.633520 0.000000 0.000000 
#    y 0.000000 1.641140 0.000000 
#    z 0.000000 0.000000 1.615060 
# 
# From -- ./inp_files/20499.got.cif
#   From: 2010.05.17/outbox.cif.g08.bks.cpg/sg38_11_cif.got.tgz:20499.got - 2010.06.03 18:07:57.
