data_PCOD9358628
_publ_section_title
;
Structure prediction by ZEFSAII (Michael W. Deem and Ramdas Pophale) SiO2 
 PCOD9358628
Probable space group: A M M 2
;
_chemical_formula_sum "Si O2"
_cell_formula_units_Z 58
_cell_length_a 7.975607
_cell_length_b 19.062527
_cell_length_c 17.821057
_cell_angle_alpha 90.000000
_cell_angle_beta 90.000000
_cell_angle_gamma 90.000000
_cell_volume 2709.428389
_symmetry_space_group_name_H-M "A M M 2"
_symmetry_group_IT_number 38
_symmetry_cell_setting 'orthorhombic'
loop_
_space_group_symop_operation_xyz
x,y,z
-x,-y,z
-x,y,z
x,-y,z
x,1/2+y,1/2+z
-x,1/2-y,1/2+z
-x,1/2+y,1/2+z
x,1/2-y,1/2+z
loop_
_atom_site_type_symbol
_atom_site_label
_atom_site_fract_x
_atom_site_fract_y
_atom_site_fract_z
Si Si1 0.695059 0.673340 0.360630
Si Si2 0.296726 0.348471 0.645199
Si Si3 0.696906 0.106696 0.466767
Si Si4 0.197949 0.077372 0.996171
Si Si5 0.801837 0.420164 0.222726
Si Si6 0.695761 0.806069 0.604549
Si Si7 0.702163 0.825402 0.310431
Si Si8 0.000000 0.500000 0.997734
O O1 0.500000 0.687224 0.370855
O O2 0.751695 0.637897 0.437874
O O3 0.721163 0.616701 0.294682
O O4 0.769787 0.747723 0.331847
O O5 0.500000 0.349873 0.643036
O O6 0.239450 0.401611 0.581380
O O7 0.236822 0.270285 0.623007
O O8 0.238762 0.356422 0.731152
O O9 0.500000 0.082350 0.474868
O O10 0.705227 0.176799 0.516933
O O11 0.729799 0.123734 0.380211
O O12 0.848466 0.059248 0.495245
O O13 0.000000 0.072231 0.989263
O O14 0.271042 0.000000 0.977781
O O15 0.741521 0.500000 0.209469
O O16 0.773019 0.369299 0.152244
O O17 0.000000 0.423700 0.236713
O O18 0.500000 0.805700 0.626842
O O19 0.500000 0.818369 0.302174
#
# Coordination Sequence:
#
# PCOD9358628 Si02
#       8
#     8   8   8   8   8   8   8   2
#     4  11  21  40  68  93 121 163 216 263 317 391
#     4  10  20  41  69  95 124 163 213 264 317 386
#     4  10  23  43  65  92 130 170 212 275 329 379
#     4  11  25  43  60  90 134 171 208 264 327 381
#     4  11  24  37  55  89 133 170 206 258 316 378
#     4  10  21  39  63  91 125 166 212 260 319 378
#     4   9  19  41  67  93 124 159 207 269 328 376
#     4  12  26  44  64  94 124 168 230 264 320 414
#
# _framework density 21.406728999999999
#
# number of rings (size 3 to 8) (size 9 to 14) (size 15 to 20)
#    0.000    1.655    1.379    2.690    1.931    6.621 
#    7.448    0.000    0.000    0.000    0.000    0.000 
#    0.000    0.000    0.000    0.000    0.000    0.000 
#
# Total GULP energy -161618.613079 kJ/mol
# GULP energy per Si atom -5573.055623 kJ/mol
# Density = 2.135801 g / cm^3
# Si number density = 21.406729 Si / 1000 Ang^3
#
#
#
# Elastic Constant Matrix: (Units=GPa)
#
#
# Indices 1 2 3 4 5 6 
#
# 1 58.4011 4.4558 4.4270 0.0000 0.0000 0.0000
# 2 4.4558 24.9442 -14.4375 0.0000 0.0000 0.0000
# 3 4.4270 -14.4375 98.3568 0.0000 0.0000 0.0000
# 4 0.0000 0.0000 0.0000 77.8230 0.0000 0.0000
# 5 0.0000 0.0000 0.0000 0.0000 -231.8061 0.0000
# 6 0.0000 0.0000 0.0000 0.0000 0.0000 61.2428
#
#
#
# Elastic Compliance Matrix: (Units=1/GPa)
#
#
# Indices 1 2 3 4 5 6 
#
# 1 0.017525 -0.003920 -0.001364 0.000000 0.000000 0.000000
# 2 -0.003920 0.044689 0.006736 0.000000 0.000000 0.000000
# 3 -0.001364 0.006736 0.011217 0.000000 0.000000 0.000000
# 4 0.000000 0.000000 0.000000 0.012850 0.000000 0.000000
# 5 0.000000 0.000000 0.000000 0.000000 -0.004314 0.000000
# 6 0.000000 0.000000 0.000000 0.000000 0.000000 0.016328
#
#
# Mechanical properties :
#
#
# Convention : Reuss Voigt Hill
#
# Bulk Modulus (GPa) = 13.10018 18.95472 16.02745
# Shear Modulus (GPa) = 41.37805 -6.06427 17.65689
#
# Velocity S-wave (km/s) = 4.40130 -1.68494 2.87510
# Velocity P-wave (km/s) = 5.65345 2.25575 4.30406
#
# Compressibility (1/GPa) = 0.07633484
#
# Stress axis : x y z
#
# Youngs Moduli (GPa) = 57.05976 22.37705 89.14839
#
# Poissons Ratio (x) = 0.08772 0.12162
# Poissons Ratio (y) = 0.22369 -0.60052
# Poissons Ratio (z) = 0.07784 -0.15074
#
# Static dielectric constant tensor:
#      x y z
#    x 1.777930 0.000000 0.000000 
#    y 0.000000 1.819330 0.000000 
#    z 0.000000 0.000000 1.783000 
# 
# From -- ./inp_files/16976.got.cif
#   From: 2010.05.17/outbox.cif.g08.bks.cpg/sg38_9_cif.got.tgz:16976.got - 2010.06.03 18:07:57.
