data_PCOD9358646
_publ_section_title
;
Structure prediction by ZEFSAII (Michael W. Deem and Ramdas Pophale) SiO2 
 PCOD9358646
Probable space group: A M M 2
;
_chemical_formula_sum "Si O2"
_cell_formula_units_Z 58
_cell_length_a 15.515409
_cell_length_b 7.918690
_cell_length_c 25.688862
_cell_angle_alpha 90.000000
_cell_angle_beta 90.000000
_cell_angle_gamma 90.000000
_cell_volume 3156.177618
_symmetry_space_group_name_H-M "A M M 2"
_symmetry_group_IT_number 38
_symmetry_cell_setting 'orthorhombic'
loop_
_space_group_symop_operation_xyz
x,y,z
-x,-y,z
-x,y,z
x,-y,z
x,1/2+y,1/2+z
-x,1/2-y,1/2+z
-x,1/2+y,1/2+z
x,1/2-y,1/2+z
loop_
_atom_site_type_symbol
_atom_site_label
_atom_site_fract_x
_atom_site_fract_y
_atom_site_fract_z
Si Si1 0.903523 0.301914 0.568060
Si Si2 0.000000 0.500000 0.710315
Si Si3 0.401671 0.296959 0.933482
Si Si4 0.689001 0.801739 0.211603
Si Si5 0.598558 0.297770 0.315714
Si Si6 0.271611 0.199038 0.521119
Si Si7 0.876014 0.312331 0.184294
Si Si8 0.595546 0.795974 0.109311
O O1 0.904799 0.500000 0.582471
O O2 0.823236 0.273918 0.529983
O O3 0.887418 0.203962 0.621804
O O4 0.000000 0.259418 0.548295
O O5 0.926298 0.652078 0.707529
O O6 0.500000 0.233307 0.942945
O O7 0.404833 0.500000 0.939215
O O8 0.377605 0.255638 0.874165
O O9 0.330524 0.232001 0.973998
O O10 0.656936 0.772236 0.269817
O O11 0.776269 0.705785 0.198730
O O12 0.617324 0.751429 0.168906
O O13 0.705345 0.000000 0.203403
O O14 0.500000 0.238850 0.307464
O O15 0.600034 0.500000 0.313163
O O16 0.329444 0.228147 0.572413
O O17 0.259698 0.000000 0.513265
O O18 0.904752 0.500000 0.200321
O O19 0.500000 0.735416 0.094257
O O20 0.596146 0.000000 0.104906
#
# Coordination Sequence:
#
# PCOD9358646 Si02
#       8
#     8   2   8   8   8   8   8   8
#     4  11  21  37  55  80 113 151 194 239 290 350
#     4  12  22  40  56  86 114 156 198 244 300 354
#     4   9  19  37  57  79 110 149 192 239 294 352
#     4  11  21  36  55  82 117 154 195 235 289 356
#     4  10  21  36  56  83 112 147 197 248 291 343
#     4  11  22  34  54  83 113 147 189 237 294 351
#     4  12  22  36  58  84 118 154 194 244 294 353
#     4  10  21  34  50  74 111 156 190 221 274 346
#
# _framework density 18.376659
#
# number of rings (size 3 to 8) (size 9 to 14) (size 15 to 20)
#    0.000    1.379    3.448    2.690    0.000    4.690 
#    0.000    1.379    0.000    0.000    1.793    0.000 
#    0.000    0.000    0.000    0.000    0.000    0.000 
#
# Total GULP energy -161645.858554 kJ/mol
# GULP energy per Si atom -5573.995123 kJ/mol
# Density = 1.833483 g / cm^3
# Si number density = 18.376659 Si / 1000 Ang^3
#
#
#
# Elastic Constant Matrix: (Units=GPa)
#
#
# Indices 1 2 3 4 5 6 
#
# 1 140.1107 24.0281 54.9986 0.0000 0.0000 0.0000
# 2 24.0281 78.5125 5.1879 0.0000 0.0000 0.0000
# 3 54.9986 5.1879 77.9329 0.0000 0.0000 0.0000
# 4 0.0000 0.0000 0.0000 18.6376 0.0000 0.0000
# 5 0.0000 0.0000 0.0000 0.0000 31.2861 0.0000
# 6 0.0000 0.0000 0.0000 0.0000 0.0000 16.2097
#
#
#
# Elastic Compliance Matrix: (Units=1/GPa)
#
#
# Indices 1 2 3 4 5 6 
#
# 1 0.010418 -0.002714 -0.007171 0.000000 0.000000 0.000000
# 2 -0.002714 0.013500 0.001017 0.000000 0.000000 0.000000
# 3 -0.007171 0.001017 0.017825 0.000000 0.000000 0.000000
# 4 0.000000 0.000000 0.000000 0.053655 0.000000 0.000000
# 5 0.000000 0.000000 0.000000 0.000000 0.031963 0.000000
# 6 0.000000 0.000000 0.000000 0.000000 0.000000 0.061691
#
#
# Mechanical properties :
#
#
# Convention : Reuss Voigt Hill
#
# Bulk Modulus (GPa) = 41.65754 51.66506 46.66130
# Shear Modulus (GPa) = 23.27837 27.38276 25.33057
#
# Velocity S-wave (km/s) = 3.56298 3.86435 3.71672
# Velocity P-wave (km/s) = 6.29638 6.93444 6.62310
#
# Compressibility (1/GPa) = 0.02400526
#
# Stress axis : x y z
#
# Youngs Moduli (GPa) = 95.99040 74.07218 56.10174
#
# Poissons Ratio (x) = 0.20106 0.40232
# Poissons Ratio (y) = 0.26056 -0.05705
# Poissons Ratio (z) = 0.68837 -0.07532
#
# Static dielectric constant tensor:
#      x y z
#    x 1.645680 0.000000 0.000000 
#    y 0.000000 1.659830 0.000000 
#    z 0.000000 0.000000 1.610620 
# 
# From -- ./inp_files/22853.got.cif
#   From: 2010.05.17/outbox.cif.g08.bks.cpg/sg38_12_cif.got.tgz:22853.got - 2010.06.03 18:07:57.
