data_PCOD9358214
_publ_section_title
;
Structure prediction by ZEFSAII (Michael W. Deem and Ramdas Pophale) SiO2 
 PCOD9358214
Probable space group: A M M 2
;
_chemical_formula_sum "Si O2"
_cell_formula_units_Z 48
_cell_length_a 17.662081
_cell_length_b 7.651599
_cell_length_c 16.253433
_cell_angle_alpha 90.000000
_cell_angle_beta 90.000000
_cell_angle_gamma 90.000000
_cell_volume 2196.540318
_symmetry_space_group_name_H-M "A M M 2"
_symmetry_group_IT_number 38
_symmetry_cell_setting 'orthorhombic'
loop_
_space_group_symop_operation_xyz
x,y,z
-x,-y,z
-x,y,z
x,-y,z
x,1/2+y,1/2+z
-x,1/2-y,1/2+z
-x,1/2+y,1/2+z
x,1/2-y,1/2+z
loop_
_atom_site_type_symbol
_atom_site_label
_atom_site_fract_x
_atom_site_fract_y
_atom_site_fract_z
Si Si1 0.585717 0.290635 0.451440
Si Si2 0.000000 0.802002 0.601016
Si Si3 0.842158 0.709568 0.366961
Si Si4 0.000000 0.298755 0.782819
Si Si5 0.683937 0.786796 0.796222
Si Si6 0.161091 0.297069 0.054335
Si Si7 0.678902 0.711236 0.114841
O O1 0.500000 0.222352 0.450151
O O2 0.582269 0.500000 0.441907
O O3 0.635473 0.224559 0.374417
O O4 0.625566 0.257842 0.538745
O O5 0.079162 0.717387 0.574307
O O6 0.000000 0.809494 0.699171
O O7 0.000000 0.000000 0.564881
O O8 0.840619 0.500000 0.374503
O O9 0.771908 0.762034 0.309308
O O10 0.828329 0.787498 0.456821
O O11 0.923956 0.762351 0.333496
O O12 0.000000 0.500000 0.757864
O O13 0.655782 0.730290 0.706275
O O14 0.681569 0.000000 0.797309
O O15 0.156779 0.500000 0.081791
O O16 0.236100 0.221978 0.095942
O O17 0.682073 0.500000 0.115962
#
# Coordination Sequence:
#
# PCOD9358214 Si02
#       7
#     8   4   8   4   8   8   8
#     4  10  21  39  61  86 118 153 193 244 298 351
#     4  10  21  38  57  79 113 155 199 243 290 345
#     4  11  21  37  61  84 113 154 202 242 290 355
#     4  12  25  38  53  81 119 153 197 249 298 343
#     4   9  19  37  61  88 116 154 197 239 287 351
#     4  10  20  35  57  86 120 154 192 244 296 345
#     4  10  20  36  60  88 119 155 197 238 290 354
#
# _framework density 21.852547000000001
#
# number of rings (size 3 to 8) (size 9 to 14) (size 15 to 20)
#    0.000    1.833    1.667    2.750    0.000    5.000 
#    0.000    5.833    0.000    0.000    0.000    0.000 
#    0.000    0.000    0.000    0.000    0.000    0.000 
#
# Total GULP energy -134079.871466 kJ/mol
# GULP energy per Si atom -5586.661311 kJ/mol
# Density = 2.180281 g / cm^3
# Si number density = 21.852547 Si / 1000 Ang^3
#
#
#
# Elastic Constant Matrix: (Units=GPa)
#
#
# Indices 1 2 3 4 5 6 
#
# 1 167.1035 9.3400 79.7649 0.0000 0.0000 0.0000
# 2 9.3400 51.1476 -9.0052 0.0000 0.0000 0.0000
# 3 79.7649 -9.0052 164.4989 0.0000 0.0000 0.0000
# 4 0.0000 0.0000 0.0000 494.0769 0.0000 0.0000
# 5 0.0000 0.0000 0.0000 0.0000 4.7760 0.0000
# 6 0.0000 0.0000 0.0000 0.0000 0.0000 49.0375
#
#
#
# Elastic Compliance Matrix: (Units=1/GPa)
#
#
# Indices 1 2 3 4 5 6 
#
# 1 0.008018 -0.002170 -0.004007 0.000000 0.000000 0.000000
# 2 -0.002170 0.020329 0.002165 0.000000 0.000000 0.000000
# 3 -0.004007 0.002165 0.008140 0.000000 0.000000 0.000000
# 4 0.000000 0.000000 0.000000 0.002024 0.000000 0.000000
# 5 0.000000 0.000000 0.000000 0.000000 0.209379 0.000000
# 6 0.000000 0.000000 0.000000 0.000000 0.000000 0.020393
#
#
# Mechanical properties :
#
#
# Convention : Reuss Voigt Hill
#
# Bulk Modulus (GPa) = 35.13176 60.32771 47.72973
# Shear Modulus (GPa) = 17.49513 129.75477 73.62495
#
# Velocity S-wave (km/s) = 2.83256 7.71403 5.81075
# Velocity P-wave (km/s) = 5.17779 10.34449 8.17979
#
# Compressibility (1/GPa) = 0.02846427
#
# Stress axis : x y z
#
# Youngs Moduli (GPa) = 124.71693 49.19171 122.84347
#
# Poissons Ratio (x) = 0.10673 0.49220
# Poissons Ratio (y) = 0.27059 -0.26594
# Poissons Ratio (z) = 0.49971 -0.10650
#
# Static dielectric constant tensor:
#      x y z
#    x 1.798890 0.000000 0.000000 
#    y 0.000000 1.057290 0.000000 
#    z 0.000000 0.000000 1.767400 
# 
# From -- ./inp_files/15001.got.cif
#   From: 2010.05.17/outbox.cif.g08.bks.cpg/sg38_8_cif.got.tgz:15001.got - 2010.06.03 18:07:57.
