data_PCOD9358132
_publ_section_title
;
Structure prediction by ZEFSAII (Michael W. Deem and Ramdas Pophale) SiO2 
 PCOD9358132
Probable space group: A M M 2
;
_chemical_formula_sum "Si O2"
_cell_formula_units_Z 48
_cell_length_a 15.544702
_cell_length_b 8.698772
_cell_length_c 19.179833
_cell_angle_alpha 90.000000
_cell_angle_beta 90.000000
_cell_angle_gamma 90.000000
_cell_volume 2593.493537
_symmetry_space_group_name_H-M "A M M 2"
_symmetry_group_IT_number 38
_symmetry_cell_setting 'orthorhombic'
loop_
_space_group_symop_operation_xyz
x,y,z
-x,-y,z
-x,y,z
x,-y,z
x,1/2+y,1/2+z
-x,1/2-y,1/2+z
-x,1/2+y,1/2+z
x,1/2-y,1/2+z
loop_
_atom_site_type_symbol
_atom_site_label
_atom_site_fract_x
_atom_site_fract_y
_atom_site_fract_z
Si Si1 0.713735 0.172804 0.718820
Si Si2 0.598223 0.685037 0.605036
Si Si3 0.809126 0.816337 0.351617
Si Si4 0.140971 0.327840 0.101523
Si Si5 0.000000 0.180516 0.834242
Si Si6 0.258126 0.684853 0.490958
Si Si7 0.000000 0.827505 0.187245
O O1 0.634552 0.251841 0.678557
O O2 0.763048 0.262804 0.779986
O O3 0.781577 0.159902 0.656008
O O4 0.692275 0.000000 0.743196
O O5 0.500000 0.734621 0.594000
O O6 0.601140 0.500000 0.608784
O O7 0.659351 0.727713 0.539136
O O8 0.907714 0.752104 0.357353
O O9 0.749628 0.750363 0.413528
O O10 0.813319 0.000000 0.354129
O O11 0.104311 0.500000 0.092859
O O12 0.079191 0.206921 0.137689
O O13 0.177490 0.260394 0.030631
O O14 0.000000 0.208858 0.750803
O O15 0.000000 0.000000 0.850620
O O16 0.252335 0.500000 0.489933
O O17 0.000000 0.000000 0.215794
#
# Coordination Sequence:
#
# PCOD9358132 Si02
#       7
#     8   8   8   8   4   8   4
#     4  10  20  35  58  85 115 150 190 237 289 345
#     4   9  19  38  64  91 118 150 191 241 297 357
#     4  12  24  39  59  85 119 159 201 243 294 351
#     4  10  20  35  55  79 110 147 192 240 288 338
#     4  12  24  39  58  83 116 155 199 247 295 345
#     4  10  21  38  59  84 117 154 194 240 297 356
#     4  12  22  33  54  83 112 149 197 243 291 341
#
# _framework density 18.507853999999998
#
# number of rings (size 3 to 8) (size 9 to 14) (size 15 to 20)
#    0.000    1.500    1.667    4.500    0.000    3.000 
#    0.000    4.167    0.000    3.000    0.000    0.000 
#    0.000    0.000    0.000    0.000    0.000    0.000 
#
# Total GULP energy -133813.247731 kJ/mol
# GULP energy per Si atom -5575.551989 kJ/mol
# Density = 1.846573 g / cm^3
# Si number density = 18.507854 Si / 1000 Ang^3
#
#
#
# Elastic Constant Matrix: (Units=GPa)
#
#
# Indices 1 2 3 4 5 6 
#
# 1 95.6095 33.5291 32.7843 0.0000 0.0000 0.0000
# 2 33.5291 103.0579 37.2842 0.0000 0.0000 0.0000
# 3 32.7843 37.2842 93.8672 0.0000 0.0000 0.0000
# 4 0.0000 0.0000 0.0000 31.1667 0.0000 0.0000
# 5 0.0000 0.0000 0.0000 0.0000 26.4321 0.0000
# 6 0.0000 0.0000 0.0000 0.0000 0.0000 21.8090
#
#
#
# Elastic Compliance Matrix: (Units=1/GPa)
#
#
# Indices 1 2 3 4 5 6 
#
# 1 0.012595 -0.002927 -0.003237 0.000000 0.000000 0.000000
# 2 -0.002927 0.012012 -0.003749 0.000000 0.000000 0.000000
# 3 -0.003237 -0.003749 0.013273 0.000000 0.000000 0.000000
# 4 0.000000 0.000000 0.000000 0.032086 0.000000 0.000000
# 5 0.000000 0.000000 0.000000 0.000000 0.037833 0.000000
# 6 0.000000 0.000000 0.000000 0.000000 0.000000 0.045853
#
#
# Mechanical properties :
#
#
# Convention : Reuss Voigt Hill
#
# Bulk Modulus (GPa) = 55.38496 55.52551 55.45524
# Shear Modulus (GPa) = 27.85606 28.47735 28.16670
#
# Velocity S-wave (km/s) = 3.88376 3.92683 3.90536
# Velocity P-wave (km/s) = 7.07825 7.11521 7.09675
#
# Compressibility (1/GPa) = 0.01805544
#
# Stress axis : x y z
#
# Youngs Moduli (GPa) = 79.39379 83.25159 75.34209
#
# Poissons Ratio (x) = 0.24367 0.24385
# Poissons Ratio (y) = 0.23238 0.28244
# Poissons Ratio (z) = 0.25696 0.31210
#
# Static dielectric constant tensor:
#      x y z
#    x 1.622410 0.000000 0.000000 
#    y 0.000000 1.649800 0.000000 
#    z 0.000000 0.000000 1.607710 
# 
# From -- ./inp_files/18175.got.cif
#   From: 2010.05.17/outbox.cif.g08.bks.cpg/sg38_10_cif.got.tgz:18175.got - 2010.06.03 18:07:57.
