data_PCOD9358175
_publ_section_title
;
Structure prediction by ZEFSAII (Michael W. Deem and Ramdas Pophale) SiO2 
 PCOD9358175
Probable space group: A M M 2
;
_chemical_formula_sum "Si O2"
_cell_formula_units_Z 64
_cell_length_a 7.831046
_cell_length_b 30.169098
_cell_length_c 12.688130
_cell_angle_alpha 90.000000
_cell_angle_beta 90.000000
_cell_angle_gamma 90.000000
_cell_volume 2997.641693
_symmetry_space_group_name_H-M "A M M 2"
_symmetry_group_IT_number 38
_symmetry_cell_setting 'orthorhombic'
loop_
_space_group_symop_operation_xyz
x,y,z
-x,-y,z
-x,y,z
x,-y,z
x,1/2+y,1/2+z
-x,1/2-y,1/2+z
-x,1/2+y,1/2+z
x,1/2-y,1/2+z
loop_
_atom_site_type_symbol
_atom_site_label
_atom_site_fract_x
_atom_site_fract_y
_atom_site_fract_z
Si Si1 0.692542 0.220448 0.301840
Si Si2 0.205209 0.453570 0.482665
Si Si3 0.301641 0.693040 0.199683
Si Si4 0.303702 0.078086 0.199557
Si Si5 0.804477 0.829746 0.109702
Si Si6 0.293920 0.652071 0.980939
Si Si7 0.206546 0.637790 0.385978
Si Si8 0.200369 0.050011 0.429471
O O1 0.500000 0.229664 0.340819
O O2 0.778277 0.267363 0.271377
O O3 0.691000 0.198837 0.186359
O O4 0.765418 0.183215 0.382129
O O5 0.242043 0.500000 0.429026
O O6 0.290361 0.451998 0.596813
O O7 0.259207 0.411535 0.416784
O O8 0.000000 0.450162 0.499040
O O9 0.500000 0.705365 0.181197
O O10 0.290286 0.652281 0.278843
O O11 0.231024 0.676873 0.087294
O O12 0.500000 0.091013 0.220187
O O13 0.202443 0.121461 0.161381
O O14 0.233570 0.055895 0.304427
O O15 0.000000 0.813786 0.111910
O O16 0.746711 0.833160 0.988994
O O17 0.500000 0.653351 0.980358
O O18 0.253906 0.599153 0.973802
O O19 0.000000 0.639466 0.376985
O O20 0.000000 0.047820 0.450271
O O21 0.270632 0.000000 0.459301
#
# Coordination Sequence:
#
# PCOD9358175 Si02
#       8
#     8   8   8   8   8   8   8   8
#     4  10  21  37  61  89 116 151 191 237 296 358
#     4   9  18  34  55  79 112 154 196 243 296 345
#     4  10  23  40  61  87 118 157 198 243 298 355
#     4  11  20  31  51  83 120 154 188 234 292 351
#     4  10  20  35  56  84 117 151 190 236 285 341
#     4  10  22  41  61  88 123 156 201 253 298 354
#     4   9  20  37  56  82 116 151 194 241 286 342
#     4  11  23  38  58  85 118 159 204 248 300 360
#
# _framework density 21.350114999999999
#
# number of rings (size 3 to 8) (size 9 to 14) (size 15 to 20)
#    0.000    2.000    1.250    3.000    1.750    6.250 
#    0.000    0.625    0.000    2.250    0.000    0.000 
#    0.000    0.000    0.000    0.000    0.000    0.000 
#
# Total GULP energy -178255.660171 kJ/mol
# GULP energy per Si atom -5570.489380 kJ/mol
# Density = 2.130152 g / cm^3
# Si number density = 21.350115 Si / 1000 Ang^3
#
#
#
# Elastic Constant Matrix: (Units=GPa)
#
#
# Indices 1 2 3 4 5 6 
#
# 1 34.4719 6.4522 10.0844 0.0000 0.0000 0.0000
# 2 6.4522 119.1705 53.1564 0.0000 0.0000 0.0000
# 3 10.0844 53.1564 101.5698 0.0000 0.0000 0.0000
# 4 0.0000 0.0000 0.0000 0.0874 0.0000 0.0000
# 5 0.0000 0.0000 0.0000 0.0000 28.6060 0.0000
# 6 0.0000 0.0000 0.0000 0.0000 0.0000 14.4824
#
#
#
# Elastic Compliance Matrix: (Units=1/GPa)
#
#
# Indices 1 2 3 4 5 6 
#
# 1 0.029890 -0.000384 -0.002767 0.000000 0.000000 0.000000
# 2 -0.000384 0.010952 -0.005693 0.000000 0.000000 0.000000
# 3 -0.002767 -0.005693 0.013100 0.000000 0.000000 0.000000
# 4 0.000000 0.000000 0.000000 11.439530 0.000000 0.000000
# 5 0.000000 0.000000 0.000000 0.000000 0.034958 0.000000
# 6 0.000000 0.000000 0.000000 0.000000 0.000000 0.069049
#
#
# Mechanical properties :
#
#
# Convention : Reuss Voigt Hill
#
# Bulk Modulus (GPa) = 27.58368 43.84423 35.71395
# Shear Modulus (GPa) = 0.43002 21.00311 10.71657
#
# Velocity S-wave (km/s) = 0.44928 3.13988 2.24284
# Velocity P-wave (km/s) = 3.63550 5.80737 4.84471
#
# Compressibility (1/GPa) = 0.03625332
#
# Stress axis : x y z
#
# Youngs Moduli (GPa) = 33.45560 91.31003 76.33729
#
# Poissons Ratio (x) = 0.03509 0.21119
# Poissons Ratio (y) = 0.01286 0.43462
# Poissons Ratio (z) = 0.09256 0.51986
#
# Static dielectric constant tensor:
#      x y z
#    x 1.755390 0.000000 0.000000 
#    y 0.000000 1.882420 0.000000 
#    z 0.000000 0.000000 1.739720 
# 
# From -- ./inp_files/8604.got.cif
#   From: 2010.05.17/outbox.cif.g08.bks.cpg/sg38_5_cif.got.tgz:8604.got - 2010.06.03 18:07:57.
