data_PCOD9358331
_publ_section_title
;
Structure prediction by ZEFSAII (Michael W. Deem and Ramdas Pophale) SiO2 
 PCOD9358331
Probable space group: A M M 2
;
_chemical_formula_sum "Si O2"
_cell_formula_units_Z 48
_cell_length_a 15.269663
_cell_length_b 9.191695
_cell_length_c 19.428708
_cell_angle_alpha 90.000000
_cell_angle_beta 90.000000
_cell_angle_gamma 90.000000
_cell_volume 2726.898535
_symmetry_space_group_name_H-M "A M M 2"
_symmetry_group_IT_number 38
_symmetry_cell_setting 'orthorhombic'
loop_
_space_group_symop_operation_xyz
x,y,z
-x,-y,z
-x,y,z
x,-y,z
x,1/2+y,1/2+z
-x,1/2-y,1/2+z
-x,1/2+y,1/2+z
x,1/2-y,1/2+z
loop_
_atom_site_type_symbol
_atom_site_label
_atom_site_fract_x
_atom_site_fract_y
_atom_site_fract_z
Si Si1 0.226297 0.170218 0.396110
Si Si2 0.699362 0.323920 0.529089
Si Si3 0.359006 0.841083 0.278291
Si Si4 0.896179 0.828856 0.784805
Si Si5 0.500000 0.824841 0.064113
Si Si6 0.201463 0.164923 0.169579
Si Si7 0.500000 0.165871 0.709248
O O1 0.248277 0.252018 0.466431
O O2 0.316042 0.175182 0.352283
O O3 0.154839 0.246238 0.346432
O O4 0.203693 0.000000 0.406378
O O5 0.700584 0.500000 0.523753
O O6 0.595489 0.280355 0.532850
O O7 0.752277 0.285087 0.599089
O O8 0.280390 0.844714 0.224000
O O9 0.418476 0.709058 0.256069
O O10 0.402763 0.000000 0.273791
O O11 0.867233 0.764369 0.710497
O O12 0.000000 0.811747 0.793431
O O13 0.873856 0.000000 0.787440
O O14 0.500000 0.766212 0.141949
O O15 0.500000 0.000000 0.064825
O O16 0.166800 0.000000 0.159354
O O17 0.500000 0.000000 0.687914
#
# Coordination Sequence:
#
# PCOD9358331 Si02
#       7
#     8   8   8   8   4   8   4
#     4  10  22  38  57  81 111 148 186 230 282 336
#     4  10  20  36  58  83 114 153 191 229 278 330
#     4   9  18  35  53  71 103 144 183 222 276 332
#     4  10  21  38  61  87 113 142 181 231 283 338
#     4  10  20  37  56  75 111 157 193 229 276 329
#     4   9  18  34  58  83 108 142 182 224 274 332
#     4  12  22  29  48  81 107 137 189 243 278 315
#
# _framework density 17.602414
#
# number of rings (size 3 to 8) (size 9 to 14) (size 15 to 20)
#    0.000    2.167    1.667    2.750    0.000    6.667 
#    0.000    2.500    0.000    1.000    0.000    0.000 
#    0.000    0.000    0.000    0.000    0.000    0.000 
#
# Total GULP energy -133675.174076 kJ/mol
# GULP energy per Si atom -5569.798920 kJ/mol
# Density = 1.756235 g / cm^3
# Si number density = 17.602414 Si / 1000 Ang^3
#
#
#
# Elastic Constant Matrix: (Units=GPa)
#
#
# Indices 1 2 3 4 5 6 
#
# 1 75.4955 43.1770 34.6049 0.0000 0.0000 0.0000
# 2 43.1770 55.9823 36.5798 0.0000 0.0000 0.0000
# 3 34.6049 36.5798 121.9760 0.0000 0.0000 0.0000
# 4 0.0000 0.0000 0.0000 23.4475 0.0000 0.0000
# 5 0.0000 0.0000 0.0000 0.0000 -14.0825 0.0000
# 6 0.0000 0.0000 0.0000 0.0000 0.0000 23.1762
#
#
#
# Elastic Compliance Matrix: (Units=1/GPa)
#
#
# Indices 1 2 3 4 5 6 
#
# 1 0.023936 -0.017442 -0.001560 0.000000 0.000000 0.000000
# 2 -0.017442 0.034925 -0.005526 0.000000 0.000000 0.000000
# 3 -0.001560 -0.005526 0.010298 0.000000 0.000000 0.000000
# 4 0.000000 0.000000 0.000000 0.042648 0.000000 0.000000
# 5 0.000000 0.000000 0.000000 0.000000 -0.071010 0.000000
# 6 0.000000 0.000000 0.000000 0.000000 0.000000 0.043148
#
#
# Mechanical properties :
#
#
# Convention : Reuss Voigt Hill
#
# Bulk Modulus (GPa) = 49.73942 53.57527 51.65735
# Shear Modulus (GPa) = 35.79048 15.78103 25.78575
#
# Velocity S-wave (km/s) = 4.51407 2.99745 3.83155
# Velocity P-wave (km/s) = 7.44900 6.51782 6.99892
#
# Compressibility (1/GPa) = 0.02010478
#
# Stress axis : x y z
#
# Youngs Moduli (GPa) = 41.77805 28.63247 97.10562
#
# Poissons Ratio (x) = 0.49939 0.15150
# Poissons Ratio (y) = 0.72867 0.53658
# Poissons Ratio (z) = 0.06518 0.15821
#
# Static dielectric constant tensor:
#      x y z
#    x 1.714370 0.000000 0.000000 
#    y 0.000000 1.623090 0.000000 
#    z 0.000000 0.000000 1.581540 
# 
# From -- ./inp_files/18177.got.cif
#   From: 2010.05.17/outbox.cif.g08.bks.cpg/sg38_10_cif.got.tgz:18177.got - 2010.06.03 18:07:57.
