data_PCOD9358648
_publ_section_title
;
Structure prediction by ZEFSAII (Michael W. Deem and Ramdas Pophale) SiO2 
 PCOD9358648
Probable space group: A M M 2
;
_chemical_formula_sum "Si O2"
_cell_formula_units_Z 56
_cell_length_a 18.608882
_cell_length_b 12.970937
_cell_length_c 12.760370
_cell_angle_alpha 90.000000
_cell_angle_beta 90.000000
_cell_angle_gamma 90.000000
_cell_volume 3080.029665
_symmetry_space_group_name_H-M "A M M 2"
_symmetry_group_IT_number 38
_symmetry_cell_setting 'orthorhombic'
loop_
_space_group_symop_operation_xyz
x,y,z
-x,-y,z
-x,y,z
x,-y,z
x,1/2+y,1/2+z
-x,1/2-y,1/2+z
-x,1/2+y,1/2+z
x,1/2-y,1/2+z
loop_
_atom_site_type_symbol
_atom_site_label
_atom_site_fract_x
_atom_site_fract_y
_atom_site_fract_z
Si Si1 0.416216 0.804624 0.792130
Si Si2 0.082488 0.376402 0.360148
Si Si3 0.920478 0.376680 0.604267
Si Si4 0.415898 0.617517 0.524344
Si Si5 0.682326 0.379579 0.865413
Si Si6 0.804628 0.262244 0.739340
Si Si7 0.324980 0.809220 0.601751
O O1 0.500000 0.793473 0.770050
O O2 0.407673 0.869506 0.898851
O O3 0.380649 0.693249 0.818497
O O4 0.375761 0.853775 0.693209
O O5 0.089951 0.500000 0.351244
O O6 0.089585 0.347771 0.482703
O O7 0.144620 0.319175 0.297684
O O8 0.000000 0.351006 0.328276
O O9 0.920720 0.500000 0.607645
O O10 0.857985 0.335190 0.676012
O O11 0.000000 0.340399 0.637466
O O12 0.500000 0.641206 0.548000
O O13 0.401213 0.500000 0.555289
O O14 0.362266 0.698974 0.575456
O O15 0.676758 0.500000 0.837186
O O16 0.754469 0.327138 0.818889
O O17 0.679737 0.367597 0.991627
O O18 0.751334 0.208497 0.656433
#
# Coordination Sequence:
#
# PCOD9358648 Si02
#       7
#     8   8   8   8   8   8   8
#     4   9  19  36  55  76 102 134 177 224 268 314
#     4   9  19  36  57  81 107 135 172 217 261 307
#     4   9  18  33  54  78 101 130 170 212 254 302
#     4   9  18  34  55  77 101 131 173 225 272 312
#     4  10  22  37  51  74 108 142 176 215 261 312
#     4  11  20  34  53  77 106 140 172 209 257 310
#     4  10  21  34  50  75 105 139 174 211 258 312
#
# _framework density 18.181643000000001
#
# number of rings (size 3 to 8) (size 9 to 14) (size 15 to 20)
#    0.000    2.429    0.000    3.000    0.000    4.857 
#    0.000    8.571    0.000    0.000    0.000    6.000 
#    0.000    0.000    0.000    0.000    0.000    0.000 
#
# Total GULP energy -156192.781331 kJ/mol
# GULP energy per Si atom -5578.313619 kJ/mol
# Density = 1.814026 g / cm^3
# Si number density = 18.181643 Si / 1000 Ang^3
#
#
#
# Elastic Constant Matrix: (Units=GPa)
#
#
# Indices 1 2 3 4 5 6 
#
# 1 114.3800 15.9930 35.6434 0.0000 0.0000 0.0000
# 2 15.9930 46.8944 -1.0901 0.0000 0.0000 0.0000
# 3 35.6434 -1.0901 74.0807 0.0000 0.0000 0.0000
# 4 0.0000 0.0000 0.0000 16.0304 0.0000 0.0000
# 5 0.0000 0.0000 0.0000 0.0000 39.3472 0.0000
# 6 0.0000 0.0000 0.0000 0.0000 0.0000 222.2533
#
#
#
# Elastic Compliance Matrix: (Units=1/GPa)
#
#
# Indices 1 2 3 4 5 6 
#
# 1 0.010940 -0.003855 -0.005320 0.000000 0.000000 0.000000
# 2 -0.003855 0.022690 0.002188 0.000000 0.000000 0.000000
# 3 -0.005320 0.002188 0.016091 0.000000 0.000000 0.000000
# 4 0.000000 0.000000 0.000000 0.062381 0.000000 0.000000
# 5 0.000000 0.000000 0.000000 0.000000 0.025415 0.000000
# 6 0.000000 0.000000 0.000000 0.000000 0.000000 0.004499
#
#
# Mechanical properties :
#
#
# Convention : Reuss Voigt Hill
#
# Bulk Modulus (GPa) = 27.97382 37.38308 32.67845
# Shear Modulus (GPa) = 29.77882 67.84676 48.81279
#
# Velocity S-wave (km/s) = 4.05143 6.11532 5.18706
# Velocity P-wave (km/s) = 6.10775 8.39454 7.34074
#
# Compressibility (1/GPa) = 0.03574771
#
# Stress axis : x y z
#
# Youngs Moduli (GPa) = 91.41052 44.07238 62.14733
#
# Poissons Ratio (x) = 0.16988 0.33064
# Poissons Ratio (y) = 0.35235 -0.13601
# Poissons Ratio (z) = 0.48633 -0.09645
#
# Static dielectric constant tensor:
#      x y z
#    x 1.599300 0.000000 0.000000 
#    y 0.000000 1.609290 0.000000 
#    z 0.000000 0.000000 1.637370 
# 
# From -- ./inp_files/10763.got.cif
#   From: 2010.05.17/outbox.cif.g08.bks.cpg/sg38_6_cif.got.tgz:10763.got - 2010.06.03 18:07:57.
