data_PCOD9358837
_publ_section_title
;
Structure prediction by ZEFSAII (Michael W. Deem and Ramdas Pophale) SiO2 
 PCOD9358837
Probable space group: A M M 2
;
_chemical_formula_sum "Si O2"
_cell_formula_units_Z 64
_cell_length_a 14.114995
_cell_length_b 9.033622
_cell_length_c 26.432809
_cell_angle_alpha 90.000000
_cell_angle_beta 90.000000
_cell_angle_gamma 90.000000
_cell_volume 3370.435035
_symmetry_space_group_name_H-M "A M M 2"
_symmetry_group_IT_number 38
_symmetry_cell_setting 'orthorhombic'
loop_
_space_group_symop_operation_xyz
x,y,z
-x,-y,z
-x,y,z
x,-y,z
x,1/2+y,1/2+z
-x,1/2-y,1/2+z
-x,1/2+y,1/2+z
x,1/2-y,1/2+z
loop_
_atom_site_type_symbol
_atom_site_label
_atom_site_fract_x
_atom_site_fract_y
_atom_site_fract_z
Si Si1 0.885159 0.168645 0.895610
Si Si2 0.387878 0.675909 0.342416
Si Si3 0.278130 0.677220 0.239485
Si Si4 0.286345 0.176644 0.041821
Si Si5 0.110742 0.823304 0.501032
Si Si6 0.614482 0.827518 0.446580
Si Si7 0.887707 0.175506 0.290159
Si Si8 0.610981 0.177651 0.147232
O O1 0.861075 0.259233 0.945894
O O2 0.859824 0.248353 0.843421
O O3 0.000000 0.161903 0.895445
O O4 0.848992 0.000000 0.897475
O O5 0.500000 0.705238 0.336166
O O6 0.376152 0.500000 0.350442
O O7 0.335741 0.716654 0.290685
O O8 0.354949 0.760373 0.392646
O O9 0.270918 0.500000 0.236824
O O10 0.175669 0.750667 0.247033
O O11 0.333398 0.740283 0.191583
O O12 0.342583 0.212418 0.093032
O O13 0.278290 0.000000 0.037503
O O14 0.182576 0.249629 0.040180
O O15 0.342311 0.240172 0.993608
O O16 0.000000 0.786515 0.509769
O O17 0.119891 0.000000 0.500939
O O18 0.500000 0.815850 0.448599
O O19 0.640614 0.000000 0.449782
O O20 0.000000 0.199752 0.282685
O O21 0.871220 0.000000 0.292960
O O22 0.500000 0.217488 0.147545
O O23 0.617979 0.000000 0.154609
#
# Coordination Sequence:
#
# PCOD9358837 Si02
#       8
#     8   8   8   8   8   8   8   8
#     4   9  17  31  53  81 115 156 199 242 290 346
#     4   9  19  36  56  81 116 154 190 233 292 360
#     4  11  23  38  61  90 119 154 199 249 304 359
#     4  11  23  39  62  88 117 155 200 247 299 357
#     4  10  21  37  57  84 120 159 200 247 298 352
#     4  10  21  36  56  85 119 154 193 240 296 356
#     4  10  21  37  57  83 119 162 205 249 297 350
#     4  10  23  44  67  90 117 153 199 249 301 359
#
# _framework density 18.988647
#
# number of rings (size 3 to 8) (size 9 to 14) (size 15 to 20)
#    0.000    2.000    0.000    3.000    1.750    7.000 
#    0.000    1.875    0.000    0.750    0.000    0.000 
#    0.000    0.000    0.000    0.000    0.000    0.000 
#
# Total GULP energy -178862.494305 kJ/mol
# GULP energy per Si atom -5589.452947 kJ/mol
# Density = 1.894543 g / cm^3
# Si number density = 18.988647 Si / 1000 Ang^3
#
#
#
# Elastic Constant Matrix: (Units=GPa)
#
#
# Indices 1 2 3 4 5 6 
#
# 1 97.1532 59.0181 65.7669 0.0000 0.0000 0.0000
# 2 59.0181 90.9504 74.5835 0.0000 0.0000 0.0000
# 3 65.7669 74.5835 127.2287 0.0000 0.0000 0.0000
# 4 0.0000 0.0000 0.0000 34.7696 0.0000 0.0000
# 5 0.0000 0.0000 0.0000 0.0000 38.0885 0.0000
# 6 0.0000 0.0000 0.0000 0.0000 0.0000 29.0182
#
#
#
# Elastic Compliance Matrix: (Units=1/GPa)
#
#
# Indices 1 2 3 4 5 6 
#
# 1 0.018420 -0.007981 -0.004843 0.000000 0.000000 0.000000
# 2 -0.007981 0.024632 -0.010314 0.000000 0.000000 0.000000
# 3 -0.004843 -0.010314 0.016409 0.000000 0.000000 0.000000
# 4 0.000000 0.000000 0.000000 0.028761 0.000000 0.000000
# 5 0.000000 0.000000 0.000000 0.000000 0.026255 0.000000
# 6 0.000000 0.000000 0.000000 0.000000 0.000000 0.034461
#
#
# Mechanical properties :
#
#
# Convention : Reuss Voigt Hill
#
# Bulk Modulus (GPa) = 75.84354 79.34103 77.59229
# Shear Modulus (GPa) = 25.04896 28.10618 26.57757
#
# Velocity S-wave (km/s) = 3.63596 3.85145 3.74526
# Velocity P-wave (km/s) = 7.59310 7.85190 7.72358
#
# Compressibility (1/GPa) = 0.01318504
#
# Stress axis : x y z
#
# Youngs Moduli (GPa) = 54.28959 40.59730 60.94075
#
# Poissons Ratio (x) = 0.32402 0.29512
# Poissons Ratio (y) = 0.43331 0.62854
# Poissons Ratio (z) = 0.26291 0.41872
#
# Static dielectric constant tensor:
#      x y z
#    x 1.701150 0.000000 0.000000 
#    y 0.000000 1.633860 0.000000 
#    z 0.000000 0.000000 1.615870 
# 
# From -- ./inp_files/22992.got.cif
#   From: 2010.05.17/outbox.cif.g08.bks.cpg/sg38_12_cif.got.tgz:22992.got - 2010.06.03 18:07:57.
