data_PCOD9358242
_publ_section_title
;
Structure prediction by ZEFSAII (Michael W. Deem and Ramdas Pophale) SiO2 
 PCOD9358242
Probable space group: A M M 2
;
_chemical_formula_sum "Si O2"
_cell_formula_units_Z 64
_cell_length_a 24.604779
_cell_length_b 8.813390
_cell_length_c 15.526125
_cell_angle_alpha 90.000000
_cell_angle_beta 90.000000
_cell_angle_gamma 90.000000
_cell_volume 3366.863700
_symmetry_space_group_name_H-M "A M M 2"
_symmetry_group_IT_number 38
_symmetry_cell_setting 'orthorhombic'
loop_
_space_group_symop_operation_xyz
x,y,z
-x,-y,z
-x,y,z
x,-y,z
x,1/2+y,1/2+z
-x,1/2-y,1/2+z
-x,1/2+y,1/2+z
x,1/2-y,1/2+z
loop_
_atom_site_type_symbol
_atom_site_label
_atom_site_fract_x
_atom_site_fract_y
_atom_site_fract_z
Si Si1 0.644838 0.316934 0.516320
Si Si2 0.437519 0.816898 0.864960
Si Si3 0.140019 0.681330 0.789520
Si Si4 0.872493 0.318970 0.467397
Si Si5 0.760696 0.176037 0.527438
Si Si6 0.938231 0.315199 0.635210
Si Si7 0.251524 0.175929 0.734414
Si Si8 0.366967 0.681250 0.716021
O O1 0.650777 0.500000 0.514233
O O2 0.600211 0.271587 0.445866
O O3 0.703099 0.242367 0.497102
O O4 0.628702 0.275146 0.614746
O O5 0.500000 0.769961 0.876674
O O6 0.412390 0.751344 0.777414
O O7 0.435915 0.000000 0.860533
O O8 0.143680 0.500000 0.787146
O O9 0.114761 0.737523 0.878338
O O10 0.102559 0.734319 0.710337
O O11 0.200284 0.749244 0.780469
O O12 0.875102 0.500000 0.457401
O O13 0.811694 0.270820 0.494415
O O14 0.912855 0.271372 0.543738
O O15 0.759610 0.184097 0.631606
O O16 0.766488 0.000000 0.501990
O O17 0.938791 0.500000 0.637309
O O18 0.000000 0.262742 0.646627
O O19 0.308389 0.259979 0.748565
O O20 0.256659 0.000000 0.759279
O O21 0.368796 0.500000 0.720745
#
# Coordination Sequence:
#
# PCOD9358242 Si02
#       8
#     8   8   8   8   8   8   8   8
#     4   9  20  38  59  83 114 154 196 236 288 352
#     4  10  22  40  60  83 115 156 199 242 291 351
#     4  11  22  37  59  88 119 154 197 244 295 349
#     4  11  22  37  59  87 119 157 197 239 294 354
#     4  10  20  35  58  87 120 152 192 244 295 349
#     4   9  20  40  63  85 116 159 202 244 291 349
#     4  10  20  36  59  86 120 156 193 240 297 356
#     4  10  21  37  59  87 117 151 194 243 293 347
#
# _framework density 19.008789
#
# number of rings (size 3 to 8) (size 9 to 14) (size 15 to 20)
#    0.000    2.000    1.250    1.875    1.750    3.250 
#    0.000    1.250    0.000    5.250    0.000    0.000 
#    0.000    0.000    0.000    0.000    0.000    0.000 
#
# Total GULP energy -178778.785891 kJ/mol
# GULP energy per Si atom -5586.837059 kJ/mol
# Density = 1.896552 g / cm^3
# Si number density = 19.008789 Si / 1000 Ang^3
#
#
#
# Elastic Constant Matrix: (Units=GPa)
#
#
# Indices 1 2 3 4 5 6 
#
# 1 66.5817 -0.8842 2.0815 0.0000 0.0000 0.0000
# 2 -0.8842 20.3399 0.1744 0.0000 0.0000 0.0000
# 3 2.0815 0.1744 34.9571 0.0000 0.0000 0.0000
# 4 0.0000 0.0000 0.0000 30.0439 0.0000 0.0000
# 5 0.0000 0.0000 0.0000 0.0000 8.3079 0.0000
# 6 0.0000 0.0000 0.0000 0.0000 0.0000 15.8600
#
#
#
# Elastic Compliance Matrix: (Units=1/GPa)
#
#
# Indices 1 2 3 4 5 6 
#
# 1 0.015056 0.000662 -0.000900 0.000000 0.000000 0.000000
# 2 0.000662 0.049196 -0.000285 0.000000 0.000000 0.000000
# 3 -0.000900 -0.000285 0.028662 0.000000 0.000000 0.000000
# 4 0.000000 0.000000 0.000000 0.033285 0.000000 0.000000
# 5 0.000000 0.000000 0.000000 0.000000 0.120367 0.000000
# 6 0.000000 0.000000 0.000000 0.000000 0.000000 0.063052
#
#
# Mechanical properties :
#
#
# Convention : Reuss Voigt Hill
#
# Bulk Modulus (GPa) = 10.88512 13.84688 12.36600
# Shear Modulus (GPa) = 14.65052 18.87616 16.76334
#
# Velocity S-wave (km/s) = 2.77920 3.15465 2.97286
# Velocity P-wave (km/s) = 4.00467 4.53534 4.27824
#
# Compressibility (1/GPa) = 0.09186850
#
# Stress axis : x y z
#
# Youngs Moduli (GPa) = 66.41839 20.32697 34.88998
#
# Poissons Ratio (x) = -0.01346 0.03139
# Poissons Ratio (y) = -0.04398 0.00994
# Poissons Ratio (z) = 0.05976 0.00579
#
# Static dielectric constant tensor:
#      x y z
#    x 1.624780 0.000000 0.000000 
#    y 0.000000 1.639480 0.000000 
#    z 0.000000 0.000000 1.673100 
# 
# From -- ./inp_files/15819.got.cif
#   From: 2010.05.17/outbox.cif.g08.bks.cpg/sg38_8_cif.got.tgz:15819.got - 2010.06.03 18:07:57.
