data_PCOD9358221
_publ_section_title
;
Structure prediction by ZEFSAII (Michael W. Deem and Ramdas Pophale) SiO2 
 PCOD9358221
Probable space group: A M M 2
;
_chemical_formula_sum "Si O2"
_cell_formula_units_Z 64
_cell_length_a 13.948763
_cell_length_b 16.233228
_cell_length_c 14.732327
_cell_angle_alpha 90.000000
_cell_angle_beta 90.000000
_cell_angle_gamma 90.000000
_cell_volume 3335.891631
_symmetry_space_group_name_H-M "A M M 2"
_symmetry_group_IT_number 38
_symmetry_cell_setting 'orthorhombic'
loop_
_space_group_symop_operation_xyz
x,y,z
-x,-y,z
-x,y,z
x,-y,z
x,1/2+y,1/2+z
-x,1/2-y,1/2+z
-x,1/2+y,1/2+z
x,1/2-y,1/2+z
loop_
_atom_site_type_symbol
_atom_site_label
_atom_site_fract_x
_atom_site_fract_y
_atom_site_fract_z
Si Si1 0.794784 0.675245 0.191610
Si Si2 0.885291 0.098016 0.510490
Si Si3 0.608541 0.738313 0.401802
Si Si4 0.741241 0.092803 0.861176
Si Si5 0.891305 0.399627 0.510394
Si Si6 0.794855 0.824715 0.329369
Si Si7 0.741469 0.592809 0.659772
Si Si8 0.391434 0.238231 0.119142
O O1 0.850290 0.646802 0.101339
O O2 0.780707 0.599632 0.259904
O O3 0.829452 0.749970 0.260486
O O4 0.688612 0.702503 0.160487
O O5 0.850354 0.146846 0.419647
O O6 0.000000 0.097857 0.510523
O O7 0.854318 0.000000 0.510461
O O8 0.500000 0.752891 0.371388
O O9 0.648424 0.648593 0.375142
O O10 0.688664 0.797512 0.360487
O O11 0.611063 0.745118 0.510475
O O12 0.721055 0.000000 0.888088
O O13 0.826973 0.125828 0.925165
O O14 0.897065 0.500000 0.510360
O O15 0.827224 0.374187 0.595798
O O16 0.000000 0.368175 0.510289
O O17 0.780856 0.900332 0.261066
O O18 0.721316 0.500000 0.632869
O O19 0.648623 0.648554 0.645740
O O20 0.500000 0.252674 0.149570
#
# Coordination Sequence:
#
# PCOD9358221 Si02
#       8
#     8   8   8   8   8   8   8   8
#     4  10  22  39  62  87 118 158 201 243 291 355
#     4  11  24  43  65  90 123 161 200 249 306 354
#     4  10  20  37  60  82 111 154 195 234 290 356
#     4  10  20  35  57  88 118 148 192 243 295 349
#     4   9  18  33  53  78 112 147 178 222 283 342
#     4  10  22  39  62  87 118 158 201 243 291 355
#     4  10  20  35  57  88 118 148 192 243 295 349
#     4  10  20  37  60  82 111 154 195 234 290 356
#
# _framework density 19.185276000000002
#
# number of rings (size 3 to 8) (size 9 to 14) (size 15 to 20)
#    0.000    2.000    2.500    0.750    0.000    6.500 
#    0.000   12.500    0.000    3.000    0.000    0.000 
#    0.000    0.000    0.000    0.000    0.000    0.000 
#
# Total GULP energy -178313.788069 kJ/mol
# GULP energy per Si atom -5572.305877 kJ/mol
# Density = 1.914161 g / cm^3
# Si number density = 19.185276 Si / 1000 Ang^3
#
#
#
# Elastic Constant Matrix: (Units=GPa)
#
#
# Indices 1 2 3 4 5 6 
#
# 1 105.5925 39.8637 46.4076 0.0000 0.0000 0.0000
# 2 39.8637 70.3250 34.5600 0.0000 0.0000 0.0000
# 3 46.4076 34.5600 152.3012 0.0000 0.0000 0.0000
# 4 0.0000 0.0000 0.0000 12.7381 0.0000 0.0000
# 5 0.0000 0.0000 0.0000 0.0000 -6.8445 0.0000
# 6 0.0000 0.0000 0.0000 0.0000 0.0000 21.2649
#
#
#
# Elastic Compliance Matrix: (Units=1/GPa)
#
#
# Indices 1 2 3 4 5 6 
#
# 1 0.012873 -0.006043 -0.002551 0.000000 0.000000 0.000000
# 2 -0.006043 0.018842 -0.002434 0.000000 0.000000 0.000000
# 3 -0.002551 -0.002434 0.007896 0.000000 0.000000 0.000000
# 4 0.000000 0.000000 0.000000 0.078505 0.000000 0.000000
# 5 0.000000 0.000000 0.000000 0.000000 -0.146103 0.000000
# 6 0.000000 0.000000 0.000000 0.000000 0.000000 0.047026
#
#
# Mechanical properties :
#
#
# Convention : Reuss Voigt Hill
#
# Bulk Modulus (GPa) = 56.97005 63.32015 60.14510
# Shear Modulus (GPa) = 106.50567 19.25753 62.88160
#
# Velocity S-wave (km/s) = 7.45887 3.17166 5.73124
# Velocity P-wave (km/s) = 10.19504 6.81827 8.67259
#
# Compressibility (1/GPa) = 0.01755308
#
# Stress axis : x y z
#
# Youngs Moduli (GPa) = 77.68117 53.07422 126.65220
#
# Poissons Ratio (x) = 0.32075 0.32312
# Poissons Ratio (y) = 0.46946 0.30828
# Poissons Ratio (z) = 0.19818 0.12918
#
# Static dielectric constant tensor:
#      x y z
#    x 1.639590 0.000000 0.000000 
#    y 0.000000 1.695290 0.000000 
#    z 0.000000 0.000000 1.709230 
# 
# From -- ./inp_files/13975.got.cif
#   From: 2010.05.17/outbox.cif.g08.bks.cpg/sg38_7_cif.got.tgz:13975.got - 2010.06.03 18:07:57.
