data_PCOD9358306
_publ_section_title
;
Structure prediction by ZEFSAII (Michael W. Deem and Ramdas Pophale) SiO2 
 PCOD9358306
Probable space group: A M M 2
;
_chemical_formula_sum "Si O2"
_cell_formula_units_Z 64
_cell_length_a 19.432627
_cell_length_b 7.689849
_cell_length_c 20.614997
_cell_angle_alpha 90.000000
_cell_angle_beta 90.000000
_cell_angle_gamma 90.000000
_cell_volume 3080.580788
_symmetry_space_group_name_H-M "A M M 2"
_symmetry_group_IT_number 38
_symmetry_cell_setting 'orthorhombic'
loop_
_space_group_symop_operation_xyz
x,y,z
-x,-y,z
-x,y,z
x,-y,z
x,1/2+y,1/2+z
-x,1/2-y,1/2+z
-x,1/2+y,1/2+z
x,1/2-y,1/2+z
loop_
_atom_site_type_symbol
_atom_site_label
_atom_site_fract_x
_atom_site_fract_y
_atom_site_fract_z
Si Si1 0.184119 0.203705 0.846910
Si Si2 0.657017 0.709463 0.052136
Si Si3 0.921268 0.709962 0.240686
Si Si4 0.667720 0.292993 0.806181
Si Si5 0.921370 0.208655 0.094540
Si Si6 0.806203 0.291002 0.495070
Si Si7 0.579426 0.790376 0.679770
Si Si8 0.577540 0.787341 0.425888
O O1 0.125762 0.277826 0.799267
O O2 0.256010 0.217775 0.808787
O O3 0.167895 0.000000 0.855224
O O4 0.192026 0.275681 0.920400
O O5 0.654386 0.500000 0.054323
O O6 0.734346 0.754327 0.031226
O O7 0.625549 0.774315 0.119588
O O8 0.606919 0.768768 0.994639
O O9 0.921820 0.500000 0.244232
O O10 0.896705 0.754418 0.167945
O O11 0.000000 0.772140 0.246228
O O12 0.675326 0.500000 0.811205
O O13 0.620567 0.253445 0.744743
O O14 0.627754 0.227382 0.869505
O O15 0.869028 0.274599 0.039763
O O16 0.000000 0.275439 0.088322
O O17 0.924301 0.000000 0.087904
O O18 0.811702 0.500000 0.491784
O O19 0.500000 0.727045 0.679477
O O20 0.575788 0.000000 0.675074
O O21 0.500000 0.729564 0.414838
O O22 0.577442 0.000000 0.425052
#
# Coordination Sequence:
#
# PCOD9358306 Si02
#       8
#     8   8   8   8   8   8   8   8
#     4  10  21  37  56  80 113 148 184 228 275 327
#     4  10  20  36  57  80 107 143 184 225 269 325
#     4   9  19  36  58  83 109 142 185 229 271 320
#     4  11  22  36  56  82 112 146 184 228 274 327
#     4   9  19  36  57  82 112 146 182 221 270 326
#     4  10  21  36  55  81 113 146 181 226 274 322
#     4  10  22  39  58  81 110 144 183 229 281 333
#     4   9  17  32  55  79 102 134 179 224 265 313
#
# _framework density 20.775303000000001
#
# number of rings (size 3 to 8) (size 9 to 14) (size 15 to 20)
#    0.000    2.250    1.250    1.125    1.750    4.250 
#    0.000    2.500    0.000    1.875    0.000    5.250 
#    0.000    0.000    0.000    0.000    0.000    0.000 
#
# Total GULP energy -178628.788860 kJ/mol
# GULP energy per Si atom -5582.149652 kJ/mol
# Density = 2.072802 g / cm^3
# Si number density = 20.775303 Si / 1000 Ang^3
#
#
#
# Elastic Constant Matrix: (Units=GPa)
#
#
# Indices 1 2 3 4 5 6 
#
# 1 86.1366 -7.3236 34.9330 0.0000 0.0000 0.0000
# 2 -7.3236 35.2732 -2.6730 0.0000 0.0000 0.0000
# 3 34.9330 -2.6730 107.4095 0.0000 0.0000 0.0000
# 4 0.0000 0.0000 0.0000 19.8986 0.0000 0.0000
# 5 0.0000 0.0000 0.0000 0.0000 43.3424 0.0000
# 6 0.0000 0.0000 0.0000 0.0000 0.0000 17.6390
#
#
#
# Elastic Compliance Matrix: (Units=1/GPa)
#
#
# Indices 1 2 3 4 5 6 
#
# 1 0.013588 0.002491 -0.004357 0.000000 0.000000 0.000000
# 2 0.002491 0.028860 -0.000092 0.000000 0.000000 0.000000
# 3 -0.004357 -0.000092 0.010725 0.000000 0.000000 0.000000
# 4 0.000000 0.000000 0.000000 0.050255 0.000000 0.000000
# 5 0.000000 0.000000 0.000000 0.000000 0.023072 0.000000
# 6 0.000000 0.000000 0.000000 0.000000 0.000000 0.056692
#
#
# Mechanical properties :
#
#
# Convention : Reuss Voigt Hill
#
# Bulk Modulus (GPa) = 20.30152 30.96576 25.63364
# Shear Modulus (GPa) = 24.56655 29.76820 27.16738
#
# Velocity S-wave (km/s) = 3.44246 3.78943 3.62010
# Velocity P-wave (km/s) = 5.05904 5.83813 5.46249
#
# Compressibility (1/GPa) = 0.04925738
#
# Stress axis : x y z
#
# Youngs Moduli (GPa) = 73.59204 34.64953 93.23979
#
# Poissons Ratio (x) = -0.08632 0.40628
# Poissons Ratio (y) = -0.18332 0.00857
# Poissons Ratio (z) = 0.32067 0.00319
#
# Static dielectric constant tensor:
#      x y z
#    x 1.719090 0.000000 0.000000 
#    y 0.000000 1.785340 0.000000 
#    z 0.000000 0.000000 1.732510 
# 
# From -- ./inp_files/18988.got.cif
#   From: 2010.05.17/outbox.cif.g08.bks.cpg/sg38_10_cif.got.tgz:18988.got - 2010.06.03 18:07:57.
