data_PCOD9358480
_publ_section_title
;
Structure prediction by ZEFSAII (Michael W. Deem and Ramdas Pophale) SiO2 
 PCOD9358480
Probable space group: A M M 2
;
_chemical_formula_sum "Si O2"
_cell_formula_units_Z 58
_cell_length_a 21.624777
_cell_length_b 8.953179
_cell_length_c 16.372523
_cell_angle_alpha 90.000000
_cell_angle_beta 90.000000
_cell_angle_gamma 90.000000
_cell_volume 3169.892353
_symmetry_space_group_name_H-M "A M M 2"
_symmetry_group_IT_number 38
_symmetry_cell_setting 'orthorhombic'
loop_
_space_group_symop_operation_xyz
x,y,z
-x,-y,z
-x,y,z
x,-y,z
x,1/2+y,1/2+z
-x,1/2-y,1/2+z
-x,1/2+y,1/2+z
x,1/2-y,1/2+z
loop_
_atom_site_type_symbol
_atom_site_label
_atom_site_fract_x
_atom_site_fract_y
_atom_site_fract_z
Si Si1 0.372298 0.833897 0.899690
Si Si2 0.807577 0.176106 0.489285
Si Si3 0.810313 0.674618 0.318129
Si Si4 0.317428 0.176595 0.732599
Si Si5 0.069860 0.824163 0.244371
Si Si6 0.070102 0.824956 0.047642
Si Si7 0.500000 0.000000 0.904657
Si Si8 0.308472 0.678937 0.563631
O O1 0.353142 0.764570 0.813240
O O2 0.340400 0.000000 0.896024
O O3 0.444531 0.872306 0.904117
O O4 0.347241 0.767408 0.984054
O O5 0.793300 0.230967 0.397946
O O6 0.877519 0.224608 0.508132
O O7 0.760830 0.262370 0.548864
O O8 0.799465 0.000000 0.498182
O O9 0.813605 0.500000 0.339823
O O10 0.755366 0.693446 0.252774
O O11 0.875757 0.730230 0.284337
O O12 0.333016 0.257777 0.648769
O O13 0.331097 0.000000 0.722739
O O14 0.073427 0.811076 0.146010
O O15 0.000000 0.779955 0.268936
O O16 0.077915 0.000000 0.264255
O O17 0.000000 0.786402 0.022710
O O18 0.080766 0.000000 0.027851
O O19 0.309979 0.500000 0.567063
#
# Coordination Sequence:
#
# PCOD9358480 Si02
#       8
#     8   8   8   8   8   8   2   8
#     4   8  17  36  61  87 121 159 201 229 289 351
#     4  12  24  36  54  82 113 154 200 254 310 360
#     4  11  22  36  55  78 110 152 197 251 302 364
#     4  10  20  37  59  88 123 156 199 249 297 355
#     4   9  19  36  55  76 106 143 189 247 307 369
#     4   9  19  37  58  78 106 147 195 249 310 372
#     4   8  16  36  72  88 122 174 202 232 290 356
#     4  11  21  37  60  89 123 160 199 251 299 356
#
# _framework density 18.297150999999999
#
# number of rings (size 3 to 8) (size 9 to 14) (size 15 to 20)
#    0.414    1.655    1.379    3.724    0.000    4.966 
#    0.000    2.069    0.000    0.000    0.000    1.931 
#    0.000    0.000    0.000    0.000    0.000    0.000 
#
# Total GULP energy -161462.808442 kJ/mol
# GULP energy per Si atom -5567.683050 kJ/mol
# Density = 1.825551 g / cm^3
# Si number density = 18.297151 Si / 1000 Ang^3
#
#
#
# Elastic Constant Matrix: (Units=GPa)
#
#
# Indices 1 2 3 4 5 6 
#
# 1 95.1315 29.6513 36.3970 0.0000 0.0000 0.0000
# 2 29.6513 51.3382 37.9754 0.0000 0.0000 0.0000
# 3 36.3970 37.9754 113.1140 0.0000 0.0000 0.0000
# 4 0.0000 0.0000 0.0000 25.0521 0.0000 0.0000
# 5 0.0000 0.0000 0.0000 0.0000 4.9678 0.0000
# 6 0.0000 0.0000 0.0000 0.0000 0.0000 12.3316
#
#
#
# Elastic Compliance Matrix: (Units=1/GPa)
#
#
# Indices 1 2 3 4 5 6 
#
# 1 0.013237 -0.005980 -0.002252 0.000000 0.000000 0.000000
# 2 -0.005980 0.028615 -0.007683 0.000000 0.000000 0.000000
# 3 -0.002252 -0.007683 0.012145 0.000000 0.000000 0.000000
# 4 0.000000 0.000000 0.000000 0.039917 0.000000 0.000000
# 5 0.000000 0.000000 0.000000 0.000000 0.201296 0.000000
# 6 0.000000 0.000000 0.000000 0.000000 0.000000 0.081093
#
#
# Mechanical properties :
#
#
# Convention : Reuss Voigt Hill
#
# Bulk Modulus (GPa) = 45.10922 51.95903 48.53412
# Shear Modulus (GPa) = 12.03309 18.84095 15.43702
#
# Velocity S-wave (km/s) = 2.56725 3.21241 2.90778
# Velocity P-wave (km/s) = 5.78748 6.49757 6.15277
#
# Compressibility (1/GPa) = 0.02216842
#
# Stress axis : x y z
#
# Youngs Moduli (GPa) = 75.54542 34.94619 82.34137
#
# Poissons Ratio (x) = 0.20896 0.18542
# Poissons Ratio (y) = 0.45173 0.63262
# Poissons Ratio (z) = 0.17011 0.26849
#
# Static dielectric constant tensor:
#      x y z
#    x 1.614530 0.000000 0.000000 
#    y 0.000000 1.627750 0.000000 
#    z 0.000000 0.000000 1.667000 
# 
# From -- ./inp_files/15646.got.cif
#   From: 2010.05.17/outbox.cif.g08.bks.cpg/sg38_8_cif.got.tgz:15646.got - 2010.06.03 18:07:57.
