data_PCOD9358365
_publ_section_title
;
Structure prediction by ZEFSAII (Michael W. Deem and Ramdas Pophale) SiO2 
 PCOD9358365
Probable space group: A M M 2
;
_chemical_formula_sum "Si O2"
_cell_formula_units_Z 64
_cell_length_a 33.614890
_cell_length_b 10.829634
_cell_length_c 9.065033
_cell_angle_alpha 90.000000
_cell_angle_beta 90.000000
_cell_angle_gamma 90.000000
_cell_volume 3300.007016
_symmetry_space_group_name_H-M "A M M 2"
_symmetry_group_IT_number 38
_symmetry_cell_setting 'orthorhombic'
loop_
_space_group_symop_operation_xyz
x,y,z
-x,-y,z
-x,y,z
x,-y,z
x,1/2+y,1/2+z
-x,1/2-y,1/2+z
-x,1/2+y,1/2+z
x,1/2-y,1/2+z
loop_
_atom_site_type_symbol
_atom_site_label
_atom_site_fract_x
_atom_site_fract_y
_atom_site_fract_z
Si Si1 0.546762 0.638088 0.887000
Si Si2 0.849036 0.640283 0.539790
Si Si3 0.324518 0.143905 0.041642
Si Si4 0.784616 0.359617 0.045442
Si Si5 0.097975 0.227461 0.774724
Si Si6 0.044875 0.858633 0.513828
Si Si7 0.414663 0.644951 0.568117
Si Si8 0.730789 0.748736 0.793231
O O1 0.500000 0.644050 0.849359
O O2 0.553675 0.500000 0.954102
O O3 0.572645 0.644468 0.738615
O O4 0.558120 0.755475 0.985298
O O5 0.833448 0.500000 0.551987
O O6 0.816868 0.750064 0.542837
O O7 0.877841 0.671468 0.678262
O O8 0.872459 0.655311 0.384672
O O9 0.299665 0.181291 0.898906
O O10 0.330490 0.000000 0.041670
O O11 0.369354 0.193842 0.050228
O O12 0.296640 0.176984 0.178585
O O13 0.800426 0.500000 0.044290
O O14 0.757456 0.336128 0.900763
O O15 0.758714 0.336249 0.193198
O O16 0.073899 0.150579 0.653885
O O17 0.065340 0.285167 0.882572
O O18 0.000000 0.814465 0.547511
O O19 0.042556 0.000000 0.468144
O O20 0.418434 0.500000 0.517511
#
# Coordination Sequence:
#
# PCOD9358365 Si02
#       8
#     8   8   8   8   8   8   8   8
#     4  10  21  37  56  81 115 152 190 234 283 335
#     4  11  24  40  60  85 116 154 193 236 285 337
#     4  10  20  37  59  83 113 148 185 230 284 339
#     4  11  24  40  60  87 116 149 192 238 284 338
#     4  10  22  38  58  84 117 149 190 235 281 334
#     4  10  20  36  59  85 114 149 188 231 280 334
#     4  10  21  37  59  86 114 147 190 236 282 337
#     4  10  22  38  59  84 115 149 186 231 285 342
#
# _framework density 19.393898
#
# number of rings (size 3 to 8) (size 9 to 14) (size 15 to 20)
#    0.000    1.750    0.000    3.750    0.000    9.250 
#    0.000    3.125    0.000    6.000    0.000    0.000 
#    0.000    0.000    0.000    0.000    0.000    0.000 
#
# Total GULP energy -178532.775677 kJ/mol
# GULP energy per Si atom -5579.149240 kJ/mol
# Density = 1.934976 g / cm^3
# Si number density = 19.393898 Si / 1000 Ang^3
#
#
#
# Elastic Constant Matrix: (Units=GPa)
#
#
# Indices 1 2 3 4 5 6 
#
# 1 78.0163 26.7016 3.5236 0.0000 0.0000 0.0000
# 2 26.7016 106.6606 13.9532 0.0000 0.0000 0.0000
# 3 3.5236 13.9532 69.8037 0.0000 0.0000 0.0000
# 4 0.0000 0.0000 0.0000 23.2141 0.0000 0.0000
# 5 0.0000 0.0000 0.0000 0.0000 24.3665 0.0000
# 6 0.0000 0.0000 0.0000 0.0000 0.0000 30.3110
#
#
#
# Elastic Compliance Matrix: (Units=1/GPa)
#
#
# Indices 1 2 3 4 5 6 
#
# 1 0.014019 -0.003509 -0.000006 0.000000 0.000000 0.000000
# 2 -0.003509 0.010505 -0.001923 0.000000 0.000000 0.000000
# 3 -0.000006 -0.001923 0.014711 0.000000 0.000000 0.000000
# 4 0.000000 0.000000 0.000000 0.043077 0.000000 0.000000
# 5 0.000000 0.000000 0.000000 0.000000 0.041040 0.000000
# 6 0.000000 0.000000 0.000000 0.000000 0.000000 0.032991
#
#
# Mechanical properties :
#
#
# Convention : Reuss Voigt Hill
#
# Bulk Modulus (GPa) = 35.26179 38.09303 36.67741
# Shear Modulus (GPa) = 28.30095 29.59845 28.94970
#
# Velocity S-wave (km/s) = 3.82418 3.91086 3.86777
# Velocity P-wave (km/s) = 6.14171 6.33068 6.23691
#
# Compressibility (1/GPa) = 0.02835931
#
# Stress axis : x y z
#
# Youngs Moduli (GPa) = 71.33175 95.18864 67.97838
#
# Poissons Ratio (x) = 0.33399 0.00043
# Poissons Ratio (y) = 0.25028 0.13071
# Poissons Ratio (z) = 0.00045 0.18303
#
# Static dielectric constant tensor:
#      x y z
#    x 1.696460 0.000000 0.000000 
#    y 0.000000 1.667000 0.000000 
#    z 0.000000 0.000000 1.660040 
# 
# From -- ./inp_files/7049.got.cif
#   From: 2010.05.17/outbox.cif.g08.bks.cpg/sg38_4_cif.got.tgz:7049.got - 2010.06.03 18:07:57.
