data_PCOD9358423
_publ_section_title
;
Structure prediction by ZEFSAII (Michael W. Deem and Ramdas Pophale) SiO2 
 PCOD9358423
Probable space group: A M M 2
;
_chemical_formula_sum "Si O2"
_cell_formula_units_Z 64
_cell_length_a 8.201384
_cell_length_b 24.542901
_cell_length_c 15.855908
_cell_angle_alpha 90.000000
_cell_angle_beta 90.000000
_cell_angle_gamma 90.000000
_cell_volume 3191.568422
_symmetry_space_group_name_H-M "A M M 2"
_symmetry_group_IT_number 38
_symmetry_cell_setting 'orthorhombic'
loop_
_space_group_symop_operation_xyz
x,y,z
-x,-y,z
-x,y,z
x,-y,z
x,1/2+y,1/2+z
-x,1/2-y,1/2+z
-x,1/2+y,1/2+z
x,1/2-y,1/2+z
loop_
_atom_site_type_symbol
_atom_site_label
_atom_site_fract_x
_atom_site_fract_y
_atom_site_fract_z
Si Si1 0.800882 0.630682 0.943300
Si Si2 0.199334 0.937694 0.281463
Si Si3 0.808402 0.250839 0.388583
Si Si4 0.197036 0.869544 0.630915
Si Si5 0.309941 0.254774 0.199523
Si Si6 0.191433 0.642682 0.632599
Si Si7 0.197374 0.937478 0.792839
Si Si8 0.689482 0.133938 0.950934
O O1 0.747117 0.591474 0.867840
O O2 0.750383 0.692841 0.924148
O O3 0.000000 0.630630 0.941608
O O4 0.748546 0.614236 0.037099
O O5 0.249016 0.900864 0.202005
O O6 0.000000 0.938298 0.281780
O O7 0.254394 0.000000 0.275739
O O8 0.785429 0.250189 0.287815
O O9 0.719141 0.303192 0.425729
O O10 0.000000 0.256788 0.408553
O O11 0.250615 0.808039 0.650464
O O12 0.254429 0.907976 0.707036
O O13 0.000000 0.870822 0.631428
O O14 0.500000 0.260732 0.219604
O O15 0.280540 0.200001 0.146949
O O16 0.217420 0.622588 0.537798
O O17 0.000000 0.652616 0.647451
O O18 0.252225 0.902808 0.873217
O O19 0.000000 0.937242 0.791624
O O20 0.252400 0.000000 0.797222
O O21 0.500000 0.124491 0.965677
#
# Coordination Sequence:
#
# PCOD9358423 Si02
#       8
#     8   8   8   8   8   8   8   8
#     4   9  18  33  57  90 119 150 191 236 292 349
#     4   9  18  34  58  88 118 149 194 250 296 339
#     4  11  20  36  61  88 121 160 197 239 296 366
#     4  10  20  36  61  89 121 158 197 245 297 358
#     4  12  23  36  58  89 123 158 197 247 302 359
#     4  11  22  39  62  88 120 160 201 245 298 365
#     4  10  22  40  61  86 118 161 211 255 297 354
#     4  12  25  40  60  90 122 156 198 251 312 366
#
# _framework density 20.052835999999999
#
# number of rings (size 3 to 8) (size 9 to 14) (size 15 to 20)
#    0.000    1.500    2.500    3.750    0.000    2.250 
#    0.000    4.375    0.000    1.125    0.000    0.000 
#    0.000    0.000    0.000    0.000    0.000    0.000 
#
# Total GULP energy -178878.485121 kJ/mol
# GULP energy per Si atom -5589.952660 kJ/mol
# Density = 2.000719 g / cm^3
# Si number density = 20.052836 Si / 1000 Ang^3
#
#
#
# Elastic Constant Matrix: (Units=GPa)
#
#
# Indices 1 2 3 4 5 6 
#
# 1 19.1254 1.5528 -5.7188 0.0000 0.0000 0.0000
# 2 1.5528 125.6913 62.3649 0.0000 0.0000 0.0000
# 3 -5.7188 62.3649 146.1196 0.0000 0.0000 0.0000
# 4 0.0000 0.0000 0.0000 -0.5005 0.0000 0.0000
# 5 0.0000 0.0000 0.0000 0.0000 -1.2122 0.0000
# 6 0.0000 0.0000 0.0000 0.0000 0.0000 -16.6953
#
#
#
# Elastic Compliance Matrix: (Units=1/GPa)
#
#
# Indices 1 2 3 4 5 6 
#
# 1 0.053360 -0.002151 0.003006 0.000000 0.000000 0.000000
# 2 -0.002151 0.010180 -0.004429 0.000000 0.000000 0.000000
# 3 0.003006 -0.004429 0.008852 0.000000 0.000000 0.000000
# 4 0.000000 0.000000 0.000000 -1.998092 0.000000 0.000000
# 5 0.000000 0.000000 0.000000 0.000000 -0.824915 0.000000
# 6 0.000000 0.000000 0.000000 0.000000 0.000000 -0.059897
#
#
# Mechanical properties :
#
#
# Convention : Reuss Voigt Hill
#
# Bulk Modulus (GPa) = 15.32694 45.25935 30.29314
# Shear Modulus (GPa) = -1.79752 11.83422 5.01835
#
# Velocity S-wave (km/s) = -0.94781 2.43194 1.58367
# Velocity P-wave (km/s) = 2.54206 5.52312 4.29924
#
# Compressibility (1/GPa) = 0.06524459
#
# Stress axis : x y z
#
# Youngs Moduli (GPa) = 18.74065 98.22981 112.97172
#
# Poissons Ratio (x) = 0.21128 -0.33964
# Poissons Ratio (y) = 0.04031 0.50037
# Poissons Ratio (z) = -0.05634 0.43508
#
# Static dielectric constant tensor:
#      x y z
#    x 1.685700 0.000000 0.000000 
#    y 0.000000 1.675920 0.000000 
#    z 0.000000 0.000000 1.698710 
# 
# From -- ./inp_files/12817.got.cif
#   From: 2010.05.17/outbox.cif.g08.bks.cpg/sg38_7_cif.got.tgz:12817.got - 2010.06.03 18:07:57.
