data_PCOD9358071
_publ_section_title
;
Structure prediction by ZEFSAII (Michael W. Deem and Ramdas Pophale) SiO2 
 PCOD9358071
Probable space group: A M M 2
;
_chemical_formula_sum "Si O2"
_cell_formula_units_Z 40
_cell_length_a 11.236355
_cell_length_b 17.969765
_cell_length_c 10.237789
_cell_angle_alpha 90.000000
_cell_angle_beta 90.000000
_cell_angle_gamma 90.000000
_cell_volume 2067.159673
_symmetry_space_group_name_H-M "A M M 2"
_symmetry_group_IT_number 38
_symmetry_cell_setting 'orthorhombic'
loop_
_space_group_symop_operation_xyz
x,y,z
-x,-y,z
-x,y,z
x,-y,z
x,1/2+y,1/2+z
-x,1/2-y,1/2+z
-x,1/2+y,1/2+z
x,1/2-y,1/2+z
loop_
_atom_site_type_symbol
_atom_site_label
_atom_site_fract_x
_atom_site_fract_y
_atom_site_fract_z
Si Si1 0.635114 0.359967 0.268330
Si Si2 0.211717 0.221765 0.370186
Si Si3 0.870835 0.322562 0.602173
Si Si4 0.632434 0.084722 0.052848
Si Si5 0.356814 0.415301 0.982637
O O1 0.500000 0.334842 0.245687
O O2 0.709016 0.288222 0.310062
O O3 0.635597 0.412501 0.394951
O O4 0.672371 0.400373 0.135627
O O5 0.151967 0.255120 0.500537
O O6 0.125805 0.202327 0.251816
O O7 0.290535 0.149845 0.405485
O O8 0.750708 0.371822 0.593767
O O9 0.000000 0.357150 0.568005
O O10 0.500000 0.115703 0.090189
O O11 0.637159 0.000000 0.099269
O O12 0.500000 0.409182 0.966551
O O13 0.322981 0.500000 0.947213
#
# Coordination Sequence:
#
# PCOD9358071 Si02
#       5
#     8   8   8   8   8
#     4   9  17  32  57  87 121 161 203 245 297 364
#     4  11  21  39  59  86 117 160 210 255 301 361
#     4  11  24  40  62  87 118 161 206 254 303 362
#     4   9  19  36  60  90 123 157 197 248 304 364
#     4  10  20  34  57  92 130 163 201 253 311 367
#
# _framework density 19.350224000000001
#
# number of rings (size 3 to 8) (size 9 to 14) (size 15 to 20)
#    0.000    2.000    2.000    1.800    0.000    6.000 
#    0.000    2.000    0.000    1.800    0.000    0.000 
#    0.000    0.000    0.000    0.000    0.000    0.000 
#
# Total GULP energy -111471.459418 kJ/mol
# GULP energy per Si atom -5573.572971 kJ/mol
# Density = 1.930618 g / cm^3
# Si number density = 19.350224 Si / 1000 Ang^3
#
#
#
# Elastic Constant Matrix: (Units=GPa)
#
#
# Indices 1 2 3 4 5 6 
#
# 1 130.7163 64.8039 35.7216 0.0000 0.0000 0.0000
# 2 64.8039 96.1037 24.4446 0.0000 0.0000 0.0000
# 3 35.7216 24.4446 88.7502 0.0000 0.0000 0.0000
# 4 0.0000 0.0000 0.0000 12.8464 0.0000 0.0000
# 5 0.0000 0.0000 0.0000 0.0000 4.9266 0.0000
# 6 0.0000 0.0000 0.0000 0.0000 0.0000 -78.7056
#
#
#
# Elastic Compliance Matrix: (Units=1/GPa)
#
#
# Indices 1 2 3 4 5 6 
#
# 1 0.012116 -0.007452 -0.002824 0.000000 0.000000 0.000000
# 2 -0.007452 0.015772 -0.001345 0.000000 0.000000 0.000000
# 3 -0.002824 -0.001345 0.012775 0.000000 0.000000 0.000000
# 4 0.000000 0.000000 0.000000 0.077843 0.000000 0.000000
# 5 0.000000 0.000000 0.000000 0.000000 0.202982 0.000000
# 6 0.000000 0.000000 0.000000 0.000000 0.000000 -0.012706
#
#
# Mechanical properties :
#
#
# Convention : Reuss Voigt Hill
#
# Bulk Modulus (GPa) = 57.40048 62.83449 60.11749
# Shear Modulus (GPa) = 14.80029 0.52014 7.66021
#
# Velocity S-wave (km/s) = 2.76862 0.51903 1.99181
# Velocity P-wave (km/s) = 6.32050 5.73602 6.03534
#
# Compressibility (1/GPa) = 0.01742146
#
# Stress axis : x y z
#
# Youngs Moduli (GPa) = 82.53380 63.40219 78.27930
#
# Poissons Ratio (x) = 0.47246 0.22108
# Poissons Ratio (y) = 0.61502 0.10528
# Poissons Ratio (z) = 0.23310 0.08527
#
# Static dielectric constant tensor:
#      x y z
#    x 1.681810 0.000000 0.000000 
#    y 0.000000 1.674010 0.000000 
#    z 0.000000 0.000000 1.714340 
# 
# From -- ./inp_files/4285.got.cif
#   From: 2010.05.17/outbox.cif.g08.bks.cpg/sg38_3_cif.got.tgz:4285.got - 2010.06.03 18:07:57.
