data_PCOD9358181
_publ_section_title
;
Structure prediction by ZEFSAII (Michael W. Deem and Ramdas Pophale) SiO2 
 PCOD9358181
Probable space group: A M M 2
;
_chemical_formula_sum "Si O2"
_cell_formula_units_Z 64
_cell_length_a 9.051251
_cell_length_b 25.330075
_cell_length_c 15.015411
_cell_angle_alpha 90.000000
_cell_angle_beta 90.000000
_cell_angle_gamma 90.000000
_cell_volume 3442.566263
_symmetry_space_group_name_H-M "A M M 2"
_symmetry_group_IT_number 38
_symmetry_cell_setting 'orthorhombic'
loop_
_space_group_symop_operation_xyz
x,y,z
-x,-y,z
-x,y,z
x,-y,z
x,1/2+y,1/2+z
-x,1/2-y,1/2+z
-x,1/2+y,1/2+z
x,1/2-y,1/2+z
loop_
_atom_site_type_symbol
_atom_site_label
_atom_site_fract_x
_atom_site_fract_y
_atom_site_fract_z
Si Si1 0.675276 0.764806 0.965280
Si Si2 0.175985 0.344371 0.956349
Si Si3 0.176573 0.215625 0.774859
Si Si4 0.673907 0.370325 0.575980
Si Si5 0.324119 0.439962 0.058631
Si Si6 0.825421 0.062883 0.923465
Si Si7 0.824963 0.164647 0.246486
Si Si8 0.325142 0.890275 0.747257
O O1 0.500000 0.759137 0.948942
O O2 0.743968 0.708507 0.991289
O O3 0.756758 0.782216 0.874455
O O4 0.696998 0.811606 0.035484
O O5 0.206460 0.347183 0.850071
O O6 0.000000 0.338738 0.967820
O O7 0.236345 0.396176 0.004004
O O8 0.208568 0.273021 0.733965
O O9 0.251342 0.166233 0.727283
O O10 0.000000 0.209238 0.778988
O O11 0.500000 0.381597 0.573829
O O12 0.758317 0.410129 0.510978
O O13 0.735327 0.369207 0.675801
O O14 0.500000 0.434084 0.041810
O O15 0.280990 0.500000 0.037528
O O16 0.301503 0.428336 0.163362
O O17 0.746724 0.086798 0.836544
O O18 0.000000 0.074005 0.918239
O O19 0.803576 0.000000 0.925456
O O20 0.000000 0.157341 0.232028
O O21 0.500000 0.883314 0.760995
#
# Coordination Sequence:
#
# PCOD9358181 Si02
#       8
#     8   8   8   8   8   8   8   8
#     4  10  20  35  56  86 120 156 194 236 293 353
#     4  10  22  40  62  88 117 155 201 249 303 354
#     4  10  20  35  56  86 121 159 197 236 290 351
#     4  11  23  37  59  90 120 157 201 245 295 352
#     4  10  23  42  62  86 118 157 201 250 303 356
#     4  11  24  41  62  87 119 160 202 247 298 352
#     4   9  21  39  58  84 121 159 195 243 299 352
#     4  11  22  37  59  88 122 159 197 242 294 354
#
# _framework density 18.590782000000001
#
# number of rings (size 3 to 8) (size 9 to 14) (size 15 to 20)
#    0.000    1.750    1.250    3.375    1.750    7.250 
#    0.000    0.625    0.000    0.750    0.000    0.000 
#    0.000    0.000    0.000    0.000    0.000    0.000 
#
# Total GULP energy -178821.203081 kJ/mol
# GULP energy per Si atom -5588.162596 kJ/mol
# Density = 1.854847 g / cm^3
# Si number density = 18.590782 Si / 1000 Ang^3
#
#
#
# Elastic Constant Matrix: (Units=GPa)
#
#
# Indices 1 2 3 4 5 6 
#
# 1 76.7310 53.3611 45.4889 0.0000 0.0000 0.0000
# 2 53.3611 91.4888 28.1851 0.0000 0.0000 0.0000
# 3 45.4889 28.1851 49.4624 0.0000 0.0000 0.0000
# 4 0.0000 0.0000 0.0000 25.2493 0.0000 0.0000
# 5 0.0000 0.0000 0.0000 0.0000 31.2579 0.0000
# 6 0.0000 0.0000 0.0000 0.0000 0.0000 29.2169
#
#
#
# Elastic Compliance Matrix: (Units=1/GPa)
#
#
# Indices 1 2 3 4 5 6 
#
# 1 0.040138 -0.014602 -0.028593 0.000000 0.000000 0.000000
# 2 -0.014602 0.018570 0.002847 0.000000 0.000000 0.000000
# 3 -0.028593 0.002847 0.044891 0.000000 0.000000 0.000000
# 4 0.000000 0.000000 0.000000 0.039605 0.000000 0.000000
# 5 0.000000 0.000000 0.000000 0.000000 0.031992 0.000000
# 6 0.000000 0.000000 0.000000 0.000000 0.000000 0.034227
#
#
# Mechanical properties :
#
#
# Convention : Reuss Voigt Hill
#
# Bulk Modulus (GPa) = 43.66144 52.41694 48.03919
# Shear Modulus (GPa) = 16.79243 23.18796 19.99019
#
# Velocity S-wave (km/s) = 3.00870 3.53552 3.28270
# Velocity P-wave (km/s) = 5.96709 6.70245 6.34543
#
# Compressibility (1/GPa) = 0.02290350
#
# Stress axis : x y z
#
# Youngs Moduli (GPa) = 24.91384 53.85104 22.27609
#
# Poissons Ratio (x) = 0.78633 0.63695
# Poissons Ratio (y) = 0.36379 -0.06343
# Poissons Ratio (z) = 0.71237 -0.15334
#
# Static dielectric constant tensor:
#      x y z
#    x 1.617720 0.000000 0.000000 
#    y 0.000000 1.630580 0.000000 
#    z 0.000000 0.000000 1.631970 
# 
# From -- ./inp_files/12778.got.cif
#   From: 2010.05.17/outbox.cif.g08.bks.cpg/sg38_7_cif.got.tgz:12778.got - 2010.06.03 18:07:57.
