data_PCOD9358406
_publ_section_title
;
Structure prediction by ZEFSAII (Michael W. Deem and Ramdas Pophale) SiO2 
 PCOD9358406
Probable space group: A M M 2
;
_chemical_formula_sum "Si O2"
_cell_formula_units_Z 40
_cell_length_a 9.164991
_cell_length_b 7.929874
_cell_length_c 29.296695
_cell_angle_alpha 90.000000
_cell_angle_beta 90.000000
_cell_angle_gamma 90.000000
_cell_volume 2129.202460
_symmetry_space_group_name_H-M "A M M 2"
_symmetry_group_IT_number 38
_symmetry_cell_setting 'orthorhombic'
loop_
_space_group_symop_operation_xyz
x,y,z
-x,-y,z
-x,y,z
x,-y,z
x,1/2+y,1/2+z
-x,1/2-y,1/2+z
-x,1/2+y,1/2+z
x,1/2-y,1/2+z
loop_
_atom_site_type_symbol
_atom_site_label
_atom_site_fract_x
_atom_site_fract_y
_atom_site_fract_z
Si Si1 0.676565 0.000000 0.803120
Si Si2 0.831216 0.201462 0.647533
Si Si3 0.325420 0.187339 0.238620
Si Si4 0.669044 0.200969 0.055547
Si Si5 0.324875 0.807468 0.454293
Si Si6 0.824851 0.000000 0.901536
O O1 0.715671 0.164681 0.773378
O O2 0.500000 0.000000 0.810455
O O3 0.760157 0.000000 0.850626
O O4 0.746629 0.284339 0.689526
O O5 0.763538 0.249359 0.598941
O O6 0.000000 0.251453 0.648988
O O7 0.820777 0.000000 0.653051
O O8 0.500000 0.197275 0.232818
O O9 0.288756 0.000000 0.255805
O O10 0.500000 0.244446 0.065180
O O11 0.677916 0.000000 0.048330
O O12 0.710762 0.288128 0.008041
O O13 0.500000 0.776717 0.449858
O O14 0.238077 0.665688 0.426905
O O15 0.295664 0.000000 0.439643
O O16 0.000000 0.000000 0.901948
#
# Coordination Sequence:
#
# PCOD9358406 Si02
#       6
#     4   8   8   8   8   4
#     4  10  22  42  66  90 120 158 208 264 307 360
#     4  11  23  36  53  83 125 167 203 242 298 367
#     4  10  21  39  64  91 117 152 202 255 305 356
#     4  10  20  36  60  88 119 157 205 256 303 356
#     4  10  21  41  68  93 121 162 214 266 311 364
#     4  12  26  42  64  94 132 168 202 256 323 390
#
# _framework density 18.786377000000002
#
# number of rings (size 3 to 8) (size 9 to 14) (size 15 to 20)
#    0.000    1.600    2.000    2.700    0.000    8.000 
#    0.000    2.000    0.000    0.000    0.000    0.000 
#    0.000    0.000    0.000    0.000    0.000    0.000 
#
# Total GULP energy -111768.462472 kJ/mol
# GULP energy per Si atom -5588.423124 kJ/mol
# Density = 1.874362 g / cm^3
# Si number density = 18.786377 Si / 1000 Ang^3
#
#
#
# Elastic Constant Matrix: (Units=GPa)
#
#
# Indices 1 2 3 4 5 6 
#
# 1 54.1755 65.1557 64.2054 0.0000 0.0000 0.0000
# 2 65.1557 143.6329 82.1809 0.0000 0.0000 0.0000
# 3 64.2054 82.1809 134.0913 0.0000 0.0000 0.0000
# 4 0.0000 0.0000 0.0000 24.0282 0.0000 0.0000
# 5 0.0000 0.0000 0.0000 0.0000 -58.0891 0.0000
# 6 0.0000 0.0000 0.0000 0.0000 0.0000 20.4198
#
#
#
# Elastic Compliance Matrix: (Units=1/GPa)
#
#
# Indices 1 2 3 4 5 6 
#
# 1 0.061378 -0.016983 -0.018981 0.000000 0.000000 0.000000
# 2 -0.016983 0.015421 -0.001319 0.000000 0.000000 0.000000
# 3 -0.018981 -0.001319 0.017354 0.000000 0.000000 0.000000
# 4 0.000000 0.000000 0.000000 0.041618 0.000000 0.000000
# 5 0.000000 0.000000 0.000000 0.000000 -0.017215 0.000000
# 6 0.000000 0.000000 0.000000 0.000000 0.000000 0.048972
#
#
# Mechanical properties :
#
#
# Convention : Reuss Voigt Hill
#
# Bulk Modulus (GPa) = 51.05219 83.88706 67.46963
# Shear Modulus (GPa) = 20.11078 5.29563 12.70320
#
# Velocity S-wave (km/s) = 3.27540 1.68077 2.60319
# Velocity P-wave (km/s) = 6.44503 6.96539 6.71026
#
# Compressibility (1/GPa) = 0.01958780
#
# Stress axis : x y z
#
# Youngs Moduli (GPa) = 16.29254 64.84699 57.62194
#
# Poissons Ratio (x) = 1.10128 1.09370
# Poissons Ratio (y) = 0.27669 0.07603
# Poissons Ratio (z) = 0.30924 0.08556
#
# Static dielectric constant tensor:
#      x y z
#    x 1.627310 0.000000 0.000000 
#    y 0.000000 1.679290 0.000000 
#    z 0.000000 0.000000 1.607540 
# 
# From -- ./inp_files/23218.got.cif
#   From: 2010.05.17/outbox.cif.g08.bks.cpg/sg38_12_cif.got.tgz:23218.got - 2010.06.03 18:07:57.
