data_PCOD9358043
_publ_section_title
;
Structure prediction by ZEFSAII (Michael W. Deem and Ramdas Pophale) SiO2 
 PCOD9358043
Probable space group: A M M 2
;
_chemical_formula_sum "Si O2"
_cell_formula_units_Z 64
_cell_length_a 24.536145
_cell_length_b 8.508314
_cell_length_c 15.959111
_cell_angle_alpha 90.000000
_cell_angle_beta 90.000000
_cell_angle_gamma 90.000000
_cell_volume 3331.643578
_symmetry_space_group_name_H-M "A M M 2"
_symmetry_group_IT_number 38
_symmetry_cell_setting 'orthorhombic'
loop_
_space_group_symop_operation_xyz
x,y,z
-x,-y,z
-x,y,z
x,-y,z
x,1/2+y,1/2+z
-x,1/2-y,1/2+z
-x,1/2+y,1/2+z
x,1/2-y,1/2+z
loop_
_atom_site_type_symbol
_atom_site_label
_atom_site_fract_x
_atom_site_fract_y
_atom_site_fract_z
Si Si1 0.865326 0.811818 0.049660
Si Si2 0.324698 0.189731 0.385224
Si Si3 0.327247 0.187489 0.707926
Si Si4 0.936431 0.810341 0.702922
Si Si5 0.062657 0.191468 0.893035
Si Si6 0.560196 0.190133 0.454283
Si Si7 0.560545 0.188322 0.144682
Si Si8 0.742708 0.810015 0.548290
O O1 0.898397 0.760424 0.131914
O O2 0.804337 0.747192 0.051113
O O3 0.863541 0.000000 0.046592
O O4 0.897647 0.754652 0.966699
O O5 0.305346 0.253759 0.296583
O O6 0.387124 0.241656 0.402544
O O7 0.287994 0.240986 0.463581
O O8 0.324382 0.000000 0.382546
O O9 0.388911 0.246568 0.696081
O O10 0.291444 0.244523 0.629259
O O11 0.327301 0.000000 0.706240
O O12 0.922113 0.760957 0.798242
O O13 0.000000 0.768229 0.688727
O O14 0.932685 0.000000 0.699417
O O15 0.000000 0.240287 0.908884
O O16 0.062801 0.000000 0.893480
O O17 0.500000 0.238095 0.423056
O O18 0.565878 0.251325 0.549212
O O19 0.561320 0.000000 0.456990
O O20 0.500000 0.236151 0.174670
O O21 0.562863 0.000000 0.145406
O O22 0.742187 0.000000 0.549015
#
# Coordination Sequence:
#
# PCOD9358043 Si02
#       8
#     8   8   8   8   8   8   8   8
#     4  11  22  35  57  86 114 147 191 239 283 326
#     4  10  21  39  60  84 113 148 188 235 291 345
#     4  11  23  40  61  84 110 148 193 237 288 346
#     4   9  18  35  59  85 116 154 189 222 272 338
#     4   8  16  33  56  82 114 149 182 220 271 332
#     4   9  17  33  58  84 113 148 182 221 280 349
#     4  10  20  34  56  86 117 147 182 230 285 340
#     4  10  23  43  59  76 112 154 193 235 284 340
#
# _framework density 19.209737000000001
#
# number of rings (size 3 to 8) (size 9 to 14) (size 15 to 20)
#    0.000    2.250    1.250    2.250    0.000    5.000 
#    0.000    6.250    0.000    1.500    0.000    0.000 
#    0.000    0.000    0.000    0.000    0.000    0.000 
#
# Total GULP energy -178643.624682 kJ/mol
# GULP energy per Si atom -5582.613271 kJ/mol
# Density = 1.916602 g / cm^3
# Si number density = 19.209737 Si / 1000 Ang^3
#
#
#
# Elastic Constant Matrix: (Units=GPa)
#
#
# Indices 1 2 3 4 5 6 
#
# 1 135.3963 22.5218 101.9586 0.0000 0.0000 0.0000
# 2 22.5218 5.6893 22.6957 0.0000 0.0000 0.0000
# 3 101.9586 22.6957 164.8376 0.0000 0.0000 0.0000
# 4 0.0000 0.0000 0.0000 26.7530 0.0000 0.0000
# 5 0.0000 0.0000 0.0000 0.0000 -0.9142 0.0000
# 6 0.0000 0.0000 0.0000 0.0000 0.0000 18.1547
#
#
#
# Elastic Compliance Matrix: (Units=1/GPa)
#
#
# Indices 1 2 3 4 5 6 
#
# 1 0.022591 -0.074734 -0.003684 0.000000 0.000000 0.000000
# 2 -0.074734 0.637177 -0.041504 0.000000 0.000000 0.000000
# 3 -0.003684 -0.041504 0.014060 0.000000 0.000000 0.000000
# 4 0.000000 0.000000 0.000000 0.037379 0.000000 0.000000
# 5 0.000000 0.000000 0.000000 0.000000 -1.093896 0.000000
# 6 0.000000 0.000000 0.000000 0.000000 0.000000 0.055082
#
#
# Mechanical properties :
#
#
# Convention : Reuss Voigt Hill
#
# Bulk Modulus (GPa) = 2.30423 66.69727 34.50075
# Shear Modulus (GPa) = 87.87904 19.38184 53.63044
#
# Velocity S-wave (km/s) = 6.77100 3.17986 5.28952
# Velocity P-wave (km/s) = 7.89498 6.94823 7.43669
#
# Compressibility (1/GPa) = 0.43398472
#
# Stress axis : x y z
#
# Youngs Moduli (GPa) = 44.26591 1.56942 71.12616
#
# Poissons Ratio (x) = 0.11729 0.26200
# Poissons Ratio (y) = 3.30815 2.95203
# Poissons Ratio (z) = 0.16306 0.06514
#
# Static dielectric constant tensor:
#      x y z
#    x 1.653230 0.000000 0.000000 
#    y 0.000000 1.656750 0.000000 
#    z 0.000000 0.000000 1.670860 
# 
# From -- ./inp_files/15806.got.cif
#   From: 2010.05.17/outbox.cif.g08.bks.cpg/sg38_8_cif.got.tgz:15806.got - 2010.06.03 18:07:57.
