data_PCOD9358044
_publ_section_title
;
Structure prediction by ZEFSAII (Michael W. Deem and Ramdas Pophale) SiO2 
 PCOD9358044
Probable space group: A M M 2
;
_chemical_formula_sum "Si O2"
_cell_formula_units_Z 64
_cell_length_a 24.535229
_cell_length_b 8.502097
_cell_length_c 15.961050
_cell_angle_alpha 90.000000
_cell_angle_beta 90.000000
_cell_angle_gamma 90.000000
_cell_volume 3329.489345
_symmetry_space_group_name_H-M "A M M 2"
_symmetry_group_IT_number 38
_symmetry_cell_setting 'orthorhombic'
loop_
_space_group_symop_operation_xyz
x,y,z
-x,-y,z
-x,y,z
x,-y,z
x,1/2+y,1/2+z
-x,1/2-y,1/2+z
-x,1/2+y,1/2+z
x,1/2-y,1/2+z
loop_
_atom_site_type_symbol
_atom_site_label
_atom_site_fract_x
_atom_site_fract_y
_atom_site_fract_z
Si Si1 0.560186 0.190284 0.952620
Si Si2 0.742682 0.690110 0.546669
Si Si3 0.936392 0.689770 0.398913
Si Si4 0.327158 0.687600 0.706320
Si Si5 0.439448 0.688472 0.143073
Si Si6 0.062674 0.691634 0.208819
Si Si7 0.865309 0.311734 0.052267
Si Si8 0.324713 0.689906 0.383704
O O1 0.500000 0.238406 0.921421
O O2 0.612875 0.241963 0.900937
O O3 0.561296 0.000000 0.955196
O O4 0.565871 0.251275 0.047582
O O5 0.741979 0.500000 0.546970
O O6 0.708596 0.744891 0.627641
O O7 0.804381 0.746704 0.549717
O O8 0.712033 0.741407 0.461958
O O9 0.932432 0.500000 0.402523
O O10 0.922064 0.739143 0.303606
O O11 0.898552 0.761030 0.470023
O O12 0.000000 0.731407 0.412945
O O13 0.327126 0.500000 0.704711
O O14 0.388881 0.746329 0.694406
O O15 0.305340 0.746956 0.794901
O O16 0.500000 0.736350 0.173042
O O17 0.437127 0.500000 0.143866
O O18 0.062789 0.500000 0.208353
O O19 0.102414 0.745585 0.135205
O O20 0.000000 0.740495 0.192992
O O21 0.863327 0.500000 0.055650
O O22 0.324366 0.500000 0.381256
#
# Coordination Sequence:
#
# PCOD9358044 Si02
#       8
#     8   8   8   8   8   8   8   8
#     4   9  17  33  58  84 112 146 184 229 285 345
#     4  10  23  43  59  76 112 154 193 235 284 340
#     4   9  18  35  59  85 115 152 189 225 276 341
#     4  11  23  40  61  85 112 147 190 239 291 342
#     4  10  20  34  56  86 117 148 184 229 282 343
#     4   8  16  33  56  82 114 150 185 223 271 330
#     4  11  22  35  57  86 114 147 191 239 283 326
#     4  10  21  39  60  83 111 149 190 232 290 351
#
# _framework density 19.222166999999999
#
# number of rings (size 3 to 8) (size 9 to 14) (size 15 to 20)
#    0.000    2.250    1.250    2.250    0.000    5.000 
#    0.000    6.250    0.000    1.500    0.000    0.000 
#    0.000    0.000    0.000    0.000    0.000    0.000 
#
# Total GULP energy -178643.548135 kJ/mol
# GULP energy per Si atom -5582.610879 kJ/mol
# Density = 1.917842 g / cm^3
# Si number density = 19.222167 Si / 1000 Ang^3
#
#
#
# Elastic Constant Matrix: (Units=GPa)
#
#
# Indices 1 2 3 4 5 6 
#
# 1 132.5599 21.8291 100.3708 0.0000 0.0000 0.0000
# 2 21.8291 5.4181 21.9540 0.0000 0.0000 0.0000
# 3 100.3708 21.9540 164.3228 0.0000 0.0000 0.0000
# 4 0.0000 0.0000 0.0000 25.0066 0.0000 0.0000
# 5 0.0000 0.0000 0.0000 0.0000 -1.0083 0.0000
# 6 0.0000 0.0000 0.0000 0.0000 0.0000 22.9957
#
#
#
# Elastic Compliance Matrix: (Units=1/GPa)
#
#
# Indices 1 2 3 4 5 6 
#
# 1 0.023405 -0.079297 -0.003702 0.000000 0.000000 0.000000
# 2 -0.079297 0.671092 -0.041224 0.000000 0.000000 0.000000
# 3 -0.003702 -0.041224 0.013854 0.000000 0.000000 0.000000
# 4 0.000000 0.000000 0.000000 0.039989 0.000000 0.000000
# 5 0.000000 0.000000 0.000000 0.000000 -0.991757 0.000000
# 6 0.000000 0.000000 0.000000 0.000000 0.000000 0.043486
#
#
# Mechanical properties :
#
#
# Convention : Reuss Voigt Hill
#
# Bulk Modulus (GPa) = 2.17436 65.62316 33.89876
# Shear Modulus (GPa) = 24.77495 19.94193 22.35844
#
# Velocity S-wave (km/s) = 3.59398 3.22443 3.41421
# Velocity P-wave (km/s) = 4.28438 6.93369 5.76333
#
# Compressibility (1/GPa) = 0.45990525
#
# Stress axis : x y z
#
# Youngs Moduli (GPa) = 42.72671 1.49011 72.18040
#
# Poissons Ratio (x) = 0.11816 0.26718
# Poissons Ratio (y) = 3.38811 2.97556
# Poissons Ratio (z) = 0.15815 0.06143
#
# Static dielectric constant tensor:
#      x y z
#    x 1.654260 0.000000 0.000000 
#    y 0.000000 1.660550 0.000000 
#    z 0.000000 0.000000 1.671220 
# 
# From -- ./inp_files/15772.got.cif
#   From: 2010.05.17/outbox.cif.g08.bks.cpg/sg38_8_cif.got.tgz:15772.got - 2010.06.03 18:07:57.
