data_PCOD9358329
_publ_section_title
;
Structure prediction by ZEFSAII (Michael W. Deem and Ramdas Pophale) SiO2 
 PCOD9358329
Probable space group: A M M 2
;
_chemical_formula_sum "Si O2"
_cell_formula_units_Z 40
_cell_length_a 20.824260
_cell_length_b 10.278960
_cell_length_c 9.160989
_cell_angle_alpha 90.000000
_cell_angle_beta 90.000000
_cell_angle_gamma 90.000000
_cell_volume 1960.925595
_symmetry_space_group_name_H-M "A M M 2"
_symmetry_group_IT_number 38
_symmetry_cell_setting 'orthorhombic'
loop_
_space_group_symop_operation_xyz
x,y,z
-x,-y,z
-x,y,z
x,-y,z
x,1/2+y,1/2+z
-x,1/2-y,1/2+z
-x,1/2+y,1/2+z
x,1/2-y,1/2+z
loop_
_atom_site_type_symbol
_atom_site_label
_atom_site_fract_x
_atom_site_fract_y
_atom_site_fract_z
Si Si1 0.075637 0.853482 0.468970
Si Si2 0.746482 0.855224 0.198026
Si Si3 0.145090 0.650552 0.268035
Si Si4 0.571807 0.647709 0.222747
Si Si5 0.340091 0.224340 0.462285
O O1 0.115809 0.738299 0.395977
O O2 0.092595 0.852906 0.639480
O O3 0.000000 0.835033 0.444999
O O4 0.093095 0.000000 0.414480
O O5 0.794926 0.733563 0.207597
O O6 0.707535 0.849311 0.351381
O O7 0.775175 0.000000 0.183811
O O8 0.700871 0.827316 0.058488
O O9 0.161005 0.500000 0.305352
O O10 0.500000 0.698865 0.189310
O O11 0.565672 0.500000 0.269541
O O12 0.606772 0.719709 0.353492
O O13 0.619236 0.650610 0.084734
#
# Coordination Sequence:
#
# PCOD9358329 Si02
#       5
#     8   8   8   8   8
#     4  10  22  41  63  88 120 156 194 238 289 346
#     4  11  23  39  59  84 117 156 197 241 291 347
#     4  11  24  40  61  90 121 154 196 244 291 343
#     4  10  20  36  58  83 113 149 189 236 291 348
#     4  10  22  37  57  84 115 149 194 242 288 344
#
# _framework density 20.398531999999999
#
# number of rings (size 3 to 8) (size 9 to 14) (size 15 to 20)
#    0.000    1.600    0.000    4.200    0.000   10.800 
#    0.000    0.000    0.000    9.600    0.000    0.000 
#    0.000    0.000    0.000    0.000    0.000    0.000 
#
# Total GULP energy -111561.238639 kJ/mol
# GULP energy per Si atom -5578.061932 kJ/mol
# Density = 2.035210 g / cm^3
# Si number density = 20.398532 Si / 1000 Ang^3
#
#
#
# Elastic Constant Matrix: (Units=GPa)
#
#
# Indices 1 2 3 4 5 6 
#
# 1 57.7798 26.8640 -2.0739 0.0000 0.0000 0.0000
# 2 26.8640 134.8629 18.0908 0.0000 0.0000 0.0000
# 3 -2.0739 18.0908 67.8412 0.0000 0.0000 0.0000
# 4 0.0000 0.0000 0.0000 5.8592 0.0000 0.0000
# 5 0.0000 0.0000 0.0000 0.0000 31.5191 0.0000
# 6 0.0000 0.0000 0.0000 0.0000 0.0000 16.8992
#
#
#
# Elastic Compliance Matrix: (Units=1/GPa)
#
#
# Indices 1 2 3 4 5 6 
#
# 1 0.019255 -0.004060 0.001671 0.000000 0.000000 0.000000
# 2 -0.004060 0.008546 -0.002403 0.000000 0.000000 0.000000
# 3 0.001671 -0.002403 0.015432 0.000000 0.000000 0.000000
# 4 0.000000 0.000000 0.000000 0.170671 0.000000 0.000000
# 5 0.000000 0.000000 0.000000 0.000000 0.031727 0.000000
# 6 0.000000 0.000000 0.000000 0.000000 0.000000 0.059174
#
#
# Mechanical properties :
#
#
# Convention : Reuss Voigt Hill
#
# Bulk Modulus (GPa) = 29.71788 38.47175 34.09482
# Shear Modulus (GPa) = 15.35607 25.36237 20.35922
#
# Velocity S-wave (km/s) = 2.74670 3.52993 3.16266
# Velocity P-wave (km/s) = 4.96583 5.95944 5.48518
#
# Compressibility (1/GPa) = 0.03364978
#
# Stress axis : x y z
#
# Youngs Moduli (GPa) = 51.93589 117.01478 64.79963
#
# Poissons Ratio (x) = 0.47503 -0.10829
# Poissons Ratio (y) = 0.21084 0.15571
# Poissons Ratio (z) = -0.08679 0.28119
#
# Static dielectric constant tensor:
#      x y z
#    x 1.749630 0.000000 0.000000 
#    y 0.000000 1.724850 0.000000 
#    z 0.000000 0.000000 1.705260 
# 
# From -- ./inp_files/6068.got.cif
#   From: 2010.05.17/outbox.cif.g08.bks.cpg/sg38_4_cif.got.tgz:6068.got - 2010.06.03 18:07:57.
