data_PCOD9358155
_publ_section_title
;
Structure prediction by ZEFSAII (Michael W. Deem and Ramdas Pophale) SiO2 
 PCOD9358155
Probable space group: A M M 2
;
_chemical_formula_sum "Si O2"
_cell_formula_units_Z 64
_cell_length_a 25.681800
_cell_length_b 8.265215
_cell_length_c 14.919899
_cell_angle_alpha 90.000000
_cell_angle_beta 90.000000
_cell_angle_gamma 90.000000
_cell_volume 3166.981292
_symmetry_space_group_name_H-M "A M M 2"
_symmetry_group_IT_number 38
_symmetry_cell_setting 'orthorhombic'
loop_
_space_group_symop_operation_xyz
x,y,z
-x,-y,z
-x,y,z
x,-y,z
x,1/2+y,1/2+z
-x,1/2-y,1/2+z
-x,1/2+y,1/2+z
x,1/2-y,1/2+z
loop_
_atom_site_type_symbol
_atom_site_label
_atom_site_fract_x
_atom_site_fract_y
_atom_site_fract_z
Si Si1 0.250087 0.303963 0.162480
Si Si2 0.440573 0.809121 0.336360
Si Si3 0.058823 0.305685 0.313297
Si Si4 0.136247 0.696502 0.164503
Si Si5 0.363824 0.690861 0.187963
Si Si6 0.364210 0.692059 0.485034
Si Si7 0.139919 0.308163 0.958240
Si Si8 0.251940 0.188418 0.958897
O O1 0.251113 0.500000 0.146878
O O2 0.193779 0.263959 0.202801
O O3 0.303882 0.262574 0.211019
O O4 0.251368 0.215823 0.066559
O O5 0.500000 0.752668 0.325006
O O6 0.406329 0.778132 0.248027
O O7 0.411704 0.725187 0.419271
O O8 0.441250 0.000000 0.354490
O O9 0.055763 0.500000 0.305347
O O10 0.089693 0.242608 0.226043
O O11 0.095916 0.267421 0.396505
O O12 0.000000 0.242900 0.321799
O O13 0.133525 0.500000 0.163266
O O14 0.134323 0.750390 0.061254
O O15 0.369017 0.500000 0.204542
O O16 0.370198 0.725693 0.082004
O O17 0.358504 0.500000 0.500314
O O18 0.310211 0.748607 0.437292
O O19 0.133253 0.500000 0.958161
O O20 0.198857 0.270377 0.926842
O O21 0.248349 0.000000 0.934573
#
# Coordination Sequence:
#
# PCOD9358155 Si02
#       8
#     8   8   8   8   8   8   8   8
#     4   8  15  30  53  81 110 140 177 220 269 327
#     4  11  25  42  58  80 112 151 196 241 283 332
#     4  10  21  36  53  75 104 141 186 230 271 320
#     4   8  16  33  55  76 103 140 177 213 260 321
#     4  10  20  36  60  87 115 147 184 231 285 340
#     4  10  21  38  61  87 115 149 187 231 285 341
#     4  10  20  35  56  81 109 142 178 220 271 324
#     4   9  17  31  54  84 114 142 175 217 270 331
#
# _framework density 20.208518999999999
#
# number of rings (size 3 to 8) (size 9 to 14) (size 15 to 20)
#    0.000    2.500    0.000    2.625    0.000    5.250 
#    0.000    6.875    0.000    0.000    0.000    0.000 
#    0.000    0.000    0.000    0.000    0.000    0.000 
#
# Total GULP energy -178503.771157 kJ/mol
# GULP energy per Si atom -5578.242849 kJ/mol
# Density = 2.016252 g / cm^3
# Si number density = 20.208519 Si / 1000 Ang^3
#
#
#
# Elastic Constant Matrix: (Units=GPa)
#
#
# Indices 1 2 3 4 5 6 
#
# 1 244.3152 13.1416 104.0048 0.0000 0.0000 0.0000
# 2 13.1416 15.8514 -3.4801 0.0000 0.0000 0.0000
# 3 104.0048 -3.4801 114.2862 0.0000 0.0000 0.0000
# 4 0.0000 0.0000 0.0000 21.2801 0.0000 0.0000
# 5 0.0000 0.0000 0.0000 0.0000 30.0592 0.0000
# 6 0.0000 0.0000 0.0000 0.0000 0.0000 22.6387
#
#
#
# Elastic Compliance Matrix: (Units=1/GPa)
#
#
# Indices 1 2 3 4 5 6 
#
# 1 0.007532 -0.007801 -0.007092 0.000000 0.000000 0.000000
# 2 -0.007801 0.071591 0.009279 0.000000 0.000000 0.000000
# 3 -0.007092 0.009279 0.015486 0.000000 0.000000 0.000000
# 4 0.000000 0.000000 0.000000 0.046992 0.000000 0.000000
# 5 0.000000 0.000000 0.000000 0.000000 0.033268 0.000000
# 6 0.000000 0.000000 0.000000 0.000000 0.000000 0.044172
#
#
# Mechanical properties :
#
#
# Convention : Reuss Voigt Hill
#
# Bulk Modulus (GPa) = 11.99303 66.86502 39.42903
# Shear Modulus (GPa) = 19.37525 32.18135 25.77830
#
# Velocity S-wave (km/s) = 3.09975 3.99490 3.57545
# Velocity P-wave (km/s) = 4.33115 7.37823 6.04968
#
# Compressibility (1/GPa) = 0.08338176
#
# Stress axis : x y z
#
# Youngs Moduli (GPa) = 132.77473 13.96829 64.57399
#
# Poissons Ratio (x) = 0.10897 0.45793
# Poissons Ratio (y) = 1.03577 -0.59920
# Poissons Ratio (z) = 0.94158 -0.12961
#
# Static dielectric constant tensor:
#      x y z
#    x 1.738200 0.000000 0.000000 
#    y 0.000000 1.696120 0.000000 
#    z 0.000000 0.000000 1.714830 
# 
# From -- ./inp_files/15887.got.cif
#   From: 2010.05.17/outbox.cif.g08.bks.cpg/sg38_8_cif.got.tgz:15887.got - 2010.06.03 18:07:57.
