data_PCOD9358088
_publ_section_title
;
Structure prediction by ZEFSAII (Michael W. Deem and Ramdas Pophale) SiO2 
 PCOD9358088
Probable space group: A M M 2
;
_chemical_formula_sum "Si O2"
_cell_formula_units_Z 42
_cell_length_a 21.347068
_cell_length_b 17.759871
_cell_length_c 5.002137
_cell_angle_alpha 90.000000
_cell_angle_beta 90.000000
_cell_angle_gamma 90.000000
_cell_volume 1896.416051
_symmetry_space_group_name_H-M "A M M 2"
_symmetry_group_IT_number 38
_symmetry_cell_setting 'orthorhombic'
loop_
_space_group_symop_operation_xyz
x,y,z
-x,-y,z
-x,y,z
x,-y,z
x,1/2+y,1/2+z
-x,1/2-y,1/2+z
-x,1/2+y,1/2+z
x,1/2-y,1/2+z
loop_
_atom_site_type_symbol
_atom_site_label
_atom_site_fract_x
_atom_site_fract_y
_atom_site_fract_z
Si Si1 0.427432 0.198556 0.368680
Si Si2 0.000000 0.000000 0.888687
Si Si3 0.876604 0.416522 0.546071
Si Si4 0.760496 0.909530 0.701927
Si Si5 0.682956 0.909366 0.209801
Si Si6 0.926948 0.699700 0.941327
O O1 0.500000 0.174421 0.342355
O O2 0.417726 0.232598 0.662124
O O3 0.379581 0.133041 0.294843
O O4 0.943673 0.064440 0.907975
O O5 0.854222 0.500000 0.638028
O O6 0.824703 0.385717 0.344093
O O7 0.888352 0.367051 0.806736
O O8 0.738324 0.883472 0.412185
O O9 0.765171 0.000000 0.685949
O O10 0.705364 0.891233 0.911626
O O11 0.676054 0.000000 0.231203
O O12 0.916750 0.730444 0.237431
O O13 0.000000 0.677979 0.918076
#
# Coordination Sequence:
#
# PCOD9358088 Si02
#       6
#     8   2   8   8   8   8
#     4  10  21  38  60  87 120 154 187 230 281 329
#     4   8  16  32  64  82 108 138 200 242 280 338
#     4   9  17  35  59  81 107 142 193 231 284 335
#     4   9  19  34  57  80 114 144 185 236 282 332
#     4  10  20  37  58  84 110 152 189 228 278 328
#     4  10  20  35  52  73 102 133 166 217 278 329
#
# _framework density 22.147038999999999
#
# number of rings (size 3 to 8) (size 9 to 14) (size 15 to 20)
#    0.571    1.905    0.952    1.143    0.000    1.905 
#    0.000    8.571    0.000   14.857    0.000    0.000 
#    0.000    0.000    0.000    0.000    0.000    0.000 
#
# Total GULP energy -117070.960191 kJ/mol
# GULP energy per Si atom -5574.807628 kJ/mol
# Density = 2.209663 g / cm^3
# Si number density = 22.147039 Si / 1000 Ang^3
#
#
#
# Elastic Constant Matrix: (Units=GPa)
#
#
# Indices 1 2 3 4 5 6 
#
# 1 105.8432 29.5277 7.4816 0.0000 0.0000 0.0000
# 2 29.5277 41.8654 -1.1260 0.0000 0.0000 0.0000
# 3 7.4816 -1.1260 66.8786 0.0000 0.0000 0.0000
# 4 0.0000 0.0000 0.0000 19.0975 0.0000 0.0000
# 5 0.0000 0.0000 0.0000 0.0000 29.0781 0.0000
# 6 0.0000 0.0000 0.0000 0.0000 0.0000 40.6188
#
#
#
# Elastic Compliance Matrix: (Units=1/GPa)
#
#
# Indices 1 2 3 4 5 6 
#
# 1 0.011906 -0.008437 -0.001474 0.000000 0.000000 0.000000
# 2 -0.008437 0.029875 0.001447 0.000000 0.000000 0.000000
# 3 -0.001474 0.001447 0.015142 0.000000 0.000000 0.000000
# 4 0.000000 0.000000 0.000000 0.052363 0.000000 0.000000
# 5 0.000000 0.000000 0.000000 0.000000 0.034390 0.000000
# 6 0.000000 0.000000 0.000000 0.000000 0.000000 0.024619
#
#
# Mechanical properties :
#
#
# Convention : Reuss Voigt Hill
#
# Bulk Modulus (GPa) = 25.00302 31.81707 28.41005
# Shear Modulus (GPa) = 25.18198 29.67248 27.42723
#
# Velocity S-wave (km/s) = 3.37565 3.66429 3.52293
# Velocity P-wave (km/s) = 5.14854 5.68332 5.42253
#
# Compressibility (1/GPa) = 0.03999517
#
# Stress axis : x y z
#
# Youngs Moduli (GPa) = 83.99274 33.47227 66.04271
#
# Poissons Ratio (x) = 0.28240 0.09734
# Poissons Ratio (y) = 0.70863 -0.09555
# Poissons Ratio (z) = 0.12380 -0.04843
#
# Static dielectric constant tensor:
#      x y z
#    x 1.818190 0.000000 0.000000 
#    y 0.000000 1.848630 0.000000 
#    z 0.000000 0.000000 1.835430 
# 
# From -- ./inp_files/1869.got.cif
#   From: 2010.05.17/outbox.cif.g08.bks.cpg/sg38_1_cif.got.tgz:1869.got - 2010.06.03 18:07:57.
