data_PCOD9358663
_publ_section_title
;
Structure prediction by ZEFSAII (Michael W. Deem and Ramdas Pophale) SiO2 
 PCOD9358663
Probable space group: A M M 2
;
_chemical_formula_sum "Si O2"
_cell_formula_units_Z 44
_cell_length_a 7.750608
_cell_length_b 29.671296
_cell_length_c 10.916419
_cell_angle_alpha 90.000000
_cell_angle_beta 90.000000
_cell_angle_gamma 90.000000
_cell_volume 2510.455254
_symmetry_space_group_name_H-M "A M M 2"
_symmetry_group_IT_number 38
_symmetry_cell_setting 'orthorhombic'
loop_
_space_group_symop_operation_xyz
x,y,z
-x,-y,z
-x,y,z
x,-y,z
x,1/2+y,1/2+z
-x,1/2-y,1/2+z
-x,1/2+y,1/2+z
x,1/2-y,1/2+z
loop_
_atom_site_type_symbol
_atom_site_label
_atom_site_fract_x
_atom_site_fract_y
_atom_site_fract_z
Si Si1 0.803613 0.612638 0.082770
Si Si2 0.210064 0.448953 0.300260
Si Si3 0.204354 0.628462 0.491273
Si Si4 0.500000 0.839980 0.154125
Si Si5 0.500000 0.738572 0.137040
Si Si6 0.500000 0.343269 0.942850
Si Si7 0.809437 0.696215 0.273569
O O1 0.740129 0.571601 0.168433
O O2 0.812560 0.654427 0.178310
O O3 0.000000 0.604314 0.039479
O O4 0.667914 0.627948 0.981977
O O5 0.268961 0.500000 0.318201
O O6 0.258865 0.414339 0.407826
O O7 0.000000 0.448516 0.299313
O O8 0.330325 0.634736 0.604805
O O9 0.224282 0.672194 0.402985
O O10 0.000000 0.624493 0.519956
O O11 0.500000 0.789887 0.097131
O O12 0.500000 0.834418 0.299505
O O13 0.665195 0.728932 0.222581
O O14 0.500000 0.702376 0.025846
O O15 0.000000 0.717115 0.276290
#
# Coordination Sequence:
#
# PCOD9358663 Si02
#       7
#     8   8   8   4   4   4   8
#     4   8  15  31  53  76 104 131 159 205 261 309
#     4   8  14  29  59  91 108 127 167 216 265 313
#     4   9  19  35  53  77 109 137 165 213 268 314
#     4  12  25  34  51  71 102 144 186 209 252 315
#     4  10  21  34  53  70  96 125 175 231 261 291
#     4  10  22  36  48  73  98 139 179 212 255 308
#     4   8  15  31  54  74  95 126 162 209 270 311
#
# _framework density 17.526702
#
# number of rings (size 3 to 8) (size 9 to 14) (size 15 to 20)
#    0.000    3.091    0.000    2.727    2.545    3.636 
#    0.000    1.818    0.000    2.182    0.000    5.091 
#    0.000    0.000    0.000    0.000    0.000    0.000 
#
# Total GULP energy -122581.381822 kJ/mol
# GULP energy per Si atom -5571.880992 kJ/mol
# Density = 1.748681 g / cm^3
# Si number density = 17.526702 Si / 1000 Ang^3
#
#
#
# Elastic Constant Matrix: (Units=GPa)
#
#
# Indices 1 2 3 4 5 6 
#
# 1 89.8686 35.4516 53.6477 0.0000 0.0000 0.0000
# 2 35.4516 84.9885 26.0414 0.0000 0.0000 0.0000
# 3 53.6477 26.0414 84.6551 0.0000 0.0000 0.0000
# 4 0.0000 0.0000 0.0000 15.7470 0.0000 0.0000
# 5 0.0000 0.0000 0.0000 0.0000 13.2941 0.0000
# 6 0.0000 0.0000 0.0000 0.0000 0.0000 13.7936
#
#
#
# Elastic Compliance Matrix: (Units=1/GPa)
#
#
# Indices 1 2 3 4 5 6 
#
# 1 0.019529 -0.004807 -0.010897 0.000000 0.000000 0.000000
# 2 -0.004807 0.014174 -0.001314 0.000000 0.000000 0.000000
# 3 -0.010897 -0.001314 0.019122 0.000000 0.000000 0.000000
# 4 0.000000 0.000000 0.000000 0.063504 0.000000 0.000000
# 5 0.000000 0.000000 0.000000 0.000000 0.075221 0.000000
# 6 0.000000 0.000000 0.000000 0.000000 0.000000 0.072497
#
#
# Mechanical properties :
#
#
# Convention : Reuss Voigt Hill
#
# Bulk Modulus (GPa) = 53.22163 54.42150 53.82156
# Shear Modulus (GPa) = 16.42861 18.19172 17.31016
#
# Velocity S-wave (km/s) = 3.06493 3.22521 3.14609
# Velocity P-wave (km/s) = 6.55416 6.70726 6.63115
#
# Compressibility (1/GPa) = 0.01878935
#
# Stress axis : x y z
#
# Youngs Moduli (GPa) = 51.20665 70.55134 52.29459
#
# Poissons Ratio (x) = 0.33915 0.56985
# Poissons Ratio (y) = 0.24616 0.06871
# Poissons Ratio (z) = 0.55800 0.09269
#
# Static dielectric constant tensor:
#      x y z
#    x 1.635530 0.000000 0.000000 
#    y 0.000000 1.594250 0.000000 
#    z 0.000000 0.000000 1.576520 
# 
# From -- ./inp_files/3695.got.cif
#   From: 2010.05.17/outbox.cif.g08.bks.cpg/sg38_2_cif.got.tgz:3695.got - 2010.06.03 18:07:57.
