data_PCOD9358564
_publ_section_title
;
Structure prediction by ZEFSAII (Michael W. Deem and Ramdas Pophale) SiO2 
 PCOD9358564
Probable space group: A M M 2
;
_chemical_formula_sum "Si O2"
_cell_formula_units_Z 56
_cell_length_a 24.211314
_cell_length_b 7.946850
_cell_length_c 14.826120
_cell_angle_alpha 90.000000
_cell_angle_beta 90.000000
_cell_angle_gamma 90.000000
_cell_volume 2852.600058
_symmetry_space_group_name_H-M "A M M 2"
_symmetry_group_IT_number 38
_symmetry_cell_setting 'orthorhombic'
loop_
_space_group_symop_operation_xyz
x,y,z
-x,-y,z
-x,y,z
x,-y,z
x,1/2+y,1/2+z
-x,1/2-y,1/2+z
-x,1/2+y,1/2+z
x,1/2-y,1/2+z
loop_
_atom_site_type_symbol
_atom_site_label
_atom_site_fract_x
_atom_site_fract_y
_atom_site_fract_z
Si Si1 0.936916 0.000000 0.917161
Si Si2 0.438655 0.205201 0.708036
Si Si3 0.141171 0.305703 0.698433
Si Si4 0.772981 0.194182 0.045585
Si Si5 0.648392 0.303179 0.064853
Si Si6 0.937316 0.000000 0.697287
Si Si7 0.437998 0.796595 0.917845
Si Si8 0.861020 0.687211 0.912505
O O1 0.938939 0.000000 0.807246
O O2 0.902754 0.833542 0.943165
O O3 0.000000 0.000000 0.949867
O O4 0.500000 0.261912 0.678644
O O5 0.389043 0.267912 0.646239
O O6 0.438869 0.000000 0.702593
O O7 0.431720 0.248481 0.812777
O O8 0.123859 0.500000 0.682054
O O9 0.196073 0.273521 0.640338
O O10 0.096080 0.167374 0.670803
O O11 0.150567 0.288465 0.805849
O O12 0.708152 0.224011 0.052703
O O13 0.782486 0.000000 0.021865
O O14 0.805079 0.298353 0.969671
O O15 0.657714 0.500000 0.081823
O O16 0.609709 0.280343 0.977975
O O17 0.000000 0.000000 0.664292
O O18 0.500000 0.744372 0.946517
O O19 0.435261 0.000000 0.924354
O O20 0.884825 0.500000 0.923982
#
# Coordination Sequence:
#
# PCOD9358564 Si02
#       8
#     4   8   8   8   8   4   8   8
#     4   9  18  36  60  90 119 151 192 235 287 343
#     4   8  16  33  55  78 108 144 183 227 278 340
#     4   9  21  38  59  84 116 153 190 238 290 340
#     4  11  23  40  58  78 114 154 193 242 289 342
#     4  11  22  34  53  83 109 143 187 235 283 336
#     4   9  18  34  62  90 115 149 192 235 283 347
#     4   9  18  35  57  79 108 146 184 227 281 340
#     4  10  20  38  61  86 115 153 194 237 290 343
#
# _framework density 19.631214
#
# number of rings (size 3 to 8) (size 9 to 14) (size 15 to 20)
#    0.000    2.429    0.714    2.143    2.000    2.571 
#    0.000    7.857    0.000    1.714    0.000    0.000 
#    0.000    0.000    0.000    0.000    0.000    0.000 
#
# Total GULP energy -156290.008143 kJ/mol
# GULP energy per Si atom -5581.786005 kJ/mol
# Density = 1.958653 g / cm^3
# Si number density = 19.631214 Si / 1000 Ang^3
#
#
#
# Elastic Constant Matrix: (Units=GPa)
#
#
# Indices 1 2 3 4 5 6 
#
# 1 156.2840 53.1401 48.0917 0.0000 0.0000 0.0000
# 2 53.1401 74.9105 33.3000 0.0000 0.0000 0.0000
# 3 48.0917 33.3000 56.0052 0.0000 0.0000 0.0000
# 4 0.0000 0.0000 0.0000 18.0815 0.0000 0.0000
# 5 0.0000 0.0000 0.0000 0.0000 33.6158 0.0000
# 6 0.0000 0.0000 0.0000 0.0000 0.0000 27.1536
#
#
#
# Elastic Compliance Matrix: (Units=1/GPa)
#
#
# Indices 1 2 3 4 5 6 
#
# 1 0.009610 -0.004280 -0.005707 0.000000 0.000000 0.000000
# 2 -0.004280 0.020052 -0.008247 0.000000 0.000000 0.000000
# 3 -0.005707 -0.008247 0.027660 0.000000 0.000000 0.000000
# 4 0.000000 0.000000 0.000000 0.055305 0.000000 0.000000
# 5 0.000000 0.000000 0.000000 0.000000 0.029748 0.000000
# 6 0.000000 0.000000 0.000000 0.000000 0.000000 0.036827
#
#
# Mechanical properties :
#
#
# Convention : Reuss Voigt Hill
#
# Bulk Modulus (GPa) = 47.95555 61.80702 54.88129
# Shear Modulus (GPa) = 22.45956 25.94805 24.20381
#
# Velocity S-wave (km/s) = 3.38609 3.63957 3.51511
# Velocity P-wave (km/s) = 6.30624 7.01529 6.67020
#
# Compressibility (1/GPa) = 0.02085264
#
# Stress axis : x y z
#
# Youngs Moduli (GPa) = 104.05555 49.87131 36.15339
#
# Poissons Ratio (x) = 0.21346 0.20634
# Poissons Ratio (y) = 0.44538 0.29816
# Poissons Ratio (z) = 0.59388 0.41129
#
# Static dielectric constant tensor:
#      x y z
#    x 1.649450 0.000000 0.000000 
#    y 0.000000 1.706930 0.000000 
#    z 0.000000 0.000000 1.694400 
# 
# From -- ./inp_files/15552.got.cif
#   From: 2010.05.17/outbox.cif.g08.bks.cpg/sg38_8_cif.got.tgz:15552.got - 2010.06.03 18:07:57.
