data_PCOD9358858
_publ_section_title
;
Structure prediction by ZEFSAII (Michael W. Deem and Ramdas Pophale) SiO2 
 PCOD9358858
Probable space group: A M M 2
;
_chemical_formula_sum "Si O2"
_cell_formula_units_Z 48
_cell_length_a 7.729306
_cell_length_b 10.275661
_cell_length_c 28.993167
_cell_angle_alpha 90.000000
_cell_angle_beta 90.000000
_cell_angle_gamma 90.000000
_cell_volume 2302.745416
_symmetry_space_group_name_H-M "A M M 2"
_symmetry_group_IT_number 38
_symmetry_cell_setting 'orthorhombic'
loop_
_space_group_symop_operation_xyz
x,y,z
-x,-y,z
-x,y,z
x,-y,z
x,1/2+y,1/2+z
-x,1/2-y,1/2+z
-x,1/2+y,1/2+z
x,1/2-y,1/2+z
loop_
_atom_site_type_symbol
_atom_site_label
_atom_site_fract_x
_atom_site_fract_y
_atom_site_fract_z
Si Si1 0.207992 0.651007 0.626290
Si Si2 0.299503 0.000000 0.466701
Si Si3 0.708835 0.150147 0.708221
Si Si4 0.711498 0.239996 0.809389
Si Si5 0.712770 0.000000 0.361425
Si Si6 0.800380 0.741305 0.030375
Si Si7 0.290425 0.000000 0.976835
Si Si8 0.289133 0.500000 0.371384
O O1 0.270835 0.500000 0.630322
O O2 0.243848 0.745174 0.669260
O O3 0.278046 0.723773 0.580408
O O4 0.000000 0.641302 0.621349
O O5 0.221686 0.000000 0.414701
O O6 0.265448 0.874740 0.498384
O O7 0.500000 0.000000 0.456823
O O8 0.500000 0.144053 0.709692
O O9 0.769094 0.204601 0.757829
O O10 0.769117 0.000000 0.700603
O O11 0.500000 0.241192 0.808123
O O12 0.767299 0.374292 0.832329
O O13 0.766551 0.126022 0.843622
O O14 0.500000 0.000000 0.361816
O O15 0.000000 0.709386 0.038577
O O16 0.779223 0.873214 0.001900
O O17 0.500000 0.000000 0.979038
O O18 0.234338 0.000000 0.923949
O O19 0.500000 0.500000 0.371642
#
# Coordination Sequence:
#
# PCOD9358858 Si02
#       8
#     8   4   8   8   4   8   4   4
#     4  10  23  43  62  81 110 155 201 237 287 359
#     4  11  23  39  60  93 124 152 201 257 294 335
#     4  10  21  36  58  92 122 146 187 245 296 339
#     4   9  16  30  51  80 117 152 184 228 289 353
#     4   9  18  31  52  83 118 152 191 237 288 343
#     4  11  23  42  62  83 118 164 201 236 297 371
#     4  11  21  35  62  95 118 148 197 253 298 337
#     4   9  16  29  52  81 114 148 183 229 290 351
#
# _framework density 20.844684999999998
#
# number of rings (size 3 to 8) (size 9 to 14) (size 15 to 20)
#    0.000    2.000    1.667    2.000    2.333    4.667 
#    0.000    0.000    0.000    6.000    0.000    0.000 
#    0.000    0.000    0.000    0.000    0.000    0.000 
#
# Total GULP energy -133960.664561 kJ/mol
# GULP energy per Si atom -5581.694357 kJ/mol
# Density = 2.079724 g / cm^3
# Si number density = 20.844685 Si / 1000 Ang^3
#
#
#
# Elastic Constant Matrix: (Units=GPa)
#
#
# Indices 1 2 3 4 5 6 
#
# 1 28.1603 -10.2623 -10.8655 0.0000 0.0000 0.0000
# 2 -10.2623 172.4739 77.9602 0.0000 0.0000 0.0000
# 3 -10.8655 77.9602 183.2520 0.0000 0.0000 0.0000
# 4 0.0000 0.0000 0.0000 169.9634 0.0000 0.0000
# 5 0.0000 0.0000 0.0000 0.0000 33.6501 0.0000
# 6 0.0000 0.0000 0.0000 0.0000 0.0000 23.8157
#
#
#
# Elastic Compliance Matrix: (Units=1/GPa)
#
#
# Indices 1 2 3 4 5 6 
#
# 1 0.036646 0.001484 0.001542 0.000000 0.000000 0.000000
# 2 0.001484 0.007238 -0.002991 0.000000 0.000000 0.000000
# 3 0.001542 -0.002991 0.006821 0.000000 0.000000 0.000000
# 4 0.000000 0.000000 0.000000 0.005884 0.000000 0.000000
# 5 0.000000 0.000000 0.000000 0.000000 0.029718 0.000000
# 6 0.000000 0.000000 0.000000 0.000000 0.000000 0.041989
#
#
# Mechanical properties :
#
#
# Convention : Reuss Voigt Hill
#
# Bulk Modulus (GPa) = 19.69526 55.28344 37.48935
# Shear Modulus (GPa) = 34.44643 67.28945 50.86794
#
# Velocity S-wave (km/s) = 4.06954 5.68783 4.94533
# Velocity P-wave (km/s) = 5.61699 8.34952 7.11565
#
# Compressibility (1/GPa) = 0.05077365
#
# Stress axis : x y z
#
# Youngs Moduli (GPa) = 27.28777 138.15162 146.60564
#
# Poissons Ratio (x) = -0.20496 -0.22602
# Poissons Ratio (y) = -0.04048 0.43856
# Poissons Ratio (z) = -0.04207 0.41327
#
# Static dielectric constant tensor:
#      x y z
#    x 1.782710 0.000000 0.000000 
#    y 0.000000 1.657360 0.000000 
#    z 0.000000 0.000000 1.741450 
# 
# From -- ./inp_files/24501.got.cif
#   From: 2010.05.17/outbox.cif.g08.bks.cpg/sg38_13_cif.got.tgz:24501.got - 2010.06.03 18:07:57.
