data_PCOD9358012
_publ_section_title
;
Structure prediction by ZEFSAII (Michael W. Deem and Ramdas Pophale) SiO2 
 PCOD9358012
Probable space group: A M M 2
;
_chemical_formula_sum "Si O2"
_cell_formula_units_Z 40
_cell_length_a 18.847431
_cell_length_b 20.434527
_cell_length_c 5.300345
_cell_angle_alpha 90.000000
_cell_angle_beta 90.000000
_cell_angle_gamma 90.000000
_cell_volume 2041.366062
_symmetry_space_group_name_H-M "A M M 2"
_symmetry_group_IT_number 38
_symmetry_cell_setting 'orthorhombic'
loop_
_space_group_symop_operation_xyz
x,y,z
-x,-y,z
-x,y,z
x,-y,z
x,1/2+y,1/2+z
-x,1/2-y,1/2+z
-x,1/2+y,1/2+z
x,1/2-y,1/2+z
loop_
_atom_site_type_symbol
_atom_site_label
_atom_site_fract_x
_atom_site_fract_y
_atom_site_fract_z
Si Si1 0.422423 0.793627 0.126940
Si Si2 0.219951 0.424300 0.106408
Si Si3 0.874240 0.288456 0.616510
Si Si4 0.268854 0.647817 0.607355
Si Si5 0.082122 0.074359 0.319913
O O1 0.500000 0.827297 0.107706
O O2 0.420112 0.758151 0.397654
O O3 0.350953 0.834342 0.100997
O O4 0.236408 0.500000 0.136849
O O5 0.246377 0.386506 0.348875
O O6 0.254418 0.396726 0.851066
O O7 0.135807 0.417249 0.053631
O O8 0.897041 0.252954 0.361018
O O9 0.788033 0.293163 0.629857
O O10 0.901149 0.363325 0.643381
O O11 0.000000 0.076600 0.391297
O O12 0.096544 0.000000 0.216943
#
# Coordination Sequence:
#
# PCOD9358012 Si02
#       5
#     8   8   8   8   8
#     4  10  20  34  55  84 115 147 186 234 289 351
#     4  10  21  37  59  85 112 150 199 245 287 340
#     4  11  22  37  58  86 116 148 188 238 294 345
#     4  11  20  36  59  83 116 153 190 236 292 355
#     4   9  20  40  62  85 116 156 201 246 295 355
#
# _framework density 19.594722000000001
#
# number of rings (size 3 to 8) (size 9 to 14) (size 15 to 20)
#    0.000    1.800    0.000    5.400    0.000    1.600 
#    0.000    9.000    0.000   30.000    0.000    0.000 
#    0.000    0.000    0.000    0.000    0.000    0.000 
#
# Total GULP energy -111671.174810 kJ/mol
# GULP energy per Si atom -5583.558740 kJ/mol
# Density = 1.955012 g / cm^3
# Si number density = 19.594722 Si / 1000 Ang^3
#
#
#
# Elastic Constant Matrix: (Units=GPa)
#
#
# Indices 1 2 3 4 5 6 
#
# 1 154.1265 44.5841 22.1121 0.0000 0.0000 0.0000
# 2 44.5841 97.1440 63.5108 0.0000 0.0000 0.0000
# 3 22.1121 63.5108 168.7145 0.0000 0.0000 0.0000
# 4 0.0000 0.0000 0.0000 54.5542 0.0000 0.0000
# 5 0.0000 0.0000 0.0000 0.0000 18.4897 0.0000
# 6 0.0000 0.0000 0.0000 0.0000 0.0000 26.7988
#
#
#
# Elastic Compliance Matrix: (Units=1/GPa)
#
#
# Indices 1 2 3 4 5 6 
#
# 1 0.007503 -0.003715 0.000415 0.000000 0.000000 0.000000
# 2 -0.003715 0.015494 -0.005346 0.000000 0.000000 0.000000
# 3 0.000415 -0.005346 0.007885 0.000000 0.000000 0.000000
# 4 0.000000 0.000000 0.000000 0.018330 0.000000 0.000000
# 5 0.000000 0.000000 0.000000 0.000000 0.054084 0.000000
# 6 0.000000 0.000000 0.000000 0.000000 0.000000 0.037315
#
#
# Mechanical properties :
#
#
# Convention : Reuss Voigt Hill
#
# Bulk Modulus (GPa) = 73.57730 75.59990 74.58860
# Shear Modulus (GPa) = 30.78192 39.28710 35.03451
#
# Velocity S-wave (km/s) = 3.96779 4.48256 4.23301
# Velocity P-wave (km/s) = 7.65652 8.09053 7.87651
#
# Compressibility (1/GPa) = 0.01359115
#
# Stress axis : x y z
#
# Youngs Moduli (GPa) = 133.27550 64.54184 126.82204
#
# Poissons Ratio (x) = 0.23977 -0.05264
# Poissons Ratio (y) = 0.49511 0.67794
# Poissons Ratio (z) = -0.05532 0.34501
#
# Static dielectric constant tensor:
#      x y z
#    x 1.708130 0.000000 0.000000 
#    y 0.000000 1.705230 0.000000 
#    z 0.000000 0.000000 1.672270 
# 
# From -- ./inp_files/1537.got.cif
#   From: 2010.05.17/outbox.cif.g08.bks.cpg/sg38_1_cif.got.tgz:1537.got - 2010.06.03 18:07:57.
