data_PCOD9358833
_publ_section_title
;
Structure prediction by ZEFSAII (Michael W. Deem and Ramdas Pophale) SiO2 
 PCOD9358833
Probable space group: A M M 2
;
_chemical_formula_sum "Si O2"
_cell_formula_units_Z 48
_cell_length_a 7.769395
_cell_length_b 10.315698
_cell_length_c 28.861967
_cell_angle_alpha 90.000000
_cell_angle_beta 90.000000
_cell_angle_gamma 90.000000
_cell_volume 2313.192347
_symmetry_space_group_name_H-M "A M M 2"
_symmetry_group_IT_number 38
_symmetry_cell_setting 'orthorhombic'
loop_
_space_group_symop_operation_xyz
x,y,z
-x,-y,z
-x,y,z
x,-y,z
x,1/2+y,1/2+z
-x,1/2-y,1/2+z
-x,1/2+y,1/2+z
x,1/2-y,1/2+z
loop_
_atom_site_type_symbol
_atom_site_label
_atom_site_fract_x
_atom_site_fract_y
_atom_site_fract_z
Si Si1 0.299114 0.648774 0.621730
Si Si2 0.296182 0.000000 0.463371
Si Si3 0.711068 0.151407 0.699273
Si Si4 0.289954 0.245439 0.800811
Si Si5 0.711281 0.000000 0.356298
Si Si6 0.802432 0.750232 0.023426
Si Si7 0.291944 0.000000 0.965381
Si Si8 0.289938 0.500000 0.359742
O O1 0.500000 0.634966 0.633785
O O2 0.227745 0.500000 0.620834
O O3 0.227237 0.751712 0.658836
O O4 0.290757 0.714824 0.571289
O O5 0.249367 0.874670 0.493718
O O6 0.500000 0.000000 0.458307
O O7 0.228253 0.000000 0.410114
O O8 0.500000 0.147798 0.698309
O O9 0.763111 0.214320 0.748395
O O10 0.765550 0.000000 0.695354
O O11 0.500000 0.248250 0.800056
O O12 0.234078 0.375423 0.826622
O O13 0.234141 0.126260 0.832491
O O14 0.500000 0.000000 0.357662
O O15 0.000000 0.735440 0.036353
O O16 0.774544 0.873443 0.990835
O O17 0.500000 0.000000 0.967419
O O18 0.235023 0.000000 0.912483
O O19 0.500000 0.500000 0.359749
#
# Coordination Sequence:
#
# PCOD9358833 Si02
#       8
#     8   4   8   8   4   8   4   4
#     4  10  21  36  56  83 115 152 196 243 295 354
#     4  11  23  41  62  87 120 160 203 247 294 351
#     4   9  17  29  48  78 115 152 186 231 293 351
#     4   9  15  26  44  74 116 149 177 228 292 346
#     4   9  18  29  48  79 114 150 187 231 288 343
#     4  12  25  41  60  86 119 156 199 249 304 358
#     4  11  21  37  62  89 118 156 199 243 294 353
#     4   9  16  27  48  77 110 146 183 227 284 345
#
# _framework density 20.750546
#
# number of rings (size 3 to 8) (size 9 to 14) (size 15 to 20)
#    0.000    2.000    1.667    3.000    2.333    2.667 
#    0.000    0.000    0.000    0.000    0.000    7.000 
#    0.000    0.000    0.000    0.000    0.000    0.000 
#
# Total GULP energy -133967.772349 kJ/mol
# GULP energy per Si atom -5581.990515 kJ/mol
# Density = 2.070332 g / cm^3
# Si number density = 20.750546 Si / 1000 Ang^3
#
#
#
# Elastic Constant Matrix: (Units=GPa)
#
#
# Indices 1 2 3 4 5 6 
#
# 1 31.3138 -0.0442 -11.0862 0.0000 0.0000 0.0000
# 2 -0.0442 234.4412 125.4358 0.0000 0.0000 0.0000
# 3 -11.0862 125.4358 203.6788 0.0000 0.0000 0.0000
# 4 0.0000 0.0000 0.0000 44.8817 0.0000 0.0000
# 5 0.0000 0.0000 0.0000 0.0000 -30.3432 0.0000
# 6 0.0000 0.0000 0.0000 0.0000 0.0000 10.1729
#
#
#
# Elastic Compliance Matrix: (Units=1/GPa)
#
#
# Indices 1 2 3 4 5 6 
#
# 1 0.032876 -0.001419 0.002663 0.000000 0.000000 0.000000
# 2 -0.001419 0.006423 -0.004033 0.000000 0.000000 0.000000
# 3 0.002663 -0.004033 0.007538 0.000000 0.000000 0.000000
# 4 0.000000 0.000000 0.000000 0.022281 0.000000 0.000000
# 5 0.000000 0.000000 0.000000 0.000000 -0.032956 0.000000
# 6 0.000000 0.000000 0.000000 0.000000 0.000000 0.098300
#
#
# Mechanical properties :
#
#
# Convention : Reuss Voigt Hill
#
# Bulk Modulus (GPa) = 24.23650 77.56053 50.89852
# Shear Modulus (GPa) = 32.51158 28.61751 30.56454
#
# Velocity S-wave (km/s) = 3.96255 3.71768 3.84207
# Velocity P-wave (km/s) = 5.71324 7.47576 6.65312
#
# Compressibility (1/GPa) = 0.04126008
#
# Stress axis : x y z
#
# Youngs Moduli (GPa) = 30.41766 155.69317 132.65729
#
# Poissons Ratio (x) = 0.22088 -0.35328
# Poissons Ratio (y) = 0.04315 0.53498
# Poissons Ratio (z) = -0.08101 0.62787
#
# Static dielectric constant tensor:
#      x y z
#    x 1.765200 0.000000 0.000000 
#    y 0.000000 1.723380 0.000000 
#    z 0.000000 0.000000 1.721920 
# 
# From -- ./inp_files/24500.got.cif
#   From: 2010.05.17/outbox.cif.g08.bks.cpg/sg38_13_cif.got.tgz:24500.got - 2010.06.03 18:07:57.
