data_PCOD9358959
_publ_section_title
;
Structure prediction by ZEFSAII (Michael W. Deem and Ramdas Pophale) SiO2 
 PCOD9358959
Probable space group: A M M 2
;
_chemical_formula_sum "Si O2"
_cell_formula_units_Z 64
_cell_length_a 21.399486
_cell_length_b 16.454353
_cell_length_c 9.922992
_cell_angle_alpha 90.000000
_cell_angle_beta 90.000000
_cell_angle_gamma 90.000000
_cell_volume 3494.031318
_symmetry_space_group_name_H-M "A M M 2"
_symmetry_group_IT_number 38
_symmetry_cell_setting 'orthorhombic'
loop_
_space_group_symop_operation_xyz
x,y,z
-x,-y,z
-x,y,z
x,-y,z
x,1/2+y,1/2+z
-x,1/2-y,1/2+z
-x,1/2+y,1/2+z
x,1/2-y,1/2+z
loop_
_atom_site_type_symbol
_atom_site_label
_atom_site_fract_x
_atom_site_fract_y
_atom_site_fract_z
Si Si1 0.345139 0.319237 0.585500
Si Si2 0.430912 0.094610 0.297822
Si Si3 0.852914 0.257982 0.956131
Si Si4 0.327718 0.096054 0.799596
Si Si5 0.925755 0.909613 0.335753
Si Si6 0.426507 0.838968 0.590207
Si Si7 0.074555 0.592968 0.512344
Si Si8 0.230326 0.776137 0.708231
O O1 0.378754 0.365815 0.706418
O O2 0.334626 0.371309 0.451710
O O3 0.391647 0.244674 0.553552
O O4 0.280470 0.284833 0.643028
O O5 0.500000 0.130142 0.267900
O O6 0.420393 0.106716 0.456428
O O7 0.432419 0.000000 0.267090
O O8 0.895029 0.332972 0.907439
O O9 0.795446 0.252483 0.851891
O O10 0.888140 0.170431 0.954401
O O11 0.826817 0.277930 0.104178
O O12 0.388604 0.123071 0.714406
O O13 0.268435 0.140856 0.731848
O O14 0.321087 0.000000 0.797639
O O15 0.916265 0.903662 0.174321
O O16 0.000000 0.907450 0.358822
O O17 0.902859 0.000000 0.377909
O O18 0.500000 0.828602 0.619443
O O19 0.092584 0.500000 0.469682
O O20 0.000000 0.601599 0.486388
#
# Coordination Sequence:
#
# PCOD9358959 Si02
#       8
#     8   8   8   8   8   8   8   8
#     4  11  22  40  59  82 113 154 198 239 290 353
#     4  10  21  37  58  85 113 143 185 236 290 350
#     4  12  21  41  63  89 122 162 206 250 298 362
#     4  11  24  41  60  85 120 155 197 257 309 351
#     4   9  19  37  62  93 125 158 200 247 300 362
#     4  10  21  38  61  87 116 150 190 238 299 363
#     4   9  19  37  63  94 125 160 201 245 302 366
#     4  11  25  40  59  85 119 158 205 245 294 355
#
# _framework density 18.316951
#
# number of rings (size 3 to 8) (size 9 to 14) (size 15 to 20)
#    0.000    1.625    2.500    3.750    1.750    3.750 
#    0.000    1.250    0.000    1.500    0.000    0.000 
#    0.000    0.000    0.000    0.000    0.000    0.000 
#
# Total GULP energy -178580.895807 kJ/mol
# GULP energy per Si atom -5580.652994 kJ/mol
# Density = 1.827526 g / cm^3
# Si number density = 18.316951 Si / 1000 Ang^3
#
#
#
# Elastic Constant Matrix: (Units=GPa)
#
#
# Indices 1 2 3 4 5 6 
#
# 1 60.4646 40.8869 17.2640 0.0000 0.0000 0.0000
# 2 40.8869 107.7962 20.2899 0.0000 0.0000 0.0000
# 3 17.2640 20.2899 55.5431 0.0000 0.0000 0.0000
# 4 0.0000 0.0000 0.0000 61.8215 0.0000 0.0000
# 5 0.0000 0.0000 0.0000 0.0000 52.4938 0.0000
# 6 0.0000 0.0000 0.0000 0.0000 0.0000 7.4599
#
#
#
# Elastic Compliance Matrix: (Units=1/GPa)
#
#
# Indices 1 2 3 4 5 6 
#
# 1 0.023155 -0.007977 -0.004283 0.000000 0.000000 0.000000
# 2 -0.007977 0.012709 -0.002163 0.000000 0.000000 0.000000
# 3 -0.004283 -0.002163 0.020126 0.000000 0.000000 0.000000
# 4 0.000000 0.000000 0.000000 0.016176 0.000000 0.000000
# 5 0.000000 0.000000 0.000000 0.000000 0.019050 0.000000
# 6 0.000000 0.000000 0.000000 0.000000 0.000000 0.134049
#
#
# Mechanical properties :
#
#
# Convention : Reuss Voigt Hill
#
# Bulk Modulus (GPa) = 36.84082 42.29838 39.56960
# Shear Modulus (GPa) = 18.99982 34.04592 26.52287
#
# Velocity S-wave (km/s) = 3.22418 4.31595 3.80938
# Velocity P-wave (km/s) = 5.83241 6.92670 6.40298
#
# Compressibility (1/GPa) = 0.02714381
#
# Stress axis : x y z
#
# Youngs Moduli (GPa) = 43.18637 78.68135 49.68762
#
# Poissons Ratio (x) = 0.62761 0.21283
# Poissons Ratio (y) = 0.34448 0.10750
# Poissons Ratio (z) = 0.18498 0.17023
#
# Static dielectric constant tensor:
#      x y z
#    x 1.637120 0.000000 0.000000 
#    y 0.000000 1.626420 0.000000 
#    z 0.000000 0.000000 1.604830 
# 
# From -- ./inp_files/6842.got.cif
#   From: 2010.05.17/outbox.cif.g08.bks.cpg/sg38_4_cif.got.tgz:6842.got - 2010.06.03 18:07:57.
