data_PCOD9358697
_publ_section_title
;
Structure prediction by ZEFSAII (Michael W. Deem and Ramdas Pophale) SiO2 
 PCOD9358697
Probable space group: A M M 2
;
_chemical_formula_sum "Si O2"
_cell_formula_units_Z 48
_cell_length_a 8.796741
_cell_length_b 30.152050
_cell_length_c 10.390964
_cell_angle_alpha 90.000000
_cell_angle_beta 90.000000
_cell_angle_gamma 90.000000
_cell_volume 2756.096948
_symmetry_space_group_name_H-M "A M M 2"
_symmetry_group_IT_number 38
_symmetry_cell_setting 'orthorhombic'
loop_
_space_group_symop_operation_xyz
x,y,z
-x,-y,z
-x,y,z
x,-y,z
x,1/2+y,1/2+z
-x,1/2-y,1/2+z
-x,1/2+y,1/2+z
x,1/2-y,1/2+z
loop_
_atom_site_type_symbol
_atom_site_label
_atom_site_fract_x
_atom_site_fract_y
_atom_site_fract_z
Si Si1 0.818637 0.051133 0.090080
Si Si2 0.316233 0.620816 0.095526
Si Si3 0.181784 0.281857 0.087730
Si Si4 0.681241 0.384845 0.801556
Si Si5 0.683237 0.550959 0.313409
Si Si6 0.317529 0.219139 0.306894
O O1 0.763043 0.083534 0.201392
O O2 0.000000 0.052359 0.081277
O O3 0.771451 0.000000 0.115870
O O4 0.749191 0.063843 0.951940
O O5 0.500000 0.627109 0.100329
O O6 0.238013 0.668146 0.116721
O O7 0.271327 0.584769 0.201482
O O8 0.279330 0.605421 0.950394
O O9 0.247201 0.249459 0.196402
O O10 0.000000 0.279993 0.084530
O O11 0.249045 0.270130 0.947142
O O12 0.500000 0.390416 0.786887
O O13 0.716218 0.332824 0.780671
O O14 0.500000 0.551690 0.320729
O O15 0.730097 0.500000 0.286566
O O16 0.500000 0.224222 0.311303
#
# Coordination Sequence:
#
# PCOD9358697 Si02
#       6
#     8   8   8   8   8   8
#     4  10  21  35  51  75 108 142 174 212 261 314
#     4   9  19  36  56  79 107 138 174 217 267 319
#     4  11  22  36  56  83 111 140 178 222 267 316
#     4   9  19  35  56  79 102 134 175 217 260 309
#     4   9  18  34  56  79 103 135 177 221 261 307
#     4  10  21  39  59  79 107 143 180 219 268 321
#
# _framework density 17.415932000000002
#
# number of rings (size 3 to 8) (size 9 to 14) (size 15 to 20)
#    0.000    2.333    0.000    3.500    0.000    7.000 
#    0.000    3.333    0.000    2.000    0.000    0.000 
#    0.000    0.000    0.000    0.000    0.000    0.000 
#
# Total GULP energy -133953.944597 kJ/mol
# GULP energy per Si atom -5581.414358 kJ/mol
# Density = 1.737629 g / cm^3
# Si number density = 17.415932 Si / 1000 Ang^3
#
#
#
# Elastic Constant Matrix: (Units=GPa)
#
#
# Indices 1 2 3 4 5 6 
#
# 1 59.1073 55.5090 69.0162 0.0000 0.0000 0.0000
# 2 55.5090 99.3931 122.9292 0.0000 0.0000 0.0000
# 3 69.0162 122.9292 180.3704 0.0000 0.0000 0.0000
# 4 0.0000 0.0000 0.0000 41.7420 0.0000 0.0000
# 5 0.0000 0.0000 0.0000 0.0000 8.2229 0.0000
# 6 0.0000 0.0000 0.0000 0.0000 0.0000 24.0115
#
#
#
# Elastic Compliance Matrix: (Units=1/GPa)
#
#
# Indices 1 2 3 4 5 6 
#
# 1 0.035585 -0.019310 -0.000456 0.000000 0.000000 0.000000
# 2 -0.019310 0.074530 -0.043407 0.000000 0.000000 0.000000
# 3 -0.000456 -0.043407 0.035302 0.000000 0.000000 0.000000
# 4 0.000000 0.000000 0.000000 0.023957 0.000000 0.000000
# 5 0.000000 0.000000 0.000000 0.000000 0.121611 0.000000
# 6 0.000000 0.000000 0.000000 0.000000 0.000000 0.041647
#
#
# Mechanical properties :
#
#
# Convention : Reuss Voigt Hill
#
# Bulk Modulus (GPa) = 52.43089 92.64217 72.53653
# Shear Modulus (GPa) = 10.74498 20.88970 15.81734
#
# Velocity S-wave (km/s) = 2.48657 3.46708 3.01692
# Velocity P-wave (km/s) = 6.19794 8.32688 7.34001
#
# Compressibility (1/GPa) = 0.01907273
#
# Stress axis : x y z
#
# Youngs Moduli (GPa) = 28.10199 13.41735 28.32720
#
# Poissons Ratio (x) = 0.25908 0.01291
# Poissons Ratio (y) = 0.54264 1.22959
# Poissons Ratio (z) = 0.01281 0.58240
#
# Static dielectric constant tensor:
#      x y z
#    x 1.581750 0.000000 0.000000 
#    y 0.000000 1.576280 0.000000 
#    z 0.000000 0.000000 1.564390 
# 
# From -- ./inp_files/3739.got.cif
#   From: 2010.05.17/outbox.cif.g08.bks.cpg/sg38_2_cif.got.tgz:3739.got - 2010.06.03 18:07:57.
