data_PCOD9358815
_publ_section_title
;
Structure prediction by ZEFSAII (Michael W. Deem and Ramdas Pophale) SiO2 
 PCOD9358815
Probable space group: A M M 2
;
_chemical_formula_sum "Si O2"
_cell_formula_units_Z 48
_cell_length_a 8.677936
_cell_length_b 31.393538
_cell_length_c 9.339742
_cell_angle_alpha 90.000000
_cell_angle_beta 90.000000
_cell_angle_gamma 90.000000
_cell_volume 2544.436314
_symmetry_space_group_name_H-M "A M M 2"
_symmetry_group_IT_number 38
_symmetry_cell_setting 'orthorhombic'
loop_
_space_group_symop_operation_xyz
x,y,z
-x,-y,z
-x,y,z
x,-y,z
x,1/2+y,1/2+z
-x,1/2-y,1/2+z
-x,1/2+y,1/2+z
x,1/2-y,1/2+z
loop_
_atom_site_type_symbol
_atom_site_label
_atom_site_fract_x
_atom_site_fract_y
_atom_site_fract_z
Si Si1 0.314301 0.951711 0.176190
Si Si2 0.685608 0.710295 0.989036
Si Si3 0.183996 0.789509 0.168309
Si Si4 0.686585 0.869694 0.996954
Si Si5 0.815664 0.048631 0.491798
Si Si6 0.314372 0.373620 0.166535
O O1 0.500000 0.951213 0.187658
O O2 0.246330 0.941866 0.332386
O O3 0.267030 0.000000 0.136748
O O4 0.270408 0.915453 0.063623
O O5 0.500000 0.712494 0.983961
O O6 0.750867 0.711279 0.829075
O O7 0.748791 0.749807 0.079784
O O8 0.730786 0.666540 0.068798
O O9 0.000000 0.787316 0.171223
O O10 0.238923 0.832407 0.089671
O O11 0.500000 0.865484 0.004970
O O12 0.732646 0.866801 0.831007
O O13 0.751871 0.083193 0.601106
O O14 0.000000 0.050242 0.489862
O O15 0.767595 0.000000 0.526562
O O16 0.500000 0.376329 0.163982
#
# Coordination Sequence:
#
# PCOD9358815 Si02
#       6
#     8   8   8   8   8   8
#     4   9  18  34  57  83 111 147 193 241 286 337
#     4  11  23  41  63  86 116 155 196 237 288 347
#     4  12  25  40  61  90 120 151 191 239 290 342
#     4  10  21  38  59  85 117 152 192 237 288 344
#     4  10  21  36  55  81 114 151 189 232 286 345
#     4  10  22  38  59  85 112 148 193 238 282 335
#
# _framework density 18.86469
#
# number of rings (size 3 to 8) (size 9 to 14) (size 15 to 20)
#    0.000    1.667    0.000    4.500    0.000    9.667 
#    0.000    1.667    0.000    2.000    0.000    0.000 
#    0.000    0.000    0.000    0.000    0.000    0.000 
#
# Total GULP energy -134157.905992 kJ/mol
# GULP energy per Si atom -5589.912750 kJ/mol
# Density = 1.882175 g / cm^3
# Si number density = 18.864690 Si / 1000 Ang^3
#
#
#
# Elastic Constant Matrix: (Units=GPa)
#
#
# Indices 1 2 3 4 5 6 
#
# 1 41.6677 45.3552 51.4820 0.0000 0.0000 0.0000
# 2 45.3552 136.2348 112.7948 0.0000 0.0000 0.0000
# 3 51.4820 112.7948 191.2628 0.0000 0.0000 0.0000
# 4 0.0000 0.0000 0.0000 42.5779 0.0000 0.0000
# 5 0.0000 0.0000 0.0000 0.0000 -3.7462 0.0000
# 6 0.0000 0.0000 0.0000 0.0000 0.0000 22.4431
#
#
#
# Elastic Compliance Matrix: (Units=1/GPa)
#
#
# Indices 1 2 3 4 5 6 
#
# 1 0.040675 -0.008748 -0.005789 0.000000 0.000000 0.000000
# 2 -0.008748 0.016226 -0.007214 0.000000 0.000000 0.000000
# 3 -0.005789 -0.007214 0.011041 0.000000 0.000000 0.000000
# 4 0.000000 0.000000 0.000000 0.023486 0.000000 0.000000
# 5 0.000000 0.000000 0.000000 0.000000 -0.266940 0.000000
# 6 0.000000 0.000000 0.000000 0.000000 0.000000 0.044557
#
#
# Mechanical properties :
#
#
# Convention : Reuss Voigt Hill
#
# Bulk Modulus (GPa) = 40.91942 87.60324 64.26133
# Shear Modulus (GPa) = -63.04652 22.89054 -20.07799
#
# Velocity S-wave (km/s) = -5.78731 3.48718 -3.26592
# Velocity P-wave (km/s) = 4.78739 7.92164 4.46280
#
# Compressibility (1/GPa) = 0.02443827
#
# Stress axis : x y z
#
# Youngs Moduli (GPa) = 24.58539 61.63114 90.57091
#
# Poissons Ratio (x) = 0.53916 0.52433
# Poissons Ratio (y) = 0.21508 0.65338
# Poissons Ratio (z) = 0.14233 0.44461
#
# Static dielectric constant tensor:
#      x y z
#    x 1.634480 0.000000 0.000000 
#    y 0.000000 1.641780 0.000000 
#    z 0.000000 0.000000 1.615370 
# 
# From -- ./inp_files/3741.got.cif
#   From: 2010.05.17/outbox.cif.g08.bks.cpg/sg38_2_cif.got.tgz:3741.got - 2010.06.03 18:07:57.
