data_PCOD9358535
_publ_section_title
;
Structure prediction by ZEFSAII (Michael W. Deem and Ramdas Pophale) SiO2 
 PCOD9358535
Probable space group: A M M 2
;
_chemical_formula_sum "Si O2"
_cell_formula_units_Z 64
_cell_length_a 8.920107
_cell_length_b 31.212145
_cell_length_c 12.125815
_cell_angle_alpha 90.000000
_cell_angle_beta 90.000000
_cell_angle_gamma 90.000000
_cell_volume 3376.016945
_symmetry_space_group_name_H-M "A M M 2"
_symmetry_group_IT_number 38
_symmetry_cell_setting 'orthorhombic'
loop_
_space_group_symop_operation_xyz
x,y,z
-x,-y,z
-x,y,z
x,-y,z
x,1/2+y,1/2+z
-x,1/2-y,1/2+z
-x,1/2+y,1/2+z
x,1/2-y,1/2+z
loop_
_atom_site_type_symbol
_atom_site_label
_atom_site_fract_x
_atom_site_fract_y
_atom_site_fract_z
Si Si1 0.322007 0.451857 0.169460
Si Si2 0.679165 0.700254 0.712906
Si Si3 0.321847 0.701136 0.160672
Si Si4 0.320702 0.624207 0.545871
Si Si5 0.174547 0.067916 0.441225
Si Si6 0.180118 0.048671 0.189870
Si Si7 0.178895 0.873845 0.804016
Si Si8 0.173635 0.170831 0.438957
O O1 0.500000 0.444714 0.177849
O O2 0.288156 0.500000 0.210052
O O3 0.237255 0.415126 0.236626
O O4 0.271877 0.449036 0.042027
O O5 0.500000 0.696927 0.733018
O O6 0.713708 0.749383 0.684922
O O7 0.714876 0.667507 0.614000
O O8 0.766437 0.686084 0.821550
O O9 0.500000 0.695081 0.172678
O O10 0.239053 0.668392 0.242056
O O11 0.271342 0.689933 0.037317
O O12 0.500000 0.621732 0.532392
O O13 0.262797 0.584133 0.617676
O O14 0.242992 0.624602 0.427325
O O15 0.220853 0.053218 0.319184
O O16 0.182694 0.119392 0.443489
O O17 0.000000 0.055378 0.457486
O O18 0.000000 0.055720 0.183134
O O19 0.211825 0.000000 0.153831
O O20 0.000000 0.873700 0.804528
O O21 0.000000 0.182989 0.454032
#
# Coordination Sequence:
#
# PCOD9358535 Si02
#       8
#     8   8   8   8   8   8   8   8
#     4  11  24  41  64  94 125 162 208 256 307 366
#     4  10  24  43  65  92 124 167 209 252 309 370
#     4  11  24  43  66  92 126 166 211 257 310 371
#     4  11  24  43  65  90 123 163 207 257 308 366
#     4  10  20  37  62  93 129 165 202 249 306 365
#     4  10  21  39  63  91 125 165 206 251 307 367
#     4  12  26  44  65  91 123 163 208 257 315 371
#     4  11  22  38  65  98 129 162 205 255 308 366
#
# _framework density 18.957249000000001
#
# number of rings (size 3 to 8) (size 9 to 14) (size 15 to 20)
#    0.000    1.250    2.500    3.000    1.750    4.750 
#    0.000    0.000    0.000    0.000    0.000    0.000 
#    0.000    0.000    0.000    0.000    0.000    0.000 
#
# Total GULP energy -178955.824259 kJ/mol
# GULP energy per Si atom -5592.369508 kJ/mol
# Density = 1.891410 g / cm^3
# Si number density = 18.957249 Si / 1000 Ang^3
#
#
#
# Elastic Constant Matrix: (Units=GPa)
#
#
# Indices 1 2 3 4 5 6 
#
# 1 91.6242 83.8765 70.0952 0.0000 0.0000 0.0000
# 2 83.8765 152.2633 75.0273 0.0000 0.0000 0.0000
# 3 70.0952 75.0273 133.8800 0.0000 0.0000 0.0000
# 4 0.0000 0.0000 0.0000 41.5586 0.0000 0.0000
# 5 0.0000 0.0000 0.0000 0.0000 37.9085 0.0000
# 6 0.0000 0.0000 0.0000 0.0000 0.0000 11.8912
#
#
#
# Elastic Compliance Matrix: (Units=1/GPa)
#
#
# Indices 1 2 3 4 5 6 
#
# 1 0.027114 -0.010970 -0.008048 0.000000 0.000000 0.000000
# 2 -0.010970 0.013512 -0.001828 0.000000 0.000000 0.000000
# 3 -0.008048 -0.001828 0.012708 0.000000 0.000000 0.000000
# 4 0.000000 0.000000 0.000000 0.024062 0.000000 0.000000
# 5 0.000000 0.000000 0.000000 0.000000 0.026379 0.000000
# 6 0.000000 0.000000 0.000000 0.000000 0.000000 0.084096
#
#
# Mechanical properties :
#
#
# Convention : Reuss Voigt Hill
#
# Bulk Modulus (GPa) = 85.91277 92.86284 89.38781
# Shear Modulus (GPa) = 21.41838 28.18957 24.80397
#
# Velocity S-wave (km/s) = 3.36493 3.86036 3.62113
# Velocity P-wave (km/s) = 7.77912 8.30431 8.04600
#
# Compressibility (1/GPa) = 0.01163971
#
# Stress axis : x y z
#
# Youngs Moduli (GPa) = 36.88138 74.00995 78.69282
#
# Poissons Ratio (x) = 0.81192 0.63332
# Poissons Ratio (y) = 0.40461 0.14387
# Poissons Ratio (z) = 0.29682 0.13531
#
# Static dielectric constant tensor:
#      x y z
#    x 1.641120 0.000000 0.000000 
#    y 0.000000 1.648780 0.000000 
#    z 0.000000 0.000000 1.619470 
# 
# From -- ./inp_files/8588.got.cif
#   From: 2010.05.17/outbox.cif.g08.bks.cpg/sg38_5_cif.got.tgz:8588.got - 2010.06.03 18:07:57.
