data_PCOD9358991
_publ_section_title
;
Structure prediction by ZEFSAII (Michael W. Deem and Ramdas Pophale) SiO2 
 PCOD9358991
Probable space group: A M M 2
;
_chemical_formula_sum "Si O2"
_cell_formula_units_Z 48
_cell_length_a 8.532444
_cell_length_b 17.569154
_cell_length_c 17.124602
_cell_angle_alpha 90.000000
_cell_angle_beta 90.000000
_cell_angle_gamma 90.000000
_cell_volume 2567.111799
_symmetry_space_group_name_H-M "A M M 2"
_symmetry_group_IT_number 38
_symmetry_cell_setting 'orthorhombic'
loop_
_space_group_symop_operation_xyz
x,y,z
-x,-y,z
-x,y,z
x,-y,z
x,1/2+y,1/2+z
-x,1/2-y,1/2+z
-x,1/2+y,1/2+z
x,1/2-y,1/2+z
loop_
_atom_site_type_symbol
_atom_site_label
_atom_site_fract_x
_atom_site_fract_y
_atom_site_fract_z
Si Si1 0.810320 0.587597 0.587850
Si Si2 0.312123 0.686663 0.730651
Si Si3 0.810973 0.183942 0.938451
Si Si4 0.689112 0.152603 0.407605
Si Si5 0.187983 0.649356 0.261966
Si Si6 0.687872 0.500000 0.175918
Si Si7 0.691481 0.500000 0.995410
O O1 0.758300 0.500000 0.588807
O O2 0.750404 0.633140 0.662651
O O3 0.758160 0.630596 0.509117
O O4 0.000000 0.588277 0.588541
O O5 0.500000 0.688780 0.728404
O O6 0.263116 0.656277 0.816482
O O7 0.247862 0.772405 0.723595
O O8 0.750451 0.269979 0.946405
O O9 0.761315 0.153548 0.853091
O O10 0.000000 0.185568 0.938663
O O11 0.500000 0.153887 0.409832
O O12 0.743098 0.076339 0.450808
O O13 0.252380 0.575246 0.219403
O O14 0.000000 0.648069 0.259812
O O15 0.500000 0.500000 0.176560
O O16 0.740783 0.500000 0.085569
O O17 0.500000 0.500000 0.994163
#
# Coordination Sequence:
#
# PCOD9358991 Si02
#       7
#     8   8   8   8   8   4   4
#     4  10  22  38  58  84 116 150 188 234 286 340
#     4  10  21  37  60  86 115 148 189 236 285 340
#     4   9  20  38  60  83 110 147 190 235 282 337
#     4   9  19  37  60  82 110 149 187 227 282 341
#     4  10  21  39  62  84 114 153 193 233 287 343
#     4  11  23  37  57  88 121 148 190 239 285 337
#     4   9  20  37  57  82 113 148 182 227 281 333
#
# _framework density 18.698056999999999
#
# number of rings (size 3 to 8) (size 9 to 14) (size 15 to 20)
#    0.000    2.333    0.000    1.250    4.667    2.333 
#    0.000    1.250    0.000    0.000    0.000    0.000 
#    0.000    0.000    0.000    0.000    0.000    0.000 
#
# Total GULP energy -134009.184557 kJ/mol
# GULP energy per Si atom -5583.716023 kJ/mol
# Density = 1.865550 g / cm^3
# Si number density = 18.698057 Si / 1000 Ang^3
#
#
#
# Elastic Constant Matrix: (Units=GPa)
#
#
# Indices 1 2 3 4 5 6 
#
# 1 18.4876 34.7715 26.9160 0.0000 0.0000 0.0000
# 2 34.7715 225.0719 137.2851 0.0000 0.0000 0.0000
# 3 26.9160 137.2851 127.5768 0.0000 0.0000 0.0000
# 4 0.0000 0.0000 0.0000 32.6057 0.0000 0.0000
# 5 0.0000 0.0000 0.0000 0.0000 23.3272 0.0000
# 6 0.0000 0.0000 0.0000 0.0000 0.0000 32.9259
#
#
#
# Elastic Compliance Matrix: (Units=1/GPa)
#
#
# Indices 1 2 3 4 5 6 
#
# 1 0.080822 -0.006069 -0.010521 0.000000 0.000000 0.000000
# 2 -0.006069 0.013386 -0.013124 0.000000 0.000000 0.000000
# 3 -0.010521 -0.013124 0.024181 0.000000 0.000000 0.000000
# 4 0.000000 0.000000 0.000000 0.030669 0.000000 0.000000
# 5 0.000000 0.000000 0.000000 0.000000 0.042868 0.000000
# 6 0.000000 0.000000 0.000000 0.000000 0.000000 0.030371
#
#
# Mechanical properties :
#
#
# Convention : Reuss Voigt Hill
#
# Bulk Modulus (GPa) = 16.96042 85.45347 51.20695
# Shear Modulus (GPa) = 16.59043 29.24936 22.91990
#
# Velocity S-wave (km/s) = 2.98196 3.95941 3.50493
# Velocity P-wave (km/s) = 4.57673 8.16723 6.62005
#
# Compressibility (1/GPa) = 0.05896079
#
# Stress axis : x y z
#
# Youngs Moduli (GPa) = 12.37288 74.70687 41.35524
#
# Poissons Ratio (x) = 0.45338 0.43510
# Poissons Ratio (y) = 0.07509 0.54274
# Poissons Ratio (z) = 0.13018 0.98044
#
# Static dielectric constant tensor:
#      x y z
#    x 1.639170 0.000000 0.000000 
#    y 0.000000 1.608170 0.000000 
#    z 0.000000 0.000000 1.640530 
# 
# From -- ./inp_files/12057.got.cif
#   From: 2010.05.17/outbox.cif.g08.bks.cpg/sg38_7_cif.got.tgz:12057.got - 2010.06.03 18:07:57.
