data_PCOD9358610
_publ_section_title
;
Structure prediction by ZEFSAII (Michael W. Deem and Ramdas Pophale) SiO2 
 PCOD9358610
Probable space group: A M M 2
;
_chemical_formula_sum "Si O2"
_cell_formula_units_Z 58
_cell_length_a 26.445072
_cell_length_b 7.790209
_cell_length_c 14.706931
_cell_angle_alpha 90.000000
_cell_angle_beta 90.000000
_cell_angle_gamma 90.000000
_cell_volume 3029.813651
_symmetry_space_group_name_H-M "A M M 2"
_symmetry_group_IT_number 38
_symmetry_cell_setting 'orthorhombic'
loop_
_space_group_symop_operation_xyz
x,y,z
-x,-y,z
-x,y,z
x,-y,z
x,1/2+y,1/2+z
-x,1/2-y,1/2+z
-x,1/2+y,1/2+z
x,1/2-y,1/2+z
loop_
_atom_site_type_symbol
_atom_site_label
_atom_site_fract_x
_atom_site_fract_y
_atom_site_fract_z
Si Si1 0.500000 0.000000 0.819490
Si Si2 0.584040 0.694219 0.818901
Si Si3 0.332344 0.793904 0.962652
Si Si4 0.056025 0.209751 0.161675
Si Si5 0.748007 0.796060 0.818460
Si Si6 0.863750 0.301020 0.802624
Si Si7 0.666906 0.705905 0.174774
Si Si8 0.943688 0.292567 0.450486
O O1 0.456148 0.152769 0.819440
O O2 0.563377 0.500000 0.819499
O O3 0.620712 0.717336 0.906438
O O4 0.619777 0.716568 0.730067
O O5 0.282023 0.733905 0.908153
O O6 0.336030 0.000000 0.955178
O O7 0.331907 0.749262 0.068648
O O8 0.101785 0.277254 0.222401
O O9 0.000000 0.266742 0.192429
O O10 0.055776 0.000000 0.166506
O O11 0.061733 0.254710 0.056130
O O12 0.807323 0.763863 0.815830
O O13 0.717036 0.734102 0.729705
O O14 0.742102 0.000000 0.818849
O O15 0.857846 0.500000 0.780935
O O16 0.898670 0.279771 0.890892
O O17 0.663041 0.500000 0.183048
O O18 0.942194 0.500000 0.444819
O O19 0.000000 0.236297 0.420203
#
# Coordination Sequence:
#
# PCOD9358610 Si02
#       8
#     2   8   8   8   8   8   8   8
#     4  12  22  44  64  94 140 162 210 256 298 350
#     4  11  22  40  67  93 128 172 205 249 306 352
#     4  10  20  39  64  89 118 157 206 251 296 361
#     4   8  16  32  51  70  96 137 180 220 276 346
#     4   9  21  38  55  80 115 153 190 240 292 348
#     4  11  21  32  51  78 110 136 178 235 288 338
#     4  10  20  39  64  90 120 156 202 250 298 363
#     4   9  18  34  54  72  96 138 183 220 277 353
#
# _framework density 19.143093
#
# number of rings (size 3 to 8) (size 9 to 14) (size 15 to 20)
#    0.000    2.207    1.379    3.517    0.000    5.241 
#    0.000    6.207    0.000    1.655    0.000    0.000 
#    0.000    0.000    0.000    0.000    0.000    0.000 
#
# Total GULP energy -161510.493966 kJ/mol
# GULP energy per Si atom -5569.327378 kJ/mol
# Density = 1.909952 g / cm^3
# Si number density = 19.143093 Si / 1000 Ang^3
#
#
#
# Elastic Constant Matrix: (Units=GPa)
#
#
# Indices 1 2 3 4 5 6 
#
# 1 172.5632 34.3394 74.5102 0.0000 0.0000 0.0000
# 2 34.3394 86.0533 16.5124 0.0000 0.0000 0.0000
# 3 74.5102 16.5124 132.7362 0.0000 0.0000 0.0000
# 4 0.0000 0.0000 0.0000 20.9770 0.0000 0.0000
# 5 0.0000 0.0000 0.0000 0.0000 -11.8765 0.0000
# 6 0.0000 0.0000 0.0000 0.0000 0.0000 16.1411
#
#
#
# Elastic Compliance Matrix: (Units=1/GPa)
#
#
# Indices 1 2 3 4 5 6 
#
# 1 0.008113 -0.002421 -0.004253 0.000000 0.000000 0.000000
# 2 -0.002421 0.012628 -0.000212 0.000000 0.000000 0.000000
# 3 -0.004253 -0.000212 0.009947 0.000000 0.000000 0.000000
# 4 0.000000 0.000000 0.000000 0.047671 0.000000 0.000000
# 5 0.000000 0.000000 0.000000 0.000000 -0.084200 0.000000
# 6 0.000000 0.000000 0.000000 0.000000 0.000000 0.061954
#
#
# Mechanical properties :
#
#
# Convention : Reuss Voigt Hill
#
# Bulk Modulus (GPa) = 59.11547 71.34185 65.22866
# Shear Modulus (GPa) = 66.20404 22.78104 44.49254
#
# Velocity S-wave (km/s) = 5.88718 3.45344 4.82623
# Velocity P-wave (km/s) = 8.78406 7.29727 8.07496
#
# Compressibility (1/GPa) = 0.01691605
#
# Stress axis : x y z
#
# Youngs Moduli (GPa) = 123.25509 79.19163 100.52798
#
# Poissons Ratio (x) = 0.19176 0.42755
# Poissons Ratio (y) = 0.29846 0.02127
# Poissons Ratio (z) = 0.52421 0.01676
#
# Static dielectric constant tensor:
#      x y z
#    x 1.662570 0.000000 0.000000 
#    y 0.000000 1.696280 0.000000 
#    z 0.000000 0.000000 1.661550 
# 
# From -- ./inp_files/15714.got.cif
#   From: 2010.05.17/outbox.cif.g08.bks.cpg/sg38_8_cif.got.tgz:15714.got - 2010.06.03 18:07:57.
