data_PCOD9358589
_publ_section_title
;
Structure prediction by ZEFSAII (Michael W. Deem and Ramdas Pophale) SiO2 
 PCOD9358589
Probable space group: A M M 2
;
_chemical_formula_sum "Si O2"
_cell_formula_units_Z 64
_cell_length_a 14.598653
_cell_length_b 16.457324
_cell_length_c 12.465169
_cell_angle_alpha 90.000000
_cell_angle_beta 90.000000
_cell_angle_gamma 90.000000
_cell_volume 2994.816216
_symmetry_space_group_name_H-M "A M M 2"
_symmetry_group_IT_number 38
_symmetry_cell_setting 'orthorhombic'
loop_
_space_group_symop_operation_xyz
x,y,z
-x,-y,z
-x,y,z
x,-y,z
x,1/2+y,1/2+z
-x,1/2-y,1/2+z
-x,1/2+y,1/2+z
x,1/2-y,1/2+z
loop_
_atom_site_type_symbol
_atom_site_label
_atom_site_fract_x
_atom_site_fract_y
_atom_site_fract_z
Si Si1 0.604023 0.691684 0.230490
Si Si2 0.691652 0.360929 0.672949
Si Si3 0.350797 0.406651 0.430760
Si Si4 0.100088 0.134531 0.130409
Si Si5 0.864237 0.091849 0.884998
Si Si6 0.720291 0.404058 0.072014
Si Si7 0.399427 0.906156 0.385058
Si Si8 0.901426 0.326942 0.164565
O O1 0.500000 0.713668 0.200197
O O2 0.672297 0.766573 0.204380
O O3 0.604376 0.659168 0.352217
O O4 0.643496 0.617978 0.159757
O O5 0.653407 0.379332 0.554575
O O6 0.798756 0.388769 0.675207
O O7 0.633386 0.405145 0.763640
O O8 0.385715 0.500000 0.422447
O O9 0.245458 0.408035 0.391696
O O10 0.099781 0.230953 0.147386
O O11 0.000000 0.103619 0.171384
O O12 0.103107 0.114628 0.003804
O O13 0.893301 0.151069 0.790152
O O14 0.893587 0.000000 0.858843
O O15 0.735132 0.500000 0.067526
O O16 0.815706 0.364620 0.104098
O O17 0.678465 0.369778 0.961195
O O18 0.500000 0.867836 0.396136
O O19 0.406860 0.000000 0.419345
O O20 0.000000 0.358530 0.125726
#
# Coordination Sequence:
#
# PCOD9358589 Si02
#       8
#     8   8   8   8   8   8   8   8
#     4  12  25  39  62  95 128 165 208 268 334 386
#     4  11  23  42  66  94 130 167 218 271 318 383
#     4  10  22  41  66  95 130 169 211 269 332 383
#     4  10  22  39  61  92 130 172 213 259 322 385
#     4  10  20  38  64  95 130 169 213 263 319 385
#     4  11  23  42  64  90 126 166 210 265 318 382
#     4  10  23  43  66  89 121 173 223 260 314 390
#     4  11  22  38  63  95 129 170 214 263 321 385
#
# _framework density 21.370259999999998
#
# number of rings (size 3 to 8) (size 9 to 14) (size 15 to 20)
#    0.000    1.375    2.500    2.250    1.750    5.750 
#    0.000    1.875    0.000    0.750    0.000    0.000 
#    0.000    0.000    0.000    0.000    0.000    0.000 
#
# Total GULP energy -178657.315659 kJ/mol
# GULP energy per Si atom -5583.041114 kJ/mol
# Density = 2.132162 g / cm^3
# Si number density = 21.370260 Si / 1000 Ang^3
#
#
#
# Elastic Constant Matrix: (Units=GPa)
#
#
# Indices 1 2 3 4 5 6 
#
# 1 135.0838 -3.2429 23.7176 0.0000 0.0000 0.0000
# 2 -3.2429 58.6584 5.0157 0.0000 0.0000 0.0000
# 3 23.7176 5.0157 73.7181 0.0000 0.0000 0.0000
# 4 0.0000 0.0000 0.0000 35.8824 0.0000 0.0000
# 5 0.0000 0.0000 0.0000 0.0000 -57.9294 0.0000
# 6 0.0000 0.0000 0.0000 0.0000 0.0000 -44.5783
#
#
#
# Elastic Compliance Matrix: (Units=1/GPa)
#
#
# Indices 1 2 3 4 5 6 
#
# 1 0.007871 0.000656 -0.002577 0.000000 0.000000 0.000000
# 2 0.000656 0.017202 -0.001381 0.000000 0.000000 0.000000
# 3 -0.002577 -0.001381 0.014488 0.000000 0.000000 0.000000
# 4 0.000000 0.000000 0.000000 0.027869 0.000000 0.000000
# 5 0.000000 0.000000 0.000000 0.000000 -0.017262 0.000000
# 6 0.000000 0.000000 0.000000 0.000000 0.000000 -0.022432
#
#
# Mechanical properties :
#
#
# Convention : Reuss Voigt Hill
#
# Bulk Modulus (GPa) = 30.34359 35.38235 32.86297
# Shear Modulus (GPa) = 110.31114 2.80627 56.55871
#
# Velocity S-wave (km/s) = 7.19243 1.14718 5.15010
# Velocity P-wave (km/s) = 9.12165 4.28339 7.12573
#
# Compressibility (1/GPa) = 0.03295589
#
# Stress axis : x y z
#
# Youngs Moduli (GPa) = 127.04857 58.13210 69.02138
#
# Poissons Ratio (x) = -0.03811 0.17787
# Poissons Ratio (y) = -0.08328 0.09534
# Poissons Ratio (z) = 0.32740 0.08030
#
# Static dielectric constant tensor:
#      x y z
#    x 2.042340 0.000000 0.000000 
#    y 0.000000 1.799760 0.000000 
#    z 0.000000 0.000000 1.758140 
# 
# From -- ./inp_files/10234.got.cif
#   From: 2010.05.17/outbox.cif.g08.bks.cpg/sg38_6_cif.got.tgz:10234.got - 2010.06.03 18:07:57.
