data_PCOD9358125
_publ_section_title
;
Structure prediction by ZEFSAII (Michael W. Deem and Ramdas Pophale) SiO2 
 PCOD9358125
Probable space group: A M M 2
;
_chemical_formula_sum "Si O2"
_cell_formula_units_Z 64
_cell_length_a 20.286405
_cell_length_b 8.596012
_cell_length_c 20.777055
_cell_angle_alpha 90.000000
_cell_angle_beta 90.000000
_cell_angle_gamma 90.000000
_cell_volume 3623.148162
_symmetry_space_group_name_H-M "A M M 2"
_symmetry_group_IT_number 38
_symmetry_cell_setting 'orthorhombic'
loop_
_space_group_symop_operation_xyz
x,y,z
-x,-y,z
-x,y,z
x,-y,z
x,1/2+y,1/2+z
-x,1/2-y,1/2+z
-x,1/2+y,1/2+z
x,1/2-y,1/2+z
loop_
_atom_site_type_symbol
_atom_site_label
_atom_site_fract_x
_atom_site_fract_y
_atom_site_fract_z
Si Si1 0.702416 0.811635 0.385560
Si Si2 0.678849 0.313495 0.741519
Si Si3 0.847175 0.684778 0.419248
Si Si4 0.815441 0.687268 0.053810
Si Si5 0.424496 0.188464 0.639648
Si Si6 0.075526 0.813795 0.301972
Si Si7 0.664479 0.688401 0.023123
Si Si8 0.821080 0.313412 0.198801
O O1 0.673942 0.766223 0.316536
O O2 0.775810 0.744897 0.394614
O O3 0.661170 0.762527 0.448586
O O4 0.708023 0.000000 0.386708
O O5 0.676943 0.500000 0.738038
O O6 0.621389 0.244640 0.697664
O O7 0.749885 0.256046 0.716594
O O8 0.849337 0.500000 0.414490
O O9 0.852078 0.737292 0.493419
O O10 0.900859 0.758265 0.372089
O O11 0.819259 0.500000 0.047043
O O12 0.737855 0.730543 0.047549
O O13 0.838285 0.730881 0.125221
O O14 0.500000 0.240445 0.644985
O O15 0.390209 0.243502 0.573167
O O16 0.423977 0.000000 0.639321
O O17 0.124945 0.743067 0.249451
O O18 0.000000 0.767365 0.290091
O O19 0.080377 0.000000 0.299076
O O20 0.661646 0.500000 0.023573
O O21 0.815683 0.500000 0.201259
#
# Coordination Sequence:
#
# PCOD9358125 Si02
#       8
#     8   8   8   8   8   8   8   8
#     4   9  18  33  53  77 108 144 181 229 283 330
#     4  11  21  33  54  82 115 150 184 232 288 341
#     4  11  21  33  55  85 113 143 184 233 280 332
#     4   9  18  34  56  80 112 146 182 230 280 333
#     4  10  20  35  55  78 108 148 193 240 289 341
#     4  11  24  41  59  81 115 156 192 230 284 345
#     4   8  14  30  52  75 102 136 182 226 272 329
#     4  11  21  36  60  87 114 148 191 238 284 337
#
# _framework density 17.664196
#
# number of rings (size 3 to 8) (size 9 to 14) (size 15 to 20)
#    0.000    2.000    2.500    3.000    0.000    2.750 
#    0.000    1.250    0.000    3.000    0.000    0.000 
#    0.000    0.000    0.000    0.000    0.000    0.000 
#
# Total GULP energy -178565.098953 kJ/mol
# GULP energy per Si atom -5580.159342 kJ/mol
# Density = 1.762399 g / cm^3
# Si number density = 17.664196 Si / 1000 Ang^3
#
#
#
# Elastic Constant Matrix: (Units=GPa)
#
#
# Indices 1 2 3 4 5 6 
#
# 1 89.0010 16.8616 53.5654 0.0000 0.0000 0.0000
# 2 16.8616 23.0873 22.5180 0.0000 0.0000 0.0000
# 3 53.5654 22.5180 139.7922 0.0000 0.0000 0.0000
# 4 0.0000 0.0000 0.0000 29.5254 0.0000 0.0000
# 5 0.0000 0.0000 0.0000 0.0000 25.6513 0.0000
# 6 0.0000 0.0000 0.0000 0.0000 0.0000 20.0694
#
#
#
# Elastic Compliance Matrix: (Units=1/GPa)
#
#
# Indices 1 2 3 4 5 6 
#
# 1 0.015386 -0.006510 -0.004847 0.000000 0.000000 0.000000
# 2 -0.006510 0.054142 -0.006227 0.000000 0.000000 0.000000
# 3 -0.004847 -0.006227 0.010014 0.000000 0.000000 0.000000
# 4 0.000000 0.000000 0.000000 0.033869 0.000000 0.000000
# 5 0.000000 0.000000 0.000000 0.000000 0.038984 0.000000
# 6 0.000000 0.000000 0.000000 0.000000 0.000000 0.049827
#
#
# Mechanical properties :
#
#
# Convention : Reuss Voigt Hill
#
# Bulk Modulus (GPa) = 22.53552 48.64116 35.58834
# Shear Modulus (GPa) = 19.82700 25.64490 22.73595
#
# Velocity S-wave (km/s) = 3.35392 3.81438 3.59154
# Velocity P-wave (km/s) = 5.27103 6.85534 6.11472
#
# Compressibility (1/GPa) = 0.04437439
#
# Stress axis : x y z
#
# Youngs Moduli (GPa) = 64.99252 18.47010 99.86184
#
# Poissons Ratio (x) = 0.12023 0.48404
# Poissons Ratio (y) = 0.42308 0.62183
# Poissons Ratio (z) = 0.31503 0.11501
#
# Static dielectric constant tensor:
#      x y z
#    x 1.571240 0.000000 0.000000 
#    y 0.000000 1.600800 0.000000 
#    z 0.000000 0.000000 1.623740 
# 
# From -- ./inp_files/21405.got.cif
#   From: 2010.05.17/outbox.cif.g08.bks.cpg/sg38_11_cif.got.tgz:21405.got - 2010.06.03 18:07:57.
