data_PCOD9358551
_publ_section_title
;
Structure prediction by ZEFSAII (Michael W. Deem and Ramdas Pophale) SiO2 
 PCOD9358551
Probable space group: A M M 2
;
_chemical_formula_sum "Si O2"
_cell_formula_units_Z 58
_cell_length_a 17.594499
_cell_length_b 14.486185
_cell_length_c 12.926677
_cell_angle_alpha 90.000000
_cell_angle_beta 90.000000
_cell_angle_gamma 90.000000
_cell_volume 3294.714819
_symmetry_space_group_name_H-M "A M M 2"
_symmetry_group_IT_number 38
_symmetry_cell_setting 'orthorhombic'
loop_
_space_group_symop_operation_xyz
x,y,z
-x,-y,z
-x,y,z
x,-y,z
x,1/2+y,1/2+z
-x,1/2-y,1/2+z
-x,1/2+y,1/2+z
x,1/2-y,1/2+z
loop_
_atom_site_type_symbol
_atom_site_label
_atom_site_fract_x
_atom_site_fract_y
_atom_site_fract_z
Si Si1 0.312913 0.749665 0.775680
Si Si2 0.129632 0.650510 0.551937
Si Si3 0.809888 0.316648 0.936274
Si Si4 0.000000 0.000000 0.003476
Si Si5 0.588904 0.244781 0.967351
Si Si6 0.316904 0.609734 0.090682
Si Si7 0.696009 0.106757 0.091274
Si Si8 0.086183 0.605451 0.770605
O O1 0.244870 0.739785 0.858031
O O2 0.387520 0.747814 0.847251
O O3 0.309388 0.838614 0.701134
O O4 0.308317 0.661813 0.699522
O O5 0.133534 0.745674 0.490647
O O6 0.216833 0.614226 0.552233
O O7 0.109771 0.666012 0.672719
O O8 0.067212 0.580652 0.508508
O O9 0.857021 0.384963 0.864664
O O10 0.757342 0.365603 0.021628
O O11 0.500000 0.229507 0.980844
O O12 0.616266 0.336809 0.028447
O O13 0.639302 0.162159 0.016076
O O14 0.327113 0.500000 0.098736
O O15 0.675810 0.000000 0.101952
O O16 0.087763 0.500000 0.730394
O O17 0.000000 0.625696 0.801531
#
# Coordination Sequence:
#
# PCOD9358551 Si02
#       8
#     8   8   8   2   8   8   8   8
#     4  10  20  38  58  90 114 158 199 249 302 362
#     4  12  20  38  59  88 122 154 201 248 305 356
#     4  11  21  36  59  85 115 156 199 248 296 360
#     4  12  24  36  60  96 128 158 196 264 312 360
#     4  10  23  42  60  87 125 160 203 255 307 365
#     4  10  21  39  61  88 118 156 202 246 305 362
#     4  11  21  38  65  90 120 158 204 256 307 363
#     4  11  21  35  55  85 116 153 195 244 296 354
#
# _framework density 17.603953000000001
#
# number of rings (size 3 to 8) (size 9 to 14) (size 15 to 20)
#    0.000    1.241    7.586    0.414    0.966    5.517 
#    1.241    0.000    0.000    0.000    0.000    0.000 
#    0.000    0.000    0.000    0.000    0.000    0.000 
#
# Total GULP energy -161488.714989 kJ/mol
# GULP energy per Si atom -5568.576379 kJ/mol
# Density = 1.756389 g / cm^3
# Si number density = 17.603953 Si / 1000 Ang^3
#
#
#
# Elastic Constant Matrix: (Units=GPa)
#
#
# Indices 1 2 3 4 5 6 
#
# 1 127.7023 37.7626 26.2329 0.0000 0.0000 0.0000
# 2 37.7626 127.6518 45.1654 0.0000 0.0000 0.0000
# 3 26.2329 45.1654 74.4627 0.0000 0.0000 0.0000
# 4 0.0000 0.0000 0.0000 13.4784 0.0000 0.0000
# 5 0.0000 0.0000 0.0000 0.0000 11.6871 0.0000
# 6 0.0000 0.0000 0.0000 0.0000 0.0000 18.6778
#
#
#
# Elastic Compliance Matrix: (Units=1/GPa)
#
#
# Indices 1 2 3 4 5 6 
#
# 1 0.008795 -0.001917 -0.001936 0.000000 0.000000 0.000000
# 2 -0.001917 0.010392 -0.005628 0.000000 0.000000 0.000000
# 3 -0.001936 -0.005628 0.017525 0.000000 0.000000 0.000000
# 4 0.000000 0.000000 0.000000 0.074193 0.000000 0.000000
# 5 0.000000 0.000000 0.000000 0.000000 0.085564 0.000000
# 6 0.000000 0.000000 0.000000 0.000000 0.000000 0.053540
#
#
# Mechanical properties :
#
#
# Convention : Reuss Voigt Hill
#
# Bulk Modulus (GPa) = 56.33472 60.90430 58.61951
# Shear Modulus (GPa) = 18.18922 23.47904 20.83413
#
# Velocity S-wave (km/s) = 3.21790 3.65600 3.44392
# Velocity P-wave (km/s) = 6.77327 7.24526 7.01324
#
# Compressibility (1/GPa) = 0.01775104
#
# Stress axis : x y z
#
# Youngs Moduli (GPa) = 113.69813 96.22610 57.06054
#
# Poissons Ratio (x) = 0.18446 0.11046
# Poissons Ratio (y) = 0.21795 0.32114
# Poissons Ratio (z) = 0.22010 0.54157
#
# Static dielectric constant tensor:
#      x y z
#    x 1.609190 0.000000 0.000000 
#    y 0.000000 1.587530 0.000000 
#    z 0.000000 0.000000 1.611480 
# 
# From -- ./inp_files/10579.got.cif
#   From: 2010.05.17/outbox.cif.g08.bks.cpg/sg38_6_cif.got.tgz:10579.got - 2010.06.03 18:07:57.
