data_PCOD9358259
_publ_section_title
;
Structure prediction by ZEFSAII (Michael W. Deem and Ramdas Pophale) SiO2 
 PCOD9358259
Probable space group: A M M 2
;
_chemical_formula_sum "Si O2"
_cell_formula_units_Z 64
_cell_length_a 24.496279
_cell_length_b 8.340776
_cell_length_c 15.769477
_cell_angle_alpha 90.000000
_cell_angle_beta 90.000000
_cell_angle_gamma 90.000000
_cell_volume 3221.987623
_symmetry_space_group_name_H-M "A M M 2"
_symmetry_group_IT_number 38
_symmetry_cell_setting 'orthorhombic'
loop_
_space_group_symop_operation_xyz
x,y,z
-x,-y,z
-x,y,z
x,-y,z
x,1/2+y,1/2+z
-x,1/2-y,1/2+z
-x,1/2+y,1/2+z
x,1/2-y,1/2+z
loop_
_atom_site_type_symbol
_atom_site_label
_atom_site_fract_x
_atom_site_fract_y
_atom_site_fract_z
Si Si1 0.738463 0.189012 0.262860
Si Si2 0.136488 0.196066 0.248964
Si Si3 0.937362 0.306485 0.593061
Si Si4 0.560705 0.693503 0.344450
Si Si5 0.326632 0.310671 0.423768
Si Si6 0.324154 0.684845 0.102594
Si Si7 0.561031 0.309444 0.651297
Si Si8 0.937408 0.693474 0.905478
O O1 0.800662 0.245908 0.251637
O O2 0.708718 0.276393 0.340407
O O3 0.705750 0.215800 0.175802
O O4 0.738855 0.000000 0.282536
O O5 0.103838 0.249870 0.165551
O O6 0.103288 0.248359 0.332148
O O7 0.136113 0.000000 0.247954
O O8 0.937587 0.500000 0.594410
O O9 0.921831 0.250841 0.499101
O O10 0.000000 0.253316 0.609482
O O11 0.500000 0.730058 0.378137
O O12 0.564264 0.500000 0.333521
O O13 0.611573 0.743422 0.401529
O O14 0.565662 0.771794 0.251678
O O15 0.328091 0.500000 0.441029
O O16 0.305141 0.225393 0.507917
O O17 0.315325 0.500000 0.122602
O O18 0.388473 0.724755 0.107009
O O19 0.500000 0.257781 0.624891
O O20 0.565348 0.500000 0.637615
O O21 0.937415 0.500000 0.904969
O O22 0.000000 0.746219 0.889007
#
# Coordination Sequence:
#
# PCOD9358259 Si02
#       8
#     8   8   8   8   8   8   8   8
#     4  11  23  41  61  83 115 152 196 248 294 343
#     4   9  19  35  57  82 109 148 192 231 279 339
#     4   9  17  32  55  83 115 149 186 229 277 331
#     4   9  18  34  58  86 116 148 182 228 287 349
#     4  11  23  40  62  87 115 151 193 240 293 350
#     4  12  25  41  61  85 115 155 198 241 290 346
#     4  10  20  35  59  89 119 150 186 232 288 348
#     4   9  17  32  55  83 115 148 183 226 278 337
#
# _framework density 19.863515
#
# number of rings (size 3 to 8) (size 9 to 14) (size 15 to 20)
#    0.000    2.000    1.250    2.625    0.000    4.250 
#    0.000    6.875    0.000    3.000    0.000    0.000 
#    0.000    0.000    0.000    0.000    0.000    0.000 
#
# Total GULP energy -178742.384420 kJ/mol
# GULP energy per Si atom -5585.699513 kJ/mol
# Density = 1.981830 g / cm^3
# Si number density = 19.863515 Si / 1000 Ang^3
#
#
#
# Elastic Constant Matrix: (Units=GPa)
#
#
# Indices 1 2 3 4 5 6 
#
# 1 108.9323 1.7068 60.9613 0.0000 0.0000 0.0000
# 2 1.7068 11.2761 -8.2638 0.0000 0.0000 0.0000
# 3 60.9613 -8.2638 96.9609 0.0000 0.0000 0.0000
# 4 0.0000 0.0000 0.0000 29.4494 0.0000 0.0000
# 5 0.0000 0.0000 0.0000 0.0000 -4.9661 0.0000
# 6 0.0000 0.0000 0.0000 0.0000 0.0000 16.0388
#
#
#
# Elastic Compliance Matrix: (Units=1/GPa)
#
#
# Indices 1 2 3 4 5 6 
#
# 1 0.015129 -0.009878 -0.010354 0.000000 0.000000 0.000000
# 2 -0.009878 0.101040 0.014822 0.000000 0.000000 0.000000
# 3 -0.010354 0.014822 0.018086 0.000000 0.000000 0.000000
# 4 0.000000 0.000000 0.000000 0.033957 0.000000 0.000000
# 5 0.000000 0.000000 0.000000 0.000000 -0.201364 0.000000
# 6 0.000000 0.000000 0.000000 0.000000 0.000000 0.062349
#
#
# Mechanical properties :
#
#
# Convention : Reuss Voigt Hill
#
# Bulk Modulus (GPa) = 8.10136 36.21977 22.16057
# Shear Modulus (GPa) = 61.60504 18.95540 40.28022
#
# Velocity S-wave (km/s) = 5.57508 3.09250 4.50805
# Velocity P-wave (km/s) = 6.74755 5.57004 6.18687
#
# Compressibility (1/GPa) = 0.12343604
#
# Stress axis : x y z
#
# Youngs Moduli (GPa) = 66.09797 9.89704 55.29034
#
# Poissons Ratio (x) = 0.09776 0.57247
# Poissons Ratio (y) = 0.65291 -0.81951
# Poissons Ratio (z) = 0.68437 -0.14669
#
# Static dielectric constant tensor:
#      x y z
#    x 1.700210 0.000000 0.000000 
#    y 0.000000 1.685270 0.000000 
#    z 0.000000 0.000000 1.678050 
# 
# From -- ./inp_files/15784.got.cif
#   From: 2010.05.17/outbox.cif.g08.bks.cpg/sg38_8_cif.got.tgz:15784.got - 2010.06.03 18:07:57.
