data_PCOD9358629
_publ_section_title
;
Structure prediction by ZEFSAII (Michael W. Deem and Ramdas Pophale) SiO2 
 PCOD9358629
Probable space group: A M M 2
;
_chemical_formula_sum "Si O2"
_cell_formula_units_Z 30
_cell_length_a 15.709984
_cell_length_b 16.721453
_cell_length_c 5.001259
_cell_angle_alpha 90.000000
_cell_angle_beta 90.000000
_cell_angle_gamma 90.000000
_cell_volume 1313.799527
_symmetry_space_group_name_H-M "A M M 2"
_symmetry_group_IT_number 38
_symmetry_cell_setting 'orthorhombic'
loop_
_space_group_symop_operation_xyz
x,y,z
-x,-y,z
-x,y,z
x,-y,z
x,1/2+y,1/2+z
-x,1/2-y,1/2+z
-x,1/2+y,1/2+z
x,1/2-y,1/2+z
loop_
_atom_site_type_symbol
_atom_site_label
_atom_site_fract_x
_atom_site_fract_y
_atom_site_fract_z
Si Si1 0.000000 0.000000 0.596220
Si Si2 0.092127 0.694019 0.016950
Si Si3 0.596426 0.304757 0.209507
Si Si4 0.867136 0.000000 0.100865
Si Si5 0.759913 0.089991 0.754710
O O1 0.075563 0.000000 0.359069
O O2 0.073257 0.000000 0.837882
O O3 0.091124 0.767970 0.224660
O O4 0.173487 0.643578 0.092739
O O5 0.000000 0.648155 0.057289
O O6 0.500000 0.336061 0.242998
O O7 0.605769 0.230546 0.412892
O O8 0.670126 0.367039 0.270078
O O9 0.804794 0.924956 0.043334
O O10 0.748961 0.000000 0.644554
#
# Coordination Sequence:
#
# PCOD9358629 Si02
#       5
#     2   8   8   4   8
#     4  10  20  42  52  82 126 170 208 242 294 386
#     4  10  22  40  57  81 116 163 206 251 299 362
#     4  10  22  43  70  94 124 168 210 256 317 387
#     4   9  24  36  59  88 120 172 203 258 311 360
#     4  10  23  41  61  99 123 165 208 264 322 369
#
# _framework density 22.834533
#
# number of rings (size 3 to 8) (size 9 to 14) (size 15 to 20)
#    0.800    1.333    0.000    1.600    3.733    5.333 
#    4.800    0.000    0.000    4.800    0.000    0.000 
#    0.000    0.000    0.000    0.000    0.000    0.000 
#
# Total GULP energy -83694.136523 kJ/mol
# GULP energy per Si atom -5579.609102 kJ/mol
# Density = 2.278256 g / cm^3
# Si number density = 22.834533 Si / 1000 Ang^3
#
#
#
# Elastic Constant Matrix: (Units=GPa)
#
#
# Indices 1 2 3 4 5 6 
#
# 1 219.2908 98.1103 6.1806 0.0000 0.0000 0.0000
# 2 98.1103 76.1850 7.5857 0.0000 0.0000 0.0000
# 3 6.1806 7.5857 88.3056 0.0000 0.0000 0.0000
# 4 0.0000 0.0000 0.0000 36.1071 0.0000 0.0000
# 5 0.0000 0.0000 0.0000 0.0000 18.5511 0.0000
# 6 0.0000 0.0000 0.0000 0.0000 0.0000 55.1546
#
#
#
# Elastic Compliance Matrix: (Units=1/GPa)
#
#
# Indices 1 2 3 4 5 6 
#
# 1 0.010776 -0.013921 0.000442 0.000000 0.000000 0.000000
# 2 -0.013921 0.031224 -0.001708 0.000000 0.000000 0.000000
# 3 0.000442 -0.001708 0.011440 0.000000 0.000000 0.000000
# 4 0.000000 0.000000 0.000000 0.027695 0.000000 0.000000
# 5 0.000000 0.000000 0.000000 0.000000 0.053905 0.000000
# 6 0.000000 0.000000 0.000000 0.000000 0.000000 0.018131
#
#
# Mechanical properties :
#
#
# Convention : Reuss Voigt Hill
#
# Bulk Modulus (GPa) = 43.35588 67.50385 55.42986
# Shear Modulus (GPa) = 26.14593 40.08954 33.11773
#
# Velocity S-wave (km/s) = 3.38748 4.19460 3.81246
# Velocity P-wave (km/s) = 5.85903 7.28601 6.61113
#
# Compressibility (1/GPa) = 0.02306492
#
# Stress axis : x y z
#
# Youngs Moduli (GPa) = 92.79825 32.02699 87.41175
#
# Poissons Ratio (x) = 0.44586 -0.03860
# Poissons Ratio (y) = 1.29187 0.14928
# Poissons Ratio (z) = -0.04098 0.05470
#
# Static dielectric constant tensor:
#      x y z
#    x 1.834610 0.000000 0.000000 
#    y 0.000000 1.798070 0.000000 
#    z 0.000000 0.000000 1.857110 
# 
# From -- ./inp_files/1097.got.cif
#   From: 2010.05.17/outbox.cif.g08.bks.cpg/sg38_1_cif.got.tgz:1097.got - 2010.06.03 18:07:57.
