data_PCOD9358121
_publ_section_title
;
Structure prediction by ZEFSAII (Michael W. Deem and Ramdas Pophale) SiO2 
 PCOD9358121
Probable space group: A M M 2
;
_chemical_formula_sum "Si O2"
_cell_formula_units_Z 48
_cell_length_a 7.845119
_cell_length_b 15.709396
_cell_length_c 19.566724
_cell_angle_alpha 90.000000
_cell_angle_beta 90.000000
_cell_angle_gamma 90.000000
_cell_volume 2411.443785
_symmetry_space_group_name_H-M "A M M 2"
_symmetry_group_IT_number 38
_symmetry_cell_setting 'orthorhombic'
loop_
_space_group_symop_operation_xyz
x,y,z
-x,-y,z
-x,y,z
x,-y,z
x,1/2+y,1/2+z
-x,1/2-y,1/2+z
-x,1/2+y,1/2+z
x,1/2-y,1/2+z
loop_
_atom_site_type_symbol
_atom_site_label
_atom_site_fract_x
_atom_site_fract_y
_atom_site_fract_z
Si Si1 0.202002 0.655558 0.280580
Si Si2 0.790993 0.500000 0.872377
Si Si3 0.203300 0.000000 0.528406
Si Si4 0.205803 0.500000 0.369673
Si Si5 0.704283 0.154618 0.119953
Si Si6 0.206149 0.347558 0.775207
Si Si7 0.706207 0.500000 0.528105
Si Si8 0.703084 0.653305 0.127055
O O1 0.272246 0.584206 0.331175
O O2 0.271308 0.751523 0.288363
O O3 0.226578 0.629196 0.201695
O O4 0.000000 0.661447 0.293292
O O5 0.736090 0.583332 0.830212
O O6 0.000000 0.500000 0.872818
O O7 0.731672 0.500000 0.950598
O O8 0.256426 0.083429 0.570530
O O9 0.000000 0.000000 0.525166
O O10 0.246790 0.500000 0.449140
O O11 0.000000 0.500000 0.362131
O O12 0.500000 0.157559 0.112348
O O13 0.743369 0.128998 0.197955
O O14 0.769986 0.084219 0.067408
O O15 0.768704 0.251399 0.110046
O O16 0.000000 0.345780 0.777070
O O17 0.500000 0.500000 0.532962
O O18 0.500000 0.658290 0.134380
#
# Coordination Sequence:
#
# PCOD9358121 Si02
#       8
#     8   4   4   4   8   8   4   8
#     4   9  18  33  53  76 101 130 166 210 257 301
#     4   9  19  33  49  73 103 133 166 207 254 302
#     4  11  22  35  52  75 106 141 172 205 252 306
#     4  10  21  34  49  73 103 132 167 210 252 298
#     4   9  19  35  54  77 104 134 169 211 256 300
#     4   9  17  32  54  76  98 128 168 211 253 300
#     4  10  21  36  52  73 106 142 171 204 252 306
#     4  10  20  35  55  78 103 132 171 215 254 298
#
# _framework density 19.905089
#
# number of rings (size 3 to 8) (size 9 to 14) (size 15 to 20)
#    0.000    2.500    0.000    1.750    0.000    4.000 
#    0.000    3.333    0.000    0.000    0.000    0.000 
#    0.000    0.000    0.000    0.000    0.000    0.000 
#
# Total GULP energy -133960.090475 kJ/mol
# GULP energy per Si atom -5581.670436 kJ/mol
# Density = 1.985978 g / cm^3
# Si number density = 19.905089 Si / 1000 Ang^3
#
#
#
# Elastic Constant Matrix: (Units=GPa)
#
#
# Indices 1 2 3 4 5 6 
#
# 1 13.3578 -1.2271 -16.1509 0.0000 0.0000 0.0000
# 2 -1.2271 145.2498 131.7989 0.0000 0.0000 0.0000
# 3 -16.1509 131.7989 173.8986 0.0000 0.0000 0.0000
# 4 0.0000 0.0000 0.0000 -4.6024 0.0000 0.0000
# 5 0.0000 0.0000 0.0000 0.0000 40.1546 0.0000
# 6 0.0000 0.0000 0.0000 0.0000 0.0000 2.2878
#
#
#
# Elastic Compliance Matrix: (Units=1/GPa)
#
#
# Indices 1 2 3 4 5 6 
#
# 1 0.108892 -0.026441 0.030153 0.000000 0.000000 0.000000
# 2 -0.026441 0.028467 -0.024031 0.000000 0.000000 0.000000
# 3 0.030153 -0.024031 0.026764 0.000000 0.000000 0.000000
# 4 0.000000 0.000000 0.000000 -0.217279 0.000000 0.000000
# 5 0.000000 0.000000 0.000000 0.000000 0.024904 0.000000
# 6 0.000000 0.000000 0.000000 0.000000 0.000000 0.437094
#
#
# Mechanical properties :
#
#
# Convention : Reuss Voigt Hill
#
# Bulk Modulus (GPa) = 8.09812 62.37199 35.23505
# Shear Modulus (GPa) = 10.19077 22.10704 16.14890
#
# Velocity S-wave (km/s) = 2.26513 3.33622 2.85141
# Velocity P-wave (km/s) = 3.30428 6.80023 5.34609
#
# Compressibility (1/GPa) = 0.12348545
#
# Stress axis : x y z
#
# Youngs Moduli (GPa) = 9.18343 35.12864 37.36349
#
# Poissons Ratio (x) = 0.92882 -1.12662
# Poissons Ratio (y) = 0.24282 0.89788
# Poissons Ratio (z) = -0.27691 0.84417
#
# Static dielectric constant tensor:
#      x y z
#    x 1.711940 0.000000 0.000000 
#    y 0.000000 1.726530 0.000000 
#    z 0.000000 0.000000 1.650570 
# 
# From -- ./inp_files/16763.got.cif
#   From: 2010.05.17/outbox.cif.g08.bks.cpg/sg38_9_cif.got.tgz:16763.got - 2010.06.03 18:07:57.
