data_PCOD9358739
_publ_section_title
;
Structure prediction by ZEFSAII (Michael W. Deem and Ramdas Pophale) SiO2 
 PCOD9358739
Probable space group: A M M 2
;
_chemical_formula_sum "Si O2"
_cell_formula_units_Z 64
_cell_length_a 18.028258
_cell_length_b 19.442103
_cell_length_c 9.757546
_cell_angle_alpha 90.000000
_cell_angle_beta 90.000000
_cell_angle_gamma 90.000000
_cell_volume 3420.090605
_symmetry_space_group_name_H-M "A M M 2"
_symmetry_group_IT_number 38
_symmetry_cell_setting 'orthorhombic'
loop_
_space_group_symop_operation_xyz
x,y,z
-x,-y,z
-x,y,z
x,-y,z
x,1/2+y,1/2+z
-x,1/2-y,1/2+z
-x,1/2+y,1/2+z
x,1/2-y,1/2+z
loop_
_atom_site_type_symbol
_atom_site_label
_atom_site_fract_x
_atom_site_fract_y
_atom_site_fract_z
Si Si1 0.326699 0.776274 0.119010
Si Si2 0.415546 0.204251 0.847830
Si Si3 0.890055 0.080403 0.155308
Si Si4 0.917934 0.657262 0.941007
Si Si5 0.328825 0.923305 0.800019
Si Si6 0.795234 0.163273 0.658652
Si Si7 0.715862 0.926136 0.115487
Si Si8 0.082409 0.178759 0.893998
O O1 0.388943 0.742094 0.212171
O O2 0.248765 0.735215 0.131975
O O3 0.319511 0.855374 0.164234
O O4 0.356751 0.774871 0.964582
O O5 0.500000 0.218004 0.885662
O O6 0.400453 0.124050 0.819172
O O7 0.913380 0.120502 0.293114
O O8 0.801287 0.076563 0.155293
O O9 0.915751 0.000000 0.148392
O O10 0.910871 0.127600 0.024091
O O11 0.914744 0.740529 0.933077
O O12 0.000000 0.639574 0.997874
O O13 0.847074 0.639271 0.033769
O O14 0.270713 0.888452 0.697355
O O15 0.346719 0.000000 0.758233
O O16 0.290553 0.924504 0.950157
O O17 0.851261 0.168143 0.786998
O O18 0.683807 0.000000 0.160778
O O19 0.000000 0.167397 0.833290
#
# Coordination Sequence:
#
# PCOD9358739 Si02
#       8
#     8   8   8   8   8   8   8   8
#     4  10  21  35  60  90 116 150 191 240 282 351
#     4  10  21  37  60  90 120 151 182 229 292 353
#     4  11  23  39  61  86 119 157 204 262 316 367
#     4  11  24  38  55  84 122 160 202 258 318 370
#     4   9  19  36  57  84 111 146 193 238 282 343
#     4  11  22  35  59  84 115 156 204 248 298 353
#     4   9  17  33  57  83 110 142 187 240 287 337
#     4  11  22  38  59  83 116 161 211 259 308 366
#
# _framework density 18.712955999999998
#
# number of rings (size 3 to 8) (size 9 to 14) (size 15 to 20)
#    0.000    1.750    1.250    3.375    5.250    3.750 
#    0.000    0.000    0.000    3.375    0.000    0.000 
#    0.000    0.000    0.000    0.000    0.000    0.000 
#
# Total GULP energy -178425.960324 kJ/mol
# GULP energy per Si atom -5575.811260 kJ/mol
# Density = 1.867036 g / cm^3
# Si number density = 18.712956 Si / 1000 Ang^3
#
#
#
# Elastic Constant Matrix: (Units=GPa)
#
#
# Indices 1 2 3 4 5 6 
#
# 1 70.2675 16.3830 25.3281 0.0000 0.0000 0.0000
# 2 16.3830 117.4604 35.7165 0.0000 0.0000 0.0000
# 3 25.3281 35.7165 59.0339 0.0000 0.0000 0.0000
# 4 0.0000 0.0000 0.0000 19.6755 0.0000 0.0000
# 5 0.0000 0.0000 0.0000 0.0000 -27.1006 0.0000
# 6 0.0000 0.0000 0.0000 0.0000 0.0000 21.3250
#
#
#
# Elastic Compliance Matrix: (Units=1/GPa)
#
#
# Indices 1 2 3 4 5 6 
#
# 1 0.016838 -0.000186 -0.007112 0.000000 0.000000 0.000000
# 2 -0.000186 0.010435 -0.006233 0.000000 0.000000 0.000000
# 3 -0.007112 -0.006233 0.023762 0.000000 0.000000 0.000000
# 4 0.000000 0.000000 0.000000 0.050825 0.000000 0.000000
# 5 0.000000 0.000000 0.000000 0.000000 -0.036900 0.000000
# 6 0.000000 0.000000 0.000000 0.000000 0.000000 0.046893
#
#
# Mechanical properties :
#
#
# Convention : Reuss Voigt Hill
#
# Bulk Modulus (GPa) = 41.71436 44.62411 43.16923
# Shear Modulus (GPa) = 34.03525 14.06895 24.05210
#
# Velocity S-wave (km/s) = 4.26937 2.74493 3.58902
# Velocity P-wave (km/s) = 6.82960 5.82620 6.34776
#
# Compressibility (1/GPa) = 0.02397256
#
# Stress axis : x y z
#
# Youngs Moduli (GPa) = 59.38898 95.83251 42.08405
#
# Poissons Ratio (x) = 0.01783 0.29929
# Poissons Ratio (y) = 0.01105 0.26233
# Poissons Ratio (z) = 0.42236 0.59737
#
# Static dielectric constant tensor:
#      x y z
#    x 1.691270 0.000000 0.000000 
#    y 0.000000 1.676400 0.000000 
#    z 0.000000 0.000000 1.640240 
# 
# From -- ./inp_files/6500.got.cif
#   From: 2010.05.17/outbox.cif.g08.bks.cpg/sg38_4_cif.got.tgz:6500.got - 2010.06.03 18:07:57.
