data_PCOD9358398
_publ_section_title
;
Structure prediction by ZEFSAII (Michael W. Deem and Ramdas Pophale) SiO2 
 PCOD9358398
Probable space group: A M M 2
;
_chemical_formula_sum "Si O2"
_cell_formula_units_Z 48
_cell_length_a 7.659676
_cell_length_b 14.311144
_cell_length_c 19.258118
_cell_angle_alpha 90.000000
_cell_angle_beta 90.000000
_cell_angle_gamma 90.000000
_cell_volume 2111.050365
_symmetry_space_group_name_H-M "A M M 2"
_symmetry_group_IT_number 38
_symmetry_cell_setting 'orthorhombic'
loop_
_space_group_symop_operation_xyz
x,y,z
-x,-y,z
-x,y,z
x,-y,z
x,1/2+y,1/2+z
-x,1/2-y,1/2+z
-x,1/2+y,1/2+z
x,1/2-y,1/2+z
loop_
_atom_site_type_symbol
_atom_site_label
_atom_site_fract_x
_atom_site_fract_y
_atom_site_fract_z
Si Si1 0.701196 0.896979 0.932710
Si Si2 0.798493 0.311568 0.296859
Si Si3 0.710480 0.105703 0.648348
Si Si4 0.288059 0.256745 0.036489
Si Si5 0.711081 0.901303 0.142689
Si Si6 0.288835 0.101717 0.302382
O O1 0.500000 0.902087 0.957521
O O2 0.700930 0.878102 0.850693
O O3 0.779199 0.000000 0.946212
O O4 0.774456 0.803029 0.969821
O O5 0.749490 0.331157 0.216576
O O6 0.768926 0.204999 0.323096
O O7 0.000000 0.333962 0.303546
O O8 0.500000 0.103748 0.644839
O O9 0.771623 0.147480 0.573683
O O10 0.774323 0.000000 0.659498
O O11 0.500000 0.266717 0.028814
O O12 0.238057 0.184544 0.097150
O O13 0.500000 0.899552 0.144986
O O14 0.768502 0.899363 0.221864
O O15 0.765735 0.000000 0.111284
O O16 0.500000 0.102117 0.305915
O O17 0.232953 0.000000 0.332708
#
# Coordination Sequence:
#
# PCOD9358398 Si02
#       6
#     8   8   8   8   8   8
#     4  10  21  37  59  85 113 150 195 242 292 347
#     4  12  24  37  55  81 120 162 196 235 283 340
#     4  10  20  36  60  87 114 147 192 246 296 344
#     4   9  16  30  54  84 112 137 178 240 298 344
#     4   8  12  21  45  79 107 129 160 213 277 329
#     4   9  17  32  57  85 111 142 183 232 283 334
#
# _framework density 22.737494999999999
#
# number of rings (size 3 to 8) (size 9 to 14) (size 15 to 20)
#    0.000    2.333    1.667    3.500    0.000    5.000 
#    0.000    1.667    0.000    3.000    0.000    0.000 
#    0.000    0.000    0.000    0.000    0.000    0.000 
#
# Total GULP energy -133602.711483 kJ/mol
# GULP energy per Si atom -5566.779645 kJ/mol
# Density = 2.268574 g / cm^3
# Si number density = 22.737495 Si / 1000 Ang^3
#
#
#
# Elastic Constant Matrix: (Units=GPa)
#
#
# Indices 1 2 3 4 5 6 
#
# 1 48.0979 3.7235 -1.6617 0.0000 0.0000 0.0000
# 2 3.7235 132.8576 38.5689 0.0000 0.0000 0.0000
# 3 -1.6617 38.5689 85.8879 0.0000 0.0000 0.0000
# 4 0.0000 0.0000 0.0000 8.8068 0.0000 0.0000
# 5 0.0000 0.0000 0.0000 0.0000 -30.2461 0.0000
# 6 0.0000 0.0000 0.0000 0.0000 0.0000 -40.5854
#
#
#
# Elastic Compliance Matrix: (Units=1/GPa)
#
#
# Indices 1 2 3 4 5 6 
#
# 1 0.020880 -0.000808 0.000767 0.000000 0.000000 0.000000
# 2 -0.000808 0.008686 -0.003916 0.000000 0.000000 0.000000
# 3 0.000767 -0.003916 0.013417 0.000000 0.000000 0.000000
# 4 0.000000 0.000000 0.000000 0.113548 0.000000 0.000000
# 5 0.000000 0.000000 0.000000 0.000000 -0.033062 0.000000
# 6 0.000000 0.000000 0.000000 0.000000 0.000000 -0.024639
#
#
# Mechanical properties :
#
#
# Convention : Reuss Voigt Hill
#
# Bulk Modulus (GPa) = 28.51592 38.67831 33.59711
# Shear Modulus (GPa) = 42.21759 2.67591 22.44675
#
# Velocity S-wave (km/s) = 4.31366 1.08601 3.14540
# Velocity P-wave (km/s) = 6.11382 4.31512 5.29146
#
# Compressibility (1/GPa) = 0.03506813
#
# Stress axis : x y z
#
# Youngs Moduli (GPa) = 47.89287 115.12211 74.53451
#
# Poissons Ratio (x) = 0.09299 -0.05715
# Poissons Ratio (y) = 0.03869 0.29190
# Poissons Ratio (z) = -0.03672 0.45086
#
# Static dielectric constant tensor:
#      x y z
#    x 1.884080 0.000000 0.000000 
#    y 0.000000 1.927330 0.000000 
#    z 0.000000 0.000000 1.849420 
# 
# From -- ./inp_files/19625.got.cif
#   From: 2010.05.17/outbox.cif.g08.bks.cpg/sg38_10_cif.got.tgz:19625.got - 2010.06.03 18:07:57.
