data_PCOD9358820
_publ_section_title
;
Structure prediction by ZEFSAII (Michael W. Deem and Ramdas Pophale) SiO2 
 PCOD9358820
Probable space group: A M M 2
;
_chemical_formula_sum "Si O2"
_cell_formula_units_Z 48
_cell_length_a 27.301041
_cell_length_b 8.726791
_cell_length_c 10.501422
_cell_angle_alpha 90.000000
_cell_angle_beta 90.000000
_cell_angle_gamma 90.000000
_cell_volume 2501.968821
_symmetry_space_group_name_H-M "A M M 2"
_symmetry_group_IT_number 38
_symmetry_cell_setting 'orthorhombic'
loop_
_space_group_symop_operation_xyz
x,y,z
-x,-y,z
-x,y,z
x,-y,z
x,1/2+y,1/2+z
-x,1/2-y,1/2+z
-x,1/2+y,1/2+z
x,1/2-y,1/2+z
loop_
_atom_site_type_symbol
_atom_site_label
_atom_site_fract_x
_atom_site_fract_y
_atom_site_fract_z
Si Si1 0.611396 0.815171 0.276560
Si Si2 0.276232 0.315003 0.827594
Si Si3 0.112845 0.183693 0.531292
Si Si4 0.221018 0.316328 0.569194
Si Si5 0.556366 0.814999 0.533672
Si Si6 0.056693 0.684954 0.288955
O O1 0.667774 0.770313 0.298997
O O2 0.579359 0.767562 0.398671
O O3 0.588744 0.747043 0.148919
O O4 0.609870 0.000000 0.267803
O O5 0.274529 0.500000 0.840179
O O6 0.242849 0.271078 0.706623
O O7 0.255990 0.241780 0.956358
O O8 0.167321 0.247999 0.547857
O O9 0.087636 0.246191 0.404218
O O10 0.080607 0.228750 0.654159
O O11 0.114903 0.000000 0.525400
O O12 0.218550 0.500000 0.565353
O O13 0.500000 0.763893 0.545369
O O14 0.557057 0.000000 0.537373
O O15 0.058208 0.500000 0.297488
O O16 0.000000 0.733533 0.295798
#
# Coordination Sequence:
#
# PCOD9358820 Si02
#       6
#     8   8   8   8   8   8
#     4  10  21  38  59  83 113 148 187 233 283 335
#     4  10  22  39  59  85 114 146 188 235 283 337
#     4  11  23  39  60  86 116 151 191 233 280 335
#     4  11  23  38  58  85 115 149 190 233 281 337
#     4  10  21  36  55  82 114 148 188 231 277 333
#     4  10  22  40  61  87 118 151 190 235 282 334
#
# _framework density 19.184892000000001
#
# number of rings (size 3 to 8) (size 9 to 14) (size 15 to 20)
#    0.000    1.667    0.000    4.000    0.000    8.667 
#    0.000    0.000    0.000    0.000    0.000    0.000 
#    0.000    0.000    0.000    0.000    0.000    0.000 
#
# Total GULP energy -134198.370303 kJ/mol
# GULP energy per Si atom -5591.598763 kJ/mol
# Density = 1.914123 g / cm^3
# Si number density = 19.184892 Si / 1000 Ang^3
#
#
#
# Elastic Constant Matrix: (Units=GPa)
#
#
# Indices 1 2 3 4 5 6 
#
# 1 54.4160 6.8014 -31.9456 0.0000 0.0000 0.0000
# 2 6.8014 10.1960 11.4752 0.0000 0.0000 0.0000
# 3 -31.9456 11.4752 59.8990 0.0000 0.0000 0.0000
# 4 0.0000 0.0000 0.0000 22.5177 0.0000 0.0000
# 5 0.0000 0.0000 0.0000 0.0000 44.1372 0.0000
# 6 0.0000 0.0000 0.0000 0.0000 0.0000 21.8383
#
#
#
# Elastic Compliance Matrix: (Units=1/GPa)
#
#
# Indices 1 2 3 4 5 6 
#
# 1 0.060599 -0.097907 0.051076 0.000000 0.000000 0.000000
# 2 -0.097907 0.283222 -0.106475 0.000000 0.000000 0.000000
# 3 0.051076 -0.106475 0.064333 0.000000 0.000000 0.000000
# 4 0.000000 0.000000 0.000000 0.044410 0.000000 0.000000
# 5 0.000000 0.000000 0.000000 0.000000 0.022657 0.000000
# 6 0.000000 0.000000 0.000000 0.000000 0.000000 0.045791
#
#
# Mechanical properties :
#
#
# Convention : Reuss Voigt Hill
#
# Bulk Modulus (GPa) = 9.84830 10.79701 10.32265
# Shear Modulus (GPa) = 5.80402 26.91063 16.35732
#
# Velocity S-wave (km/s) = 1.74123 3.74933 2.92312
# Velocity P-wave (km/s) = 3.03101 4.93795 4.09697
#
# Compressibility (1/GPa) = 0.10154035
#
# Stress axis : x y z
#
# Youngs Moduli (GPa) = 16.50192 3.53080 15.54416
#
# Poissons Ratio (x) = 0.34569 -0.79393
# Poissons Ratio (y) = 1.61566 1.65507
# Poissons Ratio (z) = -0.84285 0.37594
#
# Static dielectric constant tensor:
#      x y z
#    x 1.656670 0.000000 0.000000 
#    y 0.000000 1.650890 0.000000 
#    z 0.000000 0.000000 1.624380 
# 
# From -- ./inp_files/7029.got.cif
#   From: 2010.05.17/outbox.cif.g08.bks.cpg/sg38_4_cif.got.tgz:7029.got - 2010.06.03 18:07:57.
