data_PCOD9358641
_publ_section_title
;
Structure prediction by ZEFSAII (Michael W. Deem and Ramdas Pophale) SiO2 
 PCOD9358641
Probable space group: A M M 2
;
_chemical_formula_sum "Si O2"
_cell_formula_units_Z 64
_cell_length_a 14.836978
_cell_length_b 8.158773
_cell_length_c 32.412669
_cell_angle_alpha 90.000000
_cell_angle_beta 90.000000
_cell_angle_gamma 90.000000
_cell_volume 3923.603352
_symmetry_space_group_name_H-M "A M M 2"
_symmetry_group_IT_number 38
_symmetry_cell_setting 'orthorhombic'
loop_
_space_group_symop_operation_xyz
x,y,z
-x,-y,z
-x,y,z
x,-y,z
x,1/2+y,1/2+z
-x,1/2-y,1/2+z
-x,1/2+y,1/2+z
x,1/2-y,1/2+z
loop_
_atom_site_type_symbol
_atom_site_label
_atom_site_fract_x
_atom_site_fract_y
_atom_site_fract_z
Si Si1 0.288050 0.694793 0.490370
Si Si2 0.712330 0.304086 0.828528
Si Si3 0.100444 0.800102 0.362758
Si Si4 0.100763 0.302294 0.958596
Si Si5 0.390409 0.689347 0.159310
Si Si6 0.396620 0.801997 0.749033
Si Si7 0.603069 0.302320 0.069663
Si Si8 0.396035 0.198386 0.909645
O O1 0.297039 0.500000 0.490293
O O2 0.183634 0.739556 0.485161
O O3 0.333250 0.758464 0.531979
O O4 0.341663 0.758361 0.449890
O O5 0.714883 0.500000 0.827367
O O6 0.814399 0.242994 0.836393
O O7 0.666892 0.243800 0.786654
O O8 0.652876 0.252804 0.867926
O O9 0.114029 0.751729 0.410683
O O10 0.000000 0.746658 0.349934
O O11 0.100286 0.000000 0.362196
O O12 0.102295 0.500000 0.959272
O O13 0.000000 0.249189 0.971173
O O14 0.500000 0.686253 0.159303
O O15 0.359043 0.500000 0.159386
O O16 0.365729 0.761781 0.203890
O O17 0.365731 0.761919 0.114745
O O18 0.500000 0.746467 0.756709
O O19 0.399711 0.000000 0.746217
O O20 0.500000 0.245304 0.061868
O O21 0.599507 0.500000 0.072968
O O22 0.500000 0.253054 0.910774
O O23 0.395792 0.000000 0.910215
#
# Coordination Sequence:
#
# PCOD9358641 Si02
#       8
#     8   8   8   8   8   8   8   8
#     4  11  21  31  45  67  96 125 152 186 231 280
#     4  11  20  29  45  68  90 113 149 193 229 263
#     4   8  15  29  47  64  84 112 146 187 231 268
#     4   9  17  32  52  68  85 115 156 197 233 271
#     4   7  12  26  47  67  85 113 154 192 223 261
#     4   9  17  30  47  65  91 125 153 179 221 275
#     4   9  17  30  49  70  91 118 157 198 228 264
#     4  10  21  34  43  55  86 130 162 178 205 260
#
# _framework density 16.311536
#
# number of rings (size 3 to 8) (size 9 to 14) (size 15 to 20)
#    0.000    2.750    1.250    3.750    0.000    3.500 
#    0.000    0.625    0.000    3.750    0.000    0.875 
#    0.000    5.000    0.000    0.000    0.000    0.000 
#
# Total GULP energy -178282.808403 kJ/mol
# GULP energy per Si atom -5571.337763 kJ/mol
# Density = 1.627441 g / cm^3
# Si number density = 16.311536 Si / 1000 Ang^3
#
#
#
# Elastic Constant Matrix: (Units=GPa)
#
#
# Indices 1 2 3 4 5 6 
#
# 1 124.7604 12.0548 86.0086 0.0000 0.0000 0.0000
# 2 12.0548 11.7811 13.3630 0.0000 0.0000 0.0000
# 3 86.0086 13.3630 158.2389 0.0000 0.0000 0.0000
# 4 0.0000 0.0000 0.0000 16.9276 0.0000 0.0000
# 5 0.0000 0.0000 0.0000 0.0000 7.8471 0.0000
# 6 0.0000 0.0000 0.0000 0.0000 0.0000 14.5371
#
#
#
# Elastic Compliance Matrix: (Units=1/GPa)
#
#
# Indices 1 2 3 4 5 6 
#
# 1 0.013183 -0.005930 -0.006665 0.000000 0.000000 0.000000
# 2 -0.005930 0.096541 -0.004930 0.000000 0.000000 0.000000
# 3 -0.006665 -0.004930 0.010358 0.000000 0.000000 0.000000
# 4 0.000000 0.000000 0.000000 0.059075 0.000000 0.000000
# 5 0.000000 0.000000 0.000000 0.000000 0.127436 0.000000
# 6 0.000000 0.000000 0.000000 0.000000 0.000000 0.068789
#
#
# Mechanical properties :
#
#
# Convention : Reuss Voigt Hill
#
# Bulk Modulus (GPa) = 11.76000 57.51478 34.63739
# Shear Modulus (GPa) = 11.39537 20.08597 15.74067
#
# Velocity S-wave (km/s) = 2.64599 3.51293 3.10982
# Velocity P-wave (km/s) = 4.06943 7.19660 5.84599
#
# Compressibility (1/GPa) = 0.08503403
#
# Stress axis : x y z
#
# Youngs Moduli (GPa) = 75.85643 10.35832 96.54082
#
# Poissons Ratio (x) = 0.06142 0.64340
# Poissons Ratio (y) = 0.44980 0.47592
# Poissons Ratio (z) = 0.50555 0.05106
#
# Static dielectric constant tensor:
#      x y z
#    x 1.544040 0.000000 0.000000 
#    y 0.000000 1.578990 0.000000 
#    z 0.000000 0.000000 1.560270 
# 
# From -- ./inp_files/25034.got.cif
#   From: 2010.05.17/outbox.cif.g08.bks.cpg/sg38_13_cif.got.tgz:25034.got - 2010.06.03 18:07:57.
