data_PCOD9358596
_publ_section_title
;
Structure prediction by ZEFSAII (Michael W. Deem and Ramdas Pophale) SiO2 
 PCOD9358596
Probable space group: A M M 2
;
_chemical_formula_sum "Si O2"
_cell_formula_units_Z 58
_cell_length_a 8.944777
_cell_length_b 25.834217
_cell_length_c 14.013157
_cell_angle_alpha 90.000000
_cell_angle_beta 90.000000
_cell_angle_gamma 90.000000
_cell_volume 3238.178677
_symmetry_space_group_name_H-M "A M M 2"
_symmetry_group_IT_number 38
_symmetry_cell_setting 'orthorhombic'
loop_
_space_group_symop_operation_xyz
x,y,z
-x,-y,z
-x,y,z
x,-y,z
x,1/2+y,1/2+z
-x,1/2-y,1/2+z
-x,1/2+y,1/2+z
x,1/2-y,1/2+z
loop_
_atom_site_type_symbol
_atom_site_label
_atom_site_fract_x
_atom_site_fract_y
_atom_site_fract_z
Si Si1 0.180053 0.166278 0.247550
Si Si2 0.500000 0.000000 0.527759
Si Si3 0.334663 0.898893 0.586176
Si Si4 0.820265 0.557153 0.662945
Si Si5 0.820774 0.311209 0.964024
Si Si6 0.178559 0.938784 0.775232
Si Si7 0.322499 0.710864 0.559281
Si Si8 0.677687 0.401443 0.471677
O O1 0.220853 0.105907 0.229027
O O2 0.223361 0.184000 0.352945
O O3 0.256037 0.198971 0.163729
O O4 0.000000 0.170491 0.238425
O O5 0.371994 0.953768 0.536461
O O6 0.500000 0.875597 0.605770
O O7 0.241837 0.860534 0.520580
O O8 0.252759 0.910495 0.685456
O O9 0.779240 0.500000 0.699610
O O10 0.745038 0.566716 0.560483
O O11 0.000000 0.558574 0.650908
O O12 0.000000 0.310414 0.969094
O O13 0.754963 0.259703 0.011085
O O14 0.244438 0.917525 0.873909
O O15 0.000000 0.932681 0.773784
O O16 0.213967 0.000000 0.768610
O O17 0.500000 0.718651 0.565615
O O18 0.295450 0.658704 0.497735
O O19 0.500000 0.410091 0.465473
#
# Coordination Sequence:
#
# PCOD9358596 Si02
#       8
#     8   2   8   8   8   8   8   8
#     4   9  20  39  60  83 115 149 187 234 284 338
#     4   8  20  40  62  80 112 158 190 228 282 328
#     4  10  20  39  59  81 114 150 188 228 279 330
#     4   9  17  33  54  79 110 147 188 234 284 339
#     4  11  23  39  62  90 115 148 188 231 284 340
#     4  11  21  34  54  83 116 154 195 239 287 340
#     4  10  22  40  60  83 113 151 191 239 287 335
#     4  10  21  34  53  79 113 151 195 238 290 345
#
# _framework density 17.911303
#
# number of rings (size 3 to 8) (size 9 to 14) (size 15 to 20)
#    0.414    1.655    0.690    2.483    0.000    6.621 
#    1.241    2.759    0.000    0.000    0.000    0.000 
#    0.000    0.000    0.000    0.000    0.000    0.000 
#
# Total GULP energy -161545.554820 kJ/mol
# GULP energy per Si atom -5570.536373 kJ/mol
# Density = 1.787054 g / cm^3
# Si number density = 17.911303 Si / 1000 Ang^3
#
#
#
# Elastic Constant Matrix: (Units=GPa)
#
#
# Indices 1 2 3 4 5 6 
#
# 1 57.9448 52.1755 61.3613 0.0000 0.0000 0.0000
# 2 52.1755 119.4195 80.2009 0.0000 0.0000 0.0000
# 3 61.3613 80.2009 140.0198 0.0000 0.0000 0.0000
# 4 0.0000 0.0000 0.0000 12.4027 0.0000 0.0000
# 5 0.0000 0.0000 0.0000 0.0000 -0.9979 0.0000
# 6 0.0000 0.0000 0.0000 0.0000 0.0000 31.1842
#
#
#
# Elastic Compliance Matrix: (Units=1/GPa)
#
#
# Indices 1 2 3 4 5 6 
#
# 1 0.036890 -0.008549 -0.011270 0.000000 0.000000 0.000000
# 2 -0.008549 0.015590 -0.005183 0.000000 0.000000 0.000000
# 3 -0.011270 -0.005183 0.015049 0.000000 0.000000 0.000000
# 4 0.000000 0.000000 0.000000 0.080628 0.000000 0.000000
# 5 0.000000 0.000000 0.000000 0.000000 -1.002099 0.000000
# 6 0.000000 0.000000 0.000000 0.000000 0.000000 0.032068
#
#
# Mechanical properties :
#
#
# Convention : Reuss Voigt Hill
#
# Bulk Modulus (GPa) = 57.05967 78.31774 67.68871
# Shear Modulus (GPa) = -6.52716 16.76089 5.11686
#
# Velocity S-wave (km/s) = -1.91104 3.06236 1.69203
# Velocity P-wave (km/s) = 5.20159 7.50495 6.45681
#
# Compressibility (1/GPa) = 0.01752551
#
# Stress axis : x y z
#
# Youngs Moduli (GPa) = 27.10797 64.14401 66.44774
#
# Poissons Ratio (x) = 0.54836 0.74884
# Poissons Ratio (y) = 0.23174 0.34441
# Poissons Ratio (z) = 0.30550 0.33247
#
# Static dielectric constant tensor:
#      x y z
#    x 1.601570 0.000000 0.000000 
#    y 0.000000 1.608290 0.000000 
#    z 0.000000 0.000000 1.575350 
# 
# From -- ./inp_files/8327.got.cif
#   From: 2010.05.17/outbox.cif.g08.bks.cpg/sg38_5_cif.got.tgz:8327.got - 2010.06.03 18:07:57.
