data_PCOD9358397
_publ_section_title
;
Structure prediction by ZEFSAII (Michael W. Deem and Ramdas Pophale) SiO2 
 PCOD9358397
Probable space group: A M M 2
;
_chemical_formula_sum "Si O2"
_cell_formula_units_Z 40
_cell_length_a 11.244014
_cell_length_b 18.703241
_cell_length_c 10.153783
_cell_angle_alpha 90.000000
_cell_angle_beta 90.000000
_cell_angle_gamma 90.000000
_cell_volume 2135.335525
_symmetry_space_group_name_H-M "A M M 2"
_symmetry_group_IT_number 38
_symmetry_cell_setting 'orthorhombic'
loop_
_space_group_symop_operation_xyz
x,y,z
-x,-y,z
-x,y,z
x,-y,z
x,1/2+y,1/2+z
-x,1/2-y,1/2+z
-x,1/2+y,1/2+z
x,1/2-y,1/2+z
loop_
_atom_site_type_symbol
_atom_site_label
_atom_site_fract_x
_atom_site_fract_y
_atom_site_fract_z
Si Si1 0.133195 0.082895 0.548380
Si Si2 0.359913 0.080925 0.086144
Si Si3 0.267954 0.278042 0.473789
Si Si4 0.868285 0.217595 0.716216
Si Si5 0.365652 0.366890 0.887822
O O1 0.136758 0.134816 0.673680
O O2 0.249458 0.101829 0.462035
O O3 0.000000 0.095637 0.486529
O O4 0.138921 0.000000 0.582532
O O5 0.500000 0.076602 0.060098
O O6 0.309777 0.140771 0.988155
O O7 0.349317 0.110850 0.235607
O O8 0.310325 0.000000 0.077393
O O9 0.223447 0.254807 0.617563
O O10 0.163402 0.272702 0.367303
O O11 0.359143 0.218072 0.419878
O O12 0.000000 0.245371 0.688719
O O13 0.500000 0.391809 0.926210
#
# Coordination Sequence:
#
# PCOD9358397 Si02
#       5
#     8   8   8   8   8
#     4   9  19  36  57  85 120 155 192 240 299 354
#     4  10  21  37  57  85 122 157 192 243 304 354
#     4  11  20  38  58  87 116 153 202 248 292 354
#     4  10  21  36  59  85 115 156 198 245 295 353
#     4  10  20  36  60  86 116 158 205 245 290 354
#
# _framework density 18.732419
#
# number of rings (size 3 to 8) (size 9 to 14) (size 15 to 20)
#    0.000    2.000    2.000    1.800    0.000    2.800 
#    0.000    1.000    0.000    3.000    0.000    0.000 
#    0.000    0.000    0.000    0.000    0.000    0.000 
#
# Total GULP energy -111338.808073 kJ/mol
# GULP energy per Si atom -5566.940404 kJ/mol
# Density = 1.868978 g / cm^3
# Si number density = 18.732419 Si / 1000 Ang^3
#
#
#
# Elastic Constant Matrix: (Units=GPa)
#
#
# Indices 1 2 3 4 5 6 
#
# 1 77.1442 24.7189 4.3933 0.0000 0.0000 0.0000
# 2 24.7189 126.2827 14.6231 0.0000 0.0000 0.0000
# 3 4.3933 14.6231 33.9853 0.0000 0.0000 0.0000
# 4 0.0000 0.0000 0.0000 15.8104 0.0000 0.0000
# 5 0.0000 0.0000 0.0000 0.0000 27.9765 0.0000
# 6 0.0000 0.0000 0.0000 0.0000 0.0000 23.0536
#
#
#
# Elastic Compliance Matrix: (Units=1/GPa)
#
#
# Indices 1 2 3 4 5 6 
#
# 1 0.013844 -0.002634 -0.000656 0.000000 0.000000 0.000000
# 2 -0.002634 0.008835 -0.003461 0.000000 0.000000 0.000000
# 3 -0.000656 -0.003461 0.030999 0.000000 0.000000 0.000000
# 4 0.000000 0.000000 0.000000 0.063250 0.000000 0.000000
# 5 0.000000 0.000000 0.000000 0.000000 0.035744 0.000000
# 6 0.000000 0.000000 0.000000 0.000000 0.000000 0.043377
#
#
# Mechanical properties :
#
#
# Convention : Reuss Voigt Hill
#
# Bulk Modulus (GPa) = 24.89098 36.09810 30.49454
# Shear Modulus (GPa) = 22.42724 26.27987 24.35355
#
# Velocity S-wave (km/s) = 3.46387 3.74961 3.60957
# Velocity P-wave (km/s) = 5.41427 6.16914 5.80399
#
# Compressibility (1/GPa) = 0.04017520
#
# Stress axis : x y z
#
# Youngs Moduli (GPa) = 72.23305 113.18514 32.25953
#
# Poissons Ratio (x) = 0.29812 0.02117
# Poissons Ratio (y) = 0.19025 0.11165
# Poissons Ratio (z) = 0.04741 0.39174
#
# Static dielectric constant tensor:
#      x y z
#    x 1.675950 0.000000 0.000000 
#    y 0.000000 1.684430 0.000000 
#    z 0.000000 0.000000 1.611480 
# 
# From -- ./inp_files/4282.got.cif
#   From: 2010.05.17/outbox.cif.g08.bks.cpg/sg38_3_cif.got.tgz:4282.got - 2010.06.03 18:07:57.
