data_PCOD9358395
_publ_section_title
;
Structure prediction by ZEFSAII (Michael W. Deem and Ramdas Pophale) SiO2 
 PCOD9358395
Probable space group: A M M 2
;
_chemical_formula_sum "Si O2"
_cell_formula_units_Z 64
_cell_length_a 13.408932
_cell_length_b 21.631190
_cell_length_c 10.077134
_cell_angle_alpha 90.000000
_cell_angle_beta 90.000000
_cell_angle_gamma 90.000000
_cell_volume 2922.884364
_symmetry_space_group_name_H-M "A M M 2"
_symmetry_group_IT_number 38
_symmetry_cell_setting 'orthorhombic'
loop_
_space_group_symop_operation_xyz
x,y,z
-x,-y,z
-x,y,z
x,-y,z
x,1/2+y,1/2+z
-x,1/2-y,1/2+z
-x,1/2+y,1/2+z
x,1/2-y,1/2+z
loop_
_atom_site_type_symbol
_atom_site_label
_atom_site_fract_x
_atom_site_fract_y
_atom_site_fract_z
Si Si1 0.609071 0.568640 0.353210
Si Si2 0.192703 0.105022 0.979740
Si Si3 0.113648 0.074731 0.693211
Si Si4 0.609025 0.927365 0.344883
Si Si5 0.110155 0.301377 0.854402
Si Si6 0.317886 0.361866 0.105054
Si Si7 0.170200 0.930771 0.260075
Si Si8 0.788277 0.740960 0.591605
O O1 0.500000 0.575732 0.415307
O O2 0.612807 0.500000 0.290500
O O3 0.701697 0.572835 0.451057
O O4 0.626304 0.618325 0.238441
O O5 0.138922 0.076207 0.107184
O O6 0.218689 0.175287 0.018969
O O7 0.129666 0.097282 0.845630
O O8 0.208186 0.105550 0.619034
O O9 0.000000 0.090193 0.650627
O O10 0.124040 0.000000 0.688787
O O11 0.500000 0.912363 0.286068
O O12 0.627078 0.888712 0.477813
O O13 0.710010 0.919097 0.261233
O O14 0.607844 0.000000 0.379350
O O15 0.122776 0.375130 0.841799
O O16 0.182086 0.271818 0.743491
O O17 0.000000 0.283846 0.812473
O O18 0.131418 0.276630 0.000476
O O19 0.302858 0.288677 0.091612
O O20 0.150214 0.000000 0.309932
#
# Coordination Sequence:
#
# PCOD9358395 Si02
#       8
#     8   8   8   8   8   8   8   8
#     4  10  20  36  63  94 119 150 197 254 313 367
#     4  10  21  38  60  83 121 159 203 247 296 361
#     4  10  21  37  61  92 120 151 195 253 317 369
#     4  10  20  36  60  86 115 155 199 244 300 362
#     4  11  23  41  63  89 120 162 211 256 301 365
#     4  11  20  37  59  85 122 153 196 247 299 361
#     4  10  21  38  59  88 122 158 198 250 310 364
#     4  11  24  40  62  85 122 166 210 250 299 359
#
# _framework density 21.896180000000001
#
# number of rings (size 3 to 8) (size 9 to 14) (size 15 to 20)
#    0.000    1.625    1.250    5.250    0.000    6.250 
#    0.000    2.500    0.000    0.750    0.000    0.000 
#    0.000    0.000    0.000    0.000    0.000    0.000 
#
# Total GULP energy -178730.023521 kJ/mol
# GULP energy per Si atom -5585.313235 kJ/mol
# Density = 2.184634 g / cm^3
# Si number density = 21.896180 Si / 1000 Ang^3
#
#
#
# Elastic Constant Matrix: (Units=GPa)
#
#
# Indices 1 2 3 4 5 6 
#
# 1 72.4556 9.0874 -15.9152 0.0000 0.0000 0.0000
# 2 9.0874 99.6866 4.4997 0.0000 0.0000 0.0000
# 3 -15.9152 4.4997 48.1222 0.0000 0.0000 0.0000
# 4 0.0000 0.0000 0.0000 18.2871 0.0000 0.0000
# 5 0.0000 0.0000 0.0000 0.0000 3.2938 0.0000
# 6 0.0000 0.0000 0.0000 0.0000 0.0000 27.9675
#
#
#
# Elastic Compliance Matrix: (Units=1/GPa)
#
#
# Indices 1 2 3 4 5 6 
#
# 1 0.015137 -0.001613 0.005157 0.000000 0.000000 0.000000
# 2 -0.001613 0.010246 -0.001491 0.000000 0.000000 0.000000
# 3 0.005157 -0.001491 0.022625 0.000000 0.000000 0.000000
# 4 0.000000 0.000000 0.000000 0.054683 0.000000 0.000000
# 5 0.000000 0.000000 0.000000 0.000000 0.303603 0.000000
# 6 0.000000 0.000000 0.000000 0.000000 0.000000 0.035756
#
#
# Mechanical properties :
#
#
# Convention : Reuss Voigt Hill
#
# Bulk Modulus (GPa) = 19.18896 23.95648 21.57272
# Shear Modulus (GPa) = 10.98140 24.74916 17.86528
#
# Velocity S-wave (km/s) = 2.24190 3.36563 2.85951
# Velocity P-wave (km/s) = 3.93499 5.10569 4.55808
#
# Compressibility (1/GPa) = 0.05211329
#
# Stress axis : x y z
#
# Youngs Moduli (GPa) = 66.06542 97.60138 44.19818
#
# Poissons Ratio (x) = 0.15739 -0.22792
# Poissons Ratio (y) = 0.10654 0.06592
# Poissons Ratio (z) = -0.34069 0.14556
#
# Static dielectric constant tensor:
#      x y z
#    x 1.824720 0.000000 0.000000 
#    y 0.000000 1.800220 0.000000 
#    z 0.000000 0.000000 1.796800 
# 
# From -- ./inp_files/10260.got.cif
#   From: 2010.05.17/outbox.cif.g08.bks.cpg/sg38_6_cif.got.tgz:10260.got - 2010.06.03 18:07:57.
