data_PCOD9358680
_publ_section_title
;
Structure prediction by ZEFSAII (Michael W. Deem and Ramdas Pophale) SiO2 
 PCOD9358680
Probable space group: A M M 2
;
_chemical_formula_sum "Si O2"
_cell_formula_units_Z 48
_cell_length_a 7.527422
_cell_length_b 9.783990
_cell_length_c 32.329818
_cell_angle_alpha 90.000000
_cell_angle_beta 90.000000
_cell_angle_gamma 90.000000
_cell_volume 2381.033600
_symmetry_space_group_name_H-M "A M M 2"
_symmetry_group_IT_number 38
_symmetry_cell_setting 'orthorhombic'
loop_
_space_group_symop_operation_xyz
x,y,z
-x,-y,z
-x,y,z
x,-y,z
x,1/2+y,1/2+z
-x,1/2-y,1/2+z
-x,1/2+y,1/2+z
x,1/2-y,1/2+z
loop_
_atom_site_type_symbol
_atom_site_label
_atom_site_fract_x
_atom_site_fract_y
_atom_site_fract_z
Si Si1 0.788912 0.154247 0.335980
Si Si2 0.283342 0.842678 0.665628
Si Si3 0.286494 0.658732 0.499715
Si Si4 0.285893 0.844165 0.758739
Si Si5 0.210406 0.155978 0.909028
Si Si6 0.283018 0.159165 0.089834
O O1 0.765848 0.237431 0.293623
O O2 0.715277 0.246049 0.373565
O O3 0.000000 0.142753 0.342956
O O4 0.716938 0.000000 0.334060
O O5 0.500000 0.837880 0.665507
O O6 0.226430 0.806123 0.712270
O O7 0.220667 0.745870 0.628850
O O8 0.232967 0.000000 0.658246
O O9 0.500000 0.659736 0.500162
O O10 0.227222 0.500000 0.499055
O O11 0.232357 0.715598 0.455276
O O12 0.227241 0.713707 0.544414
O O13 0.500000 0.848447 0.757922
O O14 0.224868 0.000000 0.767877
O O15 0.000000 0.143918 0.901888
O O16 0.283641 0.000000 0.907597
O O17 0.500000 0.161833 0.090243
O O18 0.231868 0.000000 0.093205
#
# Coordination Sequence:
#
# PCOD9358680 Si02
#       6
#     8   8   8   8   8   8
#     4  10  21  35  49  67  93 123 154 190 234 282
#     4   8  14  25  41  63  91 118 144 178 219 262
#     4   8  14  25  42  65  90 114 144 183 221 257
#     4   9  18  32  50  72  95 120 154 194 232 271
#     4   9  17  30  48  66  84 113 153 189 223 269
#     4   8  13  22  38  60  85 114 147 179 213 258
#
# _framework density 20.159310999999999
#
# number of rings (size 3 to 8) (size 9 to 14) (size 15 to 20)
#    0.000    3.333    0.000    2.500    0.000    2.667 
#    0.000    4.167    0.000    2.000    0.000    2.333 
#    0.000    0.000    0.000    0.000    0.000    0.000 
#
# Total GULP energy -133727.138460 kJ/mol
# GULP energy per Si atom -5571.964103 kJ/mol
# Density = 2.011343 g / cm^3
# Si number density = 20.159311 Si / 1000 Ang^3
#
#
#
# Elastic Constant Matrix: (Units=GPa)
#
#
# Indices 1 2 3 4 5 6 
#
# 1 47.8003 5.3128 1.0957 0.0000 0.0000 0.0000
# 2 5.3128 107.4168 121.5691 0.0000 0.0000 0.0000
# 3 1.0957 121.5691 218.4549 0.0000 0.0000 0.0000
# 4 0.0000 0.0000 0.0000 32.1020 0.0000 0.0000
# 5 0.0000 0.0000 0.0000 0.0000 29.6584 0.0000
# 6 0.0000 0.0000 0.0000 0.0000 0.0000 7.3215
#
#
#
# Elastic Compliance Matrix: (Units=1/GPa)
#
#
# Indices 1 2 3 4 5 6 
#
# 1 0.021169 -0.002504 0.001287 0.000000 0.000000 0.000000
# 2 -0.002504 0.025444 -0.014147 0.000000 0.000000 0.000000
# 3 0.001287 -0.014147 0.012444 0.000000 0.000000 0.000000
# 4 0.000000 0.000000 0.000000 0.031151 0.000000 0.000000
# 5 0.000000 0.000000 0.000000 0.000000 0.033717 0.000000
# 6 0.000000 0.000000 0.000000 0.000000 0.000000 0.136584
#
#
# Mechanical properties :
#
#
# Convention : Reuss Voigt Hill
#
# Bulk Modulus (GPa) = 35.29824 69.95859 52.62841
# Shear Modulus (GPa) = 16.62896 30.19599 23.41248
#
# Velocity S-wave (km/s) = 2.87518 3.87443 3.41159
# Velocity P-wave (km/s) = 5.34508 7.40224 6.45612
#
# Compressibility (1/GPa) = 0.02833002
#
# Stress axis : x y z
#
# Youngs Moduli (GPa) = 47.23856 39.30136 80.36026
#
# Poissons Ratio (x) = 0.09840 -0.10344
# Poissons Ratio (y) = 0.11827 1.13687
# Poissons Ratio (z) = -0.06080 0.55600
#
# Static dielectric constant tensor:
#      x y z
#    x 1.766750 0.000000 0.000000 
#    y 0.000000 1.696810 0.000000 
#    z 0.000000 0.000000 1.729940 
# 
# From -- ./inp_files/22437.got.cif
#   From: 2010.05.17/outbox.cif.g08.bks.cpg/sg38_12_cif.got.tgz:22437.got - 2010.06.03 18:07:57.
