data_PCOD9358320
_publ_section_title
;
Structure prediction by ZEFSAII (Michael W. Deem and Ramdas Pophale) SiO2 
 PCOD9358320
Probable space group: A M M 2
;
_chemical_formula_sum "Si O2"
_cell_formula_units_Z 64
_cell_length_a 25.274357
_cell_length_b 8.754998
_cell_length_c 15.075484
_cell_angle_alpha 90.000000
_cell_angle_beta 90.000000
_cell_angle_gamma 90.000000
_cell_volume 3335.857044
_symmetry_space_group_name_H-M "A M M 2"
_symmetry_group_IT_number 38
_symmetry_cell_setting 'orthorhombic'
loop_
_space_group_symop_operation_xyz
x,y,z
-x,-y,z
-x,y,z
x,-y,z
x,1/2+y,1/2+z
-x,1/2-y,1/2+z
-x,1/2+y,1/2+z
x,1/2-y,1/2+z
loop_
_atom_site_type_symbol
_atom_site_label
_atom_site_fract_x
_atom_site_fract_y
_atom_site_fract_z
Si Si1 0.439330 0.682773 0.318690
Si Si2 0.366597 0.681644 0.970643
Si Si3 0.560670 0.182773 0.122595
Si Si4 0.942264 0.683425 0.120536
Si Si5 0.750245 0.183784 0.970644
Si Si6 0.166770 0.817004 0.819596
Si Si7 0.057736 0.683425 0.820752
Si Si8 0.833230 0.182996 0.121693
O O1 0.500000 0.717985 0.346544
O O2 0.433820 0.500000 0.316882
O O3 0.397682 0.753639 0.385791
O O4 0.432119 0.750006 0.220644
O O5 0.368626 0.500000 0.970639
O O6 0.397682 0.746351 0.055497
O O7 0.306375 0.737947 0.970644
O O8 0.500000 0.217987 0.094743
O O9 0.566180 0.000000 0.124395
O O10 0.937654 0.500000 0.123273
O O11 0.943559 0.749999 0.220644
O O12 0.888625 0.753688 0.082684
O O13 0.000000 0.720692 0.080450
O O14 0.785157 0.223927 0.056943
O O15 0.743260 0.000000 0.970644
O O16 0.785157 0.223927 0.884346
O O17 0.111375 0.753687 0.858605
O O18 0.173770 0.750000 0.720644
O O19 0.163088 0.000000 0.813759
O O20 0.062346 0.500000 0.818013
O O21 0.000000 0.720691 0.860838
O O22 0.836912 0.000000 0.127530
#
# Coordination Sequence:
#
# PCOD9358320 Si02
#       8
#     8   8   8   8   8   8   8   8
#     4  10  21  39  64  93 125 159 194 236 286 339
#     4  12  25  39  60  88 119 158 199 241 289 340
#     4  10  21  39  64  93 125 159 194 236 286 339
#     4   9  16  27  47  76 107 138 173 217 272 334
#     4  10  24  43  58  77 110 150 193 238 283 336
#     4  10  20  36  58  80 105 141 182 229 283 335
#     4   9  16  27  47  76 107 138 173 217 272 334
#     4  10  20  36  58  80 105 141 182 229 283 335
#
# _framework density 19.185475
#
# number of rings (size 3 to 8) (size 9 to 14) (size 15 to 20)
#    0.000    2.000    0.000    5.250    0.000    7.500 
#    0.000    3.125    0.000    3.750    0.000    0.000 
#    0.000    0.000    0.000    0.000    0.000    0.000 
#
# Total GULP energy -178706.290180 kJ/mol
# GULP energy per Si atom -5584.571568 kJ/mol
# Density = 1.914181 g / cm^3
# Si number density = 19.185475 Si / 1000 Ang^3
#
#
#
# Elastic Constant Matrix: (Units=GPa)
#
#
# Indices 1 2 3 4 5 6 
#
# 1 216.7113 93.8354 96.2980 0.0000 0.0000 0.0000
# 2 93.8354 91.1912 50.4932 0.0000 0.0000 0.0000
# 3 96.2980 50.4932 100.9420 0.0000 0.0000 0.0000
# 4 0.0000 0.0000 0.0000 22.6222 0.0000 0.0000
# 5 0.0000 0.0000 0.0000 0.0000 376.8428 0.0000
# 6 0.0000 0.0000 0.0000 0.0000 0.0000 34.4506
#
#
#
# Elastic Compliance Matrix: (Units=1/GPa)
#
#
# Indices 1 2 3 4 5 6 
#
# 1 0.010728 -0.007430 -0.006518 0.000000 0.000000 0.000000
# 2 -0.007430 0.020313 -0.003073 0.000000 0.000000 0.000000
# 3 -0.006518 -0.003073 0.017661 0.000000 0.000000 0.000000
# 4 0.000000 0.000000 0.000000 0.044204 0.000000 0.000000
# 5 0.000000 0.000000 0.000000 0.000000 0.002654 0.000000
# 6 0.000000 0.000000 0.000000 0.000000 0.000000 0.029027
#
#
# Mechanical properties :
#
#
# Convention : Reuss Voigt Hill
#
# Bulk Modulus (GPa) = 68.20617 98.89974 83.55295
# Shear Modulus (GPa) = 30.57831 97.99765 64.28798
#
# Velocity S-wave (km/s) = 3.99661 7.15472 5.79495
# Velocity P-wave (km/s) = 7.54488 10.95055 9.40318
#
# Compressibility (1/GPa) = 0.01466143
#
# Stress axis : x y z
#
# Youngs Moduli (GPa) = 93.21621 49.23016 56.62056
#
# Poissons Ratio (x) = 0.36578 0.36903
# Poissons Ratio (y) = 0.69259 0.17398
# Poissons Ratio (z) = 0.60754 0.15127
#
# Static dielectric constant tensor:
#      x y z
#    x 1.674150 0.000000 0.000000 
#    y 0.000000 1.637610 0.000000 
#    z 0.000000 0.000000 1.681370 
# 
# From -- ./inp_files/15790.got.cif
#   From: 2010.05.17/outbox.cif.g08.bks.cpg/sg38_8_cif.got.tgz:15790.got - 2010.06.03 18:07:57.
