data_PCOD9358159
_publ_section_title
;
Structure prediction by ZEFSAII (Michael W. Deem and Ramdas Pophale) SiO2 
 PCOD9358159
Probable space group: A M M 2
;
_chemical_formula_sum "Si O2"
_cell_formula_units_Z 56
_cell_length_a 8.835788
_cell_length_b 14.597331
_cell_length_c 23.064766
_cell_angle_alpha 90.000000
_cell_angle_beta 90.000000
_cell_angle_gamma 90.000000
_cell_volume 2974.868657
_symmetry_space_group_name_H-M "A M M 2"
_symmetry_group_IT_number 38
_symmetry_cell_setting 'orthorhombic'
loop_
_space_group_symop_operation_xyz
x,y,z
-x,-y,z
-x,y,z
x,-y,z
x,1/2+y,1/2+z
-x,1/2-y,1/2+z
-x,1/2+y,1/2+z
x,1/2-y,1/2+z
loop_
_atom_site_type_symbol
_atom_site_label
_atom_site_fract_x
_atom_site_fract_y
_atom_site_fract_z
Si Si1 0.819383 0.294444 0.234150
Si Si2 0.671244 0.145342 0.851000
Si Si3 0.181910 0.401589 0.469813
Si Si4 0.819075 0.300302 0.008743
Si Si5 0.318944 0.392018 0.122291
Si Si6 0.670874 0.855534 0.393267
Si Si7 0.316758 0.899882 0.266252
O O1 0.756235 0.349852 0.289933
O O2 0.757930 0.342062 0.176552
O O3 0.758098 0.189851 0.238813
O O4 0.000000 0.293471 0.235522
O O5 0.500000 0.110711 0.844127
O O6 0.758406 0.099327 0.903939
O O7 0.661497 0.250328 0.872463
O O8 0.228297 0.500000 0.496399
O O9 0.230799 0.306444 0.499938
O O10 0.000000 0.398357 0.468639
O O11 0.739639 0.345413 0.063549
O O12 0.000000 0.302098 0.015509
O O13 0.772015 0.354622 0.950368
O O14 0.500000 0.382723 0.126528
O O15 0.281626 0.500000 0.122210
O O16 0.500000 0.887189 0.407017
O O17 0.726985 0.902150 0.334447
O O18 0.500000 0.888474 0.264907
O O19 0.279996 0.000000 0.240610
#
# Coordination Sequence:
#
# PCOD9358159 Si02
#       7
#     8   8   8   8   8   8   8
#     4  11  22  37  58  83 113 146 182 230 283 332
#     4   9  17  31  52  78 109 145 184 223 264 314
#     4   9  18  33  54  83 118 151 181 217 267 326
#     4  10  20  35  56  82 112 145 181 226 277 325
#     4  11  25  44  63  79  99 136 186 235 282 335
#     4   8  15  29  50  77 109 145 182 219 260 308
#     4   9  18  34  57  85 118 154 189 225 267 320
#
# _framework density 18.824361
#
# number of rings (size 3 to 8) (size 9 to 14) (size 15 to 20)
#    0.000    2.429    0.000    3.429    0.000    6.857 
#    0.000    2.143    0.000    2.571    0.000    0.000 
#    0.000    0.000    0.000    0.000    0.000    0.000 
#
# Total GULP energy -156124.033580 kJ/mol
# GULP energy per Si atom -5575.858342 kJ/mol
# Density = 1.878152 g / cm^3
# Si number density = 18.824361 Si / 1000 Ang^3
#
#
#
# Elastic Constant Matrix: (Units=GPa)
#
#
# Indices 1 2 3 4 5 6 
#
# 1 65.2946 42.9746 50.8432 0.0000 0.0000 0.0000
# 2 42.9746 130.8817 58.1451 0.0000 0.0000 0.0000
# 3 50.8432 58.1451 117.0219 0.0000 0.0000 0.0000
# 4 0.0000 0.0000 0.0000 15.9289 0.0000 0.0000
# 5 0.0000 0.0000 0.0000 0.0000 25.6780 0.0000
# 6 0.0000 0.0000 0.0000 0.0000 0.0000 16.9617
#
#
#
# Elastic Compliance Matrix: (Units=1/GPa)
#
#
# Indices 1 2 3 4 5 6 
#
# 1 0.024920 -0.004328 -0.008677 0.000000 0.000000 0.000000
# 2 -0.004328 0.010556 -0.003365 0.000000 0.000000 0.000000
# 3 -0.008677 -0.003365 0.013987 0.000000 0.000000 0.000000
# 4 0.000000 0.000000 0.000000 0.062779 0.000000 0.000000
# 5 0.000000 0.000000 0.000000 0.000000 0.038944 0.000000
# 6 0.000000 0.000000 0.000000 0.000000 0.000000 0.058957
#
#
# Mechanical properties :
#
#
# Convention : Reuss Voigt Hill
#
# Bulk Modulus (GPa) = 59.79168 68.56933 64.18051
# Shear Modulus (GPa) = 20.12425 22.46272 21.29349
#
# Velocity S-wave (km/s) = 3.27319 3.45814 3.36693
# Velocity P-wave (km/s) = 6.79094 7.24223 7.02021
#
# Compressibility (1/GPa) = 0.01672474
#
# Stress axis : x y z
#
# Youngs Moduli (GPa) = 40.12856 94.72968 71.49393
#
# Poissons Ratio (x) = 0.40996 0.62034
# Poissons Ratio (y) = 0.17366 0.24057
# Poissons Ratio (z) = 0.34819 0.31876
#
# Static dielectric constant tensor:
#      x y z
#    x 1.641610 0.000000 0.000000 
#    y 0.000000 1.713910 0.000000 
#    z 0.000000 0.000000 1.619400 
# 
# From -- ./inp_files/19781.got.cif
#   From: 2010.05.17/outbox.cif.g08.bks.cpg/sg38_10_cif.got.tgz:19781.got - 2010.06.03 18:07:57.
