data_PCOD9358441
_publ_section_title
;
Structure prediction by ZEFSAII (Michael W. Deem and Ramdas Pophale) SiO2 
 PCOD9358441
Probable space group: A M M 2
;
_chemical_formula_sum "Si O2"
_cell_formula_units_Z 30
_cell_length_a 8.426772
_cell_length_b 10.749835
_cell_length_c 13.514799
_cell_angle_alpha 90.000000
_cell_angle_beta 90.000000
_cell_angle_gamma 90.000000
_cell_volume 1224.257104
_symmetry_space_group_name_H-M "A M M 2"
_symmetry_group_IT_number 38
_symmetry_cell_setting 'orthorhombic'
loop_
_space_group_symop_operation_xyz
x,y,z
-x,-y,z
-x,y,z
x,-y,z
x,1/2+y,1/2+z
-x,1/2-y,1/2+z
-x,1/2+y,1/2+z
x,1/2-y,1/2+z
loop_
_atom_site_type_symbol
_atom_site_label
_atom_site_fract_x
_atom_site_fract_y
_atom_site_fract_z
Si Si1 0.500000 0.000000 0.179200
Si Si2 0.821650 0.500000 0.809333
Si Si3 0.166548 0.350248 0.177384
Si Si4 0.172118 0.740449 0.950242
Si Si5 0.500000 0.146148 0.683667
Si Si6 0.500000 0.700199 0.506628
O O1 0.664430 0.000000 0.241019
O O2 0.500000 0.885775 0.103020
O O3 0.816688 0.379066 0.879844
O O4 0.000000 0.500000 0.760426
O O5 0.167231 0.500000 0.181147
O O6 0.331938 0.303734 0.221577
O O7 0.000000 0.305212 0.220803
O O8 0.167087 0.308526 0.063578
O O9 0.000000 0.804393 0.935257
O O10 0.336855 0.816246 0.947525
O O11 0.500000 0.165719 0.563426
O O12 0.500000 0.000000 0.704039
#
# Coordination Sequence:
#
# PCOD9358441 Si02
#       6
#     2   4   8   8   4   4
#     4  12  26  38  46  82 138 174 184 212 308 394
#     4  10  20  36  62  90 117 148 196 258 305 348
#     4   8  11  17  33  62  96 111 135 203 276 310
#     4   9  16  30  55  84 103 135 195 255 292 324
#     4   8  14  23  40  65  89 123 170 220 271 308
#     4  10  21  32  49  76 119 159 188 232 290 359
#
# _framework density 24.504657000000002
#
# number of rings (size 3 to 8) (size 9 to 14) (size 15 to 20)
#    0.000    2.933    1.333    0.800    1.867    1.067 
#    0.000    0.000    0.000    0.000    6.933    0.000 
#    0.000    0.000    0.000    0.000    0.000    0.000 
#
# Total GULP energy -83651.368073 kJ/mol
# GULP energy per Si atom -5576.757872 kJ/mol
# Density = 2.444888 g / cm^3
# Si number density = 24.504657 Si / 1000 Ang^3
#
#
#
# Elastic Constant Matrix: (Units=GPa)
#
#
# Indices 1 2 3 4 5 6 
#
# 1 363.7021 16.0719 51.3579 0.0000 0.0000 0.0000
# 2 16.0719 41.2331 14.8410 0.0000 0.0000 0.0000
# 3 51.3579 14.8410 114.5957 0.0000 0.0000 0.0000
# 4 0.0000 0.0000 0.0000 33.0885 0.0000 0.0000
# 5 0.0000 0.0000 0.0000 0.0000 -23.3883 0.0000
# 6 0.0000 0.0000 0.0000 0.0000 0.0000 -47.8920
#
#
#
# Elastic Compliance Matrix: (Units=1/GPa)
#
#
# Indices 1 2 3 4 5 6 
#
# 1 0.002955 -0.000708 -0.001233 0.000000 0.000000 0.000000
# 2 -0.000708 0.025608 -0.002999 0.000000 0.000000 0.000000
# 3 -0.001233 -0.002999 0.009667 0.000000 0.000000 0.000000
# 4 0.000000 0.000000 0.000000 0.030222 0.000000 0.000000
# 5 0.000000 0.000000 0.000000 0.000000 -0.042757 0.000000
# 6 0.000000 0.000000 0.000000 0.000000 0.000000 -0.020880
#
#
# Mechanical properties :
#
#
# Convention : Reuss Voigt Hill
#
# Bulk Modulus (GPa) = 35.27294 76.00804 55.64049
# Shear Modulus (GPa) = 207.08657 21.51232 114.29945
#
# Velocity S-wave (km/s) = 9.20285 2.96613 6.83705
# Velocity P-wave (km/s) = 11.28490 6.54337 9.22401
#
# Compressibility (1/GPa) = 0.02835035
#
# Stress axis : x y z
#
# Youngs Moduli (GPa) = 338.42764 39.05056 103.44340
#
# Poissons Ratio (x) = 0.02765 0.12750
# Poissons Ratio (y) = 0.23964 0.31023
# Poissons Ratio (z) = 0.41713 0.11711
#
# Static dielectric constant tensor:
#      x y z
#    x 2.127140 0.000000 0.000000 
#    y 0.000000 1.967740 0.000000 
#    z 0.000000 0.000000 1.885720 
# 
# From -- ./inp_files/7580.got.cif
#   From: 2010.05.17/outbox.cif.g08.bks.cpg/sg38_4_cif.got.tgz:7580.got - 2010.06.03 18:07:57.
