data_PCOD9358710
_publ_section_title
;
Structure prediction by ZEFSAII (Michael W. Deem and Ramdas Pophale) SiO2 
 PCOD9358710
Probable space group: A M M 2
;
_chemical_formula_sum "Si O2"
_cell_formula_units_Z 56
_cell_length_a 7.925238
_cell_length_b 21.209267
_cell_length_c 14.515720
_cell_angle_alpha 90.000000
_cell_angle_beta 90.000000
_cell_angle_gamma 90.000000
_cell_volume 2439.925438
_symmetry_space_group_name_H-M "A M M 2"
_symmetry_group_IT_number 38
_symmetry_cell_setting 'orthorhombic'
loop_
_space_group_symop_operation_xyz
x,y,z
-x,-y,z
-x,y,z
x,-y,z
x,1/2+y,1/2+z
-x,1/2-y,1/2+z
-x,1/2+y,1/2+z
x,1/2-y,1/2+z
loop_
_atom_site_type_symbol
_atom_site_label
_atom_site_fract_x
_atom_site_fract_y
_atom_site_fract_z
Si Si1 0.707467 0.069989 0.016110
Si Si2 0.187248 0.668087 0.970833
Si Si3 0.692633 0.664778 0.663003
Si Si4 0.307381 0.927913 0.331393
Si Si5 0.303479 0.097149 0.812652
Si Si6 0.702118 0.568209 0.113088
Si Si7 0.200256 0.761024 0.816924
O O1 0.500000 0.072935 0.019104
O O2 0.767482 0.131680 0.072382
O O3 0.753609 0.000000 0.052219
O O4 0.765625 0.074808 0.910494
O O5 0.187802 0.611070 0.897281
O O6 0.267534 0.722979 0.907492
O O7 0.000000 0.689334 0.995254
O O8 0.259621 0.632663 0.059131
O O9 0.500000 0.685232 0.643680
O O10 0.688548 0.605895 0.733522
O O11 0.774681 0.719760 0.723995
O O12 0.500000 0.923548 0.369844
O O13 0.261518 0.000000 0.323246
O O14 0.500000 0.078229 0.813368
O O15 0.229201 0.072507 0.717031
O O16 0.289224 0.172457 0.809560
O O17 0.500000 0.565873 0.116885
O O18 0.757782 0.500000 0.071760
O O19 0.000000 0.769848 0.828725
#
# Coordination Sequence:
#
# PCOD9358710 Si02
#       7
#     8   8   8   8   8   8   8
#     4   9  17  32  57  87 113 137 171 219 272 321
#     4  10  21  35  52  76 106 142 181 221 266 317
#     4   9  17  31  54  82 109 138 175 217 262 319
#     4   9  16  27  46  74 107 140 173 214 265 318
#     4  10  21  37  58  81 107 142 183 224 264 315
#     4  10  21  37  57  82 110 140 177 223 273 320
#     4  10  22  39  55  76 110 147 182 221 268 317
#
# _framework density 22.951521
#
# number of rings (size 3 to 8) (size 9 to 14) (size 15 to 20)
#    0.000    2.429    0.000    2.143    0.000    9.143 
#    0.000    5.000    0.000    3.429    0.000    0.000 
#    0.000    0.000    0.000    0.000    0.000    0.000 
#
# Total GULP energy -156153.467701 kJ/mol
# GULP energy per Si atom -5576.909561 kJ/mol
# Density = 2.289928 g / cm^3
# Si number density = 22.951521 Si / 1000 Ang^3
#
#
#
# Elastic Constant Matrix: (Units=GPa)
#
#
# Indices 1 2 3 4 5 6 
#
# 1 24.3681 -2.6484 6.6625 0.0000 0.0000 0.0000
# 2 -2.6484 102.7861 14.4700 0.0000 0.0000 0.0000
# 3 6.6625 14.4700 95.7416 0.0000 0.0000 0.0000
# 4 0.0000 0.0000 0.0000 26.3051 0.0000 0.0000
# 5 0.0000 0.0000 0.0000 0.0000 99.4101 0.0000
# 6 0.0000 0.0000 0.0000 0.0000 0.0000 -21.1656
#
#
#
# Elastic Compliance Matrix: (Units=1/GPa)
#
#
# Indices 1 2 3 4 5 6 
#
# 1 0.042067 0.001529 -0.003158 0.000000 0.000000 0.000000
# 2 0.001529 0.009996 -0.001617 0.000000 0.000000 0.000000
# 3 -0.003158 -0.001617 0.010909 0.000000 0.000000 0.000000
# 4 0.000000 0.000000 0.000000 0.038015 0.000000 0.000000
# 5 0.000000 0.000000 0.000000 0.000000 0.010059 0.000000
# 6 0.000000 0.000000 0.000000 0.000000 0.000000 -0.047246
#
#
# Mechanical properties :
#
#
# Convention : Reuss Voigt Hill
#
# Bulk Modulus (GPa) = 17.70604 28.87378 23.28991
# Shear Modulus (GPa) = 56.10413 34.53738 45.32075
#
# Velocity S-wave (km/s) = 4.94951 3.88338 4.44850
# Velocity P-wave (km/s) = 6.35570 5.71972 6.04607
#
# Compressibility (1/GPa) = 0.05647790
#
# Stress axis : x y z
#
# Youngs Moduli (GPa) = 23.77167 100.04023 91.66764
#
# Poissons Ratio (x) = -0.15292 0.28952
# Poissons Ratio (y) = -0.03634 0.14824
# Poissons Ratio (z) = 0.07508 0.16178
#
# Static dielectric constant tensor:
#      x y z
#    x 1.780950 0.000000 0.000000 
#    y 0.000000 1.843020 0.000000 
#    z 0.000000 0.000000 1.918440 
# 
# From -- ./inp_files/12445.got.cif
#   From: 2010.05.17/outbox.cif.g08.bks.cpg/sg38_7_cif.got.tgz:12445.got - 2010.06.03 18:07:57.
