data_PCOD9358385
_publ_section_title
;
Structure prediction by ZEFSAII (Michael W. Deem and Ramdas Pophale) SiO2 
 PCOD9358385
Probable space group: A M M 2
;
_chemical_formula_sum "Si O2"
_cell_formula_units_Z 64
_cell_length_a 21.035702
_cell_length_b 16.315255
_cell_length_c 9.858335
_cell_angle_alpha 90.000000
_cell_angle_beta 90.000000
_cell_angle_gamma 90.000000
_cell_volume 3383.408592
_symmetry_space_group_name_H-M "A M M 2"
_symmetry_group_IT_number 38
_symmetry_cell_setting 'orthorhombic'
loop_
_space_group_symop_operation_xyz
x,y,z
-x,-y,z
-x,y,z
x,-y,z
x,1/2+y,1/2+z
-x,1/2-y,1/2+z
-x,1/2+y,1/2+z
x,1/2-y,1/2+z
loop_
_atom_site_type_symbol
_atom_site_label
_atom_site_fract_x
_atom_site_fract_y
_atom_site_fract_z
Si Si1 0.423907 0.906129 0.012080
Si Si2 0.253889 0.741504 0.175198
Si Si3 0.926232 0.336357 0.365188
Si Si4 0.423934 0.406588 0.836535
Si Si5 0.347497 0.750758 0.424766
Si Si6 0.883065 0.684537 0.675536
Si Si7 0.836866 0.092909 0.659416
Si Si8 0.928862 0.403755 0.921207
O O1 0.500000 0.900056 0.992405
O O2 0.412059 0.896740 0.174357
O O3 0.404872 0.000000 0.975068
O O4 0.389229 0.832268 0.934460
O O5 0.300084 0.753782 0.299517
O O6 0.192733 0.801352 0.172997
O O7 0.222280 0.651910 0.179053
O O8 0.299387 0.750168 0.048817
O O9 0.908310 0.320517 0.522076
O O10 0.912313 0.257486 0.269196
O O11 0.880935 0.402260 0.292876
O O12 0.000000 0.358286 0.355855
O O13 0.500000 0.401741 0.855526
O O14 0.403941 0.500000 0.873531
O O15 0.390456 0.332596 0.915694
O O16 0.903946 0.608650 0.769021
O O17 0.878695 0.127204 0.532653
O O18 0.818395 0.000000 0.630723
O O19 0.933681 0.500000 0.949776
O O20 0.000000 0.367802 0.937789
#
# Coordination Sequence:
#
# PCOD9358385 Si02
#       8
#     8   8   8   8   8   8   8   8
#     4   9  19  38  63  92 126 161 198 245 305 362
#     4  11  24  37  57  81 117 158 201 238 283 353
#     4  11  21  34  59  83 104 140 187 243 300 360
#     4   9  19  38  64  94 125 156 197 250 306 359
#     4  12  21  39  61  92 120 162 210 248 291 352
#     4  11  22  39  53  80 114 146 186 238 296 347
#     4  10  22  40  56  78 115 155 189 237 303 362
#     4  10  20  36  60  84 108 142 188 244 306 368
#
# _framework density 18.915835999999999
#
# number of rings (size 3 to 8) (size 9 to 14) (size 15 to 20)
#    0.000    1.625    1.250    6.375    0.000    2.250 
#    0.000    1.250    0.000    1.500    0.000    0.000 
#    0.000    0.000    0.000    0.000    0.000    0.000 
#
# Total GULP energy -178524.889981 kJ/mol
# GULP energy per Si atom -5578.902812 kJ/mol
# Density = 1.887278 g / cm^3
# Si number density = 18.915836 Si / 1000 Ang^3
#
#
#
# Elastic Constant Matrix: (Units=GPa)
#
#
# Indices 1 2 3 4 5 6 
#
# 1 79.5451 26.5217 9.2103 0.0000 0.0000 0.0000
# 2 26.5217 59.7698 -13.8948 0.0000 0.0000 0.0000
# 3 9.2103 -13.8948 87.0001 0.0000 0.0000 0.0000
# 4 0.0000 0.0000 0.0000 16.6035 0.0000 0.0000
# 5 0.0000 0.0000 0.0000 0.0000 -55.6317 0.0000
# 6 0.0000 0.0000 0.0000 0.0000 0.0000 -11.9636
#
#
#
# Elastic Compliance Matrix: (Units=1/GPa)
#
#
# Indices 1 2 3 4 5 6 
#
# 1 0.015395 -0.007488 -0.002826 0.000000 0.000000 0.000000
# 2 -0.007488 0.021018 0.004150 0.000000 0.000000 0.000000
# 3 -0.002826 0.004150 0.012456 0.000000 0.000000 0.000000
# 4 0.000000 0.000000 0.000000 0.060228 0.000000 0.000000
# 5 0.000000 0.000000 0.000000 0.000000 -0.017975 0.000000
# 6 0.000000 0.000000 0.000000 0.000000 0.000000 -0.083587
#
#
# Mechanical properties :
#
#
# Convention : Reuss Voigt Hill
#
# Bulk Modulus (GPa) = 27.36672 29.99884 28.68278
# Shear Modulus (GPa) = 156.02848 3.43349 79.73098
#
# Velocity S-wave (km/s) = 9.09201 1.34873 6.49938
# Velocity P-wave (km/s) = 11.16775 4.28007 8.45688
#
# Compressibility (1/GPa) = 0.03654074
#
# Stress axis : x y z
#
# Youngs Moduli (GPa) = 64.95442 47.57758 80.28183
#
# Poissons Ratio (x) = 0.35628 0.22686
# Poissons Ratio (y) = 0.48640 -0.33314
# Poissons Ratio (z) = 0.18355 -0.19743
#
# Static dielectric constant tensor:
#      x y z
#    x 1.639890 0.000000 0.000000 
#    y 0.000000 1.720810 0.000000 
#    z 0.000000 0.000000 1.631270 
# 
# From -- ./inp_files/6814.got.cif
#   From: 2010.05.17/outbox.cif.g08.bks.cpg/sg38_4_cif.got.tgz:6814.got - 2010.06.03 18:07:57.
