data_PCOD9358707
_publ_section_title
;
Structure prediction by ZEFSAII (Michael W. Deem and Ramdas Pophale) SiO2 
 PCOD9358707
Probable space group: A M M 2
;
_chemical_formula_sum "Si O2"
_cell_formula_units_Z 64
_cell_length_a 14.945055
_cell_length_b 9.174381
_cell_length_c 25.403543
_cell_angle_alpha 90.000000
_cell_angle_beta 90.000000
_cell_angle_gamma 90.000000
_cell_volume 3483.121154
_symmetry_space_group_name_H-M "A M M 2"
_symmetry_group_IT_number 38
_symmetry_cell_setting 'orthorhombic'
loop_
_space_group_symop_operation_xyz
x,y,z
-x,-y,z
-x,y,z
x,-y,z
x,1/2+y,1/2+z
-x,1/2-y,1/2+z
-x,1/2+y,1/2+z
x,1/2-y,1/2+z
loop_
_atom_site_type_symbol
_atom_site_label
_atom_site_fract_x
_atom_site_fract_y
_atom_site_fract_z
Si Si1 0.394677 0.675366 0.362640
Si Si2 0.103227 0.825079 0.085249
Si Si3 0.109102 0.167276 0.478947
Si Si4 0.258048 0.176057 0.285538
Si Si5 0.606982 0.671566 0.085917
Si Si6 0.102275 0.177589 0.363306
Si Si7 0.390985 0.167474 0.979957
Si Si8 0.259383 0.824167 0.163528
O O1 0.500000 0.708513 0.357597
O O2 0.384972 0.500000 0.359636
O O3 0.338796 0.753673 0.317835
O O4 0.364173 0.719307 0.421730
O O5 0.134903 0.759302 0.029721
O O6 0.169176 0.782205 0.132222
O O7 0.000000 0.779324 0.094231
O O8 0.104167 0.000000 0.081352
O O9 0.135438 0.225134 0.421289
O O10 0.000000 0.165846 0.477385
O O11 0.139105 0.000000 0.484961
O O12 0.168176 0.220066 0.316721
O O13 0.256963 0.219367 0.224527
O O14 0.264440 0.000000 0.287743
O O15 0.500000 0.834562 0.978915
O O16 0.624773 0.500000 0.088123
O O17 0.659110 0.753656 0.131879
O O18 0.636038 0.735417 0.029275
O O19 0.000000 0.225927 0.355167
O O20 0.100690 0.000000 0.365625
O O21 0.500000 0.305738 0.090609
O O22 0.361581 0.000000 0.987754
O O23 0.266853 0.000000 0.161339
#
# Coordination Sequence:
#
# PCOD9358707 Si02
#       8
#     8   8   8   8   8   8   8   8
#     4   9  19  36  56  77 104 138 169 201 252 313
#     4   9  18  33  52  74 101 132 167 209 253 298
#     4   8  14  27  49  76 103 130 161 199 250 310
#     4  10  21  35  52  76 102 132 177 223 254 290
#     4  10  21  36  55  79 104 132 169 213 257 301
#     4   8  15  30  52  76 102 131 163 204 254 304
#     4   8  15  31  55  80 105 133 164 200 251 314
#     4  10  22  37  51  72 103 138 176 215 257 304
#
# _framework density 18.374324999999999
#
# number of rings (size 3 to 8) (size 9 to 14) (size 15 to 20)
#    0.000    3.000    0.000    1.875    0.000    4.500 
#    0.000    9.375    0.000    1.125    0.000    1.750 
#    0.000    0.000    0.000    0.000    0.000    0.000 
#
# Total GULP energy -178450.052469 kJ/mol
# GULP energy per Si atom -5576.564140 kJ/mol
# Density = 1.833250 g / cm^3
# Si number density = 18.374325 Si / 1000 Ang^3
#
#
#
# Elastic Constant Matrix: (Units=GPa)
#
#
# Indices 1 2 3 4 5 6 
#
# 1 76.5354 31.5525 76.8856 0.0000 0.0000 0.0000
# 2 31.5525 18.4207 52.0143 0.0000 0.0000 0.0000
# 3 76.8856 52.0143 209.1488 0.0000 0.0000 0.0000
# 4 0.0000 0.0000 0.0000 86.3411 0.0000 0.0000
# 5 0.0000 0.0000 0.0000 0.0000 33.1402 0.0000
# 6 0.0000 0.0000 0.0000 0.0000 0.0000 15.8105
#
#
#
# Elastic Compliance Matrix: (Units=1/GPa)
#
#
# Indices 1 2 3 4 5 6 
#
# 1 0.049761 -0.112782 0.009756 0.000000 0.000000 0.000000
# 2 -0.112782 0.437933 -0.067452 0.000000 0.000000 0.000000
# 3 0.009756 -0.067452 0.017970 0.000000 0.000000 0.000000
# 4 0.000000 0.000000 0.000000 0.011582 0.000000 0.000000
# 5 0.000000 0.000000 0.000000 0.000000 0.030175 0.000000
# 6 0.000000 0.000000 0.000000 0.000000 0.000000 0.063249
#
#
# Mechanical properties :
#
#
# Convention : Reuss Voigt Hill
#
# Bulk Modulus (GPa) = 6.07137 69.44552 37.75845
# Shear Modulus (GPa) = 4.96756 36.63520 20.80138
#
# Velocity S-wave (km/s) = 1.64603 4.47007 3.36830
# Velocity P-wave (km/s) = 2.63135 8.03237 5.97674
#
# Compressibility (1/GPa) = 0.16470737
#
# Stress axis : x y z
#
# Youngs Moduli (GPa) = 20.09589 2.28345 55.64838
#
# Poissons Ratio (x) = 0.25753 -0.54288
# Poissons Ratio (y) = 2.26646 3.75358
# Poissons Ratio (z) = -0.19605 0.15402
#
# Static dielectric constant tensor:
#      x y z
#    x 1.654600 0.000000 0.000000 
#    y 0.000000 1.613580 0.000000 
#    z 0.000000 0.000000 1.620320 
# 
# From -- ./inp_files/22939.got.cif
#   From: 2010.05.17/outbox.cif.g08.bks.cpg/sg38_12_cif.got.tgz:22939.got - 2010.06.03 18:07:57.
