data_PCOD9358981
_publ_section_title
;
Structure prediction by ZEFSAII (Michael W. Deem and Ramdas Pophale) SiO2 
 PCOD9358981
Probable space group: A M M 2
;
_chemical_formula_sum "Si O2"
_cell_formula_units_Z 48
_cell_length_a 8.063920
_cell_length_b 23.965469
_cell_length_c 11.832084
_cell_angle_alpha 90.000000
_cell_angle_beta 90.000000
_cell_angle_gamma 90.000000
_cell_volume 2286.616786
_symmetry_space_group_name_H-M "A M M 2"
_symmetry_group_IT_number 38
_symmetry_cell_setting 'orthorhombic'
loop_
_space_group_symop_operation_xyz
x,y,z
-x,-y,z
-x,y,z
x,-y,z
x,1/2+y,1/2+z
-x,1/2-y,1/2+z
-x,1/2+y,1/2+z
x,1/2-y,1/2+z
loop_
_atom_site_type_symbol
_atom_site_label
_atom_site_fract_x
_atom_site_fract_y
_atom_site_fract_z
Si Si1 0.698384 0.268573 0.995670
Si Si2 0.200158 0.642730 0.822153
Si Si3 0.798294 0.561951 0.026227
Si Si4 0.803441 0.848856 0.698327
Si Si5 0.803432 0.064006 0.120652
Si Si6 0.693095 0.147477 0.949379
O O1 0.500000 0.268033 0.005262
O O2 0.740013 0.298666 0.875593
O O3 0.761932 0.205228 0.000963
O O4 0.769344 0.303309 0.101010
O O5 0.249773 0.599240 0.920211
O O6 0.260568 0.611695 0.708445
O O7 0.000000 0.647187 0.816230
O O8 0.733873 0.500000 0.017466
O O9 0.000000 0.560548 0.024396
O O10 0.750507 0.593298 0.139832
O O11 0.712474 0.843379 0.816063
O O12 0.000000 0.849440 0.720363
O O13 0.000000 0.059933 0.143115
O O14 0.738246 0.000000 0.131045
O O15 0.777198 0.092150 0.998690
O O16 0.500000 0.142880 0.977925
#
# Coordination Sequence:
#
# PCOD9358981 Si02
#       6
#     8   8   8   8   8   8
#     4  10  22  39  59  84 118 156 195 244 304 363
#     4   9  18  34  59  90 117 149 194 246 295 348
#     4   8  14  28  53  83 112 141 176 225 285 339
#     4  10  21  37  59  86 113 146 194 248 298 351
#     4  10  22  40  62  90 123 160 204 252 301 355
#     4  11  25  41  58  82 118 162 201 243 300 364
#
# _framework density 20.991712
#
# number of rings (size 3 to 8) (size 9 to 14) (size 15 to 20)
#    0.000    2.333    0.000    3.000    2.333    6.333 
#    0.000    1.667    0.000   16.000    0.000    0.000 
#    0.000    0.000    0.000    0.000    0.000    0.000 
#
# Total GULP energy -133836.737065 kJ/mol
# GULP energy per Si atom -5576.530711 kJ/mol
# Density = 2.094393 g / cm^3
# Si number density = 20.991712 Si / 1000 Ang^3
#
#
#
# Elastic Constant Matrix: (Units=GPa)
#
#
# Indices 1 2 3 4 5 6 
#
# 1 25.0487 5.0232 -3.9818 0.0000 0.0000 0.0000
# 2 5.0232 92.7931 17.7333 0.0000 0.0000 0.0000
# 3 -3.9818 17.7333 67.5302 0.0000 0.0000 0.0000
# 4 0.0000 0.0000 0.0000 17.6110 0.0000 0.0000
# 5 0.0000 0.0000 0.0000 0.0000 18.6962 0.0000
# 6 0.0000 0.0000 0.0000 0.0000 0.0000 25.1135
#
#
#
# Elastic Compliance Matrix: (Units=1/GPa)
#
#
# Indices 1 2 3 4 5 6 
#
# 1 0.040990 -0.002822 0.003158 0.000000 0.000000 0.000000
# 2 -0.002822 0.011540 -0.003197 0.000000 0.000000 0.000000
# 3 0.003158 -0.003197 0.015834 0.000000 0.000000 0.000000
# 4 0.000000 0.000000 0.000000 0.056783 0.000000 0.000000
# 5 0.000000 0.000000 0.000000 0.000000 0.053487 0.000000
# 6 0.000000 0.000000 0.000000 0.000000 0.000000 0.039819
#
#
# Mechanical properties :
#
#
# Convention : Reuss Voigt Hill
#
# Bulk Modulus (GPa) = 15.96376 24.76907 20.36641
# Shear Modulus (GPa) = 20.40346 23.39063 21.89705
#
# Velocity S-wave (km/s) = 3.12104 3.34170 3.23325
# Velocity P-wave (km/s) = 4.53973 5.16860 4.86433
#
# Compressibility (1/GPa) = 0.06264190
#
# Stress axis : x y z
#
# Youngs Moduli (GPa) = 24.39606 86.65211 63.15562
#
# Poissons Ratio (x) = 0.24457 -0.19945
# Poissons Ratio (y) = 0.06886 0.20190
# Poissons Ratio (z) = -0.07704 0.27702
#
# Static dielectric constant tensor:
#      x y z
#    x 1.747520 0.000000 0.000000 
#    y 0.000000 1.780030 0.000000 
#    z 0.000000 0.000000 1.757230 
# 
# From -- ./inp_files/8151.got.cif
#   From: 2010.05.17/outbox.cif.g08.bks.cpg/sg38_5_cif.got.tgz:8151.got - 2010.06.03 18:07:57.
