data_PCOD9358633
_publ_section_title
;
Structure prediction by ZEFSAII (Michael W. Deem and Ramdas Pophale) SiO2 
 PCOD9358633
Probable space group: A M M 2
;
_chemical_formula_sum "Si O2"
_cell_formula_units_Z 48
_cell_length_a 7.770980
_cell_length_b 9.193742
_cell_length_c 36.048044
_cell_angle_alpha 90.000000
_cell_angle_beta 90.000000
_cell_angle_gamma 90.000000
_cell_volume 2575.430342
_symmetry_space_group_name_H-M "A M M 2"
_symmetry_group_IT_number 38
_symmetry_cell_setting 'orthorhombic'
loop_
_space_group_symop_operation_xyz
x,y,z
-x,-y,z
-x,y,z
x,-y,z
x,1/2+y,1/2+z
-x,1/2-y,1/2+z
-x,1/2+y,1/2+z
x,1/2-y,1/2+z
loop_
_atom_site_type_symbol
_atom_site_label
_atom_site_fract_x
_atom_site_fract_y
_atom_site_fract_z
Si Si1 0.704138 0.823645 0.201900
Si Si2 0.298963 0.324912 0.390843
Si Si3 0.204211 0.163450 0.545779
Si Si4 0.705829 0.334053 0.965542
Si Si5 0.000000 0.323900 0.249503
Si Si6 0.294151 0.662985 0.619166
Si Si7 0.000000 0.676429 0.335674
O O1 0.500000 0.790691 0.207292
O O2 0.831112 0.743096 0.229883
O O3 0.758934 0.781113 0.159760
O O4 0.721542 0.000000 0.204381
O O5 0.500000 0.285285 0.384197
O O6 0.292157 0.500000 0.393725
O O7 0.238350 0.256378 0.429802
O O8 0.170207 0.277486 0.358268
O O9 0.253937 0.230406 0.506042
O O10 0.254780 0.245281 0.582955
O O11 0.000000 0.153814 0.545812
O O12 0.279255 0.000000 0.546449
O O13 0.500000 0.341527 0.963126
O O14 0.774765 0.500000 0.964349
O O15 0.000000 0.280757 0.292841
O O16 0.000000 0.500000 0.246604
O O17 0.500000 0.652967 0.621909
O O18 0.223778 0.500000 0.614412
O O19 0.000000 0.500000 0.336038
#
# Coordination Sequence:
#
# PCOD9358633 Si02
#       7
#     8   8   8   8   4   8   4
#     4   9  20  40  62  83 113 153 192 232 282 338
#     4   9  18  34  56  78 102 137 179 220 262 315
#     4  10  21  33  47  74 110 143 176 216 265 319
#     4   9  18  33  51  72 102 139 175 215 264 312
#     4  11  23  37  59  90 119 146 183 232 285 343
#     4   9  19  36  56  76 100 137 184 227 266 313
#     4   9  20  37  55  80 111 140 171 214 273 333
#
# _framework density 18.637663
#
# number of rings (size 3 to 8) (size 9 to 14) (size 15 to 20)
#    0.000    2.667    0.000    1.750    2.333    3.667 
#    0.000    6.667    0.000    2.000    0.000    0.000 
#    0.000    0.000    0.000    0.000    0.000    0.000 
#
# Total GULP energy -133764.923535 kJ/mol
# GULP energy per Si atom -5573.538481 kJ/mol
# Density = 1.859524 g / cm^3
# Si number density = 18.637663 Si / 1000 Ang^3
#
#
#
# Elastic Constant Matrix: (Units=GPa)
#
#
# Indices 1 2 3 4 5 6 
#
# 1 80.0686 29.5051 74.6307 0.0000 0.0000 0.0000
# 2 29.5051 32.2449 58.0251 0.0000 0.0000 0.0000
# 3 74.6307 58.0251 216.0968 0.0000 0.0000 0.0000
# 4 0.0000 0.0000 0.0000 33.1733 0.0000 0.0000
# 5 0.0000 0.0000 0.0000 0.0000 37.9033 0.0000
# 6 0.0000 0.0000 0.0000 0.0000 0.0000 21.2190
#
#
#
# Elastic Compliance Matrix: (Units=1/GPa)
#
#
# Indices 1 2 3 4 5 6 
#
# 1 0.020443 -0.011612 -0.003942 0.000000 0.000000 0.000000
# 2 -0.011612 0.066604 -0.013874 0.000000 0.000000 0.000000
# 3 -0.003942 -0.013874 0.009714 0.000000 0.000000 0.000000
# 4 0.000000 0.000000 0.000000 0.030145 0.000000 0.000000
# 5 0.000000 0.000000 0.000000 0.000000 0.026383 0.000000
# 6 0.000000 0.000000 0.000000 0.000000 0.000000 0.047128
#
#
# Mechanical properties :
#
#
# Convention : Reuss Voigt Hill
#
# Bulk Modulus (GPa) = 26.38144 72.52580 49.45362
# Shear Modulus (GPa) = 18.38866 29.54240 23.96553
#
# Velocity S-wave (km/s) = 3.14449 3.98564 3.58979
# Velocity P-wave (km/s) = 5.23158 7.75748 6.61619
#
# Compressibility (1/GPa) = 0.03790544
#
# Stress axis : x y z
#
# Youngs Moduli (GPa) = 48.91769 15.01411 102.94055
#
# Poissons Ratio (x) = 0.17434 0.40580
# Poissons Ratio (y) = 0.56802 1.42819
# Poissons Ratio (z) = 0.19284 0.20831
#
# Static dielectric constant tensor:
#      x y z
#    x 1.655080 0.000000 0.000000 
#    y 0.000000 1.624320 0.000000 
#    z 0.000000 0.000000 1.650600 
# 
# From -- ./inp_files/24315.got.cif
#   From: 2010.05.17/outbox.cif.g08.bks.cpg/sg38_13_cif.got.tgz:24315.got - 2010.06.03 18:07:57.
