data_PCOD9358685
_publ_section_title
;
Structure prediction by ZEFSAII (Michael W. Deem and Ramdas Pophale) SiO2 
 PCOD9358685
Probable space group: A M M 2
;
_chemical_formula_sum "Si O2"
_cell_formula_units_Z 64
_cell_length_a 10.356106
_cell_length_b 7.727610
_cell_length_c 41.747892
_cell_angle_alpha 90.000000
_cell_angle_beta 90.000000
_cell_angle_gamma 90.000000
_cell_volume 3340.998142
_symmetry_space_group_name_H-M "A M M 2"
_symmetry_group_IT_number 38
_symmetry_cell_setting 'orthorhombic'
loop_
_space_group_symop_operation_xyz
x,y,z
-x,-y,z
-x,y,z
x,-y,z
x,1/2+y,1/2+z
-x,1/2-y,1/2+z
-x,1/2+y,1/2+z
x,1/2-y,1/2+z
loop_
_atom_site_type_symbol
_atom_site_label
_atom_site_fract_x
_atom_site_fract_y
_atom_site_fract_z
Si Si1 0.145187 0.707639 0.467750
Si Si2 0.645506 0.792054 0.165234
Si Si3 0.851952 0.288596 0.540122
Si Si4 0.647699 0.711731 0.842071
Si Si5 0.854152 0.294138 0.790819
Si Si6 0.352251 0.711397 0.592661
Si Si7 0.854364 0.205588 0.718689
Si Si8 0.645078 0.707611 0.914578
O O1 0.138452 0.500000 0.469470
O O2 0.179105 0.767744 0.503770
O O3 0.249896 0.749741 0.441114
O O4 0.000000 0.771115 0.459989
O O5 0.500000 0.729931 0.173230
O O6 0.677627 0.732619 0.129078
O O7 0.752192 0.747836 0.191306
O O8 0.639518 0.000000 0.163889
O O9 0.849048 0.500000 0.540424
O O10 0.750235 0.227856 0.566484
O O11 0.000000 0.238136 0.547140
O O12 0.500000 0.763482 0.834941
O O13 0.649113 0.500000 0.841579
O O14 0.750711 0.774843 0.816142
O O15 0.678565 0.766860 0.878502
O O16 0.861756 0.500000 0.796228
O O17 0.814315 0.268849 0.753938
O O18 0.000000 0.223053 0.794448
O O19 0.500000 0.762010 0.585346
O O20 0.349424 0.500000 0.592432
O O21 0.000000 0.273834 0.712111
O O22 0.862500 0.000000 0.720637
O O23 0.500000 0.771291 0.922398
O O24 0.638417 0.500000 0.912987
#
# Coordination Sequence:
#
# PCOD9358685 Si02
#       8
#     8   8   8   8   8   8   8   8
#     4   9  18  31  46  68  98 128 159 195 234 278
#     4   9  18  32  50  73  98 122 153 195 238 279
#     4   8  14  25  41  63  92 122 151 187 231 276
#     4   8  15  29  48  69  92 117 148 190 236 277
#     4   9  17  30  49  71  92 116 151 193 233 275
#     4   8  14  25  42  66  93 117 146 188 234 277
#     4  10  21  35  49  68  97 130 160 190 228 276
#     4   9  18  32  49  70  96 125 158 195 234 278
#
# _framework density 19.155951999999999
#
# number of rings (size 3 to 8) (size 9 to 14) (size 15 to 20)
#    0.000    3.250    0.000    2.625    0.000    3.500 
#    0.000    5.625    0.000    3.000    0.000    0.000 
#    0.000    0.000    0.000    0.000    0.000    0.000 
#
# Total GULP energy -178349.253525 kJ/mol
# GULP energy per Si atom -5573.414173 kJ/mol
# Density = 1.911235 g / cm^3
# Si number density = 19.155952 Si / 1000 Ang^3
#
#
#
# Elastic Constant Matrix: (Units=GPa)
#
#
# Indices 1 2 3 4 5 6 
#
# 1 159.8197 5.3401 155.5912 0.0000 0.0000 0.0000
# 2 5.3401 26.6359 4.4860 0.0000 0.0000 0.0000
# 3 155.5912 4.4860 184.4002 0.0000 0.0000 0.0000
# 4 0.0000 0.0000 0.0000 10.5081 0.0000 0.0000
# 5 0.0000 0.0000 0.0000 0.0000 39.1233 0.0000
# 6 0.0000 0.0000 0.0000 0.0000 0.0000 12.9740
#
#
#
# Elastic Compliance Matrix: (Units=1/GPa)
#
#
# Indices 1 2 3 4 5 6 
#
# 1 0.035155 -0.002061 -0.029612 0.000000 0.000000 0.000000
# 2 -0.002061 0.037819 0.000819 0.000000 0.000000 0.000000
# 3 -0.029612 0.000819 0.030389 0.000000 0.000000 0.000000
# 4 0.000000 0.000000 0.000000 0.095164 0.000000 0.000000
# 5 0.000000 0.000000 0.000000 0.000000 0.025560 0.000000
# 6 0.000000 0.000000 0.000000 0.000000 0.000000 0.077077
#
#
# Mechanical properties :
#
#
# Convention : Reuss Voigt Hill
#
# Bulk Modulus (GPa) = 24.00743 77.96561 50.98652
# Shear Modulus (GPa) = 13.27113 26.21700 19.74407
#
# Velocity S-wave (km/s) = 2.63495 3.70348 3.21394
# Velocity P-wave (km/s) = 4.67088 7.68613 6.35978
#
# Compressibility (1/GPa) = 0.04165377
#
# Stress axis : x y z
#
# Youngs Moduli (GPa) = 28.44560 26.44199 32.90653
#
# Poissons Ratio (x) = 0.05449 0.97444
# Poissons Ratio (y) = 0.05862 -0.02694
# Poissons Ratio (z) = 0.84234 -0.02165
#
# Static dielectric constant tensor:
#      x y z
#    x 1.693140 0.000000 0.000000 
#    y 0.000000 1.757500 0.000000 
#    z 0.000000 0.000000 1.648490 
# 
# From -- ./inp_files/24931.got.cif
#   From: 2010.05.17/outbox.cif.g08.bks.cpg/sg38_13_cif.got.tgz:24931.got - 2010.06.03 18:07:57.
