data_PCOD9358590
_publ_section_title
;
Structure prediction by ZEFSAII (Michael W. Deem and Ramdas Pophale) SiO2 
 PCOD9358590
Probable space group: A M M 2
;
_chemical_formula_sum "Si O2"
_cell_formula_units_Z 56
_cell_length_a 16.722271
_cell_length_b 16.004869
_cell_length_c 9.524166
_cell_angle_alpha 90.000000
_cell_angle_beta 90.000000
_cell_angle_gamma 90.000000
_cell_volume 2549.026423
_symmetry_space_group_name_H-M "A M M 2"
_symmetry_group_IT_number 38
_symmetry_cell_setting 'orthorhombic'
loop_
_space_group_symop_operation_xyz
x,y,z
-x,-y,z
-x,y,z
x,-y,z
x,1/2+y,1/2+z
-x,1/2-y,1/2+z
-x,1/2+y,1/2+z
x,1/2-y,1/2+z
loop_
_atom_site_type_symbol
_atom_site_label
_atom_site_fract_x
_atom_site_fract_y
_atom_site_fract_z
Si Si1 0.161786 0.397834 0.744840
Si Si2 0.150090 0.898036 0.571390
Si Si3 0.000000 0.102153 0.755498
Si Si4 0.595295 0.675758 0.020067
Si Si5 0.587361 0.096306 0.961663
Si Si6 0.000000 0.398253 0.578415
Si Si7 0.693979 0.905806 0.724064
Si Si8 0.337823 0.829610 0.206332
O O1 0.171960 0.500000 0.735057
O O2 0.082512 0.374452 0.656677
O O3 0.244210 0.353300 0.699054
O O4 0.147498 0.375005 0.908258
O O5 0.076276 0.870948 0.665924
O O6 0.229401 0.866833 0.649620
O O7 0.150828 0.000000 0.569639
O O8 0.000000 0.130269 0.916631
O O9 0.000000 0.000000 0.758913
O O10 0.500000 0.680858 0.015220
O O11 0.624707 0.595763 0.107818
O O12 0.632914 0.749569 0.116288
O O13 0.633004 0.674962 0.865926
O O14 0.500000 0.135237 0.937972
O O15 0.656812 0.133561 0.863914
O O16 0.581796 0.000000 0.918647
O O17 0.612774 0.100163 0.122139
O O18 0.000000 0.500000 0.578883
O O19 0.719071 0.000000 0.761043
#
# Coordination Sequence:
#
# PCOD9358590 Si02
#       8
#     8   8   4   8   8   4   8   8
#     4  10  20  38  64  96 132 166 205 256 312 372
#     4   9  17  32  55  87 125 161 196 239 301 365
#     4   9  17  29  53  90 129 164 198 244 301 371
#     4  12  25  42  63  87 120 164 212 264 318 380
#     4  10  21  37  58  86 120 157 200 259 321 372
#     4   9  19  33  59  98 133 166 203 250 307 369
#     4  10  21  38  62  92 123 157 202 256 318 382
#     4  12  25  42  63  87 121 164 216 261 316 377
#
# _framework density 21.969170999999999
#
# number of rings (size 3 to 8) (size 9 to 14) (size 15 to 20)
#    0.000    1.714    1.429    3.429    2.000    3.143 
#    0.000    0.000    0.000    1.714    0.000    0.000 
#    0.000    0.000    0.000    0.000    0.000    0.000 
#
# Total GULP energy -156274.193721 kJ/mol
# GULP energy per Si atom -5581.221204 kJ/mol
# Density = 2.191917 g / cm^3
# Si number density = 21.969171 Si / 1000 Ang^3
#
#
#
# Elastic Constant Matrix: (Units=GPa)
#
#
# Indices 1 2 3 4 5 6 
#
# 1 187.8405 11.6590 63.6717 0.0000 0.0000 0.0000
# 2 11.6590 25.4158 2.6516 0.0000 0.0000 0.0000
# 3 63.6717 2.6516 140.1198 0.0000 0.0000 0.0000
# 4 0.0000 0.0000 0.0000 15.2833 0.0000 0.0000
# 5 0.0000 0.0000 0.0000 0.0000 40.2468 0.0000
# 6 0.0000 0.0000 0.0000 0.0000 0.0000 16.9162
#
#
#
# Elastic Compliance Matrix: (Units=1/GPa)
#
#
# Indices 1 2 3 4 5 6 
#
# 1 0.006468 -0.002666 -0.002889 0.000000 0.000000 0.000000
# 2 -0.002666 0.040522 0.000445 0.000000 0.000000 0.000000
# 3 -0.002889 0.000445 0.008441 0.000000 0.000000 0.000000
# 4 0.000000 0.000000 0.000000 0.065431 0.000000 0.000000
# 5 0.000000 0.000000 0.000000 0.000000 0.024847 0.000000
# 6 0.000000 0.000000 0.000000 0.000000 0.000000 0.059115
#
#
# Mechanical properties :
#
#
# Convention : Reuss Voigt Hill
#
# Bulk Modulus (GPa) = 22.11834 56.59341 39.35587
# Shear Modulus (GPa) = 21.72832 32.84887 27.28859
#
# Velocity S-wave (km/s) = 3.14831 3.87101 3.52821
# Velocity P-wave (km/s) = 4.82758 6.76727 5.87799
#
# Compressibility (1/GPa) = 0.04521135
#
# Stress axis : x y z
#
# Youngs Moduli (GPa) = 154.59900 24.67783 118.46869
#
# Poissons Ratio (x) = 0.06579 0.34224
# Poissons Ratio (y) = 0.41214 -0.05267
# Poissons Ratio (z) = 0.44661 -0.01097
#
# Static dielectric constant tensor:
#      x y z
#    x 1.803260 0.000000 0.000000 
#    y 0.000000 1.930990 0.000000 
#    z 0.000000 0.000000 1.766620 
# 
# From -- ./inp_files/5744.got.cif
#   From: 2010.05.17/outbox.cif.g08.bks.cpg/sg38_3_cif.got.tgz:5744.got - 2010.06.03 18:07:57.
