data_PCOD9358236
_publ_section_title
;
Structure prediction by ZEFSAII (Michael W. Deem and Ramdas Pophale) SiO2 
 PCOD9358236
Probable space group: A M M 2
;
_chemical_formula_sum "Si O2"
_cell_formula_units_Z 56
_cell_length_a 14.694762
_cell_length_b 13.490796
_cell_length_c 13.700935
_cell_angle_alpha 90.000000
_cell_angle_beta 90.000000
_cell_angle_gamma 90.000000
_cell_volume 2716.128657
_symmetry_space_group_name_H-M "A M M 2"
_symmetry_group_IT_number 38
_symmetry_cell_setting 'orthorhombic'
loop_
_space_group_symop_operation_xyz
x,y,z
-x,-y,z
-x,y,z
x,-y,z
x,1/2+y,1/2+z
-x,1/2-y,1/2+z
-x,1/2+y,1/2+z
x,1/2-y,1/2+z
loop_
_atom_site_type_symbol
_atom_site_label
_atom_site_fract_x
_atom_site_fract_y
_atom_site_fract_z
Si Si1 0.280642 0.112948 0.331510
Si Si2 0.101959 0.685540 0.732344
Si Si3 0.639259 0.110630 0.740309
Si Si4 0.395217 0.681425 0.648817
Si Si5 0.604646 0.780679 0.935556
Si Si6 0.107144 0.883166 0.021213
Si Si7 0.846081 0.111571 0.806158
O O1 0.176416 0.139137 0.304862
O O2 0.334126 0.127981 0.229054
O O3 0.328603 0.191724 0.403367
O O4 0.288425 0.000000 0.365256
O O5 0.133094 0.671807 0.620335
O O6 0.098870 0.801389 0.756614
O O7 0.000000 0.642534 0.740777
O O8 0.611453 0.200446 0.670565
O O9 0.604018 0.141436 0.847141
O O10 0.748015 0.112310 0.755207
O O11 0.611316 0.000000 0.711687
O O12 0.500000 0.650690 0.661907
O O13 0.367849 0.668510 0.536828
O O14 0.500000 0.744121 0.947380
O O15 0.000000 0.861881 0.000762
O O16 0.115171 0.000000 0.042406
O O17 0.160644 0.863450 0.921476
O O18 0.883961 0.000000 0.800610
#
# Coordination Sequence:
#
# PCOD9358236 Si02
#       7
#     8   8   8   8   8   8   8
#     4  11  23  39  60  87 120 157 199 246 293 348
#     4  11  22  37  59  88 121 156 197 247 298 345
#     4  10  20  35  58  87 116 148 189 235 287 349
#     4  10  22  40  61  87 119 154 195 240 291 352
#     4  10  22  40  61  87 119 153 193 240 294 354
#     4   9  19  35  56  83 112 147 193 237 282 342
#     4  10  20  36  60  87 114 150 195 241 289 349
#
# _framework density 20.617578999999999
#
# number of rings (size 3 to 8) (size 9 to 14) (size 15 to 20)
#    0.000    1.857    2.857    2.571    2.000    5.143 
#    0.000    2.857    0.000    0.857    0.000    4.000 
#    0.000    0.000    0.000    0.000    0.000    0.000 
#
# Total GULP energy -156361.050066 kJ/mol
# GULP energy per Si atom -5584.323217 kJ/mol
# Density = 2.057065 g / cm^3
# Si number density = 20.617579 Si / 1000 Ang^3
#
#
#
# Elastic Constant Matrix: (Units=GPa)
#
#
# Indices 1 2 3 4 5 6 
#
# 1 83.9145 -4.9482 -5.1375 0.0000 0.0000 0.0000
# 2 -4.9482 58.4606 -14.1493 0.0000 0.0000 0.0000
# 3 -5.1375 -14.1493 37.1103 0.0000 0.0000 0.0000
# 4 0.0000 0.0000 0.0000 14.1841 0.0000 0.0000
# 5 0.0000 0.0000 0.0000 0.0000 23.8450 0.0000
# 6 0.0000 0.0000 0.0000 0.0000 0.0000 10.2031
#
#
#
# Elastic Compliance Matrix: (Units=1/GPa)
#
#
# Indices 1 2 3 4 5 6 
#
# 1 0.012150 0.001581 0.002285 0.000000 0.000000 0.000000
# 2 0.001581 0.019050 0.007482 0.000000 0.000000 0.000000
# 3 0.002285 0.007482 0.030116 0.000000 0.000000 0.000000
# 4 0.000000 0.000000 0.000000 0.070502 0.000000 0.000000
# 5 0.000000 0.000000 0.000000 0.000000 0.041937 0.000000
# 6 0.000000 0.000000 0.000000 0.000000 0.000000 0.098009
#
#
# Mechanical properties :
#
#
# Convention : Reuss Voigt Hill
#
# Bulk Modulus (GPa) = 11.90278 14.55726 13.23002
# Shear Modulus (GPa) = 18.04587 23.22781 20.63684
#
# Velocity S-wave (km/s) = 2.96170 3.36013 3.16719
# Velocity P-wave (km/s) = 4.18105 4.70424 4.45034
#
# Compressibility (1/GPa) = 0.08401399
#
# Stress axis : x y z
#
# Youngs Moduli (GPa) = 82.30428 52.49245 33.20506
#
# Poissons Ratio (x) = -0.08301 -0.07587
# Poissons Ratio (y) = -0.13016 -0.24845
# Poissons Ratio (z) = -0.18807 -0.39277
#
# Static dielectric constant tensor:
#      x y z
#    x 1.785260 0.000000 0.000000 
#    y 0.000000 1.722760 0.000000 
#    z 0.000000 0.000000 1.712690 
# 
# From -- ./inp_files/14654.got.cif
#   From: 2010.05.17/outbox.cif.g08.bks.cpg/sg38_8_cif.got.tgz:14654.got - 2010.06.03 18:07:57.
