data_PCOD9358519
_publ_section_title
;
Structure prediction by ZEFSAII (Michael W. Deem and Ramdas Pophale) SiO2 
 PCOD9358519
Probable space group: A M M 2
;
_chemical_formula_sum "Si O2"
_cell_formula_units_Z 48
_cell_length_a 8.765212
_cell_length_b 18.687988
_cell_length_c 15.367680
_cell_angle_alpha 90.000000
_cell_angle_beta 90.000000
_cell_angle_gamma 90.000000
_cell_volume 2517.290170
_symmetry_space_group_name_H-M "A M M 2"
_symmetry_group_IT_number 38
_symmetry_cell_setting 'orthorhombic'
loop_
_space_group_symop_operation_xyz
x,y,z
-x,-y,z
-x,y,z
x,-y,z
x,1/2+y,1/2+z
-x,1/2-y,1/2+z
-x,1/2+y,1/2+z
x,1/2-y,1/2+z
loop_
_atom_site_type_symbol
_atom_site_label
_atom_site_fract_x
_atom_site_fract_y
_atom_site_fract_z
Si Si1 0.815826 0.771240 0.302310
Si Si2 0.821933 0.000000 0.899036
Si Si3 0.676693 0.103800 0.032354
Si Si4 0.817036 0.152156 0.657878
Si Si5 0.182782 0.577521 0.717936
Si Si6 0.319640 0.000000 0.711164
Si Si7 0.677770 0.769350 0.494691
O O1 0.767779 0.708880 0.233988
O O2 0.773056 0.850177 0.267282
O O3 0.746519 0.765621 0.398128
O O4 0.000000 0.767674 0.307983
O O5 0.721709 0.000000 0.813053
O O6 0.778647 0.067944 0.958022
O O7 0.000000 0.000000 0.876280
O O8 0.500000 0.084332 0.018034
O O9 0.734829 0.078481 0.125451
O O10 0.688794 0.188834 0.030429
O O11 0.763694 0.181217 0.564180
O O12 0.000000 0.149291 0.660729
O O13 0.750699 0.073376 0.674043
O O14 0.214462 0.500000 0.760934
O O15 0.000000 0.581465 0.703725
O O16 0.500000 0.000000 0.697592
O O17 0.500000 0.790031 0.490426
#
# Coordination Sequence:
#
# PCOD9358519 Si02
#       7
#     8   4   8   8   8   4   8
#     4  10  22  40  64  93 124 164 214 263 310 372
#     4  12  24  38  60  91 126 165 210 258 314 380
#     4  11  22  36  58  90 125 161 203 255 317 375
#     4  11  23  43  69  94 125 167 216 264 314 375
#     4  10  20  37  61  90 123 161 203 254 311 369
#     4  12  26  44  64  91 128 163 206 262 324 380
#     4  11  24  40  62  92 126 167 210 260 318 375
#
# _framework density 19.068121999999999
#
# number of rings (size 3 to 8) (size 9 to 14) (size 15 to 20)
#    0.000    1.167    2.500    4.000    0.000    6.667 
#    1.500    0.000    0.000    0.000    0.000    0.000 
#    0.000    0.000    0.000    0.000    0.000    0.000 
#
# Total GULP energy -134090.466001 kJ/mol
# GULP energy per Si atom -5587.102750 kJ/mol
# Density = 1.902472 g / cm^3
# Si number density = 19.068122 Si / 1000 Ang^3
#
#
#
# Elastic Constant Matrix: (Units=GPa)
#
#
# Indices 1 2 3 4 5 6 
#
# 1 58.5052 52.2428 33.6448 0.0000 0.0000 0.0000
# 2 52.2428 155.4844 53.6080 0.0000 0.0000 0.0000
# 3 33.6448 53.6080 94.1301 0.0000 0.0000 0.0000
# 4 0.0000 0.0000 0.0000 33.0657 0.0000 0.0000
# 5 0.0000 0.0000 0.0000 0.0000 182.5582 0.0000
# 6 0.0000 0.0000 0.0000 0.0000 0.0000 26.3073
#
#
#
# Elastic Compliance Matrix: (Units=1/GPa)
#
#
# Indices 1 2 3 4 5 6 
#
# 1 0.026510 -0.007019 -0.005478 0.000000 0.000000 0.000000
# 2 -0.007019 0.009861 -0.003107 0.000000 0.000000 0.000000
# 3 -0.005478 -0.003107 0.014351 0.000000 0.000000 0.000000
# 4 0.000000 0.000000 0.000000 0.030243 0.000000 0.000000
# 5 0.000000 0.000000 0.000000 0.000000 0.005478 0.000000
# 6 0.000000 0.000000 0.000000 0.000000 0.000000 0.038012
#
#
# Mechanical properties :
#
#
# Convention : Reuss Voigt Hill
#
# Bulk Modulus (GPa) = 51.24494 65.23454 58.23974
# Shear Modulus (GPa) = 30.83204 59.62786 45.22995
#
# Velocity S-wave (km/s) = 4.02548 5.59811 4.87562
# Velocity P-wave (km/s) = 6.96700 8.72185 7.89334
#
# Compressibility (1/GPa) = 0.01951412
#
# Stress axis : x y z
#
# Youngs Moduli (GPa) = 37.72117 101.40822 69.67968
#
# Poissons Ratio (x) = 0.71175 0.38173
# Poissons Ratio (y) = 0.26475 0.21652
# Poissons Ratio (z) = 0.20665 0.31511
#
# Static dielectric constant tensor:
#      x y z
#    x 1.640220 0.000000 0.000000 
#    y 0.000000 1.689620 0.000000 
#    z 0.000000 0.000000 1.627120 
# 
# From -- ./inp_files/12144.got.cif
#   From: 2010.05.17/outbox.cif.g08.bks.cpg/sg38_7_cif.got.tgz:12144.got - 2010.06.03 18:07:57.
