data_PCOD9358176
_publ_section_title
;
Structure prediction by ZEFSAII (Michael W. Deem and Ramdas Pophale) SiO2 
 PCOD9358176
Probable space group: A M M 2
;
_chemical_formula_sum "Si O2"
_cell_formula_units_Z 64
_cell_length_a 9.372609
_cell_length_b 17.636855
_cell_length_c 19.436262
_cell_angle_alpha 90.000000
_cell_angle_beta 90.000000
_cell_angle_gamma 90.000000
_cell_volume 3212.879140
_symmetry_space_group_name_H-M "A M M 2"
_symmetry_group_IT_number 38
_symmetry_cell_setting 'orthorhombic'
loop_
_space_group_symop_operation_xyz
x,y,z
-x,-y,z
-x,y,z
x,-y,z
x,1/2+y,1/2+z
-x,1/2-y,1/2+z
-x,1/2+y,1/2+z
x,1/2-y,1/2+z
loop_
_atom_site_type_symbol
_atom_site_label
_atom_site_fract_x
_atom_site_fract_y
_atom_site_fract_z
Si Si1 0.335565 0.175294 0.434020
Si Si2 0.169786 0.166443 0.695974
Si Si3 0.660271 0.086462 0.805646
Si Si4 0.841536 0.590701 0.567506
Si Si5 0.170137 0.312625 0.790894
Si Si6 0.328053 0.910544 0.570841
Si Si7 0.658920 0.347214 0.452953
Si Si8 0.340480 0.590692 0.693763
O O1 0.500000 0.158875 0.413087
O O2 0.239964 0.184866 0.366289
O O3 0.292120 0.115499 0.492707
O O4 0.335469 0.258409 0.468558
O O5 0.221405 0.102206 0.749353
O O6 0.210150 0.242930 0.738976
O O7 0.249786 0.144429 0.625446
O O8 0.000000 0.167622 0.685250
O O9 0.500000 0.098477 0.776190
O O10 0.675297 0.139711 0.871682
O O11 0.667149 0.000000 0.830301
O O12 0.848018 0.500000 0.573892
O O13 0.782568 0.611100 0.493264
O O14 0.727390 0.619480 0.622641
O O15 0.000000 0.621470 0.580496
O O16 0.231976 0.385656 0.752583
O O17 0.000000 0.311790 0.796816
O O18 0.500000 0.902635 0.578236
O O19 0.293141 0.000000 0.581899
O O20 0.500000 0.376634 0.471477
O O21 0.500000 0.620621 0.705523
O O22 0.348866 0.500000 0.689984
#
# Coordination Sequence:
#
# PCOD9358176 Si02
#       8
#     8   8   8   8   8   8   8   8
#     4  10  22  41  64  90 119 159 208 255 305 364
#     4  11  24  40  60  90 125 162 205 253 309 374
#     4  10  20  35  58  86 117 157 203 250 303 366
#     4  10  21  36  55  83 121 159 194 239 297 360
#     4  11  24  41  62  92 127 163 201 253 316 375
#     4  10  23  43  66  93 125 162 209 264 317 371
#     4  10  20  35  56  84 117 158 207 253 297 359
#     4  10  22  40  63  89 117 155 203 251 299 361
#
# _framework density 19.919827999999999
#
# number of rings (size 3 to 8) (size 9 to 14) (size 15 to 20)
#    0.000    1.750    1.250    2.250    1.750    7.500 
#    0.000    1.250    0.000    0.000    0.000    0.000 
#    0.000    0.000    0.000    0.000    0.000    0.000 
#
# Total GULP energy -178515.355389 kJ/mol
# GULP energy per Si atom -5578.604856 kJ/mol
# Density = 1.987449 g / cm^3
# Si number density = 19.919828 Si / 1000 Ang^3
#
#
#
# Elastic Constant Matrix: (Units=GPa)
#
#
# Indices 1 2 3 4 5 6 
#
# 1 72.8158 31.0177 57.2625 0.0000 0.0000 0.0000
# 2 31.0177 34.0009 27.9062 0.0000 0.0000 0.0000
# 3 57.2625 27.9062 95.1868 0.0000 0.0000 0.0000
# 4 0.0000 0.0000 0.0000 31.5208 0.0000 0.0000
# 5 0.0000 0.0000 0.0000 0.0000 40.2967 0.0000
# 6 0.0000 0.0000 0.0000 0.0000 0.0000 15.2104
#
#
#
# Elastic Compliance Matrix: (Units=1/GPa)
#
#
# Indices 1 2 3 4 5 6 
#
# 1 0.032760 -0.018055 -0.014414 0.000000 0.000000 0.000000
# 2 -0.018055 0.048681 -0.003410 0.000000 0.000000 0.000000
# 3 -0.014414 -0.003410 0.020177 0.000000 0.000000 0.000000
# 4 0.000000 0.000000 0.000000 0.031725 0.000000 0.000000
# 5 0.000000 0.000000 0.000000 0.000000 0.024816 0.000000
# 6 0.000000 0.000000 0.000000 0.000000 0.000000 0.065744
#
#
# Mechanical properties :
#
#
# Convention : Reuss Voigt Hill
#
# Bulk Modulus (GPa) = 33.49180 48.26404 40.87792
# Shear Modulus (GPa) = 16.36046 23.12672 19.74359
#
# Velocity S-wave (km/s) = 2.86897 3.41103 3.15167
# Velocity P-wave (km/s) = 5.27489 6.30835 5.81462
#
# Compressibility (1/GPa) = 0.02985806
#
# Stress axis : x y z
#
# Youngs Moduli (GPa) = 30.52529 20.54199 49.56153
#
# Poissons Ratio (x) = 0.37088 0.71440
# Poissons Ratio (y) = 0.55113 0.16903
# Poissons Ratio (z) = 0.44000 0.07006
#
# Static dielectric constant tensor:
#      x y z
#    x 1.696040 0.000000 0.000000 
#    y 0.000000 1.722210 0.000000 
#    z 0.000000 0.000000 1.708600 
# 
# From -- ./inp_files/20089.got.cif
#   From: 2010.05.17/outbox.cif.g08.bks.cpg/sg38_11_cif.got.tgz:20089.got - 2010.06.03 18:07:57.
