data_PCOD9358957
_publ_section_title
;
Structure prediction by ZEFSAII (Michael W. Deem and Ramdas Pophale) SiO2 
 PCOD9358957
Probable space group: A M M 2
;
_chemical_formula_sum "Si O2"
_cell_formula_units_Z 56
_cell_length_a 9.049137
_cell_length_b 20.263507
_cell_length_c 15.536131
_cell_angle_alpha 90.000000
_cell_angle_beta 90.000000
_cell_angle_gamma 90.000000
_cell_volume 2848.817632
_symmetry_space_group_name_H-M "A M M 2"
_symmetry_group_IT_number 38
_symmetry_cell_setting 'orthorhombic'
loop_
_space_group_symop_operation_xyz
x,y,z
-x,-y,z
-x,y,z
x,-y,z
x,1/2+y,1/2+z
-x,1/2-y,1/2+z
-x,1/2+y,1/2+z
x,1/2-y,1/2+z
loop_
_atom_site_type_symbol
_atom_site_label
_atom_site_fract_x
_atom_site_fract_y
_atom_site_fract_z
Si Si1 0.162892 0.078837 0.889490
Si Si2 0.341907 0.575588 0.237568
Si Si3 0.673462 0.809951 0.970182
Si Si4 0.822533 0.426469 0.875988
Si Si5 0.821680 0.220484 0.320035
Si Si6 0.671714 0.882469 0.548935
Si Si7 0.176878 0.752772 0.624358
O O1 0.200939 0.098840 0.790745
O O2 0.289133 0.116074 0.940643
O O3 0.000000 0.103760 0.912712
O O4 0.161939 0.000000 0.900645
O O5 0.500000 0.609788 0.257515
O O6 0.354982 0.500000 0.265481
O O7 0.325173 0.575713 0.136070
O O8 0.500000 0.797393 0.975499
O O9 0.744559 0.760893 0.897713
O O10 0.750908 0.801283 0.062389
O O11 0.782965 0.500000 0.841213
O O12 0.785604 0.358137 0.826434
O O13 0.000000 0.425804 0.886195
O O14 0.745771 0.417294 0.968395
O O15 0.779567 0.246138 0.224651
O O16 0.000000 0.227190 0.329647
O O17 0.500000 0.866684 0.529727
O O18 0.761698 0.818499 0.579061
O O19 0.000000 0.750399 0.620037
#
# Coordination Sequence:
#
# PCOD9358957 Si02
#       7
#     8   8   8   8   8   8   8
#     4  10  21  37  58  84 115 154 199 246 300 362
#     4   9  18  32  50  77 116 155 190 233 289 354
#     4  12  24  39  62  90 121 158 199 251 310 369
#     4  10  21  38  61  88 121 163 207 256 315 376
#     4  10  22  41  64  90 123 163 208 259 311 370
#     4  11  21  34  54  85 118 154 198 249 309 365
#     4  11  23  39  60  86 118 158 205 254 307 367
#
# _framework density 19.657278000000002
#
# number of rings (size 3 to 8) (size 9 to 14) (size 15 to 20)
#    0.000    1.571    1.429    3.857    0.000    6.286 
#    0.000    2.143    0.000    2.571    0.000    0.000 
#    0.000    0.000    0.000    0.000    0.000    0.000 
#
# Total GULP energy -156099.454549 kJ/mol
# GULP energy per Si atom -5574.980520 kJ/mol
# Density = 1.961254 g / cm^3
# Si number density = 19.657278 Si / 1000 Ang^3
#
#
#
# Elastic Constant Matrix: (Units=GPa)
#
#
# Indices 1 2 3 4 5 6 
#
# 1 53.5810 19.1881 21.1182 0.0000 0.0000 0.0000
# 2 19.1881 79.7233 13.5909 0.0000 0.0000 0.0000
# 3 21.1182 13.5909 67.9570 0.0000 0.0000 0.0000
# 4 0.0000 0.0000 0.0000 37.3424 0.0000 0.0000
# 5 0.0000 0.0000 0.0000 0.0000 17.3155 0.0000
# 6 0.0000 0.0000 0.0000 0.0000 0.0000 -2.5230
#
#
#
# Elastic Compliance Matrix: (Units=1/GPa)
#
#
# Indices 1 2 3 4 5 6 
#
# 1 0.022670 -0.004406 -0.006164 0.000000 0.000000 0.000000
# 2 -0.004406 0.013842 -0.001399 0.000000 0.000000 0.000000
# 3 -0.006164 -0.001399 0.016911 0.000000 0.000000 0.000000
# 4 0.000000 0.000000 0.000000 0.026779 0.000000 0.000000
# 5 0.000000 0.000000 0.000000 0.000000 0.057752 0.000000
# 6 0.000000 0.000000 0.000000 0.000000 0.000000 -0.396352
#
#
# Mechanical properties :
#
#
# Convention : Reuss Voigt Hill
#
# Bulk Modulus (GPa) = 33.91483 34.33952 34.12717
# Shear Modulus (GPa) = -22.25871 20.25125 -1.00373
#
# Velocity S-wave (km/s) = -3.36868 3.21318 -0.71535
# Velocity P-wave (km/s) = 1.46965 5.59223 4.08858
#
# Compressibility (1/GPa) = 0.02948563
#
# Stress axis : x y z
#
# Youngs Moduli (GPa) = 44.11024 72.24243 59.13470
#
# Poissons Ratio (x) = 0.31827 0.36450
# Poissons Ratio (y) = 0.19433 0.08275
# Poissons Ratio (z) = 0.27189 0.10109
#
# Static dielectric constant tensor:
#      x y z
#    x 1.701250 0.000000 0.000000 
#    y 0.000000 1.660970 0.000000 
#    z 0.000000 0.000000 1.689850 
# 
# From -- ./inp_files/12405.got.cif
#   From: 2010.05.17/outbox.cif.g08.bks.cpg/sg38_7_cif.got.tgz:12405.got - 2010.06.03 18:07:57.
