data_PCOD9358704
_publ_section_title
;
Structure prediction by ZEFSAII (Michael W. Deem and Ramdas Pophale) SiO2 
 PCOD9358704
Probable space group: A M M 2
;
_chemical_formula_sum "Si O2"
_cell_formula_units_Z 56
_cell_length_a 14.760509
_cell_length_b 7.655144
_cell_length_c 21.934350
_cell_angle_alpha 90.000000
_cell_angle_beta 90.000000
_cell_angle_gamma 90.000000
_cell_volume 2478.446038
_symmetry_space_group_name_H-M "A M M 2"
_symmetry_group_IT_number 38
_symmetry_cell_setting 'orthorhombic'
loop_
_space_group_symop_operation_xyz
x,y,z
-x,-y,z
-x,y,z
x,-y,z
x,1/2+y,1/2+z
-x,1/2-y,1/2+z
-x,1/2+y,1/2+z
x,1/2-y,1/2+z
loop_
_atom_site_type_symbol
_atom_site_label
_atom_site_fract_x
_atom_site_fract_y
_atom_site_fract_z
Si Si1 0.899212 0.202527 0.541150
Si Si2 0.714795 0.206451 0.864564
Si Si3 0.897328 0.290109 0.807884
Si Si4 0.284850 0.208820 0.498020
Si Si5 0.606239 0.286977 0.248005
Si Si6 0.394511 0.212998 0.614403
Si Si7 0.889991 0.700427 0.675708
O O1 0.817169 0.282193 0.503511
O O2 0.869070 0.207180 0.612281
O O3 0.000000 0.281455 0.536381
O O4 0.907613 0.000000 0.523270
O O5 0.820720 0.250790 0.856638
O O6 0.679051 0.262793 0.930338
O O7 0.661797 0.279904 0.805915
O O8 0.705649 0.000000 0.862089
O O9 0.902621 0.500000 0.801658
O O10 0.863677 0.222698 0.741371
O O11 0.000000 0.228090 0.820811
O O12 0.342516 0.277176 0.554839
O O13 0.279042 0.000000 0.506435
O O14 0.500000 0.240036 0.252824
O O15 0.609660 0.500000 0.248287
O O16 0.640876 0.230578 0.181054
O O17 0.500000 0.261854 0.610932
O O18 0.391428 0.000000 0.614064
O O19 0.859354 0.500000 0.670435
O O20 0.000000 0.699087 0.679387
#
# Coordination Sequence:
#
# PCOD9358704 Si02
#       7
#     8   8   8   8   8   8   8
#     4   9  18  31  48  72 102 137 176 217 259 308
#     4  11  23  35  53  82 113 144 183 229 275 321
#     4   9  19  36  55  75 106 148 186 220 268 329
#     4  10  21  35  52  75 107 144 183 221 265 323
#     4   8  16  33  56  81 109 141 178 223 276 329
#     4   8  15  31  56  81 102 132 179 228 269 316
#     4   8  15  29  49  73  99 130 169 213 263 313
#
# _framework density 22.594801
#
# number of rings (size 3 to 8) (size 9 to 14) (size 15 to 20)
#    0.000    3.000    0.000    2.143    2.000    2.571 
#    0.000    2.857    0.000    1.286    0.000    4.000 
#    0.000    0.000    0.000    0.000    0.000    0.000 
#
# Total GULP energy -156219.101989 kJ/mol
# GULP energy per Si atom -5579.253642 kJ/mol
# Density = 2.254337 g / cm^3
# Si number density = 22.594801 Si / 1000 Ang^3
#
#
#
# Elastic Constant Matrix: (Units=GPa)
#
#
# Indices 1 2 3 4 5 6 
#
# 1 77.2985 4.9011 82.0726 0.0000 0.0000 0.0000
# 2 4.9011 42.2139 0.7214 0.0000 0.0000 0.0000
# 3 82.0726 0.7214 180.1138 0.0000 0.0000 0.0000
# 4 0.0000 0.0000 0.0000 25.0928 0.0000 0.0000
# 5 0.0000 0.0000 0.0000 0.0000 17.2932 0.0000
# 6 0.0000 0.0000 0.0000 0.0000 0.0000 -1.6506
#
#
#
# Elastic Compliance Matrix: (Units=1/GPa)
#
#
# Indices 1 2 3 4 5 6 
#
# 1 0.025377 -0.002749 -0.011553 0.000000 0.000000 0.000000
# 2 -0.002749 0.023988 0.001157 0.000000 0.000000 0.000000
# 3 -0.011553 0.001157 0.010812 0.000000 0.000000 0.000000
# 4 0.000000 0.000000 0.000000 0.039852 0.000000 0.000000
# 5 0.000000 0.000000 0.000000 0.000000 0.057826 0.000000
# 6 0.000000 0.000000 0.000000 0.000000 0.000000 -0.605848
#
#
# Mechanical properties :
#
#
# Convention : Reuss Voigt Hill
#
# Bulk Modulus (GPa) = 29.50979 52.77959 41.14469
# Shear Modulus (GPa) = -12.18304 22.27581 5.04639
#
# Velocity S-wave (km/s) = -2.32458 3.14328 1.49609
# Velocity P-wave (km/s) = 2.42567 6.04843 4.60800
#
# Compressibility (1/GPa) = 0.03388706
#
# Stress axis : x y z
#
# Youngs Moduli (GPa) = 39.40508 41.68703 92.49266
#
# Poissons Ratio (x) = 0.11460 1.06854
# Poissons Ratio (y) = 0.10832 -0.10697
# Poissons Ratio (z) = 0.45524 -0.04821
#
# Static dielectric constant tensor:
#      x y z
#    x 1.853610 0.000000 0.000000 
#    y 0.000000 1.808220 0.000000 
#    z 0.000000 0.000000 1.869740 
# 
# From -- ./inp_files/21036.got.cif
#   From: 2010.05.17/outbox.cif.g08.bks.cpg/sg38_11_cif.got.tgz:21036.got - 2010.06.03 18:07:57.
