data_PCOD9358354
_publ_section_title
;
Structure prediction by ZEFSAII (Michael W. Deem and Ramdas Pophale) SiO2 
 PCOD9358354
Probable space group: A M M 2
;
_chemical_formula_sum "Si O2"
_cell_formula_units_Z 64
_cell_length_a 25.775110
_cell_length_b 7.640447
_cell_length_c 14.363220
_cell_angle_alpha 90.000000
_cell_angle_beta 90.000000
_cell_angle_gamma 90.000000
_cell_volume 2828.597202
_symmetry_space_group_name_H-M "A M M 2"
_symmetry_group_IT_number 38
_symmetry_cell_setting 'orthorhombic'
loop_
_space_group_symop_operation_xyz
x,y,z
-x,-y,z
-x,y,z
x,-y,z
x,1/2+y,1/2+z
-x,1/2-y,1/2+z
-x,1/2+y,1/2+z
x,1/2-y,1/2+z
loop_
_atom_site_type_symbol
_atom_site_label
_atom_site_fract_x
_atom_site_fract_y
_atom_site_fract_z
Si Si1 0.058322 0.786116 0.471180
Si Si2 0.557547 0.200853 0.929635
Si Si3 0.741129 0.714531 0.788561
Si Si4 0.626983 0.202301 0.276051
Si Si5 0.132767 0.287660 0.127777
Si Si6 0.150101 0.795881 0.341556
Si Si7 0.647933 0.704411 0.066765
Si Si8 0.241000 0.700919 0.072575
O O1 0.080821 0.741704 0.572863
O O2 0.102026 0.721437 0.399074
O O3 0.000000 0.723678 0.454853
O O4 0.056981 0.000000 0.465501
O O5 0.500000 0.278508 0.937936
O O6 0.578676 0.206764 0.824307
O O7 0.554696 0.000000 0.959386
O O8 0.602732 0.281565 0.992070
O O9 0.741733 0.500000 0.782769
O O10 0.682821 0.767207 0.814014
O O11 0.790532 0.771606 0.849513
O O12 0.750363 0.788465 0.684837
O O13 0.630212 0.215709 0.164863
O O14 0.622660 0.000000 0.302067
O O15 0.136361 0.500000 0.133122
O O16 0.136881 0.217682 0.231933
O O17 0.182757 0.225991 0.067060
O O18 0.153127 0.000000 0.367757
O O19 0.657124 0.500000 0.085874
O O20 0.704543 0.777496 0.036382
O O21 0.238066 0.500000 0.039015
#
# Coordination Sequence:
#
# PCOD9358354 Si02
#       8
#     8   8   8   8   8   8   8   8
#     4   9  18  31  47  69  97 133 176 213 248 298
#     4  11  25  42  57  77 107 143 184 223 258 304
#     4   8  15  28  49  77 104 130 162 203 254 310
#     4  10  20  36  59  84 110 139 173 216 267 320
#     4   9  17  31  51  73 100 132 166 207 254 304
#     4   9  17  31  51  73 100 132 166 207 254 304
#     4  10  20  36  59  84 110 139 173 216 267 320
#     4   8  15  28  49  77 104 130 162 203 254 310
#
# _framework density 22.626058
#
# number of rings (size 3 to 8) (size 9 to 14) (size 15 to 20)
#    0.000    2.750    0.000    1.125    0.000    4.000 
#    0.000    4.375    0.000    0.750    0.000    0.000 
#    0.000    0.000    0.000    0.000    0.000    0.000 
#
# Total GULP energy -178525.685008 kJ/mol
# GULP energy per Si atom -5578.927657 kJ/mol
# Density = 2.257456 g / cm^3
# Si number density = 22.626058 Si / 1000 Ang^3
#
#
#
# Elastic Constant Matrix: (Units=GPa)
#
#
# Indices 1 2 3 4 5 6 
#
# 1 163.6086 9.7788 35.8156 0.0000 0.0000 0.0000
# 2 9.7788 50.7237 -2.0733 0.0000 0.0000 0.0000
# 3 35.8156 -2.0733 64.1860 0.0000 0.0000 0.0000
# 4 0.0000 0.0000 0.0000 17.5426 0.0000 0.0000
# 5 0.0000 0.0000 0.0000 0.0000 30.8526 0.0000
# 6 0.0000 0.0000 0.0000 0.0000 0.0000 9.1569
#
#
#
# Elastic Compliance Matrix: (Units=1/GPa)
#
#
# Indices 1 2 3 4 5 6 
#
# 1 0.007079 -0.001528 -0.003999 0.000000 0.000000 0.000000
# 2 -0.001528 0.020071 0.001501 0.000000 0.000000 0.000000
# 3 -0.003999 0.001501 0.017860 0.000000 0.000000 0.000000
# 4 0.000000 0.000000 0.000000 0.057004 0.000000 0.000000
# 5 0.000000 0.000000 0.000000 0.000000 0.032412 0.000000
# 6 0.000000 0.000000 0.000000 0.000000 0.000000 0.109207
#
#
# Mechanical properties :
#
#
# Convention : Reuss Voigt Hill
#
# Bulk Modulus (GPa) = 27.05895 40.61782 33.83838
# Shear Modulus (GPa) = 18.93908 27.17692 23.05800
#
# Velocity S-wave (km/s) = 2.89632 3.46950 3.19578
# Velocity P-wave (km/s) = 4.81352 5.83444 5.34840
#
# Compressibility (1/GPa) = 0.03695635
#
# Stress axis : x y z
#
# Youngs Moduli (GPa) = 141.26291 49.82407 55.99146
#
# Poissons Ratio (x) = 0.07614 0.22393
# Poissons Ratio (y) = 0.21588 -0.08405
# Poissons Ratio (z) = 0.56497 -0.07479
#
# Static dielectric constant tensor:
#      x y z
#    x 1.881370 0.000000 0.000000 
#    y 0.000000 1.851830 0.000000 
#    z 0.000000 0.000000 1.831800 
# 
# From -- ./inp_files/15860.got.cif
#   From: 2010.05.17/outbox.cif.g08.bks.cpg/sg38_8_cif.got.tgz:15860.got - 2010.06.03 18:07:57.
