data_PCOD9358380
_publ_section_title
;
Structure prediction by ZEFSAII (Michael W. Deem and Ramdas Pophale) SiO2 
 PCOD9358380
Probable space group: A M M 2
;
_chemical_formula_sum "Si O2"
_cell_formula_units_Z 64
_cell_length_a 8.199079
_cell_length_b 30.194174
_cell_length_c 12.509741
_cell_angle_alpha 90.000000
_cell_angle_beta 90.000000
_cell_angle_gamma 90.000000
_cell_volume 3096.966750
_symmetry_space_group_name_H-M "A M M 2"
_symmetry_group_IT_number 38
_symmetry_cell_setting 'orthorhombic'
loop_
_space_group_symop_operation_xyz
x,y,z
-x,-y,z
-x,y,z
x,-y,z
x,1/2+y,1/2+z
-x,1/2-y,1/2+z
-x,1/2+y,1/2+z
x,1/2-y,1/2+z
loop_
_atom_site_type_symbol
_atom_site_label
_atom_site_fract_x
_atom_site_fract_y
_atom_site_fract_z
Si Si1 0.693268 0.453187 0.486380
Si Si2 0.304413 0.949804 0.433067
Si Si3 0.311749 0.168525 0.114786
Si Si4 0.189659 0.076977 0.202764
Si Si5 0.183705 0.280331 0.799491
Si Si6 0.694626 0.137214 0.880980
Si Si7 0.693182 0.651078 0.979335
Si Si8 0.188611 0.192841 0.699572
O O1 0.500000 0.448214 0.513016
O O2 0.715735 0.500000 0.431434
O O3 0.791047 0.451672 0.596367
O O4 0.737966 0.412432 0.413379
O O5 0.500000 0.950116 0.448057
O O6 0.261754 0.945488 0.307538
O O7 0.244276 0.900728 0.476596
O O8 0.246782 0.000000 0.468110
O O9 0.500000 0.182831 0.127159
O O10 0.290141 0.120633 0.169538
O O11 0.192257 0.198846 0.181386
O O12 0.273784 0.164757 0.989703
O O13 0.000000 0.088194 0.221381
O O14 0.264374 0.232830 0.772014
O O15 0.000000 0.272302 0.837367
O O16 0.254228 0.317080 0.880497
O O17 0.500000 0.139781 0.859385
O O18 0.793837 0.152233 0.779836
O O19 0.500000 0.647178 0.971853
O O20 0.736380 0.677801 0.087340
O O21 0.000000 0.204195 0.679600
#
# Coordination Sequence:
#
# PCOD9358380 Si02
#       8
#     8   8   8   8   8   8   8   8
#     4   9  18  34  56  82 116 159 204 254 308 361
#     4  10  21  38  60  87 121 162 207 256 313 373
#     4  10  20  36  59  88 120 157 198 244 297 358
#     4  11  20  30  50  84 124 161 196 244 301 363
#     4  11  24  41  63  92 124 159 197 248 314 374
#     4   9  20  38  60  87 118 154 204 252 294 355
#     4  11  24  43  68  93 123 164 212 263 308 367
#     4  11  26  44  63  88 124 165 203 251 315 375
#
# _framework density 20.665381
#
# number of rings (size 3 to 8) (size 9 to 14) (size 15 to 20)
#    0.000    1.750    1.250    3.750    1.750    7.000 
#    0.000    0.625    0.000    3.750    0.000    0.000 
#    0.000    0.000    0.000    0.000    0.000    0.000 
#
# Total GULP energy -178292.885553 kJ/mol
# GULP energy per Si atom -5571.652674 kJ/mol
# Density = 2.061835 g / cm^3
# Si number density = 20.665381 Si / 1000 Ang^3
#
#
#
# Elastic Constant Matrix: (Units=GPa)
#
#
# Indices 1 2 3 4 5 6 
#
# 1 21.5046 11.6131 17.8714 0.0000 0.0000 0.0000
# 2 11.6131 108.3652 46.9357 0.0000 0.0000 0.0000
# 3 17.8714 46.9357 75.0753 0.0000 0.0000 0.0000
# 4 0.0000 0.0000 0.0000 -8.8694 0.0000 0.0000
# 5 0.0000 0.0000 0.0000 0.0000 34.9410 0.0000
# 6 0.0000 0.0000 0.0000 0.0000 0.0000 36.3973
#
#
#
# Elastic Compliance Matrix: (Units=1/GPa)
#
#
# Indices 1 2 3 4 5 6 
#
# 1 0.057978 -0.000323 -0.013600 0.000000 0.000000 0.000000
# 2 -0.000323 0.012657 -0.007836 0.000000 0.000000 0.000000
# 3 -0.013600 -0.007836 0.021456 0.000000 0.000000 0.000000
# 4 0.000000 0.000000 0.000000 -0.112747 0.000000 0.000000
# 5 0.000000 0.000000 0.000000 0.000000 0.028620 0.000000
# 6 0.000000 0.000000 0.000000 0.000000 0.000000 0.027475
#
#
# Mechanical properties :
#
#
# Convention : Reuss Voigt Hill
#
# Bulk Modulus (GPa) = 20.58714 39.75394 30.17054
# Shear Modulus (GPa) = 52.55095 21.06210 36.80652
#
# Velocity S-wave (km/s) = 5.04823 3.19595 4.22485
# Velocity P-wave (km/s) = 6.63048 5.73564 6.19923
#
# Compressibility (1/GPa) = 0.04857401
#
# Stress axis : x y z
#
# Youngs Moduli (GPa) = 17.24793 79.01064 46.60693
#
# Poissons Ratio (x) = 0.02552 0.63383
# Poissons Ratio (y) = 0.00557 0.36520
# Poissons Ratio (z) = 0.23456 0.61911
#
# Static dielectric constant tensor:
#      x y z
#    x 1.732480 0.000000 0.000000 
#    y 0.000000 1.864780 0.000000 
#    z 0.000000 0.000000 1.692240 
# 
# From -- ./inp_files/8567.got.cif
#   From: 2010.05.17/outbox.cif.g08.bks.cpg/sg38_5_cif.got.tgz:8567.got - 2010.06.03 18:07:57.
