data_PCOD9358716
_publ_section_title
;
Structure prediction by ZEFSAII (Michael W. Deem and Ramdas Pophale) SiO2 
 PCOD9358716
Probable space group: A M M 2
;
_chemical_formula_sum "Si O2"
_cell_formula_units_Z 56
_cell_length_a 14.345720
_cell_length_b 7.772998
_cell_length_c 22.181866
_cell_angle_alpha 90.000000
_cell_angle_beta 90.000000
_cell_angle_gamma 90.000000
_cell_volume 2473.483305
_symmetry_space_group_name_H-M "A M M 2"
_symmetry_group_IT_number 38
_symmetry_cell_setting 'orthorhombic'
loop_
_space_group_symop_operation_xyz
x,y,z
-x,-y,z
-x,y,z
x,-y,z
x,1/2+y,1/2+z
-x,1/2-y,1/2+z
-x,1/2+y,1/2+z
x,1/2-y,1/2+z
loop_
_atom_site_type_symbol
_atom_site_label
_atom_site_fract_x
_atom_site_fract_y
_atom_site_fract_z
Si Si1 0.297428 0.699303 0.872210
Si Si2 0.894027 0.199041 0.826889
Si Si3 0.392850 0.293389 0.121014
Si Si4 0.105943 0.208117 0.061971
Si Si5 0.113079 0.696391 0.693258
Si Si6 0.392689 0.207156 0.251885
Si Si7 0.289280 0.705775 0.002402
O O1 0.327207 0.500000 0.873940
O O2 0.186310 0.706377 0.862957
O O3 0.342105 0.775458 0.811595
O O4 0.320578 0.776133 0.937521
O O5 0.868312 0.210336 0.755825
O O6 0.000000 0.266056 0.833391
O O7 0.893652 0.000000 0.845172
O O8 0.500000 0.230147 0.120860
O O9 0.394899 0.500000 0.116844
O O10 0.350808 0.251909 0.186617
O O11 0.340589 0.225192 0.061973
O O12 0.139978 0.270952 0.128214
O O13 0.180039 0.262151 0.012730
O O14 0.000000 0.265764 0.050762
O O15 0.104524 0.000000 0.065777
O O16 0.147856 0.500000 0.699464
O O17 0.000000 0.688605 0.688709
O O18 0.500000 0.267621 0.252330
O O19 0.392498 0.000000 0.254486
O O20 0.303935 0.500000 0.001071
#
# Coordination Sequence:
#
# PCOD9358716 Si02
#       7
#     8   8   8   8   8   8   8
#     4  10  22  38  55  79 112 149 187 226 272 325
#     4  10  21  35  52  77 109 145 186 231 275 321
#     4   9  19  37  60  85 113 143 175 219 277 334
#     4   9  19  35  54  77 108 147 187 227 274 326
#     4   8  15  30  51  74 100 134 178 224 272 323
#     4   9  19  37  61  86 109 138 180 227 272 324
#     4  10  22  37  54  81 113 147 187 227 271 323
#
# _framework density 22.640135000000001
#
# number of rings (size 3 to 8) (size 9 to 14) (size 15 to 20)
#    0.000    2.714    0.000    1.286    2.000    4.571 
#    0.000    7.143    0.000    0.000    0.000    6.000 
#    0.000    0.000    0.000    0.000    0.000    0.000 
#
# Total GULP energy -156292.418682 kJ/mol
# GULP energy per Si atom -5581.872096 kJ/mol
# Density = 2.258860 g / cm^3
# Si number density = 22.640135 Si / 1000 Ang^3
#
#
#
# Elastic Constant Matrix: (Units=GPa)
#
#
# Indices 1 2 3 4 5 6 
#
# 1 70.6806 -3.8693 69.1891 0.0000 0.0000 0.0000
# 2 -3.8693 33.5521 5.6493 0.0000 0.0000 0.0000
# 3 69.1891 5.6493 199.5931 0.0000 0.0000 0.0000
# 4 0.0000 0.0000 0.0000 18.8738 0.0000 0.0000
# 5 0.0000 0.0000 0.0000 0.0000 14.0022 0.0000
# 6 0.0000 0.0000 0.0000 0.0000 0.0000 13.2300
#
#
#
# Elastic Compliance Matrix: (Units=1/GPa)
#
#
# Indices 1 2 3 4 5 6 
#
# 1 0.021892 0.003821 -0.007697 0.000000 0.000000 0.000000
# 2 0.003821 0.030614 -0.002191 0.000000 0.000000 0.000000
# 3 -0.007697 -0.002191 0.007740 0.000000 0.000000 0.000000
# 4 0.000000 0.000000 0.000000 0.052984 0.000000 0.000000
# 5 0.000000 0.000000 0.000000 0.000000 0.071417 0.000000
# 6 0.000000 0.000000 0.000000 0.000000 0.000000 0.075586
#
#
# Mechanical properties :
#
#
# Convention : Reuss Voigt Hill
#
# Bulk Modulus (GPa) = 20.78506 49.52934 35.15720
# Shear Modulus (GPa) = 17.33678 24.74499 21.04088
#
# Velocity S-wave (km/s) = 2.77023 3.30960 3.05185
# Velocity P-wave (km/s) = 4.40826 6.04391 5.28969
#
# Compressibility (1/GPa) = 0.04811148
#
# Stress axis : x y z
#
# Youngs Moduli (GPa) = 45.67912 32.66496 129.19298
#
# Poissons Ratio (x) = -0.12480 0.99439
# Poissons Ratio (y) = -0.17452 0.28305
# Poissons Ratio (z) = 0.35159 0.07157
#
# Static dielectric constant tensor:
#      x y z
#    x 1.853800 0.000000 0.000000 
#    y 0.000000 1.832630 0.000000 
#    z 0.000000 0.000000 1.874400 
# 
# From -- ./inp_files/21069.got.cif
#   From: 2010.05.17/outbox.cif.g08.bks.cpg/sg38_11_cif.got.tgz:21069.got - 2010.06.03 18:07:57.
