data_PCOD9358069
_publ_section_title
;
Structure prediction by ZEFSAII (Michael W. Deem and Ramdas Pophale) SiO2 
 PCOD9358069
Probable space group: A M M 2
;
_chemical_formula_sum "Si O2"
_cell_formula_units_Z 56
_cell_length_a 16.951673
_cell_length_b 8.778520
_cell_length_c 20.579750
_cell_angle_alpha 90.000000
_cell_angle_beta 90.000000
_cell_angle_gamma 90.000000
_cell_volume 3062.484955
_symmetry_space_group_name_H-M "A M M 2"
_symmetry_group_IT_number 38
_symmetry_cell_setting 'orthorhombic'
loop_
_space_group_symop_operation_xyz
x,y,z
-x,-y,z
-x,y,z
x,-y,z
x,1/2+y,1/2+z
-x,1/2-y,1/2+z
-x,1/2+y,1/2+z
x,1/2-y,1/2+z
loop_
_atom_site_type_symbol
_atom_site_label
_atom_site_fract_x
_atom_site_fract_y
_atom_site_fract_z
Si Si1 0.409745 0.182448 0.275660
Si Si2 0.591720 0.820265 0.631404
Si Si3 0.251894 0.318591 0.318815
Si Si4 0.163883 0.819279 0.194629
Si Si5 0.736139 0.320165 0.562859
Si Si6 0.168809 0.317559 0.944383
Si Si7 0.000000 0.316639 0.150903
Si Si8 0.000000 0.315041 0.999154
O O1 0.500000 0.220205 0.295091
O O2 0.398318 0.245397 0.202489
O O3 0.340956 0.253509 0.319008
O O4 0.401720 0.000000 0.274533
O O5 0.500000 0.802778 0.613353
O O6 0.650031 0.740794 0.581238
O O7 0.609705 0.000000 0.636167
O O8 0.254289 0.500000 0.318439
O O9 0.210636 0.257799 0.253359
O O10 0.202153 0.258294 0.379640
O O11 0.211486 0.796467 0.127610
O O12 0.077993 0.747567 0.184774
O O13 0.158208 0.000000 0.206600
O O14 0.734692 0.500000 0.548391
O O15 0.775522 0.230130 0.504069
O O16 0.168562 0.500000 0.936875
O O17 0.080076 0.266654 0.963370
O O18 0.000000 0.500000 0.152750
O O19 0.000000 0.267264 0.074805
O O20 0.000000 0.500000 0.999827
#
# Coordination Sequence:
#
# PCOD9358069 Si02
#       8
#     8   8   8   8   8   8   4   4
#     4  10  20  36  60  89 120 157 201 250 306 366
#     4  10  20  34  57  90 124 159 201 252 307 359
#     4  12  25  41  61  90 126 163 206 253 305 364
#     4  11  23  39  61  90 123 160 201 250 304 358
#     4  11  22  37  60  90 122 158 203 249 299 359
#     4  11  23  42  65  88 122 163 203 250 309 371
#     4  11  21  38  63  94 123 155 205 256 308 359
#     4   9  20  38  63  90 115 153 199 244 298 363
#
# _framework density 18.285803999999999
#
# number of rings (size 3 to 8) (size 9 to 14) (size 15 to 20)
#    0.000    1.286    2.857    3.643    0.000    3.429 
#    0.000    4.286    0.000    4.286    0.000    0.000 
#    0.000    0.000    0.000    0.000    0.000    0.000 
#
# Total GULP energy -156516.388812 kJ/mol
# GULP energy per Si atom -5589.871029 kJ/mol
# Density = 1.824419 g / cm^3
# Si number density = 18.285804 Si / 1000 Ang^3
#
#
#
# Elastic Constant Matrix: (Units=GPa)
#
#
# Indices 1 2 3 4 5 6 
#
# 1 122.6362 47.2729 41.4246 0.0000 0.0000 0.0000
# 2 47.2729 89.9638 37.9745 0.0000 0.0000 0.0000
# 3 41.4246 37.9745 66.5908 0.0000 0.0000 0.0000
# 4 0.0000 0.0000 0.0000 32.4193 0.0000 0.0000
# 5 0.0000 0.0000 0.0000 0.0000 17.4826 0.0000
# 6 0.0000 0.0000 0.0000 0.0000 0.0000 27.4304
#
#
#
# Elastic Compliance Matrix: (Units=1/GPa)
#
#
# Indices 1 2 3 4 5 6 
#
# 1 0.011277 -0.003904 -0.004788 0.000000 0.000000 0.000000
# 2 -0.003904 0.015991 -0.006691 0.000000 0.000000 0.000000
# 3 -0.004788 -0.006691 0.021811 0.000000 0.000000 0.000000
# 4 0.000000 0.000000 0.000000 0.030846 0.000000 0.000000
# 5 0.000000 0.000000 0.000000 0.000000 0.057200 0.000000
# 6 0.000000 0.000000 0.000000 0.000000 0.000000 0.036456
#
#
# Mechanical properties :
#
#
# Convention : Reuss Voigt Hill
#
# Bulk Modulus (GPa) = 54.60703 59.17056 56.88880
# Shear Modulus (GPa) = 23.75842 25.63435 24.69639
#
# Velocity S-wave (km/s) = 3.60847 3.74822 3.67901
# Velocity P-wave (km/s) = 6.87672 7.15270 7.01607
#
# Compressibility (1/GPa) = 0.01831266
#
# Stress axis : x y z
#
# Youngs Moduli (GPa) = 88.67881 62.53409 45.84776
#
# Poissons Ratio (x) = 0.24415 0.21954
# Poissons Ratio (y) = 0.34622 0.30675
# Poissons Ratio (z) = 0.42464 0.41839
#
# Static dielectric constant tensor:
#      x y z
#    x 1.630770 0.000000 0.000000 
#    y 0.000000 1.611080 0.000000 
#    z 0.000000 0.000000 1.590930 
# 
# From -- ./inp_files/21119.got.cif
#   From: 2010.05.17/outbox.cif.g08.bks.cpg/sg38_11_cif.got.tgz:21119.got - 2010.06.03 18:07:57.
