data_PCOD9358256
_publ_section_title
;
Structure prediction by ZEFSAII (Michael W. Deem and Ramdas Pophale) SiO2 
 PCOD9358256
Probable space group: A M M 2
;
_chemical_formula_sum "Si O2"
_cell_formula_units_Z 64
_cell_length_a 8.953945
_cell_length_b 24.616332
_cell_length_c 14.043102
_cell_angle_alpha 90.000000
_cell_angle_beta 90.000000
_cell_angle_gamma 90.000000
_cell_volume 3095.286213
_symmetry_space_group_name_H-M "A M M 2"
_symmetry_group_IT_number 38
_symmetry_cell_setting 'orthorhombic'
loop_
_space_group_symop_operation_xyz
x,y,z
-x,-y,z
-x,y,z
x,-y,z
x,1/2+y,1/2+z
-x,1/2-y,1/2+z
-x,1/2+y,1/2+z
x,1/2-y,1/2+z
loop_
_atom_site_type_symbol
_atom_site_label
_atom_site_fract_x
_atom_site_fract_y
_atom_site_fract_z
Si Si1 0.328740 0.228328 0.470290
Si Si2 0.678006 0.560795 0.567240
Si Si3 0.172131 0.338558 0.465801
Si Si4 0.670108 0.222159 0.238696
Si Si5 0.820565 0.940818 0.631749
Si Si6 0.826292 0.168273 0.736324
Si Si7 0.320161 0.108053 0.454726
Si Si8 0.177484 0.390377 0.747750
O O1 0.500000 0.233672 0.501814
O O2 0.237273 0.280947 0.500948
O O3 0.330022 0.227271 0.354254
O O4 0.271244 0.167995 0.492820
O O5 0.500000 0.565366 0.577710
O O6 0.712975 0.500000 0.531105
O O7 0.737261 0.609643 0.502104
O O8 0.755339 0.569714 0.669271
O O9 0.179347 0.335870 0.350982
O O10 0.000000 0.344299 0.495077
O O11 0.500000 0.211196 0.209051
O O12 0.730258 0.280020 0.203747
O O13 0.773138 0.170612 0.217019
O O14 0.775240 0.889306 0.694846
O O15 0.740698 0.934253 0.530594
O O16 0.000000 0.937942 0.619216
O O17 0.785514 0.000000 0.673828
O O18 0.000000 0.177491 0.710327
O O19 0.500000 0.108321 0.448232
O O20 0.250829 0.099843 0.350803
O O21 0.000000 0.394158 0.753599
#
# Coordination Sequence:
#
# PCOD9358256 Si02
#       8
#     8   8   8   8   8   8   8   8
#     4   8  16  32  54  81 114 149 183 222 274 337
#     4  11  25  43  60  80 110 149 193 238 282 334
#     4  10  20  35  59  88 116 148 185 230 284 337
#     4   9  17  32  56  86 119 150 183 226 278 339
#     4  10  22  39  57  80 112 152 198 241 280 329
#     4   9  19  36  58  85 118 153 189 233 284 335
#     4  10  21  38  60  86 116 150 187 232 285 336
#     4  11  22  38  62  88 115 147 184 230 283 340
#
# _framework density 20.676601000000002
#
# number of rings (size 3 to 8) (size 9 to 14) (size 15 to 20)
#    0.000    2.250    0.000    3.375    0.000    7.750 
#    0.000    3.750    0.000    0.000    0.000    0.000 
#    0.000    0.000    0.000    0.000    0.000    0.000 
#
# Total GULP energy -178822.439316 kJ/mol
# GULP energy per Si atom -5588.201229 kJ/mol
# Density = 2.062954 g / cm^3
# Si number density = 20.676601 Si / 1000 Ang^3
#
#
#
# Elastic Constant Matrix: (Units=GPa)
#
#
# Indices 1 2 3 4 5 6 
#
# 1 72.9080 36.0328 0.2116 0.0000 0.0000 0.0000
# 2 36.0328 107.4008 3.4386 0.0000 0.0000 0.0000
# 3 0.2116 3.4386 27.4814 0.0000 0.0000 0.0000
# 4 0.0000 0.0000 0.0000 28.1824 0.0000 0.0000
# 5 0.0000 0.0000 0.0000 0.0000 24.1005 0.0000
# 6 0.0000 0.0000 0.0000 0.0000 0.0000 22.9469
#
#
#
# Elastic Compliance Matrix: (Units=1/GPa)
#
#
# Indices 1 2 3 4 5 6 
#
# 1 0.016451 -0.005537 0.000566 0.000000 0.000000 0.000000
# 2 -0.005537 0.011212 -0.001360 0.000000 0.000000 0.000000
# 3 0.000566 -0.001360 0.036554 0.000000 0.000000 0.000000
# 4 0.000000 0.000000 0.000000 0.035483 0.000000 0.000000
# 5 0.000000 0.000000 0.000000 0.000000 0.041493 0.000000
# 6 0.000000 0.000000 0.000000 0.000000 0.000000 0.043579
#
#
# Mechanical properties :
#
#
# Convention : Reuss Voigt Hill
#
# Bulk Modulus (GPa) = 19.39700 31.90625 25.65163
# Shear Modulus (GPa) = 23.29698 26.25311 24.77505
#
# Velocity S-wave (km/s) = 3.36032 3.56715 3.46528
# Velocity P-wave (km/s) = 4.94542 5.69480 5.33329
#
# Compressibility (1/GPa) = 0.05155435
#
# Stress axis : x y z
#
# Youngs Moduli (GPa) = 60.78666 89.18806 27.35669
#
# Poissons Ratio (x) = 0.49387 -0.01549
# Poissons Ratio (y) = 0.33660 0.03721
# Poissons Ratio (z) = -0.03442 0.12132
#
# Static dielectric constant tensor:
#      x y z
#    x 1.693880 0.000000 0.000000 
#    y 0.000000 1.734420 0.000000 
#    z 0.000000 0.000000 1.772290 
# 
# From -- ./inp_files/12790.got.cif
#   From: 2010.05.17/outbox.cif.g08.bks.cpg/sg38_7_cif.got.tgz:12790.got - 2010.06.03 18:07:57.
