data_PCOD9358659
_publ_section_title
;
Structure prediction by ZEFSAII (Michael W. Deem and Ramdas Pophale) SiO2 
 PCOD9358659
Probable space group: A M M 2
;
_chemical_formula_sum "Si O2"
_cell_formula_units_Z 48
_cell_length_a 7.607520
_cell_length_b 9.420828
_cell_length_c 34.835685
_cell_angle_alpha 90.000000
_cell_angle_beta 90.000000
_cell_angle_gamma 90.000000
_cell_volume 2496.643496
_symmetry_space_group_name_H-M "A M M 2"
_symmetry_group_IT_number 38
_symmetry_cell_setting 'orthorhombic'
loop_
_space_group_symop_operation_xyz
x,y,z
-x,-y,z
-x,y,z
x,-y,z
x,1/2+y,1/2+z
-x,1/2-y,1/2+z
-x,1/2+y,1/2+z
x,1/2-y,1/2+z
loop_
_atom_site_type_symbol
_atom_site_label
_atom_site_fract_x
_atom_site_fract_y
_atom_site_fract_z
Si Si1 0.711103 0.660636 0.924770
Si Si2 0.000000 0.170066 0.642692
Si Si3 0.786902 0.336756 0.776199
Si Si4 0.707208 0.667297 0.499714
Si Si5 0.000000 0.332062 0.562924
Si Si6 0.297525 0.832871 0.188629
Si Si7 0.210798 0.659840 0.349059
O O1 0.500000 0.654467 0.927182
O O2 0.779266 0.500000 0.922650
O O3 0.753578 0.748005 0.886681
O O4 0.768640 0.741574 0.963241
O O5 0.000000 0.234224 0.600020
O O6 0.168381 0.234057 0.664813
O O7 0.000000 0.000000 0.642901
O O8 0.737352 0.500000 0.784477
O O9 0.719005 0.299815 0.733948
O O10 0.724308 0.236860 0.810530
O O11 0.000000 0.331006 0.774428
O O12 0.500000 0.695215 0.507209
O O13 0.723959 0.500000 0.490112
O O14 0.829504 0.694165 0.536313
O O15 0.000000 0.500000 0.573662
O O16 0.500000 0.817717 0.176766
O O17 0.247454 0.000000 0.184296
O O18 0.279383 0.500000 0.353117
O O19 0.000000 0.652075 0.345280
#
# Coordination Sequence:
#
# PCOD9358659 Si02
#       7
#     8   4   8   8   4   8   8
#     4  10  21  36  54  78 111 151 193 239 289 341
#     4  12  26  42  62  91 130 161 192 244 301 360
#     4   9  17  33  56  82 116 153 195 247 297 346
#     4   9  19  37  60  86 116 149 189 241 294 344
#     4  10  22  40  64  89 114 151 198 236 285 358
#     4  10  21  40  67  93 119 158 205 249 298 360
#     4  10  21  34  51  79 115 154 196 239 286 339
#
# _framework density 19.225812999999999
#
# number of rings (size 3 to 8) (size 9 to 14) (size 15 to 20)
#    0.000    2.167    0.833    1.750    1.167    5.000 
#    0.000    3.333    0.000    0.000    0.000    0.000 
#    0.000    0.000    0.000    0.000    0.000    0.000 
#
# Total GULP energy -134058.103824 kJ/mol
# GULP energy per Si atom -5585.754326 kJ/mol
# Density = 1.918205 g / cm^3
# Si number density = 19.225813 Si / 1000 Ang^3
#
#
#
# Elastic Constant Matrix: (Units=GPa)
#
#
# Indices 1 2 3 4 5 6 
#
# 1 75.1802 56.6631 51.0867 0.0000 0.0000 0.0000
# 2 56.6631 155.2838 123.4645 0.0000 0.0000 0.0000
# 3 51.0867 123.4645 152.5470 0.0000 0.0000 0.0000
# 4 0.0000 0.0000 0.0000 38.3305 0.0000 0.0000
# 5 0.0000 0.0000 0.0000 0.0000 125.4956 0.0000
# 6 0.0000 0.0000 0.0000 0.0000 0.0000 30.3784
#
#
#
# Elastic Compliance Matrix: (Units=1/GPa)
#
#
# Indices 1 2 3 4 5 6 
#
# 1 0.018576 -0.005139 -0.002061 0.000000 0.000000 0.000000
# 2 -0.005139 0.019486 -0.014050 0.000000 0.000000 0.000000
# 3 -0.002061 -0.014050 0.018617 0.000000 0.000000 0.000000
# 4 0.000000 0.000000 0.000000 0.026089 0.000000 0.000000
# 5 0.000000 0.000000 0.000000 0.000000 0.007968 0.000000
# 6 0.000000 0.000000 0.000000 0.000000 0.000000 0.032918
#
#
# Mechanical properties :
#
#
# Convention : Reuss Voigt Hill
#
# Bulk Modulus (GPa) = 70.53421 93.93773 82.23597
# Shear Modulus (GPa) = 29.25992 48.96067 39.11030
#
# Velocity S-wave (km/s) = 3.90540 5.05187 4.51517
# Velocity P-wave (km/s) = 7.55666 9.11015 8.36952
#
# Compressibility (1/GPa) = 0.01417752
#
# Stress axis : x y z
#
# Youngs Moduli (GPa) = 53.83417 51.31792 53.71356
#
# Poissons Ratio (x) = 0.26374 0.11072
# Poissons Ratio (y) = 0.27667 0.75469
# Poissons Ratio (z) = 0.11097 0.72103
#
# Static dielectric constant tensor:
#      x y z
#    x 1.698770 0.000000 0.000000 
#    y 0.000000 1.661830 0.000000 
#    z 0.000000 0.000000 1.628130 
# 
# From -- ./inp_files/24400.got.cif
#   From: 2010.05.17/outbox.cif.g08.bks.cpg/sg38_13_cif.got.tgz:24400.got - 2010.06.03 18:07:57.
