data_PCOD9358196
_publ_section_title
;
Structure prediction by ZEFSAII (Michael W. Deem and Ramdas Pophale) SiO2 
 PCOD9358196
Probable space group: A M M 2
;
_chemical_formula_sum "Si O2"
_cell_formula_units_Z 48
_cell_length_a 21.003366
_cell_length_b 12.854252
_cell_length_c 8.121785
_cell_angle_alpha 90.000000
_cell_angle_beta 90.000000
_cell_angle_gamma 90.000000
_cell_volume 2192.740301
_symmetry_space_group_name_H-M "A M M 2"
_symmetry_group_IT_number 38
_symmetry_cell_setting 'orthorhombic'
loop_
_space_group_symop_operation_xyz
x,y,z
-x,-y,z
-x,y,z
x,-y,z
x,1/2+y,1/2+z
-x,1/2-y,1/2+z
-x,1/2+y,1/2+z
x,1/2-y,1/2+z
loop_
_atom_site_type_symbol
_atom_site_label
_atom_site_fract_x
_atom_site_fract_y
_atom_site_fract_z
Si Si1 0.192419 0.613702 0.141800
Si Si2 0.075630 0.335100 0.336770
Si Si3 0.423954 0.116683 0.785953
Si Si4 0.923593 0.888151 0.206104
Si Si5 0.354989 0.303651 0.589272
Si Si6 0.258283 0.696167 0.838291
O O1 0.218002 0.500000 0.192261
O O2 0.118438 0.616355 0.193617
O O3 0.222653 0.710231 0.242789
O O4 0.210585 0.631412 0.951732
O O5 0.098902 0.369211 0.517812
O O6 0.000000 0.357283 0.319210
O O7 0.085855 0.211895 0.317515
O O8 0.500000 0.124887 0.774058
O O9 0.392382 0.210790 0.683085
O O10 0.404907 0.000000 0.729383
O O11 0.401838 0.130398 0.975450
O O12 0.000000 0.893439 0.190204
O O13 0.900344 0.000000 0.265173
O O14 0.306399 0.361216 0.713361
O O15 0.306702 0.249147 0.464246
#
# Coordination Sequence:
#
# PCOD9358196 Si02
#       6
#     8   8   8   8   8   8
#     4  11  22  38  58  79 110 145 185 243 294 340
#     4  10  20  35  57  83 110 142 183 231 292 366
#     4  10  20  35  59  90 121 155 191 227 276 332
#     4   9  18  34  54  75 103 137 170 212 270 337
#     4   9  19  37  59  82 117 153 187 235 276 322
#     4   9  21  38  56  82 108 145 198 233 274 336
#
# _framework density 21.890415000000001
#
# number of rings (size 3 to 8) (size 9 to 14) (size 15 to 20)
#    0.000    2.333    0.000    2.000    0.000    7.667 
#    0.000    9.167    0.000   19.000    0.000    0.000 
#    0.000    0.000    0.000    0.000    0.000    0.000 
#
# Total GULP energy -133874.407856 kJ/mol
# GULP energy per Si atom -5578.100327 kJ/mol
# Density = 2.184059 g / cm^3
# Si number density = 21.890415 Si / 1000 Ang^3
#
#
#
# Elastic Constant Matrix: (Units=GPa)
#
#
# Indices 1 2 3 4 5 6 
#
# 1 89.8673 16.4351 21.8549 0.0000 0.0000 0.0000
# 2 16.4351 110.6805 8.6935 0.0000 0.0000 0.0000
# 3 21.8549 8.6935 46.6063 0.0000 0.0000 0.0000
# 4 0.0000 0.0000 0.0000 20.0761 0.0000 0.0000
# 5 0.0000 0.0000 0.0000 0.0000 38.5855 0.0000
# 6 0.0000 0.0000 0.0000 0.0000 0.0000 10.4061
#
#
#
# Elastic Compliance Matrix: (Units=1/GPa)
#
#
# Indices 1 2 3 4 5 6 
#
# 1 0.012785 -0.001449 -0.005725 0.000000 0.000000 0.000000
# 2 -0.001449 0.009334 -0.001062 0.000000 0.000000 0.000000
# 3 -0.005725 -0.001062 0.024339 0.000000 0.000000 0.000000
# 4 0.000000 0.000000 0.000000 0.049810 0.000000 0.000000
# 5 0.000000 0.000000 0.000000 0.000000 0.025916 0.000000
# 6 0.000000 0.000000 0.000000 0.000000 0.000000 0.096097
#
#
# Mechanical properties :
#
#
# Convention : Reuss Voigt Hill
#
# Bulk Modulus (GPa) = 33.34817 37.90234 35.62526
# Shear Modulus (GPa) = 20.42925 27.15825 23.79375
#
# Velocity S-wave (km/s) = 3.05823 3.52610 3.30047
# Velocity P-wave (km/s) = 5.26665 5.82495 5.55282
#
# Compressibility (1/GPa) = 0.02998665
#
# Stress axis : x y z
#
# Youngs Moduli (GPa) = 78.21851 107.14058 41.08659
#
# Poissons Ratio (x) = 0.15522 0.23521
# Poissons Ratio (y) = 0.11332 0.04362
# Poissons Ratio (z) = 0.44779 0.11374
#
# Static dielectric constant tensor:
#      x y z
#    x 1.823390 0.000000 0.000000 
#    y 0.000000 1.789520 0.000000 
#    z 0.000000 0.000000 1.831780 
# 
# From -- ./inp_files/6919.got.cif
#   From: 2010.05.17/outbox.cif.g08.bks.cpg/sg38_4_cif.got.tgz:6919.got - 2010.06.03 18:07:57.
