data_PCOD9358474
_publ_section_title
;
Structure prediction by ZEFSAII (Michael W. Deem and Ramdas Pophale) SiO2 
 PCOD9358474
Probable space group: A M M 2
;
_chemical_formula_sum "Si O2"
_cell_formula_units_Z 40
_cell_length_a 7.680249
_cell_length_b 11.967414
_cell_length_c 20.843515
_cell_angle_alpha 90.000000
_cell_angle_beta 90.000000
_cell_angle_gamma 90.000000
_cell_volume 1915.784146
_symmetry_space_group_name_H-M "A M M 2"
_symmetry_group_IT_number 38
_symmetry_cell_setting 'orthorhombic'
loop_
_space_group_symop_operation_xyz
x,y,z
-x,-y,z
-x,y,z
x,-y,z
x,1/2+y,1/2+z
-x,1/2-y,1/2+z
-x,1/2+y,1/2+z
x,1/2-y,1/2+z
loop_
_atom_site_type_symbol
_atom_site_label
_atom_site_fract_x
_atom_site_fract_y
_atom_site_fract_z
Si Si1 0.793962 0.243620 0.962470
Si Si2 0.706064 0.873778 0.588825
Si Si3 0.212535 0.000000 0.933753
Si Si4 0.210414 0.500000 0.283670
Si Si5 0.289022 0.372437 0.832093
Si Si6 0.702773 0.770042 0.714994
O O1 0.761272 0.297281 0.892862
O O2 0.000000 0.238357 0.971873
O O3 0.725299 0.116499 0.963677
O O4 0.723737 0.321304 0.018832
O O5 0.500000 0.882964 0.602279
O O6 0.779444 0.792998 0.644468
O O7 0.778725 0.000000 0.591894
O O8 0.257849 0.000000 0.858482
O O9 0.000000 0.000000 0.936506
O O10 0.282697 0.610180 0.249900
O O11 0.000000 0.500000 0.278577
O O12 0.500000 0.372420 0.830184
O O13 0.230372 0.500000 0.840416
O O14 0.222309 0.318413 0.765696
O O15 0.500000 0.738570 0.707032
#
# Coordination Sequence:
#
# PCOD9358474 Si02
#       6
#     8   8   4   4   8   8
#     4  11  22  38  58  81 111 147 186 227 275 332
#     4  10  21  38  57  81 114 146 181 230 278 321
#     4   9  20  37  55  79 113 144 175 228 281 319
#     4  11  19  33  59  87 113 138 177 232 281 327
#     4  10  21  37  58  84 113 145 182 228 279 329
#     4  10  20  37  59  83 112 146 184 227 277 331
#
# _framework density 20.879178
#
# number of rings (size 3 to 8) (size 9 to 14) (size 15 to 20)
#    0.000    1.800    3.000    1.500    0.000    4.000 
#    1.800    2.000    0.000    0.000    0.000    0.000 
#    0.000    0.000    0.000    0.000    0.000    0.000 
#
# Total GULP energy -111673.031983 kJ/mol
# GULP energy per Si atom -5583.651599 kJ/mol
# Density = 2.083166 g / cm^3
# Si number density = 20.879178 Si / 1000 Ang^3
#
#
#
# Elastic Constant Matrix: (Units=GPa)
#
#
# Indices 1 2 3 4 5 6 
#
# 1 38.7390 -8.2200 -3.3181 0.0000 0.0000 0.0000
# 2 -8.2200 115.9227 39.5215 0.0000 0.0000 0.0000
# 3 -3.3181 39.5215 124.2605 0.0000 0.0000 0.0000
# 4 0.0000 0.0000 0.0000 28.2328 0.0000 0.0000
# 5 0.0000 0.0000 0.0000 0.0000 -212.3933 0.0000
# 6 0.0000 0.0000 0.0000 0.0000 0.0000 14.4675
#
#
#
# Elastic Compliance Matrix: (Units=1/GPa)
#
#
# Indices 1 2 3 4 5 6 
#
# 1 0.026210 0.001817 0.000122 0.000000 0.000000 0.000000
# 2 0.001817 0.009802 -0.003069 0.000000 0.000000 0.000000
# 3 0.000122 -0.003069 0.009027 0.000000 0.000000 0.000000
# 4 0.000000 0.000000 0.000000 0.035420 0.000000 0.000000
# 5 0.000000 0.000000 0.000000 0.000000 -0.004708 0.000000
# 6 0.000000 0.000000 0.000000 0.000000 0.000000 0.069121
#
#
# Mechanical properties :
#
#
# Convention : Reuss Voigt Hill
#
# Bulk Modulus (GPa) = 23.37634 37.20987 30.29310
# Shear Modulus (GPa) = 30.98090 -17.20935 6.88578
#
# Velocity S-wave (km/s) = 3.85621 -2.87406 1.81799
# Velocity P-wave (km/s) = 5.57203 2.61659 4.35282
#
# Compressibility (1/GPa) = 0.04277830
#
# Stress axis : x y z
#
# Youngs Moduli (GPa) = 38.15374 102.02466 110.77951
#
# Poissons Ratio (x) = -0.18537 -0.01352
# Poissons Ratio (y) = -0.06932 0.33997
# Poissons Ratio (z) = -0.00465 0.31310
#
# Static dielectric constant tensor:
#      x y z
#    x 1.777550 0.000000 0.000000 
#    y 0.000000 1.735910 0.000000 
#    z 0.000000 0.000000 1.730680 
# 
# From -- ./inp_files/19481.got.cif
#   From: 2010.05.17/outbox.cif.g08.bks.cpg/sg38_10_cif.got.tgz:19481.got - 2010.06.03 18:07:57.
