data_PCOD9358530
_publ_section_title
;
Structure prediction by ZEFSAII (Michael W. Deem and Ramdas Pophale) SiO2 
 PCOD9358530
Probable space group: A M M 2
;
_chemical_formula_sum "Si O2"
_cell_formula_units_Z 58
_cell_length_a 7.676954
_cell_length_b 22.829227
_cell_length_c 15.124472
_cell_angle_alpha 90.000000
_cell_angle_beta 90.000000
_cell_angle_gamma 90.000000
_cell_volume 2650.698712
_symmetry_space_group_name_H-M "A M M 2"
_symmetry_group_IT_number 38
_symmetry_cell_setting 'orthorhombic'
loop_
_space_group_symop_operation_xyz
x,y,z
-x,-y,z
-x,y,z
x,-y,z
x,1/2+y,1/2+z
-x,1/2-y,1/2+z
-x,1/2+y,1/2+z
x,1/2-y,1/2+z
loop_
_atom_site_type_symbol
_atom_site_label
_atom_site_fract_x
_atom_site_fract_y
_atom_site_fract_z
Si Si1 0.288471 0.737913 0.837620
Si Si2 0.293196 0.566044 0.572065
Si Si3 0.705470 0.678779 0.481659
Si Si4 0.804222 0.430356 0.766840
Si Si5 0.202604 0.098734 0.629274
Si Si6 0.796320 0.765052 0.640546
Si Si7 0.302059 0.375241 0.940188
Si Si8 0.500000 0.000000 0.666907
O O1 0.500000 0.735141 0.836997
O O2 0.231970 0.736140 0.736488
O O3 0.228584 0.685081 0.900895
O O4 0.226645 0.795211 0.889952
O O5 0.500000 0.561835 0.556763
O O6 0.221167 0.500000 0.562590
O O7 0.217399 0.616719 0.510821
O O8 0.270153 0.588097 0.672636
O O9 0.500000 0.669711 0.467836
O O10 0.718834 0.726001 0.561461
O O11 0.811596 0.500000 0.761831
O O12 0.697922 0.414484 0.852937
O O13 0.000000 0.407046 0.776657
O O14 0.259884 0.166691 0.646708
O O15 0.204100 0.096305 0.521790
O O16 0.000000 0.090391 0.659025
O O17 0.344000 0.051809 0.662923
O O18 0.000000 0.767336 0.620878
O O19 0.500000 0.365442 0.970706
#
# Coordination Sequence:
#
# PCOD9358530 Si02
#       8
#     8   8   8   8   8   8   8   2
#     4  10  22  37  61  88 122 163 209 263 324 397
#     4   9  18  34  55  81 115 155 202 256 312 376
#     4  10  20  37  62  89 120 162 208 257 316 386
#     4  10  21  33  48  75 114 156 198 248 302 372
#     4  11  25  43  65  96 129 169 222 276 332 399
#     4  11  24  40  63  93 129 164 208 274 332 390
#     4  11  21  36  56  87 122 165 209 258 323 388
#     4  12  26  44  72  90 124 180 218 272 336 402
#
# _framework density 21.881022000000002
#
# number of rings (size 3 to 8) (size 9 to 14) (size 15 to 20)
#    0.000    1.655    2.069    2.276    2.897    6.345 
#    0.000    0.000    1.517    0.000    0.000    0.000 
#    0.000    0.000    0.000    0.000    0.000    0.000 
#
# Total GULP energy -161583.639088 kJ/mol
# GULP energy per Si atom -5571.849624 kJ/mol
# Density = 2.183122 g / cm^3
# Si number density = 21.881022 Si / 1000 Ang^3
#
#
#
# Elastic Constant Matrix: (Units=GPa)
#
#
# Indices 1 2 3 4 5 6 
#
# 1 77.2987 19.8169 -13.2171 0.0000 0.0000 0.0000
# 2 19.8169 73.9454 -4.4911 0.0000 0.0000 0.0000
# 3 -13.2171 -4.4911 43.5589 0.0000 0.0000 0.0000
# 4 0.0000 0.0000 0.0000 20.2332 0.0000 0.0000
# 5 0.0000 0.0000 0.0000 0.0000 118.4018 0.0000
# 6 0.0000 0.0000 0.0000 0.0000 0.0000 17.8051
#
#
#
# Elastic Compliance Matrix: (Units=1/GPa)
#
#
# Indices 1 2 3 4 5 6 
#
# 1 0.014566 -0.003658 0.004043 0.000000 0.000000 0.000000
# 2 -0.003658 0.014527 0.000388 0.000000 0.000000 0.000000
# 3 0.004043 0.000388 0.024224 0.000000 0.000000 0.000000
# 4 0.000000 0.000000 0.000000 0.049424 0.000000 0.000000
# 5 0.000000 0.000000 0.000000 0.000000 0.008446 0.000000
# 6 0.000000 0.000000 0.000000 0.000000 0.000000 0.056164
#
#
# Mechanical properties :
#
#
# Convention : Reuss Voigt Hill
#
# Bulk Modulus (GPa) = 18.22750 22.11335 20.17043
# Shear Modulus (GPa) = 27.16017 44.13430 35.64724
#
# Velocity S-wave (km/s) = 3.52698 4.49599 4.04064
# Velocity P-wave (km/s) = 4.99345 6.08934 5.56842
#
# Compressibility (1/GPa) = 0.05486215
#
# Stress axis : x y z
#
# Youngs Moduli (GPa) = 68.65366 68.83551 41.28130
#
# Poissons Ratio (x) = 0.25180 -0.16688
# Poissons Ratio (y) = 0.25114 -0.01601
# Poissons Ratio (z) = -0.27754 -0.02670
#
# Static dielectric constant tensor:
#      x y z
#    x 1.833120 0.000000 0.000000 
#    y 0.000000 1.897520 0.000000 
#    z 0.000000 0.000000 1.773580 
# 
# From -- ./inp_files/12661.got.cif
#   From: 2010.05.17/outbox.cif.g08.bks.cpg/sg38_7_cif.got.tgz:12661.got - 2010.06.03 18:07:57.
