data_PCOD9358431
_publ_section_title
;
Structure prediction by ZEFSAII (Michael W. Deem and Ramdas Pophale) SiO2 
 PCOD9358431
Probable space group: A M M 2
;
_chemical_formula_sum "Si O2"
_cell_formula_units_Z 64
_cell_length_a 8.904078
_cell_length_b 15.658409
_cell_length_c 24.220483
_cell_angle_alpha 90.000000
_cell_angle_beta 90.000000
_cell_angle_gamma 90.000000
_cell_volume 3376.909237
_symmetry_space_group_name_H-M "A M M 2"
_symmetry_group_IT_number 38
_symmetry_cell_setting 'orthorhombic'
loop_
_space_group_symop_operation_xyz
x,y,z
-x,-y,z
-x,y,z
x,-y,z
x,1/2+y,1/2+z
-x,1/2-y,1/2+z
-x,1/2+y,1/2+z
x,1/2-y,1/2+z
loop_
_atom_site_type_symbol
_atom_site_label
_atom_site_fract_x
_atom_site_fract_y
_atom_site_fract_z
Si Si1 0.821204 0.597312 0.090130
Si Si2 0.680346 0.098181 0.330898
Si Si3 0.180004 0.750584 0.401320
Si Si4 0.678997 0.248366 0.022307
Si Si5 0.676276 0.147727 0.206090
Si Si6 0.820391 0.596341 0.320083
Si Si7 0.675904 0.646833 0.204596
Si Si8 0.821787 0.097207 0.093114
O O1 0.788058 0.500000 0.073038
O O2 0.738992 0.667115 0.052953
O O3 0.766722 0.610371 0.152911
O O4 0.000000 0.610717 0.087108
O O5 0.500000 0.111228 0.335621
O O6 0.764008 0.165490 0.369280
O O7 0.719711 0.115178 0.266752
O O8 0.713708 0.000000 0.344978
O O9 0.254920 0.745318 0.460967
O O10 0.222363 0.668579 0.364051
O O11 0.000000 0.751959 0.407010
O O12 0.500000 0.249439 0.021364
O O13 0.736294 0.167056 0.056942
O O14 0.500000 0.126526 0.197461
O O15 0.690930 0.250313 0.204745
O O16 0.771873 0.109312 0.156509
O O17 0.789016 0.500000 0.339580
O O18 0.737999 0.612572 0.262351
O O19 0.000000 0.603574 0.310829
O O20 0.500000 0.626076 0.198502
O O21 0.000000 0.111359 0.088211
O O22 0.788228 0.000000 0.075946
#
# Coordination Sequence:
#
# PCOD9358431 Si02
#       8
#     8   8   8   8   8   8   8   8
#     4  11  24  42  65  92 124 162 204 252 307 367
#     4  10  21  39  63  90 123 162 202 247 300 360
#     4  11  24  42  64  88 119 159 204 257 306 358
#     4  12  26  44  66  90 120 160 207 258 307 364
#     4  10  20  36  61  92 127 165 203 247 303 363
#     4  10  22  40  62  89 122 162 204 247 300 360
#     4  11  21  35  61  95 128 162 200 247 303 362
#     4  11  24  41  64  94 127 163 204 251 304 364
#
# _framework density 18.952241999999998
#
# number of rings (size 3 to 8) (size 9 to 14) (size 15 to 20)
#    0.000    1.250    2.500    3.375    0.000    7.000 
#    0.000    1.250    0.000    0.000    0.000    0.000 
#    0.000    0.000    0.000    0.000    0.000    0.000 
#
# Total GULP energy -178978.887351 kJ/mol
# GULP energy per Si atom -5593.090230 kJ/mol
# Density = 1.890911 g / cm^3
# Si number density = 18.952242 Si / 1000 Ang^3
#
#
#
# Elastic Constant Matrix: (Units=GPa)
#
#
# Indices 1 2 3 4 5 6 
#
# 1 81.1156 71.5357 57.2145 0.0000 0.0000 0.0000
# 2 71.5357 133.0109 64.9555 0.0000 0.0000 0.0000
# 3 57.2145 64.9555 123.6063 0.0000 0.0000 0.0000
# 4 0.0000 0.0000 0.0000 -7.0963 0.0000 0.0000
# 5 0.0000 0.0000 0.0000 0.0000 -1.7466 0.0000
# 6 0.0000 0.0000 0.0000 0.0000 0.0000 1.6115
#
#
#
# Elastic Compliance Matrix: (Units=1/GPa)
#
#
# Indices 1 2 3 4 5 6 
#
# 1 0.026853 -0.011262 -0.006511 0.000000 0.000000 0.000000
# 2 -0.011262 0.014837 -0.002584 0.000000 0.000000 0.000000
# 3 -0.006511 -0.002584 0.012462 0.000000 0.000000 0.000000
# 4 0.000000 0.000000 0.000000 -0.140919 0.000000 0.000000
# 5 0.000000 0.000000 0.000000 0.000000 -0.572536 0.000000
# 6 0.000000 0.000000 0.000000 0.000000 0.000000 0.620558
#
#
# Mechanical properties :
#
#
# Convention : Reuss Voigt Hill
#
# Bulk Modulus (GPa) = 74.42047 80.57157 77.49602
# Shear Modulus (GPa) = 775.41804 8.15552 391.78678
#
# Velocity S-wave (km/s) = 20.24923 2.07666 14.39347
# Velocity P-wave (km/s) = 24.20870 6.95380 17.81034
#
# Compressibility (1/GPa) = 0.01343716
#
# Stress axis : x y z
#
# Youngs Moduli (GPa) = 37.23993 67.39887 80.24424
#
# Poissons Ratio (x) = 0.75906 0.52249
# Poissons Ratio (y) = 0.41940 0.20734
# Poissons Ratio (z) = 0.24248 0.17415
#
# Static dielectric constant tensor:
#      x y z
#    x 1.635430 0.000000 0.000000 
#    y 0.000000 1.657710 0.000000 
#    z 0.000000 0.000000 1.615000 
# 
# From -- ./inp_files/22133.got.cif
#   From: 2010.05.17/outbox.cif.g08.bks.cpg/sg38_12_cif.got.tgz:22133.got - 2010.06.03 18:07:57.
