data_PCOD9358338
_publ_section_title
;
Structure prediction by ZEFSAII (Michael W. Deem and Ramdas Pophale) SiO2 
 PCOD9358338
Probable space group: A M M 2
;
_chemical_formula_sum "Si O2"
_cell_formula_units_Z 34
_cell_length_a 7.161258
_cell_length_b 23.499308
_cell_length_c 8.621867
_cell_angle_alpha 90.000000
_cell_angle_beta 90.000000
_cell_angle_gamma 90.000000
_cell_volume 1450.927503
_symmetry_space_group_name_H-M "A M M 2"
_symmetry_group_IT_number 38
_symmetry_cell_setting 'orthorhombic'
loop_
_space_group_symop_operation_xyz
x,y,z
-x,-y,z
-x,y,z
x,-y,z
x,1/2+y,1/2+z
-x,1/2-y,1/2+z
-x,1/2+y,1/2+z
x,1/2-y,1/2+z
loop_
_atom_site_type_symbol
_atom_site_label
_atom_site_fract_x
_atom_site_fract_y
_atom_site_fract_z
Si Si1 0.727808 0.177039 0.157300
Si Si2 0.724186 0.411266 0.140371
Si Si3 0.274043 0.562090 0.495522
Si Si4 0.000000 0.500000 0.004288
Si Si5 0.725615 0.706805 0.003652
O O1 0.500000 0.176041 0.154975
O O2 0.787882 0.231019 0.055422
O O3 0.785620 0.188877 0.332738
O O4 0.789881 0.116544 0.091184
O O5 0.500000 0.417647 0.120420
O O6 0.774322 0.430979 0.314235
O O7 0.837145 0.450210 0.022251
O O8 0.771326 0.344832 0.118789
O O9 0.500000 0.562348 0.500978
O O10 0.211394 0.500000 0.552012
O O11 0.500000 0.709654 0.000738
#
# Coordination Sequence:
#
# PCOD9358338 Si02
#       5
#     8   8   8   2   8
#     4   9  16  28  51  83 117 153 191 236 287 338
#     4  10  20  36  58  85 115 151 194 235 282 341
#     4   9  16  29  49  78 116 152 189 233 279 335
#     4  12  22  36  60  84 116 152 192 238 284 346
#     4   9  17  30  51  82 114 148 194 239 284 340
#
# _framework density 23.433288000000001
#
# number of rings (size 3 to 8) (size 9 to 14) (size 15 to 20)
#    0.000    2.588    1.176    1.765    0.000    5.647 
#    2.118    0.000    0.000    8.471    0.000    0.000 
#    0.000    0.000    0.000    0.000    0.000    0.000 
#
# Total GULP energy -94806.779115 kJ/mol
# GULP energy per Si atom -5576.869360 kJ/mol
# Density = 2.337995 g / cm^3
# Si number density = 23.433288 Si / 1000 Ang^3
#
#
#
# Elastic Constant Matrix: (Units=GPa)
#
#
# Indices 1 2 3 4 5 6 
#
# 1 137.6763 15.1870 -2.0714 0.0000 0.0000 0.0000
# 2 15.1870 252.5416 65.0729 0.0000 0.0000 0.0000
# 3 -2.0714 65.0729 52.5833 0.0000 0.0000 0.0000
# 4 0.0000 0.0000 0.0000 29.7646 0.0000 0.0000
# 5 0.0000 0.0000 0.0000 0.0000 -31.3350 0.0000
# 6 0.0000 0.0000 0.0000 0.0000 0.0000 43.6635
#
#
#
# Elastic Compliance Matrix: (Units=1/GPa)
#
#
# Indices 1 2 3 4 5 6 
#
# 1 0.007366 -0.000760 0.001231 0.000000 0.000000 0.000000
# 2 -0.000760 0.005892 -0.007321 0.000000 0.000000 0.000000
# 3 0.001231 -0.007321 0.028126 0.000000 0.000000 0.000000
# 4 0.000000 0.000000 0.000000 0.033597 0.000000 0.000000
# 5 0.000000 0.000000 0.000000 0.000000 -0.031913 0.000000
# 6 0.000000 0.000000 0.000000 0.000000 0.000000 0.022902
#
#
# Mechanical properties :
#
#
# Convention : Reuss Voigt Hill
#
# Bulk Modulus (GPa) = 36.12371 66.57536 51.34953
# Shear Modulus (GPa) = 56.24361 32.72616 44.48489
#
# Velocity S-wave (km/s) = 4.90446 3.74112 4.36175
# Velocity P-wave (km/s) = 6.89352 6.86539 6.87947
#
# Compressibility (1/GPa) = 0.02768265
#
# Stress axis : x y z
#
# Youngs Moduli (GPa) = 135.76299 169.72272 35.55396
#
# Poissons Ratio (x) = 0.12900 -0.04376
# Poissons Ratio (y) = 0.10319 0.26030
# Poissons Ratio (z) = -0.16709 1.24260
#
# Static dielectric constant tensor:
#      x y z
#    x 1.902990 0.000000 0.000000 
#    y 0.000000 1.842540 0.000000 
#    z 0.000000 0.000000 1.845060 
# 
# From -- ./inp_files/3161.got.cif
#   From: 2010.05.17/outbox.cif.g08.bks.cpg/sg38_2_cif.got.tgz:3161.got - 2010.06.03 18:07:57.
