data_PCOD9358484
_publ_section_title
;
Structure prediction by ZEFSAII (Michael W. Deem and Ramdas Pophale) SiO2 
 PCOD9358484
Probable space group: A M M 2
;
_chemical_formula_sum "Si O2"
_cell_formula_units_Z 56
_cell_length_a 21.743421
_cell_length_b 8.614130
_cell_length_c 15.900602
_cell_angle_alpha 90.000000
_cell_angle_beta 90.000000
_cell_angle_gamma 90.000000
_cell_volume 2978.193172
_symmetry_space_group_name_H-M "A M M 2"
_symmetry_group_IT_number 38
_symmetry_cell_setting 'orthorhombic'
loop_
_space_group_symop_operation_xyz
x,y,z
-x,-y,z
-x,y,z
x,-y,z
x,1/2+y,1/2+z
-x,1/2-y,1/2+z
-x,1/2+y,1/2+z
x,1/2-y,1/2+z
loop_
_atom_site_type_symbol
_atom_site_label
_atom_site_fract_x
_atom_site_fract_y
_atom_site_fract_z
Si Si1 0.788158 0.187490 0.934250
Si Si2 0.571974 0.314023 0.088297
Si Si3 0.000000 0.686098 0.832927
Si Si4 0.869803 0.312468 0.276398
Si Si5 0.133954 0.312254 0.089058
Si Si6 0.571880 0.685986 0.770936
Si Si7 0.646102 0.686347 0.429596
Si Si8 0.000000 0.188248 0.529317
O O1 0.825962 0.240829 0.852022
O O2 0.717294 0.237004 0.930700
O O3 0.789428 0.000000 0.934875
O O4 0.822258 0.247247 0.017141
O O5 0.500000 0.270970 0.076161
O O6 0.576206 0.500000 0.087820
O O7 0.590954 0.251311 0.179898
O O8 0.611769 0.246191 0.012719
O O9 0.938376 0.751120 0.791545
O O10 0.000000 0.733062 0.931355
O O11 0.000000 0.500000 0.828930
O O12 0.871890 0.500000 0.278277
O O13 0.847987 0.265770 0.183467
O O14 0.134950 0.500000 0.084040
O O15 0.063581 0.260065 0.071490
O O16 0.500000 0.729902 0.783709
O O17 0.575492 0.500000 0.769684
O O18 0.611992 0.750834 0.846993
O O19 0.644181 0.500000 0.428352
O O20 0.000000 0.000000 0.532972
#
# Coordination Sequence:
#
# PCOD9358484 Si02
#       8
#     8   8   4   8   8   8   8   4
#     4  10  23  40  55  80 115 149 189 236 279 328
#     4  10  21  38  61  89 118 149 191 242 293 347
#     4  11  20  33  57  86 113 139 178 232 283 334
#     4  10  21  38  59  81 109 146 186 228 281 338
#     4  10  20  37  60  82 108 146 187 229 280 339
#     4  10  21  38  61  90 121 152 190 237 290 347
#     4  11  23  38  57  83 120 160 198 240 286 338
#     4   9  17  31  53  82 111 135 174 230 281 332
#
# _framework density 18.803346999999999
#
# number of rings (size 3 to 8) (size 9 to 14) (size 15 to 20)
#    0.000    1.857    1.429    2.357    0.000    7.429 
#    0.000    1.786    0.000    0.000    0.000    0.000 
#    0.000    0.000    0.000    0.000    0.000    0.000 
#
# Total GULP energy -156427.618098 kJ/mol
# GULP energy per Si atom -5586.700646 kJ/mol
# Density = 1.876055 g / cm^3
# Si number density = 18.803347 Si / 1000 Ang^3
#
#
#
# Elastic Constant Matrix: (Units=GPa)
#
#
# Indices 1 2 3 4 5 6 
#
# 1 138.8864 34.3303 113.5654 0.0000 0.0000 0.0000
# 2 34.3303 23.3226 40.7704 0.0000 0.0000 0.0000
# 3 113.5654 40.7704 210.3938 0.0000 0.0000 0.0000
# 4 0.0000 0.0000 0.0000 33.1799 0.0000 0.0000
# 5 0.0000 0.0000 0.0000 0.0000 -7.7442 0.0000
# 6 0.0000 0.0000 0.0000 0.0000 0.0000 22.1733
#
#
#
# Elastic Compliance Matrix: (Units=1/GPa)
#
#
# Indices 1 2 3 4 5 6 
#
# 1 0.014762 -0.011796 -0.005683 0.000000 0.000000 0.000000
# 2 -0.011796 0.074269 -0.008024 0.000000 0.000000 0.000000
# 3 -0.005683 -0.008024 0.009375 0.000000 0.000000 0.000000
# 4 0.000000 0.000000 0.000000 0.030139 0.000000 0.000000
# 5 0.000000 0.000000 0.000000 0.000000 -0.129128 0.000000
# 6 0.000000 0.000000 0.000000 0.000000 0.000000 0.045099
#
#
# Mechanical properties :
#
#
# Convention : Reuss Voigt Hill
#
# Bulk Modulus (GPa) = 21.09722 83.32610 52.21166
# Shear Modulus (GPa) = 44.91448 21.78426 33.34937
#
# Velocity S-wave (km/s) = 4.89268 3.40741 4.21597
# Velocity P-wave (km/s) = 6.56978 7.73895 7.17821
#
# Compressibility (1/GPa) = 0.04739961
#
# Stress axis : x y z
#
# Youngs Moduli (GPa) = 67.73927 13.46464 106.66370
#
# Poissons Ratio (x) = 0.15883 0.60612
# Poissons Ratio (y) = 0.79908 0.85592
# Poissons Ratio (z) = 0.38493 0.10805
#
# Static dielectric constant tensor:
#      x y z
#    x 1.629850 0.000000 0.000000 
#    y 0.000000 1.637930 0.000000 
#    z 0.000000 0.000000 1.632460 
# 
# From -- ./inp_files/15532.got.cif
#   From: 2010.05.17/outbox.cif.g08.bks.cpg/sg38_8_cif.got.tgz:15532.got - 2010.06.03 18:07:57.
