data_PCOD9358929
_publ_section_title
;
Structure prediction by ZEFSAII (Michael W. Deem and Ramdas Pophale) SiO2 
 PCOD9358929
Probable space group: A M M 2
;
_chemical_formula_sum "Si O2"
_cell_formula_units_Z 48
_cell_length_a 9.048615
_cell_length_b 23.566444
_cell_length_c 11.885178
_cell_angle_alpha 90.000000
_cell_angle_beta 90.000000
_cell_angle_gamma 90.000000
_cell_volume 2534.439078
_symmetry_space_group_name_H-M "A M M 2"
_symmetry_group_IT_number 38
_symmetry_cell_setting 'orthorhombic'
loop_
_space_group_symop_operation_xyz
x,y,z
-x,-y,z
-x,y,z
x,-y,z
x,1/2+y,1/2+z
-x,1/2-y,1/2+z
-x,1/2+y,1/2+z
x,1/2-y,1/2+z
loop_
_atom_site_type_symbol
_atom_site_label
_atom_site_fract_x
_atom_site_fract_y
_atom_site_fract_z
Si Si1 0.677429 0.349154 0.014860
Si Si2 0.166159 0.566564 0.410383
Si Si3 0.677766 0.565438 0.827044
Si Si4 0.822711 0.732695 0.461287
Si Si5 0.829234 0.139650 0.135968
Si Si6 0.326389 0.154926 0.776283
O O1 0.500000 0.341595 0.005872
O O2 0.758373 0.295400 0.961194
O O3 0.716626 0.348132 0.146205
O O4 0.714576 0.406713 0.948006
O O5 0.183972 0.500000 0.420465
O O6 0.173672 0.595498 0.532183
O O7 0.287451 0.594834 0.332117
O O8 0.000000 0.578987 0.366109
O O9 0.500000 0.564285 0.816467
O O10 0.730387 0.500000 0.814002
O O11 0.740148 0.609704 0.735279
O O12 0.775651 0.697745 0.574872
O O13 0.762998 0.699362 0.352575
O O14 0.000000 0.732242 0.460390
O O15 0.000000 0.148035 0.171326
O O16 0.500000 0.167583 0.784497
#
# Coordination Sequence:
#
# PCOD9358929 Si02
#       6
#     8   8   8   8   8   8
#     4  10  23  40  58  82 114 153 192 238 290 345
#     4   9  18  34  56  82 114 150 188 234 286 337
#     4  10  22  39  58  83 117 156 195 236 286 343
#     4  10  22  39  60  85 115 148 189 241 297 352
#     4   9  19  36  57  84 114 147 187 236 287 336
#     4  10  21  37  57  83 113 146 189 237 288 348
#
# _framework density 18.939102999999999
#
# number of rings (size 3 to 8) (size 9 to 14) (size 15 to 20)
#    0.000    2.333    0.000    2.500    2.333    7.333 
#    0.000    1.667    0.000    0.000    0.000    0.000 
#    0.000    0.000    0.000    0.000    0.000    0.000 
#
# Total GULP energy -133869.054325 kJ/mol
# GULP energy per Si atom -5577.877264 kJ/mol
# Density = 1.889600 g / cm^3
# Si number density = 18.939103 Si / 1000 Ang^3
#
#
#
# Elastic Constant Matrix: (Units=GPa)
#
#
# Indices 1 2 3 4 5 6 
#
# 1 13.6269 11.9366 20.4211 0.0000 0.0000 0.0000
# 2 11.9366 66.8478 13.1309 0.0000 0.0000 0.0000
# 3 20.4211 13.1309 65.4807 0.0000 0.0000 0.0000
# 4 0.0000 0.0000 0.0000 13.5768 0.0000 0.0000
# 5 0.0000 0.0000 0.0000 0.0000 -163.2762 0.0000
# 6 0.0000 0.0000 0.0000 0.0000 0.0000 25.5547
#
#
#
# Elastic Compliance Matrix: (Units=1/GPa)
#
#
# Indices 1 2 3 4 5 6 
#
# 1 0.158711 -0.019381 -0.045610 0.000000 0.000000 0.000000
# 2 -0.019381 0.017939 0.002447 0.000000 0.000000 0.000000
# 3 -0.045610 0.002447 0.029005 0.000000 0.000000 0.000000
# 4 0.000000 0.000000 0.000000 0.073655 0.000000 0.000000
# 5 0.000000 0.000000 0.000000 0.000000 -0.006125 0.000000
# 6 0.000000 0.000000 0.000000 0.000000 0.000000 0.039132
#
#
# Mechanical properties :
#
#
# Convention : Reuss Voigt Hill
#
# Bulk Modulus (GPa) = 12.41195 26.32586 19.36891
# Shear Modulus (GPa) = 10.76982 -18.13114 -3.68066
#
# Velocity S-wave (km/s) = 2.38724 -3.09745 -1.39558
# Velocity P-wave (km/s) = 3.76382 1.06687 2.76628
#
# Compressibility (1/GPa) = 0.08056755
#
# Stress axis : x y z
#
# Youngs Moduli (GPa) = 6.30078 55.74302 34.47683
#
# Poissons Ratio (x) = 1.08035 1.57247
# Poissons Ratio (y) = 0.12211 -0.08436
# Poissons Ratio (z) = 0.28738 -0.13639
#
# Static dielectric constant tensor:
#      x y z
#    x 1.689960 0.000000 0.000000 
#    y 0.000000 1.659570 0.000000 
#    z 0.000000 0.000000 1.659370 
# 
# From -- ./inp_files/8111.got.cif
#   From: 2010.05.17/outbox.cif.g08.bks.cpg/sg38_5_cif.got.tgz:8111.got - 2010.06.03 18:07:57.
