data_PCOD9358444
_publ_section_title
;
Structure prediction by ZEFSAII (Michael W. Deem and Ramdas Pophale) SiO2 
 PCOD9358444
Probable space group: A M M 2
;
_chemical_formula_sum "Si O2"
_cell_formula_units_Z 64
_cell_length_a 9.011495
_cell_length_b 24.028782
_cell_length_c 15.639441
_cell_angle_alpha 90.000000
_cell_angle_beta 90.000000
_cell_angle_gamma 90.000000
_cell_volume 3386.490249
_symmetry_space_group_name_H-M "A M M 2"
_symmetry_group_IT_number 38
_symmetry_cell_setting 'orthorhombic'
loop_
_space_group_symop_operation_xyz
x,y,z
-x,-y,z
-x,y,z
x,-y,z
x,1/2+y,1/2+z
-x,1/2-y,1/2+z
-x,1/2+y,1/2+z
x,1/2-y,1/2+z
loop_
_atom_site_type_symbol
_atom_site_label
_atom_site_fract_x
_atom_site_fract_y
_atom_site_fract_z
Si Si1 0.176747 0.862767 0.508570
Si Si2 0.824284 0.131116 0.703147
Si Si3 0.677635 0.131327 0.188206
Si Si4 0.673879 0.933614 0.856733
Si Si5 0.325621 0.752506 0.957457
Si Si6 0.823241 0.867906 0.010557
Si Si7 0.673495 0.755286 0.751720
Si Si8 0.323095 0.065776 0.360789
O O1 0.207465 0.883442 0.604701
O O2 0.256758 0.803752 0.494405
O O3 0.236722 0.904711 0.437310
O O4 0.000000 0.855306 0.500090
O O5 0.737368 0.093494 0.770594
O O6 0.773466 0.194676 0.718280
O O7 0.000000 0.126146 0.718344
O O8 0.500000 0.126830 0.174368
O O9 0.762949 0.114380 0.103102
O O10 0.710565 0.195734 0.210895
O O11 0.716234 0.094464 0.270719
O O12 0.500000 0.919100 0.865005
O O13 0.689030 0.000000 0.854862
O O14 0.760458 0.907494 0.936500
O O15 0.500000 0.756322 0.978881
O O16 0.241670 0.806531 0.991787
O O17 0.311953 0.750992 0.854358
O O18 0.000000 0.866828 0.008636
O O19 0.500000 0.767420 0.733067
O O20 0.500000 0.075179 0.373328
O O21 0.296061 0.000000 0.358258
#
# Coordination Sequence:
#
# PCOD9358444 Si02
#       8
#     8   8   8   8   8   8   8   8
#     4  11  24  40  61  93 130 164 201 249 309 371
#     4  11  24  40  61  91 126 162 199 247 308 368
#     4  10  21  40  63  91 124 162 207 255 302 354
#     4  11  25  45  67  89 116 158 211 260 304 356
#     4  11  21  38  64  93 125 162 205 250 300 362
#     4  12  25  40  62  95 129 162 198 245 309 373
#     4  10  20  36  62  91 122 160 202 249 302 360
#     4  10  22  42  66  90 119 161 214 262 303 355
#
# _framework density 18.898620999999999
#
# number of rings (size 3 to 8) (size 9 to 14) (size 15 to 20)
#    0.000    1.250    2.500    3.375    0.000    7.750 
#    0.000    3.750    0.000    0.000    0.000    0.000 
#    0.000    0.000    0.000    0.000    0.000    0.000 
#
# Total GULP energy -179002.198788 kJ/mol
# GULP energy per Si atom -5593.818712 kJ/mol
# Density = 1.885561 g / cm^3
# Si number density = 18.898621 Si / 1000 Ang^3
#
#
#
# Elastic Constant Matrix: (Units=GPa)
#
#
# Indices 1 2 3 4 5 6 
#
# 1 113.7106 66.6217 97.2863 0.0000 0.0000 0.0000
# 2 66.6217 84.1308 64.5532 0.0000 0.0000 0.0000
# 3 97.2863 64.5532 158.3486 0.0000 0.0000 0.0000
# 4 0.0000 0.0000 0.0000 -9.4900 0.0000 0.0000
# 5 0.0000 0.0000 0.0000 0.0000 37.0124 0.0000
# 6 0.0000 0.0000 0.0000 0.0000 0.0000 -10.7525
#
#
#
# Elastic Compliance Matrix: (Units=1/GPa)
#
#
# Indices 1 2 3 4 5 6 
#
# 1 0.024174 -0.011273 -0.010256 0.000000 0.000000 0.000000
# 2 -0.011273 0.022554 -0.002268 0.000000 0.000000 0.000000
# 3 -0.010256 -0.002268 0.013541 0.000000 0.000000 0.000000
# 4 0.000000 0.000000 0.000000 -0.105374 0.000000 0.000000
# 5 0.000000 0.000000 0.000000 0.000000 0.027018 0.000000
# 6 0.000000 0.000000 0.000000 0.000000 0.000000 -0.093002
#
#
# Mechanical properties :
#
#
# Convention : Reuss Voigt Hill
#
# Bulk Modulus (GPa) = 78.90695 90.34581 84.62638
# Shear Modulus (GPa) = -84.36193 11.86924 -36.24634
#
# Velocity S-wave (km/s) = -6.68851 2.50881 -4.38418
# Velocity P-wave (km/s) = 4.21957 7.50343 4.38729
#
# Compressibility (1/GPa) = 0.01267315
#
# Stress axis : x y z
#
# Youngs Moduli (GPa) = 41.36640 44.33814 73.84885
#
# Poissons Ratio (x) = 0.49985 0.75742
# Poissons Ratio (y) = 0.46634 0.16751
# Poissons Ratio (z) = 0.42427 0.10057
#
# Static dielectric constant tensor:
#      x y z
#    x 1.630200 0.000000 0.000000 
#    y 0.000000 1.621940 0.000000 
#    z 0.000000 0.000000 1.648300 
# 
# From -- ./inp_files/12766.got.cif
#   From: 2010.05.17/outbox.cif.g08.bks.cpg/sg38_7_cif.got.tgz:12766.got - 2010.06.03 18:07:57.
