data_PCOD9358224
_publ_section_title
;
Structure prediction by ZEFSAII (Michael W. Deem and Ramdas Pophale) SiO2 
 PCOD9358224
Probable space group: A M M 2
;
_chemical_formula_sum "Si O2"
_cell_formula_units_Z 64
_cell_length_a 19.214003
_cell_length_b 20.919488
_cell_length_c 8.394219
_cell_angle_alpha 90.000000
_cell_angle_beta 90.000000
_cell_angle_gamma 90.000000
_cell_volume 3374.032027
_symmetry_space_group_name_H-M "A M M 2"
_symmetry_group_IT_number 38
_symmetry_cell_setting 'orthorhombic'
loop_
_space_group_symop_operation_xyz
x,y,z
-x,-y,z
-x,y,z
x,-y,z
x,1/2+y,1/2+z
-x,1/2-y,1/2+z
-x,1/2+y,1/2+z
x,1/2-y,1/2+z
loop_
_atom_site_type_symbol
_atom_site_label
_atom_site_fract_x
_atom_site_fract_y
_atom_site_fract_z
Si Si1 0.725373 0.689320 0.146010
Si Si2 0.920427 0.847618 0.872574
Si Si3 0.422125 0.286168 0.075256
Si Si4 0.079960 0.283622 0.021514
Si Si5 0.421987 0.347499 0.721003
Si Si6 0.212656 0.928026 0.824884
Si Si7 0.211573 0.812049 0.315772
Si Si8 0.284616 0.927093 0.158361
O O1 0.643192 0.689312 0.177913
O O2 0.759813 0.624149 0.202357
O O3 0.768780 0.749796 0.212356
O O4 0.733529 0.694245 0.958393
O O5 0.908346 0.792826 0.005755
O O6 0.914266 0.812165 0.699274
O O7 0.862509 0.901845 0.880778
O O8 0.000000 0.870369 0.885864
O O9 0.500000 0.301521 0.136676
O O10 0.414723 0.209552 0.091842
O O11 0.418498 0.313859 0.895902
O O12 0.136763 0.311754 0.900923
O O13 0.000000 0.294315 0.968572
O O14 0.500000 0.375004 0.706830
O O15 0.359928 0.397270 0.696522
O O16 0.206877 0.000000 0.762629
O O17 0.266270 0.927627 0.971657
O O18 0.228571 0.877879 0.229864
O O19 0.278910 0.000000 0.217266
#
# Coordination Sequence:
#
# PCOD9358224 Si02
#       8
#     8   8   8   8   8   8   8   8
#     4  12  21  36  62  90 117 154 196 247 300 354
#     4  10  21  38  60  88 119 153 193 244 302 355
#     4  10  20  35  57  91 121 149 193 243 298 355
#     4  10  20  35  57  91 121 149 193 243 298 355
#     4  10  21  38  60  88 119 153 193 244 302 355
#     4  11  25  41  58  84 119 160 206 247 295 357
#     4  12  21  36  62  90 117 154 196 247 300 354
#     4  11  25  41  58  84 119 160 206 247 295 357
#
# _framework density 18.968402999999999
#
# number of rings (size 3 to 8) (size 9 to 14) (size 15 to 20)
#    0.000    1.250    5.000    0.750    3.500    1.000 
#    0.000    0.000    0.000    2.250    0.000    0.000 
#    0.000    0.000    0.000    0.000    0.000    0.000 
#
# Total GULP energy -178551.126977 kJ/mol
# GULP energy per Si atom -5579.722718 kJ/mol
# Density = 1.892523 g / cm^3
# Si number density = 18.968403 Si / 1000 Ang^3
#
#
#
# Elastic Constant Matrix: (Units=GPa)
#
#
# Indices 1 2 3 4 5 6 
#
# 1 128.5966 40.2935 -2.8979 0.0000 0.0000 0.0000
# 2 40.2935 113.4532 12.7075 0.0000 0.0000 0.0000
# 3 -2.8979 12.7075 28.2764 0.0000 0.0000 0.0000
# 4 0.0000 0.0000 0.0000 21.6762 0.0000 0.0000
# 5 0.0000 0.0000 0.0000 0.0000 27.8079 0.0000
# 6 0.0000 0.0000 0.0000 0.0000 0.0000 19.2736
#
#
#
# Elastic Compliance Matrix: (Units=1/GPa)
#
#
# Indices 1 2 3 4 5 6 
#
# 1 0.008909 -0.003440 0.002459 0.000000 0.000000 0.000000
# 2 -0.003440 0.010609 -0.005120 0.000000 0.000000 0.000000
# 3 0.002459 -0.005120 0.037918 0.000000 0.000000 0.000000
# 4 0.000000 0.000000 0.000000 0.046134 0.000000 0.000000
# 5 0.000000 0.000000 0.000000 0.000000 0.035961 0.000000
# 6 0.000000 0.000000 0.000000 0.000000 0.000000 0.051885
#
#
# Mechanical properties :
#
#
# Convention : Reuss Voigt Hill
#
# Bulk Modulus (GPa) = 22.10692 41.17027 31.63860
# Shear Modulus (GPa) = 22.86271 28.43306 25.64788
#
# Velocity S-wave (km/s) = 3.47552 3.87585 3.68113
# Velocity P-wave (km/s) = 5.27120 6.46386 5.89775
#
# Compressibility (1/GPa) = 0.04523470
#
# Stress axis : x y z
#
# Youngs Moduli (GPa) = 112.24080 94.25669 26.37252
#
# Poissons Ratio (x) = 0.32421 -0.06485
# Poissons Ratio (y) = 0.38607 0.13504
# Poissons Ratio (z) = -0.27598 0.48263
#
# Static dielectric constant tensor:
#      x y z
#    x 1.713930 0.000000 0.000000 
#    y 0.000000 1.648900 0.000000 
#    z 0.000000 0.000000 1.674220 
# 
# From -- ./inp_files/6835.got.cif
#   From: 2010.05.17/outbox.cif.g08.bks.cpg/sg38_4_cif.got.tgz:6835.got - 2010.06.03 18:07:57.
