data_PCOD9358194
_publ_section_title
;
Structure prediction by ZEFSAII (Michael W. Deem and Ramdas Pophale) SiO2 
 PCOD9358194
Probable space group: A M M 2
;
_chemical_formula_sum "Si O2"
_cell_formula_units_Z 30
_cell_length_a 7.223952
_cell_length_b 38.890053
_cell_length_c 5.076913
_cell_angle_alpha 90.000000
_cell_angle_beta 90.000000
_cell_angle_gamma 90.000000
_cell_volume 1426.307309
_symmetry_space_group_name_H-M "A M M 2"
_symmetry_group_IT_number 38
_symmetry_cell_setting 'orthorhombic'
loop_
_space_group_symop_operation_xyz
x,y,z
-x,-y,z
-x,y,z
x,-y,z
x,1/2+y,1/2+z
-x,1/2-y,1/2+z
-x,1/2+y,1/2+z
x,1/2-y,1/2+z
loop_
_atom_site_type_symbol
_atom_site_label
_atom_site_fract_x
_atom_site_fract_y
_atom_site_fract_z
Si Si1 0.500000 0.000000 0.883271
Si Si2 0.774630 0.729791 0.267697
Si Si3 0.224065 0.155445 0.963145
Si Si4 0.500000 0.552405 0.882838
Si Si5 0.777526 0.887085 0.461348
O O1 0.500000 0.970410 0.647132
O O2 0.500000 0.970244 0.118932
O O3 0.718868 0.758917 0.476904
O O4 0.711601 0.692777 0.369850
O O5 0.000000 0.728821 0.265295
O O6 0.275066 0.126856 0.748269
O O7 0.000000 0.157333 0.963247
O O8 0.276462 0.142209 0.250291
O O9 0.323497 0.577764 0.891546
O O10 0.000000 0.891250 0.451111
#
# Coordination Sequence:
#
# PCOD9358194 Si02
#       5
#     2   8   8   4   8
#     4  10  24  42  62  86 116 138 172 212 250 318
#     4   9  15  23  38  64 101 141 179 222 271 314
#     4   9  17  29  47  76 109 140 183 232 266 310
#     4  11  22  42  62  84 112 143 170 211 262 316
#     4  10  20  35  57  83 110 140 179 222 264 310
#
# _framework density 21.033335999999998
#
# number of rings (size 3 to 8) (size 9 to 14) (size 15 to 20)
#    0.000    2.400    0.000    3.200    0.000    6.400 
#    0.000    4.000    0.000    0.000    0.000   18.667 
#    0.000    0.000    0.000    0.000    0.000    0.000 
#
# Total GULP energy -83547.157591 kJ/mol
# GULP energy per Si atom -5569.810506 kJ/mol
# Density = 2.098546 g / cm^3
# Si number density = 21.033336 Si / 1000 Ang^3
#
#
#
# Elastic Constant Matrix: (Units=GPa)
#
#
# Indices 1 2 3 4 5 6 
#
# 1 94.8333 9.1000 -4.3896 0.0000 0.0000 0.0000
# 2 9.1000 79.1708 -14.4479 0.0000 0.0000 0.0000
# 3 -4.3896 -14.4479 90.3691 0.0000 0.0000 0.0000
# 4 0.0000 0.0000 0.0000 39.0917 0.0000 0.0000
# 5 0.0000 0.0000 0.0000 0.0000 -13.3567 0.0000
# 6 0.0000 0.0000 0.0000 0.0000 0.0000 -7.8491
#
#
#
# Elastic Compliance Matrix: (Units=1/GPa)
#
#
# Indices 1 2 3 4 5 6 
#
# 1 0.010672 -0.001166 0.000332 0.000000 0.000000 0.000000
# 2 -0.001166 0.013138 0.002044 0.000000 0.000000 0.000000
# 3 0.000332 0.002044 0.011409 0.000000 0.000000 0.000000
# 4 0.000000 0.000000 0.000000 0.025581 0.000000 0.000000
# 5 0.000000 0.000000 0.000000 0.000000 -0.074869 0.000000
# 6 0.000000 0.000000 0.000000 0.000000 0.000000 -0.127403
#
#
# Mechanical properties :
#
#
# Convention : Reuss Voigt Hill
#
# Bulk Modulus (GPa) = 26.56890 27.21090 26.88990
# Shear Modulus (GPa) = -38.06753 21.85122 -8.10816
#
# Velocity S-wave (km/s) = -4.25887 3.22667 -1.96552
# Velocity P-wave (km/s) = 3.39481 5.18141 2.76788
#
# Compressibility (1/GPa) = 0.03763799
#
# Stress axis : x y z
#
# Youngs Moduli (GPa) = 93.70240 76.11546 87.65304
#
# Poissons Ratio (x) = 0.08876 -0.02910
# Poissons Ratio (y) = 0.10927 -0.17915
# Poissons Ratio (z) = -0.03110 -0.15557
#
# Static dielectric constant tensor:
#      x y z
#    x 1.838850 0.000000 0.000000 
#    y 0.000000 1.710700 0.000000 
#    z 0.000000 0.000000 1.714050 
# 
# From -- ./inp_files/415.got.cif
#   From: 2010.05.17/outbox.cif.g08.bks.cpg/sg38_1_cif.got.tgz:415.got - 2010.06.03 18:07:57.
