data_PCOD9358167
_publ_section_title
;
Structure prediction by ZEFSAII (Michael W. Deem and Ramdas Pophale) SiO2 
 PCOD9358167
Probable space group: A M M 2
;
_chemical_formula_sum "Si O2"
_cell_formula_units_Z 58
_cell_length_a 25.972066
_cell_length_b 12.787505
_cell_length_c 8.001513
_cell_angle_alpha 90.000000
_cell_angle_beta 90.000000
_cell_angle_gamma 90.000000
_cell_volume 2657.445885
_symmetry_space_group_name_H-M "A M M 2"
_symmetry_group_IT_number 38
_symmetry_cell_setting 'orthorhombic'
loop_
_space_group_symop_operation_xyz
x,y,z
-x,-y,z
-x,y,z
x,-y,z
x,1/2+y,1/2+z
-x,1/2-y,1/2+z
-x,1/2+y,1/2+z
x,1/2-y,1/2+z
loop_
_atom_site_type_symbol
_atom_site_label
_atom_site_fract_x
_atom_site_fract_y
_atom_site_fract_z
Si Si1 0.786449 0.288678 0.718370
Si Si2 0.155729 0.115226 0.529140
Si Si3 0.061834 0.889767 0.941423
Si Si4 0.500000 0.500000 0.950621
Si Si5 0.938590 0.335740 0.819699
Si Si6 0.607403 0.617610 0.455523
Si Si7 0.272168 0.881228 0.912634
Si Si8 0.556996 0.319932 0.116978
O O1 0.829744 0.208203 0.653381
O O2 0.741807 0.210226 0.782735
O O3 0.765513 0.358636 0.568123
O O4 0.809204 0.357637 0.867066
O O5 0.097350 0.116867 0.461774
O O6 0.168301 0.000000 0.592490
O O7 0.072060 0.787635 0.835584
O O8 0.076149 0.874727 0.135639
O O9 0.000000 0.895534 0.943090
O O10 0.083179 0.000000 0.879165
O O11 0.544393 0.406743 0.975900
O O12 0.000000 0.353992 0.845097
O O13 0.591517 0.500000 0.509283
O O14 0.668769 0.627465 0.469960
O O15 0.591945 0.631342 0.261453
O O16 0.579849 0.712070 0.550945
O O17 0.265101 0.000000 0.850005
O O18 0.500000 0.301014 0.194398
#
# Coordination Sequence:
#
# PCOD9358167 Si02
#       8
#     8   8   8   2   8   8   8   8
#     4  10  22  40  58  84 111 144 186 231 287 345
#     4  11  22  37  59  81 111 146 183 225 277 340
#     4   9  18  34  53  73 105 142 175 213 261 310
#     4   8  20  36  58  78 124 172 196 232 284 328
#     4  10  20  35  56  83 111 144 183 224 269 328
#     4  11  21  38  60  89 115 153 198 244 293 339
#     4  10  21  38  63  85 114 145 186 242 292 337
#     4  10  20  37  58  80 124 162 196 236 278 334
#
# _framework density 21.825468000000001
#
# number of rings (size 3 to 8) (size 9 to 14) (size 15 to 20)
#    0.414    1.517    0.690    3.310    0.000    1.655 
#    1.241    6.207    3.034    8.276    0.000    0.000 
#    0.000    0.000    0.000    0.000    0.000    0.000 
#
# Total GULP energy -161701.194977 kJ/mol
# GULP energy per Si atom -5575.903275 kJ/mol
# Density = 2.177579 g / cm^3
# Si number density = 21.825468 Si / 1000 Ang^3
#
#
#
# Elastic Constant Matrix: (Units=GPa)
#
#
# Indices 1 2 3 4 5 6 
#
# 1 70.3695 37.9552 -0.6198 0.0000 0.0000 0.0000
# 2 37.9552 150.2809 9.5479 0.0000 0.0000 0.0000
# 3 -0.6198 9.5479 20.3499 0.0000 0.0000 0.0000
# 4 0.0000 0.0000 0.0000 49.1325 0.0000 0.0000
# 5 0.0000 0.0000 0.0000 0.0000 23.9737 0.0000
# 6 0.0000 0.0000 0.0000 0.0000 0.0000 37.5585
#
#
#
# Elastic Compliance Matrix: (Units=1/GPa)
#
#
# Indices 1 2 3 4 5 6 
#
# 1 0.016579 -0.004349 0.002545 0.000000 0.000000 0.000000
# 2 -0.004349 0.007999 -0.003886 0.000000 0.000000 0.000000
# 3 0.002545 -0.003886 0.051041 0.000000 0.000000 0.000000
# 4 0.000000 0.000000 0.000000 0.020353 0.000000 0.000000
# 5 0.000000 0.000000 0.000000 0.000000 0.041712 0.000000
# 6 0.000000 0.000000 0.000000 0.000000 0.000000 0.026625
#
#
# Mechanical properties :
#
#
# Convention : Reuss Voigt Hill
#
# Bulk Modulus (GPa) = 15.56643 37.19633 26.38138
# Shear Modulus (GPa) = 25.36759 35.07406 30.22083
#
# Velocity S-wave (km/s) = 3.41294 4.01312 3.72514
# Velocity P-wave (km/s) = 4.76221 6.20912 5.53316
#
# Compressibility (1/GPa) = 0.06424080
#
# Stress axis : x y z
#
# Youngs Moduli (GPa) = 60.31803 125.00865 19.59211
#
# Poissons Ratio (x) = 0.54365 -0.04987
# Poissons Ratio (y) = 0.26232 0.07613
# Poissons Ratio (z) = -0.15353 0.48575
#
# Static dielectric constant tensor:
#      x y z
#    x 1.808600 0.000000 0.000000 
#    y 0.000000 1.687680 0.000000 
#    z 0.000000 0.000000 1.798430 
# 
# From -- ./inp_files/7020.got.cif
#   From: 2010.05.17/outbox.cif.g08.bks.cpg/sg38_4_cif.got.tgz:7020.got - 2010.06.03 18:07:57.
