data_PCOD9358187
_publ_section_title
;
Structure prediction by ZEFSAII (Michael W. Deem and Ramdas Pophale) SiO2 
 PCOD9358187
Probable space group: A M M 2
;
_chemical_formula_sum "Si O2"
_cell_formula_units_Z 40
_cell_length_a 7.913752
_cell_length_b 9.093322
_cell_length_c 29.985132
_cell_angle_alpha 90.000000
_cell_angle_beta 90.000000
_cell_angle_gamma 90.000000
_cell_volume 2157.798920
_symmetry_space_group_name_H-M "A M M 2"
_symmetry_group_IT_number 38
_symmetry_cell_setting 'orthorhombic'
loop_
_space_group_symop_operation_xyz
x,y,z
-x,-y,z
-x,y,z
x,-y,z
x,1/2+y,1/2+z
-x,1/2-y,1/2+z
-x,1/2+y,1/2+z
x,1/2-y,1/2+z
loop_
_atom_site_type_symbol
_atom_site_label
_atom_site_fract_x
_atom_site_fract_y
_atom_site_fract_z
Si Si1 0.500000 0.320980 0.146590
Si Si2 0.796097 0.668829 0.804036
Si Si3 0.803196 0.677269 0.211149
Si Si4 0.500000 0.679449 0.044508
Si Si5 0.811949 0.676248 0.983318
Si Si6 0.300220 0.831124 0.894356
O O1 0.500000 0.500000 0.145674
O O2 0.331199 0.277488 0.173521
O O3 0.500000 0.269671 0.095545
O O4 0.738170 0.500000 0.803192
O O5 0.752231 0.751091 0.758214
O O6 0.730203 0.750832 0.847631
O O7 0.000000 0.669458 0.806701
O O8 0.796352 0.500000 0.215407
O O9 0.000000 0.716364 0.201527
O O10 0.500000 0.500000 0.045398
O O11 0.665765 0.725351 0.017046
O O12 0.795770 0.500000 0.977664
O O13 0.788541 0.749823 0.935275
O O14 0.000000 0.707178 0.000617
O O15 0.500000 0.828858 0.903799
O O16 0.243346 0.000000 0.891180
#
# Coordination Sequence:
#
# PCOD9358187 Si02
#       6
#     4   8   8   4   8   8
#     4   9  18  32  54  81 108 139 178 223 272 321
#     4  10  21  36  54  78 109 144 182 222 266 319
#     4   9  18  33  53  78 109 143 180 223 267 314
#     4   9  18  34  54  81 112 137 174 231 276 315
#     4  10  20  35  57  82 109 144 182 220 269 323
#     4  11  23  36  53  79 111 146 183 222 267 321
#
# _framework density 18.537407999999999
#
# number of rings (size 3 to 8) (size 9 to 14) (size 15 to 20)
#    0.000    2.200    1.000    1.800    1.400    6.000 
#    0.000    4.000    0.000    2.400    0.000    2.800 
#    0.000    0.000    0.000    0.000    0.000    0.000 
#
# Total GULP energy -111637.708942 kJ/mol
# GULP energy per Si atom -5581.885447 kJ/mol
# Density = 1.849522 g / cm^3
# Si number density = 18.537408 Si / 1000 Ang^3
#
#
#
# Elastic Constant Matrix: (Units=GPa)
#
#
# Indices 1 2 3 4 5 6 
#
# 1 113.9931 40.6521 86.5553 0.0000 0.0000 0.0000
# 2 40.6521 38.4926 40.8681 0.0000 0.0000 0.0000
# 3 86.5553 40.8681 162.4466 0.0000 0.0000 0.0000
# 4 0.0000 0.0000 0.0000 21.7935 0.0000 0.0000
# 5 0.0000 0.0000 0.0000 0.0000 1.2427 0.0000
# 6 0.0000 0.0000 0.0000 0.0000 0.0000 9.7102
#
#
#
# Elastic Compliance Matrix: (Units=1/GPa)
#
#
# Indices 1 2 3 4 5 6 
#
# 1 0.018102 -0.012112 -0.006598 0.000000 0.000000 0.000000
# 2 -0.012112 0.043552 -0.004503 0.000000 0.000000 0.000000
# 3 -0.006598 -0.004503 0.010804 0.000000 0.000000 0.000000
# 4 0.000000 0.000000 0.000000 0.045885 0.000000 0.000000
# 5 0.000000 0.000000 0.000000 0.000000 0.804723 0.000000
# 6 0.000000 0.000000 0.000000 0.000000 0.000000 0.102984
#
#
# Mechanical properties :
#
#
# Convention : Reuss Voigt Hill
#
# Bulk Modulus (GPa) = 38.41505 72.34258 55.37882
# Shear Modulus (GPa) = 4.62469 16.33975 10.48222
#
# Velocity S-wave (km/s) = 1.58120 2.97214 2.38053
# Velocity P-wave (km/s) = 4.90934 7.13359 6.12330
#
# Compressibility (1/GPa) = 0.02603146
#
# Stress axis : x y z
#
# Youngs Moduli (GPa) = 55.24369 22.96124 92.55684
#
# Poissons Ratio (x) = 0.27811 0.61067
# Poissons Ratio (y) = 0.66912 0.41678
# Poissons Ratio (z) = 0.36449 0.10339
#
# Static dielectric constant tensor:
#      x y z
#    x 1.662780 0.000000 0.000000 
#    y 0.000000 1.629180 0.000000 
#    z 0.000000 0.000000 1.594420 
# 
# From -- ./inp_files/23212.got.cif
#   From: 2010.05.17/outbox.cif.g08.bks.cpg/sg38_12_cif.got.tgz:23212.got - 2010.06.03 18:07:57.
