data_PCOD9358233
_publ_section_title
;
Structure prediction by ZEFSAII (Michael W. Deem and Ramdas Pophale) SiO2 
 PCOD9358233
Probable space group: A M M 2
;
_chemical_formula_sum "Si O2"
_cell_formula_units_Z 56
_cell_length_a 16.166646
_cell_length_b 30.137254
_cell_length_c 5.182109
_cell_angle_alpha 90.000000
_cell_angle_beta 90.000000
_cell_angle_gamma 90.000000
_cell_volume 2524.818425
_symmetry_space_group_name_H-M "A M M 2"
_symmetry_group_IT_number 38
_symmetry_cell_setting 'orthorhombic'
loop_
_space_group_symop_operation_xyz
x,y,z
-x,-y,z
-x,y,z
x,-y,z
x,1/2+y,1/2+z
-x,1/2-y,1/2+z
-x,1/2+y,1/2+z
x,1/2-y,1/2+z
loop_
_atom_site_type_symbol
_atom_site_label
_atom_site_fract_x
_atom_site_fract_y
_atom_site_fract_z
Si Si1 0.090428 0.048292 0.176350
Si Si2 0.818990 0.874717 0.429642
Si Si3 0.759166 0.047037 0.783060
Si Si4 0.408203 0.916091 0.791262
Si Si5 0.363163 0.134322 0.277644
Si Si6 0.170562 0.276025 0.076995
Si Si7 0.628537 0.226537 0.543806
O O1 0.108401 0.093940 0.323843
O O2 0.000000 0.051458 0.047842
O O3 0.088455 0.000000 0.318336
O O4 0.169024 0.045385 0.992148
O O5 0.778398 0.907757 0.636036
O O6 0.737914 0.864866 0.250804
O O7 0.849254 0.827701 0.535186
O O8 0.761859 0.000000 0.634632
O O9 0.666041 0.052199 0.881072
O O10 0.500000 0.934605 0.808956
O O11 0.399789 0.875940 0.997618
O O12 0.390896 0.901446 0.495030
O O13 0.391157 0.180095 0.408859
O O14 0.141208 0.254825 0.342910
O O15 0.271089 0.273537 0.069277
O O16 0.600810 0.263096 0.333669
#
# Coordination Sequence:
#
# PCOD9358233 Si02
#       7
#     8   8   8   8   8   8   8
#     4  10  21  38  62  94 129 163 206 262 323 387
#     4  10  20  35  63  88 127 166 210 255 325 375
#     4  10  22  39  61  92 127 166 215 264 317 385
#     4  11  22  38  59  84 118 164 210 259 309 365
#     4  10  20  35  58  85 117 157 207 257 308 373
#     4   9  19  31  54  90 124 158 208 258 303 371
#     4   9  16  28  49  79 112 148 194 251 312 369
#
# _framework density 22.179811999999998
#
# number of rings (size 3 to 8) (size 9 to 14) (size 15 to 20)
#    0.000    2.143    1.429    1.714    2.000    4.286 
#    0.000    1.429    0.000   11.143    0.000    0.000 
#    0.000    0.000    0.000    0.000    0.000    0.000 
#
# Total GULP energy -156014.956576 kJ/mol
# GULP energy per Si atom -5571.962735 kJ/mol
# Density = 2.212933 g / cm^3
# Si number density = 22.179812 Si / 1000 Ang^3
#
#
#
# Elastic Constant Matrix: (Units=GPa)
#
#
# Indices 1 2 3 4 5 6 
#
# 1 113.7004 20.5484 3.0920 0.0000 0.0000 0.0000
# 2 20.5484 104.3817 -13.9728 0.0000 0.0000 0.0000
# 3 3.0920 -13.9728 38.4558 0.0000 0.0000 0.0000
# 4 0.0000 0.0000 0.0000 30.8928 0.0000 0.0000
# 5 0.0000 0.0000 0.0000 0.0000 7.2382 0.0000
# 6 0.0000 0.0000 0.0000 0.0000 0.0000 -3.2957
#
#
#
# Elastic Compliance Matrix: (Units=1/GPa)
#
#
# Indices 1 2 3 4 5 6 
#
# 1 0.009198 -0.002007 -0.001469 0.000000 0.000000 0.000000
# 2 -0.002007 0.010508 0.003979 0.000000 0.000000 0.000000
# 3 -0.001469 0.003979 0.027568 0.000000 0.000000 0.000000
# 4 0.000000 0.000000 0.000000 0.032370 0.000000 0.000000
# 5 0.000000 0.000000 0.000000 0.000000 0.138156 0.000000
# 6 0.000000 0.000000 0.000000 0.000000 0.000000 -0.303425
#
#
# Mechanical properties :
#
#
# Convention : Reuss Voigt Hill
#
# Bulk Modulus (GPa) = 20.71236 30.65256 25.68246
# Shear Modulus (GPa) = -70.88277 23.42509 -23.72884
#
# Velocity S-wave (km/s) = -5.65929 3.25336 -3.27439
# Velocity P-wave (km/s) = 5.77450 5.28796 1.64047
#
# Compressibility (1/GPa) = 0.04828036
#
# Stress axis : x y z
#
# Youngs Moduli (GPa) = 108.72220 95.16491 36.27409
#
# Poissons Ratio (x) = 0.19102 0.05328
# Poissons Ratio (y) = 0.21824 -0.14435
# Poissons Ratio (z) = 0.15970 -0.37871
#
# Static dielectric constant tensor:
#      x y z
#    x 1.881030 0.000000 0.000000 
#    y 0.000000 1.869670 0.000000 
#    z 0.000000 0.000000 1.838840 
# 
# From -- ./inp_files/1415.got.cif
#   From: 2010.05.17/outbox.cif.g08.bks.cpg/sg38_1_cif.got.tgz:1415.got - 2010.06.03 18:07:57.
