data_PCOD9358433
_publ_section_title
;
Structure prediction by ZEFSAII (Michael W. Deem and Ramdas Pophale) SiO2 
 PCOD9358433
Probable space group: A M M 2
;
_chemical_formula_sum "Si O2"
_cell_formula_units_Z 40
_cell_length_a 11.767433
_cell_length_b 18.499493
_cell_length_c 9.307439
_cell_angle_alpha 90.000000
_cell_angle_beta 90.000000
_cell_angle_gamma 90.000000
_cell_volume 2026.150770
_symmetry_space_group_name_H-M "A M M 2"
_symmetry_group_IT_number 38
_symmetry_cell_setting 'orthorhombic'
loop_
_space_group_symop_operation_xyz
x,y,z
-x,-y,z
-x,y,z
x,-y,z
x,1/2+y,1/2+z
-x,1/2-y,1/2+z
-x,1/2+y,1/2+z
x,1/2-y,1/2+z
loop_
_atom_site_type_symbol
_atom_site_label
_atom_site_fract_x
_atom_site_fract_y
_atom_site_fract_z
Si Si1 0.292183 0.823654 0.500000
Si Si2 0.500000 0.920696 0.477398
Si Si3 0.278608 0.912811 0.980761
Si Si4 0.500000 0.082549 0.820136
Si Si5 0.638346 0.301601 0.709085
Si Si6 0.135154 0.915497 0.707788
O O1 0.382594 0.882711 0.444354
O O2 0.352029 0.767493 0.605330
O O3 0.281367 0.784028 0.347083
O O4 0.195347 0.864576 0.589482
O O5 0.500000 0.920103 0.650686
O O6 0.500000 0.000000 0.415593
O O7 0.385947 0.886879 0.884266
O O8 0.174352 0.898669 0.871664
O O9 0.279724 0.000000 0.006792
O O10 0.300456 0.868012 0.125194
O O11 0.500000 0.000000 0.871063
O O12 0.500000 0.311650 0.730429
O O13 0.000000 0.910945 0.695465
O O14 0.171231 0.000000 0.683220
#
# Coordination Sequence:
#
# PCOD9358433 Si02
#       6
#     8   4   8   4   8   8
#     4  12  24  39  58  90 126 165 207 252 308 368
#     4  11  20  32  58  89 119 156 201 251 305 370
#     4  10  20  36  61  93 126 160 203 249 302 366
#     4   9  16  28  54  87 118 150 187 239 296 354
#     4  12  24  39  59  93 131 169 199 249 316 378
#     4  10  22  43  68  90 119 164 213 258 304 360
#
# _framework density 19.741866999999999
#
# number of rings (size 3 to 8) (size 9 to 14) (size 15 to 20)
#    0.000    1.200    5.000    1.800    0.000    1.600 
#    0.000    5.000    0.000    2.400    0.000    0.000 
#    0.000    0.000    0.000    0.000    0.000    0.000 
#
# Total GULP energy -111378.099860 kJ/mol
# GULP energy per Si atom -5568.904993 kJ/mol
# Density = 1.969693 g / cm^3
# Si number density = 19.741867 Si / 1000 Ang^3
#
#
#
# Elastic Constant Matrix: (Units=GPa)
#
#
# Indices 1 2 3 4 5 6 
#
# 1 74.2897 29.4230 32.9389 0.0000 0.0000 0.0000
# 2 29.4230 78.1038 20.4906 0.0000 0.0000 0.0000
# 3 32.9389 20.4906 104.3484 0.0000 0.0000 0.0000
# 4 0.0000 0.0000 0.0000 34.2248 0.0000 0.0000
# 5 0.0000 0.0000 0.0000 0.0000 23.7242 0.0000
# 6 0.0000 0.0000 0.0000 0.0000 0.0000 28.2194
#
#
#
# Elastic Compliance Matrix: (Units=1/GPa)
#
#
# Indices 1 2 3 4 5 6 
#
# 1 0.017612 -0.005457 -0.004488 0.000000 0.000000 0.000000
# 2 -0.005457 0.015190 -0.001260 0.000000 0.000000 0.000000
# 3 -0.004488 -0.001260 0.011247 0.000000 0.000000 0.000000
# 4 0.000000 0.000000 0.000000 0.029219 0.000000 0.000000
# 5 0.000000 0.000000 0.000000 0.000000 0.042151 0.000000
# 6 0.000000 0.000000 0.000000 0.000000 0.000000 0.035437
#
#
# Mechanical properties :
#
#
# Convention : Reuss Voigt Hill
#
# Bulk Modulus (GPa) = 46.21336 46.93853 46.57595
# Shear Modulus (GPa) = 27.70403 28.82631 28.26517
#
# Velocity S-wave (km/s) = 3.75015 3.82535 3.78794
# Velocity P-wave (km/s) = 6.49701 6.58322 6.54026
#
# Compressibility (1/GPa) = 0.02163876
#
# Stress axis : x y z
#
# Youngs Moduli (GPa) = 56.77917 65.83295 88.90974
#
# Poissons Ratio (x) = 0.35928 0.39901
# Poissons Ratio (y) = 0.30987 0.11204
# Poissons Ratio (z) = 0.25481 0.08296
#
# Static dielectric constant tensor:
#      x y z
#    x 1.676690 0.000000 0.000000 
#    y 0.000000 1.788430 0.000000 
#    z 0.000000 0.000000 1.767280 
# 
# From -- ./inp_files/4497.got.cif
#   From: 2010.05.17/outbox.cif.g08.bks.cpg/sg38_3_cif.got.tgz:4497.got - 2010.06.03 18:07:57.
