data_PCOD9358384
_publ_section_title
;
Structure prediction by ZEFSAII (Michael W. Deem and Ramdas Pophale) SiO2 
 PCOD9358384
Probable space group: A M M 2
;
_chemical_formula_sum "Si O2"
_cell_formula_units_Z 34
_cell_length_a 13.182544
_cell_length_b 19.819078
_cell_length_c 5.337477
_cell_angle_alpha 90.000000
_cell_angle_beta 90.000000
_cell_angle_gamma 90.000000
_cell_volume 1394.500560
_symmetry_space_group_name_H-M "A M M 2"
_symmetry_group_IT_number 38
_symmetry_cell_setting 'orthorhombic'
loop_
_space_group_symop_operation_xyz
x,y,z
-x,-y,z
-x,y,z
x,-y,z
x,1/2+y,1/2+z
-x,1/2-y,1/2+z
-x,1/2+y,1/2+z
x,1/2-y,1/2+z
loop_
_atom_site_type_symbol
_atom_site_label
_atom_site_fract_x
_atom_site_fract_y
_atom_site_fract_z
Si Si1 0.000000 0.000000 0.089700
Si Si2 0.879556 0.791372 0.470002
Si Si3 0.379094 0.285761 0.169301
Si Si4 0.615545 0.076547 0.925113
Si Si5 0.192407 0.928123 0.286149
O O1 0.908094 0.942051 0.113858
O O2 0.856237 0.751174 0.721371
O O3 0.829558 0.864397 0.454567
O O4 0.000000 0.802831 0.470081
O O5 0.500000 0.274762 0.159765
O O6 0.340983 0.256583 0.908249
O O7 0.366768 0.364712 0.225123
O O8 0.500000 0.087785 0.028240
O O9 0.616891 0.000000 0.825561
O O10 0.705364 0.081204 0.127275
O O11 0.199356 0.000000 0.429661
#
# Coordination Sequence:
#
# PCOD9358384 Si02
#       5
#     2   8   8   8   8
#     4   8  16  32  58  82 116 154 202 240 300 362
#     4  10  20  36  59  89 121 155 199 252 303 354
#     4   9  18  34  56  82 115 154 195 239 290 349
#     4   9  18  33  55  85 117 155 199 247 297 353
#     4   9  17  34  58  81 118 157 198 243 298 362
#
# _framework density 24.381485999999999
#
# number of rings (size 3 to 8) (size 9 to 14) (size 15 to 20)
#    0.706    2.118    1.176    0.000    0.000    1.882 
#    0.000    2.353    0.000   18.353    0.000    0.000 
#    0.000    0.000    0.000    0.000    0.000    0.000 
#
# Total GULP energy -94818.717410 kJ/mol
# GULP energy per Si atom -5577.571612 kJ/mol
# Density = 2.432599 g / cm^3
# Si number density = 24.381486 Si / 1000 Ang^3
#
#
#
# Elastic Constant Matrix: (Units=GPa)
#
#
# Indices 1 2 3 4 5 6 
#
# 1 195.7011 64.7761 75.2002 0.0000 0.0000 0.0000
# 2 64.7761 133.4213 50.3102 0.0000 0.0000 0.0000
# 3 75.2002 50.3102 87.7244 0.0000 0.0000 0.0000
# 4 0.0000 0.0000 0.0000 -33.4649 0.0000 0.0000
# 5 0.0000 0.0000 0.0000 0.0000 32.2201 0.0000
# 6 0.0000 0.0000 0.0000 0.0000 0.0000 30.2982
#
#
#
# Elastic Compliance Matrix: (Units=1/GPa)
#
#
# Indices 1 2 3 4 5 6 
#
# 1 0.007889 -0.001633 -0.005826 0.000000 0.000000 0.000000
# 2 -0.001633 0.009901 -0.004278 0.000000 0.000000 0.000000
# 3 -0.005826 -0.004278 0.018847 0.000000 0.000000 0.000000
# 4 0.000000 0.000000 0.000000 -0.029882 0.000000 0.000000
# 5 0.000000 0.000000 0.000000 0.000000 0.031036 0.000000
# 6 0.000000 0.000000 0.000000 0.000000 0.000000 0.033005
#
#
# Mechanical properties :
#
#
# Convention : Reuss Voigt Hill
#
# Bulk Modulus (GPa) = 75.97472 88.60221 82.28847
# Shear Modulus (GPa) = 50.67881 20.91470 35.79675
#
# Velocity S-wave (km/s) = 4.56409 2.93202 3.83586
# Velocity P-wave (km/s) = 7.68134 6.91962 7.31041
#
# Compressibility (1/GPa) = 0.01316227
#
# Stress axis : x y z
#
# Youngs Moduli (GPa) = 126.75514 100.99709 53.05786
#
# Poissons Ratio (x) = 0.16496 0.30913
# Poissons Ratio (y) = 0.20703 0.22700
# Poissons Ratio (z) = 0.73850 0.43210
#
# Static dielectric constant tensor:
#      x y z
#    x 1.976690 0.000000 0.000000 
#    y 0.000000 1.919100 0.000000 
#    z 0.000000 0.000000 1.929460 
# 
# From -- ./inp_files/1127.got.cif
#   From: 2010.05.17/outbox.cif.g08.bks.cpg/sg38_1_cif.got.tgz:1127.got - 2010.06.03 18:07:57.
