data_PCOD9358998
_publ_section_title
;
Structure prediction by ZEFSAII (Michael W. Deem and Ramdas Pophale) SiO2 
 PCOD9358998
Probable space group: A M M 2
;
_chemical_formula_sum "Si O2"
_cell_formula_units_Z 40
_cell_length_a 16.981210
_cell_length_b 13.072782
_cell_length_c 8.442256
_cell_angle_alpha 90.000000
_cell_angle_beta 90.000000
_cell_angle_gamma 90.000000
_cell_volume 1874.110393
_symmetry_space_group_name_H-M "A M M 2"
_symmetry_group_IT_number 38
_symmetry_cell_setting 'orthorhombic'
loop_
_space_group_symop_operation_xyz
x,y,z
-x,-y,z
-x,y,z
x,-y,z
x,1/2+y,1/2+z
-x,1/2-y,1/2+z
-x,1/2+y,1/2+z
x,1/2-y,1/2+z
loop_
_atom_site_type_symbol
_atom_site_label
_atom_site_fract_x
_atom_site_fract_y
_atom_site_fract_z
Si Si1 0.829595 0.122348 0.938930
Si Si2 0.320343 0.256303 0.890457
Si Si3 0.592204 0.880428 0.659973
Si Si4 0.179046 0.377714 0.781649
Si Si5 0.910040 0.875319 0.606015
O O1 0.743203 0.170724 0.938041
O O2 0.872527 0.153704 0.775634
O O3 0.824426 0.000000 0.930334
O O4 0.864172 0.145625 0.114417
O O5 0.389644 0.193160 0.807774
O O6 0.265532 0.328048 0.781010
O O7 0.354170 0.330364 0.024207
O O8 0.500000 0.876633 0.618960
O O9 0.613061 0.000000 0.686988
O O10 0.186176 0.500000 0.788861
O O11 0.138019 0.346121 0.947522
O O12 0.000000 0.840189 0.594976
O O13 0.910979 0.000000 0.605131
#
# Coordination Sequence:
#
# PCOD9358998 Si02
#       5
#     8   8   8   8   8
#     4  10  21  37  61  92 123 164 220 270 320 387
#     4  12  21  42  67  90 130 170 214 272 325 390
#     4  11  25  43  66  99 134 171 215 266 332 401
#     4  10  21  37  61  92 123 164 220 270 320 387
#     4   9  19  37  61  90 128 171 212 267 335 386
#
# _framework density 21.343458999999999
#
# number of rings (size 3 to 8) (size 9 to 14) (size 15 to 20)
#    0.000    1.600    2.000    3.000    0.000    2.400 
#    0.000    5.000    0.000    4.800    0.000    0.000 
#    0.000    0.000    0.000    0.000    0.000    0.000 
#
# Total GULP energy -111627.563831 kJ/mol
# GULP energy per Si atom -5581.378192 kJ/mol
# Density = 2.129488 g / cm^3
# Si number density = 21.343459 Si / 1000 Ang^3
#
#
#
# Elastic Constant Matrix: (Units=GPa)
#
#
# Indices 1 2 3 4 5 6 
#
# 1 77.1834 19.8462 26.2876 0.0000 0.0000 0.0000
# 2 19.8462 105.2056 51.6873 0.0000 0.0000 0.0000
# 3 26.2876 51.6873 116.2719 0.0000 0.0000 0.0000
# 4 0.0000 0.0000 0.0000 45.8547 0.0000 0.0000
# 5 0.0000 0.0000 0.0000 0.0000 18.3545 0.0000
# 6 0.0000 0.0000 0.0000 0.0000 0.0000 31.4252
#
#
#
# Elastic Compliance Matrix: (Units=1/GPa)
#
#
# Indices 1 2 3 4 5 6 
#
# 1 0.014198 -0.001409 -0.002584 0.000000 0.000000 0.000000
# 2 -0.001409 0.012301 -0.005150 0.000000 0.000000 0.000000
# 3 -0.002584 -0.005150 0.011474 0.000000 0.000000 0.000000
# 4 0.000000 0.000000 0.000000 0.021808 0.000000 0.000000
# 5 0.000000 0.000000 0.000000 0.000000 0.054482 0.000000
# 6 0.000000 0.000000 0.000000 0.000000 0.000000 0.031822
#
#
# Mechanical properties :
#
#
# Convention : Reuss Voigt Hill
#
# Bulk Modulus (GPa) = 50.79120 54.92257 52.85688
# Shear Modulus (GPa) = 29.25118 32.51619 30.88369
#
# Velocity S-wave (km/s) = 3.70604 3.90740 3.80805
# Velocity P-wave (km/s) = 6.49321 6.79306 6.64483
#
# Compressibility (1/GPa) = 0.01968845
#
# Stress axis : x y z
#
# Youngs Moduli (GPa) = 70.43022 81.29379 87.15412
#
# Poissons Ratio (x) = 0.11455 0.22518
# Poissons Ratio (y) = 0.09924 0.44882
# Poissons Ratio (z) = 0.18197 0.41864
#
# Static dielectric constant tensor:
#      x y z
#    x 1.710680 0.000000 0.000000 
#    y 0.000000 1.797470 0.000000 
#    z 0.000000 0.000000 1.834340 
# 
# From -- ./inp_files/5230.got.cif
#   From: 2010.05.17/outbox.cif.g08.bks.cpg/sg38_3_cif.got.tgz:5230.got - 2010.06.03 18:07:57.
