data_PCOD9358138
_publ_section_title
;
Structure prediction by ZEFSAII (Michael W. Deem and Ramdas Pophale) SiO2 
 PCOD9358138
Probable space group: A M M 2
;
_chemical_formula_sum "Si O2"
_cell_formula_units_Z 48
_cell_length_a 11.079877
_cell_length_b 13.546226
_cell_length_c 17.679326
_cell_angle_alpha 90.000000
_cell_angle_beta 90.000000
_cell_angle_gamma 90.000000
_cell_volume 2653.499195
_symmetry_space_group_name_H-M "A M M 2"
_symmetry_group_IT_number 38
_symmetry_cell_setting 'orthorhombic'
loop_
_space_group_symop_operation_xyz
x,y,z
-x,-y,z
-x,y,z
x,-y,z
x,1/2+y,1/2+z
-x,1/2-y,1/2+z
-x,1/2+y,1/2+z
x,1/2-y,1/2+z
loop_
_atom_site_type_symbol
_atom_site_label
_atom_site_fract_x
_atom_site_fract_y
_atom_site_fract_z
Si Si1 0.358637 0.382537 0.525360
Si Si2 0.144093 0.383945 0.112828
Si Si3 0.641725 0.888714 0.323710
Si Si4 0.000000 0.887161 0.185101
Si Si5 0.000000 0.117987 0.366964
Si Si6 0.226516 0.204995 0.452847
Si Si7 0.745563 0.293986 0.675001
O O1 0.500000 0.370420 0.504027
O O2 0.331515 0.500000 0.524809
O O3 0.269988 0.315668 0.473378
O O4 0.340378 0.337976 0.609934
O O5 0.160880 0.500000 0.119890
O O6 0.227818 0.322016 0.169569
O O7 0.000000 0.364322 0.121185
O O8 0.188796 0.346793 0.030981
O O9 0.500000 0.891863 0.308994
O O10 0.665617 0.845788 0.406589
O O11 0.702325 0.826850 0.256971
O O12 0.692637 0.000000 0.320082
O O13 0.877247 0.838934 0.157232
O O14 0.000000 0.881279 0.276390
O O15 0.000000 0.000000 0.161895
O O16 0.885940 0.178462 0.398682
O O17 0.000000 0.000000 0.390635
#
# Coordination Sequence:
#
# PCOD9358138 Si02
#       7
#     8   8   8   4   4   8   8
#     4  10  22  40  59  80 113 156 193 231 281 333
#     4  10  20  35  55  81 114 149 182 219 276 342
#     4  11  22  36  57  85 114 146 188 237 284 330
#     4  11  20  31  53  87 119 146 176 231 295 344
#     4  11  20  33  57  87 123 150 174 227 299 348
#     4  11  21  35  59  85 113 147 188 232 278 341
#     4  11  21  35  57  84 113 146 188 234 281 339
#
# _framework density 18.089321000000002
#
# number of rings (size 3 to 8) (size 9 to 14) (size 15 to 20)
#    0.000    1.333    3.333    4.000    0.000    1.333 
#    0.000    2.083    0.000   13.000    0.000    0.000 
#    0.000    0.000    0.000    0.000    0.000    0.000 
#
# Total GULP energy -133840.007621 kJ/mol
# GULP energy per Si atom -5576.666984 kJ/mol
# Density = 1.804815 g / cm^3
# Si number density = 18.089321 Si / 1000 Ang^3
#
#
#
# Elastic Constant Matrix: (Units=GPa)
#
#
# Indices 1 2 3 4 5 6 
#
# 1 72.1935 42.1194 6.4297 0.0000 0.0000 0.0000
# 2 42.1194 146.3427 31.3430 0.0000 0.0000 0.0000
# 3 6.4297 31.3430 42.5899 0.0000 0.0000 0.0000
# 4 0.0000 0.0000 0.0000 23.8656 0.0000 0.0000
# 5 0.0000 0.0000 0.0000 0.0000 32.4301 0.0000
# 6 0.0000 0.0000 0.0000 0.0000 0.0000 30.1342
#
#
#
# Elastic Compliance Matrix: (Units=1/GPa)
#
#
# Indices 1 2 3 4 5 6 
#
# 1 0.016699 -0.005065 0.001206 0.000000 0.000000 0.000000
# 2 -0.005065 0.009648 -0.006335 0.000000 0.000000 0.000000
# 3 0.001206 -0.006335 0.027960 0.000000 0.000000 0.000000
# 4 0.000000 0.000000 0.000000 0.041901 0.000000 0.000000
# 5 0.000000 0.000000 0.000000 0.000000 0.030836 0.000000
# 6 0.000000 0.000000 0.000000 0.000000 0.000000 0.033185
#
#
# Mechanical properties :
#
#
# Convention : Reuss Voigt Hill
#
# Bulk Modulus (GPa) = 29.48191 46.76779 38.12485
# Shear Modulus (GPa) = 26.05214 29.36825 27.71019
#
# Velocity S-wave (km/s) = 3.79911 4.03366 3.91814
# Velocity P-wave (km/s) = 5.96470 6.89955 6.44908
#
# Compressibility (1/GPa) = 0.03391910
#
# Stress axis : x y z
#
# Youngs Moduli (GPa) = 59.88377 103.65041 35.76529
#
# Poissons Ratio (x) = 0.52494 -0.04314
# Poissons Ratio (y) = 0.30328 0.22659
# Poissons Ratio (z) = -0.07223 0.65668
#
# Static dielectric constant tensor:
#      x y z
#    x 1.655290 0.000000 0.000000 
#    y 0.000000 1.639670 0.000000 
#    z 0.000000 0.000000 1.605840 
# 
# From -- ./inp_files/20617.got.cif
#   From: 2010.05.17/outbox.cif.g08.bks.cpg/sg38_11_cif.got.tgz:20617.got - 2010.06.03 18:07:57.
