data_PCOD9358667
_publ_section_title
;
Structure prediction by ZEFSAII (Michael W. Deem and Ramdas Pophale) SiO2 
 PCOD9358667
Probable space group: A M M 2
;
_chemical_formula_sum "Si O2"
_cell_formula_units_Z 58
_cell_length_a 7.644417
_cell_length_b 15.328564
_cell_length_c 24.519465
_cell_angle_alpha 90.000000
_cell_angle_beta 90.000000
_cell_angle_gamma 90.000000
_cell_volume 2873.140282
_symmetry_space_group_name_H-M "A M M 2"
_symmetry_group_IT_number 38
_symmetry_cell_setting 'orthorhombic'
loop_
_space_group_symop_operation_xyz
x,y,z
-x,-y,z
-x,y,z
x,-y,z
x,1/2+y,1/2+z
-x,1/2-y,1/2+z
-x,1/2+y,1/2+z
x,1/2-y,1/2+z
loop_
_atom_site_type_symbol
_atom_site_label
_atom_site_fract_x
_atom_site_fract_y
_atom_site_fract_z
Si Si1 0.209358 0.401045 0.497930
Si Si2 0.500000 0.500000 0.160921
Si Si3 0.204050 0.650406 0.175467
Si Si4 0.210513 0.901088 0.352676
Si Si5 0.706795 0.263583 0.067309
Si Si6 0.294066 0.599816 0.374138
Si Si7 0.289675 0.599096 0.977417
Si Si8 0.798205 0.759722 0.785872
O O1 0.272614 0.500000 0.507643
O O2 0.267345 0.331885 0.542500
O O3 0.270371 0.374758 0.437244
O O4 0.000000 0.402292 0.496832
O O5 0.343534 0.575332 0.161926
O O6 0.206246 0.716923 0.124833
O O7 0.270057 0.698106 0.230475
O O8 0.000000 0.620948 0.183609
O O9 0.247669 0.875654 0.415353
O O10 0.281036 0.828353 0.311339
O O11 0.000000 0.903387 0.347587
O O12 0.276445 0.000000 0.344524
O O13 0.500000 0.278257 0.073697
O O14 0.774789 0.332717 0.022087
O O15 0.500000 0.599277 0.361699
O O16 0.227999 0.500000 0.368142
O O17 0.208964 0.667397 0.333077
O O18 0.500000 0.596699 0.981867
O O19 0.224861 0.500000 0.986583
O O20 0.000000 0.739421 0.773509
#
# Coordination Sequence:
#
# PCOD9358667 Si02
#       8
#     8   2   8   8   8   8   8   8
#     4  10  21  38  59  85 119 159 203 256 315 374
#     4  12  26  48  68  90 126 168 206 264 300 364
#     4  11  26  44  66  94 125 164 210 254 309 370
#     4   9  18  35  57  82 114 153 196 246 302 360
#     4  11  22  38  62  87 122 161 205 258 310 368
#     4  10  21  34  55  85 117 155 199 246 308 375
#     4   9  19  33  53  83 119 154 192 240 303 369
#     4  10  22  38  57  84 118 156 201 252 305 366
#
# _framework density 20.186971
#
# number of rings (size 3 to 8) (size 9 to 14) (size 15 to 20)
#    0.000    1.931    0.690    2.276    2.897    5.517 
#    0.000    0.690    0.000    2.483    0.000    0.000 
#    0.000    0.000    0.000    0.000    0.000    0.000 
#
# Total GULP energy -161668.624976 kJ/mol
# GULP energy per Si atom -5574.780172 kJ/mol
# Density = 2.014102 g / cm^3
# Si number density = 20.186971 Si / 1000 Ang^3
#
#
#
# Elastic Constant Matrix: (Units=GPa)
#
#
# Indices 1 2 3 4 5 6 
#
# 1 70.8320 6.3413 3.5007 0.0000 0.0000 0.0000
# 2 6.3413 95.9436 75.1519 0.0000 0.0000 0.0000
# 3 3.5007 75.1519 104.3290 0.0000 0.0000 0.0000
# 4 0.0000 0.0000 0.0000 34.5704 0.0000 0.0000
# 5 0.0000 0.0000 0.0000 0.0000 23.6056 0.0000
# 6 0.0000 0.0000 0.0000 0.0000 0.0000 32.7083
#
#
#
# Elastic Compliance Matrix: (Units=1/GPa)
#
#
# Indices 1 2 3 4 5 6 
#
# 1 0.014211 -0.001298 0.000458 0.000000 0.000000 0.000000
# 2 -0.001298 0.024037 -0.017271 0.000000 0.000000 0.000000
# 3 0.000458 -0.017271 0.022011 0.000000 0.000000 0.000000
# 4 0.000000 0.000000 0.000000 0.028926 0.000000 0.000000
# 5 0.000000 0.000000 0.000000 0.000000 0.042363 0.000000
# 6 0.000000 0.000000 0.000000 0.000000 0.000000 0.030573
#
#
# Mechanical properties :
#
#
# Convention : Reuss Voigt Hill
#
# Bulk Modulus (GPa) = 41.60255 49.01026 45.30641
# Shear Modulus (GPa) = 24.22996 30.58424 27.40710
#
# Velocity S-wave (km/s) = 3.46826 3.89659 3.68865
# Velocity P-wave (km/s) = 6.05738 6.67648 6.37445
#
# Compressibility (1/GPa) = 0.02403699
#
# Stress axis : x y z
#
# Youngs Moduli (GPa) = 70.36557 41.60264 45.43253
#
# Poissons Ratio (x) = 0.05402 -0.02083
# Poissons Ratio (y) = 0.09136 0.78467
# Poissons Ratio (z) = -0.03226 0.71852
#
# Static dielectric constant tensor:
#      x y z
#    x 1.750970 0.000000 0.000000 
#    y 0.000000 1.679560 0.000000 
#    z 0.000000 0.000000 1.691990 
# 
# From -- ./inp_files/22048.got.cif
#   From: 2010.05.17/outbox.cif.g08.bks.cpg/sg38_12_cif.got.tgz:22048.got - 2010.06.03 18:07:57.
