data_PCOD9358718
_publ_section_title
;
Structure prediction by ZEFSAII (Michael W. Deem and Ramdas Pophale) SiO2 
 PCOD9358718
Probable space group: A M M 2
;
_chemical_formula_sum "Si O2"
_cell_formula_units_Z 56
_cell_length_a 14.292271
_cell_length_b 9.390170
_cell_length_c 21.653547
_cell_angle_alpha 90.000000
_cell_angle_beta 90.000000
_cell_angle_gamma 90.000000
_cell_volume 2906.054429
_symmetry_space_group_name_H-M "A M M 2"
_symmetry_group_IT_number 38
_symmetry_cell_setting 'orthorhombic'
loop_
_space_group_symop_operation_xyz
x,y,z
-x,-y,z
-x,y,z
x,-y,z
x,1/2+y,1/2+z
-x,1/2-y,1/2+z
-x,1/2+y,1/2+z
x,1/2-y,1/2+z
loop_
_atom_site_type_symbol
_atom_site_label
_atom_site_fract_x
_atom_site_fract_y
_atom_site_fract_z
Si Si1 0.727555 0.829578 0.724310
Si Si2 0.607598 0.326894 0.342543
Si Si3 0.110161 0.331191 0.542606
Si Si4 0.613250 0.334064 0.479409
Si Si5 0.889422 0.167860 0.279833
Si Si6 0.716381 0.330580 0.087518
Si Si7 0.886640 0.158733 0.899781
O O1 0.665566 0.782704 0.782763
O O2 0.826279 0.751540 0.731548
O O3 0.683423 0.799718 0.657455
O O4 0.740757 0.000000 0.728336
O O5 0.500000 0.279790 0.336809
O O6 0.606736 0.500000 0.343417
O O7 0.643927 0.284988 0.410615
O O8 0.121892 0.500000 0.555619
O O9 0.179780 0.234631 0.581121
O O10 0.137640 0.309359 0.470431
O O11 0.000000 0.298303 0.550041
O O12 0.500000 0.328642 0.479542
O O13 0.640800 0.500000 0.487134
O O14 0.654793 0.243161 0.534843
O O15 0.862328 0.229254 0.347334
O O16 0.000000 0.194141 0.270843
O O17 0.873259 0.000000 0.276598
O O18 0.717826 0.500000 0.078772
O O19 0.000000 0.151205 0.900034
O O20 0.850869 0.000000 0.883355
#
# Coordination Sequence:
#
# PCOD9358718 Si02
#       7
#     8   8   8   8   8   8   8
#     4  10  22  38  56  81 113 152 194 231 274 332
#     4   8  16  35  63  88 106 134 184 236 275 323
#     4   9  19  36  57  79 107 150 200 242 280 333
#     4   9  19  38  64  89 111 141 186 238 287 340
#     4  10  21  35  52  78 113 150 187 233 286 333
#     4  11  24  37  53  84 122 155 187 234 293 341
#     4   8  15  30  52  76 100 133 182 233 278 327
#
# _framework density 19.270114
#
# number of rings (size 3 to 8) (size 9 to 14) (size 15 to 20)
#    0.000    2.714    0.000    2.571    2.000    4.286 
#    0.000    5.714    0.000    1.286    0.000    0.000 
#    0.000    0.000    0.000    0.000    0.000    0.000 
#
# Total GULP energy -156245.335718 kJ/mol
# GULP energy per Si atom -5580.190561 kJ/mol
# Density = 1.922625 g / cm^3
# Si number density = 19.270114 Si / 1000 Ang^3
#
#
#
# Elastic Constant Matrix: (Units=GPa)
#
#
# Indices 1 2 3 4 5 6 
#
# 1 63.5524 33.0670 55.7087 0.0000 0.0000 0.0000
# 2 33.0670 44.5076 63.4514 0.0000 0.0000 0.0000
# 3 55.7087 63.4514 156.4016 0.0000 0.0000 0.0000
# 4 0.0000 0.0000 0.0000 24.3673 0.0000 0.0000
# 5 0.0000 0.0000 0.0000 0.0000 20.7619 0.0000
# 6 0.0000 0.0000 0.0000 0.0000 0.0000 20.6408
#
#
#
# Elastic Compliance Matrix: (Units=1/GPa)
#
#
# Indices 1 2 3 4 5 6 
#
# 1 0.026405 -0.014727 -0.003430 0.000000 0.000000 0.000000
# 2 -0.014727 0.061502 -0.019706 0.000000 0.000000 0.000000
# 3 -0.003430 -0.019706 0.015610 0.000000 0.000000 0.000000
# 4 0.000000 0.000000 0.000000 0.041039 0.000000 0.000000
# 5 0.000000 0.000000 0.000000 0.000000 0.048165 0.000000
# 6 0.000000 0.000000 0.000000 0.000000 0.000000 0.048448
#
#
# Mechanical properties :
#
#
# Convention : Reuss Voigt Hill
#
# Bulk Modulus (GPa) = 35.98244 63.21287 49.59765
# Shear Modulus (GPa) = 15.32997 20.63631 17.98314
#
# Velocity S-wave (km/s) = 2.82358 3.27601 3.05817
# Velocity P-wave (km/s) = 5.41695 6.86909 6.18578
#
# Compressibility (1/GPa) = 0.02779133
#
# Stress axis : x y z
#
# Youngs Moduli (GPa) = 37.87211 16.25951 64.06066
#
# Poissons Ratio (x) = 0.23945 0.21976
# Poissons Ratio (y) = 0.55774 1.26236
# Poissons Ratio (z) = 0.12992 0.32041
#
# Static dielectric constant tensor:
#      x y z
#    x 1.704190 0.000000 0.000000 
#    y 0.000000 1.633240 0.000000 
#    z 0.000000 0.000000 1.693640 
# 
# From -- ./inp_files/21076.got.cif
#   From: 2010.05.17/outbox.cif.g08.bks.cpg/sg38_11_cif.got.tgz:21076.got - 2010.06.03 18:07:57.
