data_PCOD9358339
_publ_section_title
;
Structure prediction by ZEFSAII (Michael W. Deem and Ramdas Pophale) SiO2 
 PCOD9358339
Probable space group: A M M 2
;
_chemical_formula_sum "Si O2"
_cell_formula_units_Z 64
_cell_length_a 8.701461
_cell_length_b 25.521711
_cell_length_c 15.305965
_cell_angle_alpha 90.000000
_cell_angle_beta 90.000000
_cell_angle_gamma 90.000000
_cell_volume 3399.090130
_symmetry_space_group_name_H-M "A M M 2"
_symmetry_group_IT_number 38
_symmetry_cell_setting 'orthorhombic'
loop_
_space_group_symop_operation_xyz
x,y,z
-x,-y,z
-x,y,z
x,-y,z
x,1/2+y,1/2+z
-x,1/2-y,1/2+z
-x,1/2+y,1/2+z
x,1/2-y,1/2+z
loop_
_atom_site_type_symbol
_atom_site_label
_atom_site_fract_x
_atom_site_fract_y
_atom_site_fract_z
Si Si1 0.187187 0.439954 0.477790
Si Si2 0.319976 0.715674 0.324606
Si Si3 0.683463 0.560281 0.115358
Si Si4 0.182813 0.606296 0.290359
Si Si5 0.816721 0.861110 0.129328
Si Si6 0.182546 0.848283 0.497704
Si Si7 0.316362 0.165306 0.307201
Si Si8 0.680201 0.763540 0.031611
O O1 0.237843 0.500000 0.484784
O O2 0.233690 0.415194 0.385112
O O3 0.236769 0.404188 0.558778
O O4 0.000000 0.439504 0.478147
O O5 0.500000 0.706751 0.304715
O O6 0.223077 0.667780 0.287906
O O7 0.275676 0.773344 0.291580
O O8 0.303709 0.719406 0.429875
O O9 0.500000 0.565138 0.106943
O O10 0.726823 0.500000 0.097997
O O11 0.733611 0.576034 0.212912
O O12 0.763223 0.601159 0.050643
O O13 0.000000 0.598839 0.282042
O O14 0.738053 0.866374 0.223195
O O15 0.000000 0.864740 0.138837
O O16 0.771809 0.804895 0.089172
O O17 0.237856 0.851490 0.397333
O O18 0.259067 0.795657 0.537083
O O19 0.000000 0.842793 0.501340
O O20 0.500000 0.163143 0.318515
O O21 0.500000 0.765223 0.054590
#
# Coordination Sequence:
#
# PCOD9358339 Si02
#       8
#     8   8   8   8   8   8   8   8
#     4   9  19  36  57  84 121 160 197 243 299 351
#     4   9  19  35  55  81 117 159 198 236 292 360
#     4  11  25  44  64  87 119 159 203 251 305 368
#     4  11  21  35  59  89 122 159 199 249 300 354
#     4  11  21  35  58  89 121 158 207 255 299 352
#     4  11  23  41  65  91 118 152 201 256 305 361
#     4  10  22  40  60  85 122 164 199 246 308 366
#     4  10  20  36  58  85 122 161 195 239 300 365
#
# _framework density 18.828567
#
# number of rings (size 3 to 8) (size 9 to 14) (size 15 to 20)
#    0.000    1.750    1.250    4.125    1.750    4.000 
#    0.000    0.625    0.000    6.000    0.000    0.000 
#    0.000    0.000    0.000    0.000    0.000    0.000 
#
# Total GULP energy -178849.011551 kJ/mol
# GULP energy per Si atom -5589.031611 kJ/mol
# Density = 1.878571 g / cm^3
# Si number density = 18.828567 Si / 1000 Ang^3
#
#
#
# Elastic Constant Matrix: (Units=GPa)
#
#
# Indices 1 2 3 4 5 6 
#
# 1 36.0941 17.4923 1.1385 0.0000 0.0000 0.0000
# 2 17.4923 98.5493 43.1537 0.0000 0.0000 0.0000
# 3 1.1385 43.1537 68.8959 0.0000 0.0000 0.0000
# 4 0.0000 0.0000 0.0000 24.1494 0.0000 0.0000
# 5 0.0000 0.0000 0.0000 0.0000 30.7343 0.0000
# 6 0.0000 0.0000 0.0000 0.0000 0.0000 21.9154
#
#
#
# Elastic Compliance Matrix: (Units=1/GPa)
#
#
# Indices 1 2 3 4 5 6 
#
# 1 0.031115 -0.007300 0.004058 0.000000 0.000000 0.000000
# 2 -0.007300 0.015695 -0.009710 0.000000 0.000000 0.000000
# 3 0.004058 -0.009710 0.020530 0.000000 0.000000 0.000000
# 4 0.000000 0.000000 0.000000 0.041409 0.000000 0.000000
# 5 0.000000 0.000000 0.000000 0.000000 0.032537 0.000000
# 6 0.000000 0.000000 0.000000 0.000000 0.000000 0.045630
#
#
# Mechanical properties :
#
#
# Convention : Reuss Voigt Hill
#
# Bulk Modulus (GPa) = 24.13356 36.34536 30.23946
# Shear Modulus (GPa) = 22.06232 24.81014 23.43623
#
# Velocity S-wave (km/s) = 3.42679 3.63393 3.53188
# Velocity P-wave (km/s) = 5.33878 6.07886 5.72080
#
# Compressibility (1/GPa) = 0.04143608
#
# Stress axis : x y z
#
# Youngs Moduli (GPa) = 32.13870 63.71523 48.71026
#
# Poissons Ratio (x) = 0.46512 -0.19768
# Poissons Ratio (y) = 0.23461 0.47298
# Poissons Ratio (z) = -0.13042 0.61867
#
# Static dielectric constant tensor:
#      x y z
#    x 1.629220 0.000000 0.000000 
#    y 0.000000 1.632190 0.000000 
#    z 0.000000 0.000000 1.654110 
# 
# From -- ./inp_files/12707.got.cif
#   From: 2010.05.17/outbox.cif.g08.bks.cpg/sg38_7_cif.got.tgz:12707.got - 2010.06.03 18:07:57.
