data_PCOD9358683
_publ_section_title
;
Structure prediction by ZEFSAII (Michael W. Deem and Ramdas Pophale) SiO2 
 PCOD9358683
Probable space group: A M M 2
;
_chemical_formula_sum "Si O2"
_cell_formula_units_Z 64
_cell_length_a 8.104794
_cell_length_b 29.315528
_cell_length_c 14.661891
_cell_angle_alpha 90.000000
_cell_angle_beta 90.000000
_cell_angle_gamma 90.000000
_cell_volume 3483.611279
_symmetry_space_group_name_H-M "A M M 2"
_symmetry_group_IT_number 38
_symmetry_cell_setting 'orthorhombic'
loop_
_space_group_symop_operation_xyz
x,y,z
-x,-y,z
-x,y,z
x,-y,z
x,1/2+y,1/2+z
-x,1/2-y,1/2+z
-x,1/2+y,1/2+z
x,1/2-y,1/2+z
loop_
_atom_site_type_symbol
_atom_site_label
_atom_site_fract_x
_atom_site_fract_y
_atom_site_fract_z
Si Si1 0.801362 0.448262 0.573430
Si Si2 0.199034 0.698910 0.072969
Si Si3 0.201503 0.948013 0.578315
Si Si4 0.198920 0.372994 0.221816
Si Si5 0.303228 0.876046 0.930435
Si Si6 0.801722 0.624705 0.721087
Si Si7 0.798393 0.875601 0.428306
Si Si8 0.696789 0.196725 0.077958
O O1 0.738775 0.500000 0.575745
O O2 0.759360 0.421494 0.480887
O O3 0.739428 0.416543 0.656746
O O4 0.000000 0.449928 0.580431
O O5 0.254711 0.670710 0.162454
O O6 0.254224 0.750818 0.071888
O O7 0.000000 0.698404 0.073220
O O8 0.253080 0.669117 0.985413
O O9 0.253215 0.917862 0.665479
O O10 0.250482 0.919457 0.488520
O O11 0.000000 0.948867 0.578771
O O12 0.259563 0.000000 0.579550
O O13 0.252842 0.372641 0.325803
O O14 0.000000 0.372923 0.220159
O O15 0.500000 0.876284 0.935165
O O16 0.241543 0.833438 0.991933
O O17 0.739210 0.623539 0.824512
O O18 0.761307 0.671273 0.668164
O O19 0.000000 0.620620 0.725056
O O20 0.000000 0.875298 0.426704
O O21 0.500000 0.193875 0.079251
#
# Coordination Sequence:
#
# PCOD9358683 Si02
#       8
#     8   8   8   8   8   8   8   8
#     4   9  18  32  50  73 100 129 162 200 240 284
#     4   9  18  33  51  71  97 128 160 195 239 289
#     4   8  14  26  46  73 102 127 152 188 234 280
#     4   9  18  32  50  73  99 127 161 199 238 285
#     4  10  21  35  50  70  97 129 164 203 246 289
#     4   9  17  31  51  74  99 126 158 196 238 285
#     4   8  15  28  47  72  99 125 155 191 232 282
#     4  10  21  35  49  68  95 126 162 202 243 287
#
# _framework density 18.371739999999999
#
# number of rings (size 3 to 8) (size 9 to 14) (size 15 to 20)
#    0.000    3.000    0.000    2.250    0.000    4.250 
#    0.000    8.125    0.000    0.750    0.000    0.000 
#    0.000    0.000    0.000    0.000    0.000    0.000 
#
# Total GULP energy -178383.272381 kJ/mol
# GULP energy per Si atom -5574.477262 kJ/mol
# Density = 1.832993 g / cm^3
# Si number density = 18.371740 Si / 1000 Ang^3
#
#
#
# Elastic Constant Matrix: (Units=GPa)
#
#
# Indices 1 2 3 4 5 6 
#
# 1 9.6493 8.4110 10.4962 0.0000 0.0000 0.0000
# 2 8.4110 176.3305 90.9265 0.0000 0.0000 0.0000
# 3 10.4962 90.9265 178.6073 0.0000 0.0000 0.0000
# 4 0.0000 0.0000 0.0000 7.5342 0.0000 0.0000
# 5 0.0000 0.0000 0.0000 0.0000 0.6439 0.0000
# 6 0.0000 0.0000 0.0000 0.0000 0.0000 -3.1367
#
#
#
# Elastic Compliance Matrix: (Units=1/GPa)
#
#
# Indices 1 2 3 4 5 6 
#
# 1 0.111605 -0.002633 -0.005218 0.000000 0.000000 0.000000
# 2 -0.002633 0.007752 -0.003792 0.000000 0.000000 0.000000
# 3 -0.005218 -0.003792 0.007836 0.000000 0.000000 0.000000
# 4 0.000000 0.000000 0.000000 0.132727 0.000000 0.000000
# 5 0.000000 0.000000 0.000000 0.000000 1.553003 0.000000
# 6 0.000000 0.000000 0.000000 0.000000 0.000000 -0.318804
#
#
# Mechanical properties :
#
#
# Convention : Reuss Voigt Hill
#
# Bulk Modulus (GPa) = 9.62394 64.91718 37.27056
# Shear Modulus (GPa) = 3.22156 17.99185 10.60671
#
# Velocity S-wave (km/s) = 1.32565 3.13281 2.40539
# Velocity P-wave (km/s) = 2.75553 6.96405 5.29580
#
# Compressibility (1/GPa) = 0.10390749
#
# Stress axis : x y z
#
# Youngs Moduli (GPa) = 8.96015 128.99931 127.61849
#
# Poissons Ratio (x) = 0.33961 0.66597
# Poissons Ratio (y) = 0.02359 0.48389
# Poissons Ratio (z) = 0.04676 0.48913
#
# Static dielectric constant tensor:
#      x y z
#    x 1.645280 0.000000 0.000000 
#    y 0.000000 1.621140 0.000000 
#    z 0.000000 0.000000 1.622070 
# 
# From -- ./inp_files/13094.got.cif
#   From: 2010.05.17/outbox.cif.g08.bks.cpg/sg38_7_cif.got.tgz:13094.got - 2010.06.03 18:07:57.
