data_PCOD9358403
_publ_section_title
;
Structure prediction by ZEFSAII (Michael W. Deem and Ramdas Pophale) SiO2 
 PCOD9358403
Probable space group: A M M 2
;
_chemical_formula_sum "Si O2"
_cell_formula_units_Z 48
_cell_length_a 10.042823
_cell_length_b 24.186329
_cell_length_c 9.732320
_cell_angle_alpha 90.000000
_cell_angle_beta 90.000000
_cell_angle_gamma 90.000000
_cell_volume 2363.971002
_symmetry_space_group_name_H-M "A M M 2"
_symmetry_group_IT_number 38
_symmetry_cell_setting 'orthorhombic'
loop_
_space_group_symop_operation_xyz
x,y,z
-x,-y,z
-x,y,z
x,-y,z
x,1/2+y,1/2+z
-x,1/2-y,1/2+z
-x,1/2+y,1/2+z
x,1/2-y,1/2+z
loop_
_atom_site_type_symbol
_atom_site_label
_atom_site_fract_x
_atom_site_fract_y
_atom_site_fract_z
Si Si1 0.653547 0.435713 0.937450
Si Si2 0.641853 0.563647 0.334275
Si Si3 0.252139 0.561662 0.629399
Si Si4 0.843989 0.622462 0.144822
Si Si5 0.842786 0.767378 0.811278
Si Si6 0.156744 0.316823 0.600086
O O1 0.500000 0.423029 0.970881
O O2 0.679659 0.500000 0.976867
O O3 0.674342 0.433420 0.774299
O O4 0.757616 0.396089 0.014202
O O5 0.500000 0.589574 0.292635
O O6 0.640724 0.500000 0.290204
O O7 0.652473 0.563594 0.497958
O O8 0.771439 0.590677 0.269246
O O9 0.187020 0.500000 0.626598
O O10 0.167943 0.617251 0.610748
O O11 0.834664 0.685876 0.192564
O O12 0.000000 0.608734 0.128998
O O13 0.785600 0.713027 0.736549
O O14 0.000000 0.757602 0.838464
O O15 0.788025 0.791705 0.955652
O O16 0.000000 0.304168 0.599697
#
# Coordination Sequence:
#
# PCOD9358403 Si02
#       6
#     8   8   8   8   8   8
#     4  10  22  40  60  85 122 169 212 249 303 374
#     4  10  20  36  60  87 117 159 204 246 303 373
#     4  10  21  37  61  90 118 156 207 260 307 357
#     4  11  22  37  58  89 122 155 203 258 308 357
#     4   9  20  36  57  85 118 162 205 244 301 369
#     4  10  20  37  59  87 123 163 206 250 303 370
#
# _framework density 20.304818999999998
#
# number of rings (size 3 to 8) (size 9 to 14) (size 15 to 20)
#    0.000    2.000    1.667    1.500    2.333    5.667 
#    0.000    3.333    0.000    6.000    0.000    0.000 
#    0.000    0.000    0.000    0.000    0.000    0.000 
#
# Total GULP energy -133707.576041 kJ/mol
# GULP energy per Si atom -5571.149002 kJ/mol
# Density = 2.025860 g / cm^3
# Si number density = 20.304819 Si / 1000 Ang^3
#
#
#
# Elastic Constant Matrix: (Units=GPa)
#
#
# Indices 1 2 3 4 5 6 
#
# 1 67.6123 23.6117 22.6909 0.0000 0.0000 0.0000
# 2 23.6117 100.3551 38.2655 0.0000 0.0000 0.0000
# 3 22.6909 38.2655 135.2695 0.0000 0.0000 0.0000
# 4 0.0000 0.0000 0.0000 29.3792 0.0000 0.0000
# 5 0.0000 0.0000 0.0000 0.0000 33.1218 0.0000
# 6 0.0000 0.0000 0.0000 0.0000 0.0000 -114.8134
#
#
#
# Elastic Compliance Matrix: (Units=1/GPa)
#
#
# Indices 1 2 3 4 5 6 
#
# 1 0.016528 -0.003174 -0.001875 0.000000 0.000000 0.000000
# 2 -0.003174 0.011779 -0.002800 0.000000 0.000000 0.000000
# 3 -0.001875 -0.002800 0.008499 0.000000 0.000000 0.000000
# 4 0.000000 0.000000 0.000000 0.034038 0.000000 0.000000
# 5 0.000000 0.000000 0.000000 0.000000 0.030192 0.000000
# 6 0.000000 0.000000 0.000000 0.000000 0.000000 -0.008710
#
#
# Mechanical properties :
#
#
# Convention : Reuss Voigt Hill
#
# Bulk Modulus (GPa) = 47.37225 52.48589 49.92907
# Shear Modulus (GPa) = 43.45640 4.11546 23.78593
#
# Velocity S-wave (km/s) = 4.63125 1.42522 3.42635
# Velocity P-wave (km/s) = 7.20966 5.34915 6.34794
#
# Compressibility (1/GPa) = 0.02110941
#
# Stress axis : x y z
#
# Youngs Moduli (GPa) = 60.50440 84.89770 117.65978
#
# Poissons Ratio (x) = 0.26946 0.22057
# Poissons Ratio (y) = 0.19203 0.32941
# Poissons Ratio (z) = 0.11342 0.23768
#
# Static dielectric constant tensor:
#      x y z
#    x 1.690180 0.000000 0.000000 
#    y 0.000000 1.746630 0.000000 
#    z 0.000000 0.000000 1.785960 
# 
# From -- ./inp_files/4636.got.cif
#   From: 2010.05.17/outbox.cif.g08.bks.cpg/sg38_3_cif.got.tgz:4636.got - 2010.06.03 18:07:57.
