data_PCOD9358283
_publ_section_title
;
Structure prediction by ZEFSAII (Michael W. Deem and Ramdas Pophale) SiO2 
 PCOD9358283
Probable space group: A M M 2
;
_chemical_formula_sum "Si O2"
_cell_formula_units_Z 64
_cell_length_a 29.088352
_cell_length_b 8.558158
_cell_length_c 14.525589
_cell_angle_alpha 90.000000
_cell_angle_beta 90.000000
_cell_angle_gamma 90.000000
_cell_volume 3616.039525
_symmetry_space_group_name_H-M "A M M 2"
_symmetry_group_IT_number 38
_symmetry_cell_setting 'orthorhombic'
loop_
_space_group_symop_operation_xyz
x,y,z
-x,-y,z
-x,y,z
x,-y,z
x,1/2+y,1/2+z
-x,1/2-y,1/2+z
-x,1/2+y,1/2+z
x,1/2-y,1/2+z
loop_
_atom_site_type_symbol
_atom_site_label
_atom_site_fract_x
_atom_site_fract_y
_atom_site_fract_z
Si Si1 0.377512 0.188852 0.234540
Si Si2 0.699121 0.188408 0.380437
Si Si3 0.053606 0.187737 0.366742
Si Si4 0.804793 0.311763 0.866273
Si Si5 0.124490 0.813332 0.719818
Si Si6 0.370873 0.811273 0.024374
Si Si7 0.447481 0.311276 0.378846
Si Si8 0.876039 0.813277 0.012953
O O1 0.333227 0.237556 0.294964
O O2 0.374072 0.242192 0.129456
O O3 0.422110 0.251474 0.287503
O O4 0.379198 0.000000 0.235081
O O5 0.751748 0.238519 0.370073
O O6 0.674028 0.251250 0.471330
O O7 0.698688 0.000000 0.383539
O O8 0.080855 0.253220 0.278562
O O9 0.079568 0.254166 0.456232
O O10 0.000000 0.229393 0.365286
O O11 0.057864 0.000000 0.367139
O O12 0.806958 0.500000 0.864117
O O13 0.831456 0.246588 0.777359
O O14 0.832820 0.251784 0.954898
O O15 0.124072 0.748073 0.616794
O O16 0.124411 0.000000 0.718469
O O17 0.369828 0.000000 0.024120
O O18 0.415044 0.761084 0.963936
O O19 0.500000 0.257345 0.386402
O O20 0.447568 0.500000 0.377698
O O21 0.874965 0.000000 0.011779
#
# Coordination Sequence:
#
# PCOD9358283 Si02
#       8
#     8   8   8   8   8   8   8   8
#     4   9  18  33  51  73  99 129 167 206 249 300
#     4   9  19  34  52  75 104 134 165 208 255 302
#     4  10  21  38  59  83 111 142 178 221 266 313
#     4  10  20  36  55  78 109 141 176 219 265 312
#     4  11  22  37  57  81 110 143 179 219 265 316
#     4   9  18  32  51  73  99 132 168 207 248 299
#     4   9  18  32  48  69  98 130 165 207 254 300
#     4  11  22  37  57  80 108 142 180 222 266 314
#
# _framework density 17.698922
#
# number of rings (size 3 to 8) (size 9 to 14) (size 15 to 20)
#    0.000    2.250    0.000    4.500    0.000    4.750 
#    0.000    2.500    0.000    0.000    0.000    0.000 
#    0.000    0.000    0.000    0.000    0.000    0.000 
#
# Total GULP energy -178604.898551 kJ/mol
# GULP energy per Si atom -5581.403080 kJ/mol
# Density = 1.765864 g / cm^3
# Si number density = 17.698922 Si / 1000 Ang^3
#
#
#
# Elastic Constant Matrix: (Units=GPa)
#
#
# Indices 1 2 3 4 5 6 
#
# 1 162.3675 39.5735 73.7578 0.0000 0.0000 0.0000
# 2 39.5735 58.2092 34.2253 0.0000 0.0000 0.0000
# 3 73.7578 34.2253 166.6525 0.0000 0.0000 0.0000
# 4 0.0000 0.0000 0.0000 -95.6834 0.0000 0.0000
# 5 0.0000 0.0000 0.0000 0.0000 5.1614 0.0000
# 6 0.0000 0.0000 0.0000 0.0000 0.0000 27.7462
#
#
#
# Elastic Compliance Matrix: (Units=1/GPa)
#
#
# Indices 1 2 3 4 5 6 
#
# 1 0.008470 -0.004042 -0.002918 0.000000 0.000000 0.000000
# 2 -0.004042 0.021468 -0.002620 0.000000 0.000000 0.000000
# 3 -0.002918 -0.002620 0.007830 0.000000 0.000000 0.000000
# 4 0.000000 0.000000 0.000000 -0.010451 0.000000 0.000000
# 5 0.000000 0.000000 0.000000 0.000000 0.193745 0.000000
# 6 0.000000 0.000000 0.000000 0.000000 0.000000 0.036041
#
#
# Mechanical properties :
#
#
# Convention : Reuss Voigt Hill
#
# Bulk Modulus (GPa) = 53.74350 75.81582 64.77966
# Shear Modulus (GPa) = 17.70123 3.42301 10.56212
#
# Velocity S-wave (km/s) = 3.16591 1.39220 2.44553
# Velocity P-wave (km/s) = 6.61781 6.74638 6.68240
#
# Compressibility (1/GPa) = 0.01860690
#
# Stress axis : x y z
#
# Youngs Moduli (GPa) = 118.06610 46.58122 127.71055
#
# Poissons Ratio (x) = 0.18829 0.37272
# Poissons Ratio (y) = 0.47725 0.33458
# Poissons Ratio (z) = 0.34457 0.12203
#
# Static dielectric constant tensor:
#      x y z
#    x 1.591350 0.000000 0.000000 
#    y 0.000000 1.599930 0.000000 
#    z 0.000000 0.000000 1.578520 
# 
# From -- ./inp_files/15917.got.cif
#   From: 2010.05.17/outbox.cif.g08.bks.cpg/sg38_8_cif.got.tgz:15917.got - 2010.06.03 18:07:57.
