data_PCOD9358016
_publ_section_title
;
Structure prediction by ZEFSAII (Michael W. Deem and Ramdas Pophale) SiO2 
 PCOD9358016
Probable space group: A M M 2
;
_chemical_formula_sum "Si O2"
_cell_formula_units_Z 56
_cell_length_a 8.625793
_cell_length_b 14.583224
_cell_length_c 23.488536
_cell_angle_alpha 90.000000
_cell_angle_beta 90.000000
_cell_angle_gamma 90.000000
_cell_volume 2954.666902
_symmetry_space_group_name_H-M "A M M 2"
_symmetry_group_IT_number 38
_symmetry_cell_setting 'orthorhombic'
loop_
_space_group_symop_operation_xyz
x,y,z
-x,-y,z
-x,y,z
x,-y,z
x,1/2+y,1/2+z
-x,1/2-y,1/2+z
-x,1/2+y,1/2+z
x,1/2-y,1/2+z
loop_
_atom_site_type_symbol
_atom_site_label
_atom_site_fract_x
_atom_site_fract_y
_atom_site_fract_z
Si Si1 0.813575 0.294626 0.147610
Si Si2 0.175384 0.355320 0.493350
Si Si3 0.312660 0.893555 0.758739
Si Si4 0.685811 0.796897 0.876445
Si Si5 0.175377 0.642397 0.030096
Si Si6 0.684315 0.599926 0.611249
Si Si7 0.811611 0.400026 0.907536
O O1 0.755194 0.338648 0.205527
O O2 0.753096 0.353709 0.092909
O O3 0.760688 0.189344 0.139366
O O4 0.000000 0.296331 0.144829
O O5 0.248668 0.352091 0.430907
O O6 0.165769 0.248956 0.512279
O O7 0.273318 0.398674 0.544161
O O8 0.000000 0.391321 0.492195
O O9 0.500000 0.890679 0.755649
O O10 0.266773 0.845702 0.817991
O O11 0.264511 0.000000 0.757526
O O12 0.500000 0.795903 0.880259
O O13 0.745838 0.691850 0.879344
O O14 0.000000 0.605880 0.035569
O O15 0.246129 0.599358 0.973428
O O16 0.500000 0.607676 0.617633
O O17 0.734801 0.500000 0.634067
O O18 0.774197 0.500000 0.881980
O O19 0.000000 0.391456 0.909131
#
# Coordination Sequence:
#
# PCOD9358016 Si02
#       7
#     8   8   8   8   8   8   8
#     4  10  20  35  57  83 110 141 181 229 276 323
#     4   9  17  31  52  78 109 143 179 221 268 316
#     4  10  23  42  59  75 101 141 187 233 281 333
#     4  10  20  35  55  78 107 144 186 232 279 328
#     4   7  13  27  47  73 103 133 164 202 252 308
#     4  10  20  34  55  84 117 151 184 219 266 327
#     4   9  17  31  53  80 111 145 176 211 264 330
#
# _framework density 18.953067000000001
#
# number of rings (size 3 to 8) (size 9 to 14) (size 15 to 20)
#    0.000    2.714    0.000    3.429    0.000    4.000 
#    0.000    4.286    0.000    0.857    0.000    0.000 
#    0.000    0.000    0.000    0.000    0.000    0.000 
#
# Total GULP energy -156002.825563 kJ/mol
# GULP energy per Si atom -5571.529484 kJ/mol
# Density = 1.890993 g / cm^3
# Si number density = 18.953067 Si / 1000 Ang^3
#
#
#
# Elastic Constant Matrix: (Units=GPa)
#
#
# Indices 1 2 3 4 5 6 
#
# 1 32.9078 24.1151 29.4576 0.0000 0.0000 0.0000
# 2 24.1151 134.9529 64.4790 0.0000 0.0000 0.0000
# 3 29.4576 64.4790 141.6257 0.0000 0.0000 0.0000
# 4 0.0000 0.0000 0.0000 16.8787 0.0000 0.0000
# 5 0.0000 0.0000 0.0000 0.0000 26.9396 0.0000
# 6 0.0000 0.0000 0.0000 0.0000 0.0000 -46.9983
#
#
#
# Elastic Compliance Matrix: (Units=1/GPa)
#
#
# Indices 1 2 3 4 5 6 
#
# 1 0.038917 -0.003945 -0.006299 0.000000 0.000000 0.000000
# 2 -0.003945 0.009870 -0.003673 0.000000 0.000000 0.000000
# 3 -0.006299 -0.003673 0.010043 0.000000 0.000000 0.000000
# 4 0.000000 0.000000 0.000000 0.059246 0.000000 0.000000
# 5 0.000000 0.000000 0.000000 0.000000 0.037120 0.000000
# 6 0.000000 0.000000 0.000000 0.000000 0.000000 -0.021277
#
#
# Mechanical properties :
#
#
# Convention : Reuss Voigt Hill
#
# Bulk Modulus (GPa) = 32.26102 60.62110 46.44106
# Shear Modulus (GPa) = 29.05554 12.12630 20.59092
#
# Velocity S-wave (km/s) = 3.91964 2.53218 3.29966
# Velocity P-wave (km/s) = 6.12725 6.37209 6.25087
#
# Compressibility (1/GPa) = 0.03099716
#
# Stress axis : x y z
#
# Youngs Moduli (GPa) = 25.69577 101.31903 99.56986
#
# Poissons Ratio (x) = 0.39968 0.62715
# Poissons Ratio (y) = 0.10136 0.36572
# Poissons Ratio (z) = 0.16185 0.37215
#
# Static dielectric constant tensor:
#      x y z
#    x 1.656030 0.000000 0.000000 
#    y 0.000000 1.692270 0.000000 
#    z 0.000000 0.000000 1.657720 
# 
# From -- ./inp_files/19798.got.cif
#   From: 2010.05.17/outbox.cif.g08.bks.cpg/sg38_10_cif.got.tgz:19798.got - 2010.06.03 18:07:57.
