data_PCOD9358829
_publ_section_title
;
Structure prediction by ZEFSAII (Michael W. Deem and Ramdas Pophale) SiO2 
 PCOD9358829
Probable space group: A M M 2
;
_chemical_formula_sum "Si O2"
_cell_formula_units_Z 56
_cell_length_a 7.750979
_cell_length_b 25.082382
_cell_length_c 13.758886
_cell_angle_alpha 90.000000
_cell_angle_beta 90.000000
_cell_angle_gamma 90.000000
_cell_volume 2674.906526
_symmetry_space_group_name_H-M "A M M 2"
_symmetry_group_IT_number 38
_symmetry_cell_setting 'orthorhombic'
loop_
_space_group_symop_operation_xyz
x,y,z
-x,-y,z
-x,y,z
x,-y,z
x,1/2+y,1/2+z
-x,1/2-y,1/2+z
-x,1/2+y,1/2+z
x,1/2-y,1/2+z
loop_
_atom_site_type_symbol
_atom_site_label
_atom_site_fract_x
_atom_site_fract_y
_atom_site_fract_z
Si Si1 0.701120 0.162238 0.680860
Si Si2 0.708299 0.439195 0.687395
Si Si3 0.202665 0.941130 0.964228
Si Si4 0.289150 0.560248 0.066671
Si Si5 0.204443 0.774738 0.490852
Si Si6 0.798325 0.669377 0.392942
Si Si7 0.708667 0.622580 0.874028
O O1 0.500000 0.156067 0.703145
O O2 0.769470 0.104869 0.643466
O O3 0.718512 0.201900 0.589895
O O4 0.787900 0.181548 0.778999
O O5 0.500000 0.435373 0.680007
O O6 0.748653 0.500000 0.718245
O O7 0.781559 0.431589 0.579898
O O8 0.768844 0.398358 0.769743
O O9 0.000000 0.944201 0.939021
O O10 0.278611 0.000000 0.943707
O O11 0.278566 0.889185 0.912257
O O12 0.500000 0.560457 0.068435
O O13 0.231253 0.500000 0.084300
O O14 0.238286 0.581996 0.960213
O O15 0.275750 0.717984 0.455597
O O16 0.234447 0.819099 0.407663
O O17 0.000000 0.770539 0.506222
O O18 0.000000 0.666030 0.420221
O O19 0.500000 0.622402 0.872711
#
# Coordination Sequence:
#
# PCOD9358829 Si02
#       7
#     8   8   8   8   8   8   8
#     4  10  21  36  56  81 106 133 169 215 259 300
#     4   9  17  30  50  77 108 140 173 213 262 310
#     4   9  19  36  55  75 102 135 172 215 258 304
#     4   8  14  27  48  74 104 136 168 204 252 307
#     4  10  21  37  55  75 104 140 174 210 253 306
#     4  10  22  39  57  76 101 137 174 207 254 311
#     4   9  17  30  50  77 107 139 176 217 258 300
#
# _framework density 20.935310000000001
#
# number of rings (size 3 to 8) (size 9 to 14) (size 15 to 20)
#    0.000    2.714    0.000    2.143    0.000    5.714 
#    0.000    4.286    0.000   13.714    0.000    0.000 
#    0.000    0.000    0.000    0.000    0.000    0.000 
#
# Total GULP energy -156220.553707 kJ/mol
# GULP energy per Si atom -5579.305490 kJ/mol
# Density = 2.088766 g / cm^3
# Si number density = 20.935310 Si / 1000 Ang^3
#
#
#
# Elastic Constant Matrix: (Units=GPa)
#
#
# Indices 1 2 3 4 5 6 
#
# 1 32.4133 4.0372 -9.0795 0.0000 0.0000 0.0000
# 2 4.0372 148.8261 57.0732 0.0000 0.0000 0.0000
# 3 -9.0795 57.0732 52.8595 0.0000 0.0000 0.0000
# 4 0.0000 0.0000 0.0000 19.3364 0.0000 0.0000
# 5 0.0000 0.0000 0.0000 0.0000 23.2327 0.0000
# 6 0.0000 0.0000 0.0000 0.0000 0.0000 15.5284
#
#
#
# Elastic Compliance Matrix: (Units=1/GPa)
#
#
# Indices 1 2 3 4 5 6 
#
# 1 0.034895 -0.005538 0.011974 0.000000 0.000000 0.000000
# 2 -0.005538 0.012346 -0.014282 0.000000 0.000000 0.000000
# 3 0.011974 -0.014282 0.036395 0.000000 0.000000 0.000000
# 4 0.000000 0.000000 0.000000 0.051716 0.000000 0.000000
# 5 0.000000 0.000000 0.000000 0.000000 0.043043 0.000000
# 6 0.000000 0.000000 0.000000 0.000000 0.000000 0.064398
#
#
# Mechanical properties :
#
#
# Convention : Reuss Voigt Hill
#
# Bulk Modulus (GPa) = 14.71803 37.57342 26.14572
# Shear Modulus (GPa) = 17.78503 23.75735 20.77119
#
# Velocity S-wave (km/s) = 2.91782 3.37233 3.15328
# Velocity P-wave (km/s) = 4.28918 5.75759 5.07676
#
# Compressibility (1/GPa) = 0.06794389
#
# Stress axis : x y z
#
# Youngs Moduli (GPa) = 28.65704 80.99475 27.47612
#
# Poissons Ratio (x) = 0.44858 -0.32899
# Poissons Ratio (y) = 0.15871 0.39241
# Poissons Ratio (z) = -0.34313 1.15677
#
# Static dielectric constant tensor:
#      x y z
#    x 1.782480 0.000000 0.000000 
#    y 0.000000 1.775330 0.000000 
#    z 0.000000 0.000000 1.715380 
# 
# From -- ./inp_files/12422.got.cif
#   From: 2010.05.17/outbox.cif.g08.bks.cpg/sg38_7_cif.got.tgz:12422.got - 2010.06.03 18:07:57.
