data_PCOD9358571
_publ_section_title
;
Structure prediction by ZEFSAII (Michael W. Deem and Ramdas Pophale) SiO2 
 PCOD9358571
Probable space group: A M M 2
;
_chemical_formula_sum "Si O2"
_cell_formula_units_Z 48
_cell_length_a 8.470117
_cell_length_b 7.776434
_cell_length_c 39.272785
_cell_angle_alpha 90.000000
_cell_angle_beta 90.000000
_cell_angle_gamma 90.000000
_cell_volume 2586.792540
_symmetry_space_group_name_H-M "A M M 2"
_symmetry_group_IT_number 38
_symmetry_cell_setting 'orthorhombic'
loop_
_space_group_symop_operation_xyz
x,y,z
-x,-y,z
-x,y,z
x,-y,z
x,1/2+y,1/2+z
-x,1/2-y,1/2+z
-x,1/2+y,1/2+z
x,1/2-y,1/2+z
loop_
_atom_site_type_symbol
_atom_site_label
_atom_site_fract_x
_atom_site_fract_y
_atom_site_fract_z
Si Si1 0.190813 0.196069 0.136760
Si Si2 0.191133 0.000000 0.337264
Si Si3 0.690652 0.303348 0.462034
Si Si4 0.809103 0.303806 0.213204
Si Si5 0.311040 0.500000 0.089515
Si Si6 0.692988 0.000000 0.511505
Si Si7 0.809369 0.196804 0.886943
Si Si8 0.687191 0.000000 0.260503
O O1 0.240085 0.249979 0.174985
O O2 0.253547 0.332533 0.109822
O O3 0.000000 0.201705 0.136154
O O4 0.240893 0.000000 0.130012
O O5 0.242859 0.167988 0.358515
O O6 0.251143 0.000000 0.298970
O O7 0.000000 0.000000 0.336463
O O8 0.500000 0.301931 0.461525
O O9 0.742554 0.500000 0.468656
O O10 0.749550 0.253735 0.424459
O O11 0.743625 0.168229 0.490428
O O12 0.759361 0.500000 0.219957
O O13 0.000000 0.298421 0.213913
O O14 0.747253 0.167181 0.240179
O O15 0.500000 0.500000 0.089154
O O16 0.253733 0.500000 0.050496
O O17 0.500000 0.000000 0.511808
O O18 0.000000 0.198577 0.887644
O O19 0.757883 0.000000 0.880238
O O20 0.500000 0.000000 0.260545
#
# Coordination Sequence:
#
# PCOD9358571 Si02
#       8
#     8   4   8   8   4   4   8   4
#     4  10  20  38  62  83 107 142 187 233 278 336
#     4  10  21  37  55  75 107 149 189 219 263 334
#     4   9  17  31  53  77 102 139 184 223 263 321
#     4  10  20  39  65  84 104 143 190 230 274 337
#     4  11  23  36  54  84 119 151 187 235 288 336
#     4   9  19  34  50  73 109 149 183 217 265 330
#     4   9  18  33  54  80 107 136 177 229 276 318
#     4  12  26  39  55  86 123 149 179 233 290 334
#
# _framework density 18.555799
#
# number of rings (size 3 to 8) (size 9 to 14) (size 15 to 20)
#    0.000    2.167    1.667    1.500    0.000    3.333 
#    0.000    5.000    0.000    2.000    0.000    0.000 
#    0.000    0.000    0.000    0.000    0.000    0.000 
#
# Total GULP energy -133995.254099 kJ/mol
# GULP energy per Si atom -5583.135587 kJ/mol
# Density = 1.851357 g / cm^3
# Si number density = 18.555799 Si / 1000 Ang^3
#
#
#
# Elastic Constant Matrix: (Units=GPa)
#
#
# Indices 1 2 3 4 5 6 
#
# 1 9.6487 30.8377 25.8999 0.0000 0.0000 0.0000
# 2 30.8377 183.5645 132.6332 0.0000 0.0000 0.0000
# 3 25.8999 132.6332 202.6271 0.0000 0.0000 0.0000
# 4 0.0000 0.0000 0.0000 12.1668 0.0000 0.0000
# 5 0.0000 0.0000 0.0000 0.0000 30.5333 0.0000
# 6 0.0000 0.0000 0.0000 0.0000 0.0000 15.2749
#
#
#
# Elastic Compliance Matrix: (Units=1/GPa)
#
#
# Indices 1 2 3 4 5 6 
#
# 1 0.230121 -0.033025 -0.007797 0.000000 0.000000 0.000000
# 2 -0.033025 0.015076 -0.005647 0.000000 0.000000 0.000000
# 3 -0.007797 -0.005647 0.009628 0.000000 0.000000 0.000000
# 4 0.000000 0.000000 0.000000 0.082191 0.000000 0.000000
# 5 0.000000 0.000000 0.000000 0.000000 0.032751 0.000000
# 6 0.000000 0.000000 0.000000 0.000000 0.000000 0.065467
#
#
# Mechanical properties :
#
#
# Convention : Reuss Voigt Hill
#
# Bulk Modulus (GPa) = 6.17714 86.06465 46.12090
# Shear Modulus (GPa) = 8.58907 25.35962 16.97435
#
# Velocity S-wave (km/s) = 2.15379 3.70086 3.02780
# Velocity P-wave (km/s) = 3.08566 8.04637 6.09366
#
# Compressibility (1/GPa) = 0.16188710
#
# Stress axis : x y z
#
# Youngs Moduli (GPa) = 4.34553 66.33163 103.86358
#
# Poissons Ratio (x) = 2.19062 0.80983
# Poissons Ratio (y) = 0.14351 0.58650
# Poissons Ratio (z) = 0.03388 0.37456
#
# Static dielectric constant tensor:
#      x y z
#    x 1.635410 0.000000 0.000000 
#    y 0.000000 1.643210 0.000000 
#    z 0.000000 0.000000 1.602530 
# 
# From -- ./inp_files/24457.got.cif
#   From: 2010.05.17/outbox.cif.g08.bks.cpg/sg38_13_cif.got.tgz:24457.got - 2010.06.03 18:07:57.
