data_PCOD9358606
_publ_section_title
;
Structure prediction by ZEFSAII (Michael W. Deem and Ramdas Pophale) SiO2 
 PCOD9358606
Probable space group: A M M 2
;
_chemical_formula_sum "Si O2"
_cell_formula_units_Z 48
_cell_length_a 7.791292
_cell_length_b 35.299891
_cell_length_c 9.126639
_cell_angle_alpha 90.000000
_cell_angle_beta 90.000000
_cell_angle_gamma 90.000000
_cell_volume 2510.115572
_symmetry_space_group_name_H-M "A M M 2"
_symmetry_group_IT_number 38
_symmetry_cell_setting 'orthorhombic'
loop_
_space_group_symop_operation_xyz
x,y,z
-x,-y,z
-x,y,z
x,-y,z
x,1/2+y,1/2+z
-x,1/2-y,1/2+z
-x,1/2+y,1/2+z
x,1/2-y,1/2+z
loop_
_atom_site_type_symbol
_atom_site_label
_atom_site_fract_x
_atom_site_fract_y
_atom_site_fract_z
Si Si1 0.701256 0.151557 0.911160
Si Si2 0.292008 0.000000 0.900426
Si Si3 0.707446 0.925780 0.077942
Si Si4 0.201180 0.423088 0.915254
Si Si5 0.308195 0.653660 0.062778
Si Si6 0.203693 0.000000 0.560637
Si Si7 0.000000 0.791055 0.557388
Si Si8 0.000000 0.290457 0.409735
O O1 0.500000 0.159996 0.941692
O O2 0.716893 0.145279 0.735969
O O3 0.831428 0.185118 0.950741
O O4 0.750299 0.113130 0.994900
O O5 0.500000 0.000000 0.898039
O O6 0.231261 0.000000 0.733741
O O7 0.235122 0.962319 0.985779
O O8 0.500000 0.927395 0.087944
O O9 0.779307 0.926234 0.241278
O O10 0.000000 0.419568 0.953785
O O11 0.289182 0.385354 0.975332
O O12 0.272575 0.461335 0.989491
O O13 0.500000 0.668942 0.043408
O O14 0.165865 0.683923 0.017010
O O15 0.000000 0.000000 0.528847
O O16 0.000000 0.750403 0.482801
O O17 0.000000 0.786382 0.733450
#
# Coordination Sequence:
#
# PCOD9358606 Si02
#       8
#     8   4   8   8   8   4   4   4
#     4   9  20  38  60  86 115 152 196 237 286 346
#     4  10  21  38  58  80 112 154 203 245 283 344
#     4  10  21  36  55  84 116 150 195 243 292 342
#     4  11  22  36  55  84 119 153 195 242 290 344
#     4  10  20  39  63  85 116 154 192 240 288 340
#     4  10  23  38  54  80 116 154 197 243 287 340
#     4  10  22  40  58  91 116 149 192 232 283 356
#     4  10  22  38  62  85 120 151 188 234 287 344
#
# _framework density 19.122624999999999
#
# number of rings (size 3 to 8) (size 9 to 14) (size 15 to 20)
#    0.000    2.000    0.833    2.000    1.167    5.333 
#    0.000    0.000    0.000    0.000    0.000    0.000 
#    0.000    0.000    0.000    0.000    0.000    0.000 
#
# Total GULP energy -134086.070586 kJ/mol
# GULP energy per Si atom -5586.919608 kJ/mol
# Density = 1.907910 g / cm^3
# Si number density = 19.122625 Si / 1000 Ang^3
#
#
#
# Elastic Constant Matrix: (Units=GPa)
#
#
# Indices 1 2 3 4 5 6 
#
# 1 76.3850 64.9784 33.8837 0.0000 0.0000 0.0000
# 2 64.9784 180.3921 68.8564 0.0000 0.0000 0.0000
# 3 33.8837 68.8564 68.2854 0.0000 0.0000 0.0000
# 4 0.0000 0.0000 0.0000 42.8942 0.0000 0.0000
# 5 0.0000 0.0000 0.0000 0.0000 25.3359 0.0000
# 6 0.0000 0.0000 0.0000 0.0000 0.0000 -1.5537
#
#
#
# Elastic Compliance Matrix: (Units=1/GPa)
#
#
# Indices 1 2 3 4 5 6 
#
# 1 0.019602 -0.005443 -0.004238 0.000000 0.000000 0.000000
# 2 -0.005443 0.010524 -0.007911 0.000000 0.000000 0.000000
# 3 -0.004238 -0.007911 0.024724 0.000000 0.000000 0.000000
# 4 0.000000 0.000000 0.000000 0.023313 0.000000 0.000000
# 5 0.000000 0.000000 0.000000 0.000000 0.039470 0.000000
# 6 0.000000 0.000000 0.000000 0.000000 0.000000 -0.643627
#
#
# Mechanical properties :
#
#
# Convention : Reuss Voigt Hill
#
# Bulk Modulus (GPa) = 50.84896 73.38882 62.11889
# Shear Modulus (GPa) = -10.32513 23.82487 6.74987
#
# Velocity S-wave (km/s) = -2.32619 3.53356 1.88081
# Velocity P-wave (km/s) = 4.40838 7.42357 6.10505
#
# Compressibility (1/GPa) = 0.01966608
#
# Stress axis : x y z
#
# Youngs Moduli (GPa) = 51.01595 95.02373 40.44605
#
# Poissons Ratio (x) = 0.51722 0.17141
# Poissons Ratio (y) = 0.27768 0.31996
# Poissons Ratio (z) = 0.21620 0.75172
#
# Static dielectric constant tensor:
#      x y z
#    x 1.691040 0.000000 0.000000 
#    y 0.000000 1.625160 0.000000 
#    z 0.000000 0.000000 1.628870 
# 
# From -- ./inp_files/3862.got.cif
#   From: 2010.05.17/outbox.cif.g08.bks.cpg/sg38_2_cif.got.tgz:3862.got - 2010.06.03 18:07:57.
