data_PCOD9358179
_publ_section_title
;
Structure prediction by ZEFSAII (Michael W. Deem and Ramdas Pophale) SiO2 
 PCOD9358179
Probable space group: A M M 2
;
_chemical_formula_sum "Si O2"
_cell_formula_units_Z 64
_cell_length_a 9.865332
_cell_length_b 28.523908
_cell_length_c 12.295126
_cell_angle_alpha 90.000000
_cell_angle_beta 90.000000
_cell_angle_gamma 90.000000
_cell_volume 3459.821682
_symmetry_space_group_name_H-M "A M M 2"
_symmetry_group_IT_number 38
_symmetry_cell_setting 'orthorhombic'
loop_
_space_group_symop_operation_xyz
x,y,z
-x,-y,z
-x,y,z
x,-y,z
x,1/2+y,1/2+z
-x,1/2-y,1/2+z
-x,1/2+y,1/2+z
x,1/2-y,1/2+z
loop_
_atom_site_type_symbol
_atom_site_label
_atom_site_fract_x
_atom_site_fract_y
_atom_site_fract_z
Si Si1 0.837896 0.947255 0.468110
Si Si2 0.353839 0.151871 0.175947
Si Si3 0.845672 0.051046 0.987324
Si Si4 0.264254 0.948114 0.221598
Si Si5 0.159662 0.790658 0.315752
Si Si6 0.161799 0.656682 0.047086
Si Si7 0.659440 0.296712 0.236917
Si Si8 0.648808 0.131545 0.933797
O O1 0.801381 0.943361 0.340269
O O2 0.795682 0.898010 0.525084
O O3 0.000000 0.947967 0.478020
O O4 0.788968 0.000000 0.503941
O O5 0.500000 0.171539 0.212990
O O6 0.356433 0.096443 0.198815
O O7 0.221586 0.170765 0.234854
O O8 0.340175 0.159746 0.047201
O O9 0.761144 0.092235 0.936074
O O10 0.000000 0.054006 0.953045
O O11 0.790045 0.000000 0.957345
O O12 0.837346 0.053912 0.118804
O O13 0.328188 0.000000 0.217529
O O14 0.174014 0.813066 0.435771
O O15 0.255108 0.746515 0.287219
O O16 0.000000 0.780909 0.297673
O O17 0.257056 0.681610 0.135852
O O18 0.000000 0.657034 0.076481
O O19 0.500000 0.285977 0.210901
O O20 0.657913 0.335361 0.331377
O O21 0.500000 0.108957 0.936672
#
# Coordination Sequence:
#
# PCOD9358179 Si02
#       8
#     8   8   8   8   8   8   8   8
#     4   9  16  30  55  85 120 160 197 237 292 356
#     4  10  20  35  56  85 119 154 192 236 289 349
#     4   9  17  29  51  85 119 152 193 239 287 341
#     4   9  16  28  49  81 120 158 191 231 287 349
#     4  11  24  41  62  90 118 149 192 243 300 356
#     4  10  22  41  63  92 125 156 200 250 299 361
#     4  11  25  44  64  84 113 156 203 250 302 356
#     4   9  21  39  57  81 113 152 196 237 284 343
#
# _framework density 18.498063999999999
#
# number of rings (size 3 to 8) (size 9 to 14) (size 15 to 20)
#    0.000    2.250    1.250    1.125    1.750    6.000 
#    0.000    3.125    0.000    2.625    0.000    0.000 
#    0.000    0.000    0.000    0.000    0.000    0.000 
#
# Total GULP energy -178172.062121 kJ/mol
# GULP energy per Si atom -5567.876941 kJ/mol
# Density = 1.845596 g / cm^3
# Si number density = 18.498064 Si / 1000 Ang^3
#
#
#
# Elastic Constant Matrix: (Units=GPa)
#
#
# Indices 1 2 3 4 5 6 
#
# 1 104.2537 58.7407 46.7131 0.0000 0.0000 0.0000
# 2 58.7407 108.5230 43.1945 0.0000 0.0000 0.0000
# 3 46.7131 43.1945 66.2728 0.0000 0.0000 0.0000
# 4 0.0000 0.0000 0.0000 7.5728 0.0000 0.0000
# 5 0.0000 0.0000 0.0000 0.0000 -23.7010 0.0000
# 6 0.0000 0.0000 0.0000 0.0000 0.0000 42.8167
#
#
#
# Elastic Compliance Matrix: (Units=1/GPa)
#
#
# Indices 1 2 3 4 5 6 
#
# 1 0.016296 -0.005737 -0.007747 0.000000 0.000000 0.000000
# 2 -0.005737 0.014462 -0.005382 0.000000 0.000000 0.000000
# 3 -0.007747 -0.005382 0.024058 0.000000 0.000000 0.000000
# 4 0.000000 0.000000 0.000000 0.132052 0.000000 0.000000
# 5 0.000000 0.000000 0.000000 0.000000 -0.042192 0.000000
# 6 0.000000 0.000000 0.000000 0.000000 0.000000 0.023355
#
#
# Mechanical properties :
#
#
# Convention : Reuss Voigt Hill
#
# Bulk Modulus (GPa) = 58.53732 64.03846 61.28789
# Shear Modulus (GPa) = 23.64552 14.03113 18.83833
#
# Velocity S-wave (km/s) = 3.57917 2.75711 3.19469
# Velocity P-wave (km/s) = 6.98530 6.69550 6.84193
#
# Compressibility (1/GPa) = 0.01708312
#
# Stress axis : x y z
#
# Youngs Moduli (GPa) = 61.36630 69.14617 41.56686
#
# Poissons Ratio (x) = 0.39669 0.32202
# Poissons Ratio (y) = 0.35205 0.22372
# Poissons Ratio (z) = 0.47540 0.37216
#
# Static dielectric constant tensor:
#      x y z
#    x 1.696060 0.000000 0.000000 
#    y 0.000000 1.688410 0.000000 
#    z 0.000000 0.000000 1.620010 
# 
# From -- ./inp_files/8617.got.cif
#   From: 2010.05.17/outbox.cif.g08.bks.cpg/sg38_5_cif.got.tgz:8617.got - 2010.06.03 18:07:57.
