data_PCOD9358948
_publ_section_title
;
Structure prediction by ZEFSAII (Michael W. Deem and Ramdas Pophale) SiO2 
 PCOD9358948
Probable space group: A M M 2
;
_chemical_formula_sum "Si O2"
_cell_formula_units_Z 56
_cell_length_a 17.426481
_cell_length_b 17.624305
_cell_length_c 9.771433
_cell_angle_alpha 90.000000
_cell_angle_beta 90.000000
_cell_angle_gamma 90.000000
_cell_volume 3001.096467
_symmetry_space_group_name_H-M "A M M 2"
_symmetry_group_IT_number 38
_symmetry_cell_setting 'orthorhombic'
loop_
_space_group_symop_operation_xyz
x,y,z
-x,-y,z
-x,y,z
x,-y,z
x,1/2+y,1/2+z
-x,1/2-y,1/2+z
-x,1/2+y,1/2+z
x,1/2-y,1/2+z
loop_
_atom_site_type_symbol
_atom_site_label
_atom_site_fract_x
_atom_site_fract_y
_atom_site_fract_z
Si Si1 0.590558 0.409606 0.590130
Si Si2 0.910072 0.190888 0.229651
Si Si3 0.248235 0.411890 0.087072
Si Si4 0.906450 0.833085 0.546711
Si Si5 0.293864 0.661036 0.367723
Si Si6 0.807516 0.590401 0.586820
Si Si7 0.308785 0.660108 0.811046
O O1 0.500000 0.402662 0.567226
O O2 0.609733 0.500000 0.598448
O O3 0.638687 0.371503 0.466091
O O4 0.615080 0.367771 0.731328
O O5 0.888257 0.187328 0.388660
O O6 0.882041 0.263605 0.145025
O O7 0.889242 0.116079 0.143688
O O8 0.000000 0.199722 0.231390
O O9 0.261145 0.500000 0.083636
O O10 0.156108 0.396808 0.082837
O O11 0.286297 0.378326 0.222295
O O12 0.289687 0.376290 0.955926
O O13 0.000000 0.847682 0.558106
O O14 0.217747 0.635226 0.451341
O O15 0.303279 0.750031 0.336834
O O16 0.798737 0.500000 0.573169
O O17 0.754285 0.626776 0.705466
#
# Coordination Sequence:
#
# PCOD9358948 Si02
#       7
#     8   8   8   8   8   8   8
#     4  10  22  43  67  90 122 161 194 234 296 363
#     4  10  21  37  58  83 115 158 206 255 306 361
#     4  12  23  36  58  90 121 153 197 254 303 345
#     4  10  22  38  57  84 119 161 204 250 307 360
#     4  11  23  40  61  88 121 160 198 240 289 355
#     4  11  22  38  58  85 119 157 200 248 299 357
#     4  11  21  38  63  88 117 152 199 244 288 349
#
# _framework density 18.659848
#
# number of rings (size 3 to 8) (size 9 to 14) (size 15 to 20)
#    0.000    1.286    1.429    6.857    2.000    1.143 
#    0.000    2.143    0.000    4.286    0.000    0.000 
#    0.000    0.000    0.000    0.000    0.000    0.000 
#
# Total GULP energy -156127.819102 kJ/mol
# GULP energy per Si atom -5575.993539 kJ/mol
# Density = 1.861738 g / cm^3
# Si number density = 18.659848 Si / 1000 Ang^3
#
#
#
# Elastic Constant Matrix: (Units=GPa)
#
#
# Indices 1 2 3 4 5 6 
#
# 1 29.6280 30.6470 34.0158 0.0000 0.0000 0.0000
# 2 30.6470 182.7283 72.4293 0.0000 0.0000 0.0000
# 3 34.0158 72.4293 143.3808 0.0000 0.0000 0.0000
# 4 0.0000 0.0000 0.0000 30.6831 0.0000 0.0000
# 5 0.0000 0.0000 0.0000 0.0000 25.7580 0.0000
# 6 0.0000 0.0000 0.0000 0.0000 0.0000 22.9436
#
#
#
# Elastic Compliance Matrix: (Units=1/GPa)
#
#
# Indices 1 2 3 4 5 6 
#
# 1 0.049218 -0.004534 -0.009386 0.000000 0.000000 0.000000
# 2 -0.004534 0.007260 -0.002592 0.000000 0.000000 0.000000
# 3 -0.009386 -0.002592 0.010510 0.000000 0.000000 0.000000
# 4 0.000000 0.000000 0.000000 0.032591 0.000000 0.000000
# 5 0.000000 0.000000 0.000000 0.000000 0.038823 0.000000
# 6 0.000000 0.000000 0.000000 0.000000 0.000000 0.043585
#
#
# Mechanical properties :
#
#
# Convention : Reuss Voigt Hill
#
# Bulk Modulus (GPa) = 29.44245 69.99127 49.71686
# Shear Modulus (GPa) = 22.09116 30.45326 26.27221
#
# Velocity S-wave (km/s) = 3.44450 4.04421 3.75634
# Velocity P-wave (km/s) = 5.62425 7.70701 6.74649
#
# Compressibility (1/GPa) = 0.03396457
#
# Stress axis : x y z
#
# Youngs Moduli (GPa) = 20.31763 137.73171 95.14296
#
# Poissons Ratio (x) = 0.62454 0.89301
# Poissons Ratio (y) = 0.09213 0.24660
# Poissons Ratio (z) = 0.19070 0.35699
#
# Static dielectric constant tensor:
#      x y z
#    x 1.721910 0.000000 0.000000 
#    y 0.000000 1.650310 0.000000 
#    z 0.000000 0.000000 1.645500 
# 
# From -- ./inp_files/6735.got.cif
#   From: 2010.05.17/outbox.cif.g08.bks.cpg/sg38_4_cif.got.tgz:6735.got - 2010.06.03 18:07:57.
