data_PCOD9358879
_publ_section_title
;
Structure prediction by ZEFSAII (Michael W. Deem and Ramdas Pophale) SiO2 
 PCOD9358879
Probable space group: A M M 2
;
_chemical_formula_sum "Si O2"
_cell_formula_units_Z 64
_cell_length_a 20.357130
_cell_length_b 8.410072
_cell_length_c 20.959002
_cell_angle_alpha 90.000000
_cell_angle_beta 90.000000
_cell_angle_gamma 90.000000
_cell_volume 3588.284450
_symmetry_space_group_name_H-M "A M M 2"
_symmetry_group_IT_number 38
_symmetry_cell_setting 'orthorhombic'
loop_
_space_group_symop_operation_xyz
x,y,z
-x,-y,z
-x,y,z
x,-y,z
x,1/2+y,1/2+z
-x,1/2-y,1/2+z
-x,1/2+y,1/2+z
x,1/2-y,1/2+z
loop_
_atom_site_type_symbol
_atom_site_label
_atom_site_fract_x
_atom_site_fract_y
_atom_site_fract_z
Si Si1 0.326591 0.807689 0.589380
Si Si2 0.675042 0.811275 0.230996
Si Si3 0.176145 0.193767 0.588223
Si Si4 0.075409 0.692272 0.980527
Si Si5 0.424330 0.307763 0.978320
Si Si6 0.075391 0.692179 0.339501
Si Si7 0.424274 0.190358 0.837912
Si Si8 0.177634 0.692274 0.232811
O O1 0.343430 0.749746 0.660316
O O2 0.251437 0.758006 0.575229
O O3 0.376618 0.753142 0.534856
O O4 0.327635 0.000000 0.590551
O O5 0.623529 0.754762 0.283733
O O6 0.748050 0.746365 0.245637
O O7 0.677529 0.000000 0.230076
O O8 0.125034 0.249340 0.535097
O O9 0.159904 0.243472 0.660646
O O10 0.174821 0.000000 0.587388
O O11 0.076331 0.500000 0.980483
O O12 0.094201 0.750293 0.910059
O O13 0.000000 0.743055 0.992542
O O14 0.500000 0.258002 0.989373
O O15 0.422859 0.500000 0.977108
O O16 0.404187 0.246871 0.908591
O O17 0.075838 0.500000 0.339201
O O18 0.125894 0.748401 0.285555
O O19 0.000000 0.743921 0.327384
O O20 0.500000 0.243945 0.828042
O O21 0.423267 0.000000 0.836211
O O22 0.177259 0.500000 0.233243
#
# Coordination Sequence:
#
# PCOD9358879 Si02
#       8
#     8   8   8   8   8   8   8   8
#     4   9  18  34  53  73 101 135 169 207 253 304
#     4  11  22  35  53  77 105 136 173 217 258 301
#     4   8  15  29  48  68  91 122 162 203 240 284
#     4   9  17  29  46  69  97 128 162 201 245 295
#     4   9  18  33  53  77 104 133 167 208 252 299
#     4   9  18  32  50  73 100 130 165 206 252 301
#     4  10  21  37  56  77 104 138 173 210 255 307
#     4   9  18  34  53  72  98 132 169 210 255 303
#
# _framework density 17.835819999999998
#
# number of rings (size 3 to 8) (size 9 to 14) (size 15 to 20)
#    0.000    2.750    0.000    2.250    0.000    3.750 
#    0.000    7.500    0.000    0.000    0.000    3.500 
#    0.000    0.000    0.000    0.000    0.000    0.000 
#
# Total GULP energy -178451.530977 kJ/mol
# GULP energy per Si atom -5576.610343 kJ/mol
# Density = 1.779523 g / cm^3
# Si number density = 17.835820 Si / 1000 Ang^3
#
#
#
# Elastic Constant Matrix: (Units=GPa)
#
#
# Indices 1 2 3 4 5 6 
#
# 1 117.6585 19.4419 137.1541 0.0000 0.0000 0.0000
# 2 19.4419 12.6702 23.7522 0.0000 0.0000 0.0000
# 3 137.1541 23.7522 191.6826 0.0000 0.0000 0.0000
# 4 0.0000 0.0000 0.0000 29.6611 0.0000 0.0000
# 5 0.0000 0.0000 0.0000 0.0000 45.3469 0.0000
# 6 0.0000 0.0000 0.0000 0.0000 0.0000 14.3222
#
#
#
# Elastic Compliance Matrix: (Units=1/GPa)
#
#
# Indices 1 2 3 4 5 6 
#
# 1 0.052894 -0.013304 -0.036199 0.000000 0.000000 0.000000
# 2 -0.013304 0.106153 -0.003634 0.000000 0.000000 0.000000
# 3 -0.036199 -0.003634 0.031568 0.000000 0.000000 0.000000
# 4 0.000000 0.000000 0.000000 0.033714 0.000000 0.000000
# 5 0.000000 0.000000 0.000000 0.000000 0.022052 0.000000
# 6 0.000000 0.000000 0.000000 0.000000 0.000000 0.069822
#
#
# Mechanical properties :
#
#
# Convention : Reuss Voigt Hill
#
# Bulk Modulus (GPa) = 11.85662 75.85640 43.85651
# Shear Modulus (GPa) = 11.09653 27.31025 19.20339
#
# Velocity S-wave (km/s) = 2.49700 3.91730 3.28483
# Velocity P-wave (km/s) = 3.86981 7.94248 6.24734
#
# Compressibility (1/GPa) = 0.08434109
#
# Stress axis : x y z
#
# Youngs Moduli (GPa) = 18.90565 9.42040 31.67720
#
# Poissons Ratio (x) = 0.12533 1.14667
# Poissons Ratio (y) = 0.25152 0.11513
# Poissons Ratio (z) = 0.68436 0.03424
#
# Static dielectric constant tensor:
#      x y z
#    x 1.604320 0.000000 0.000000 
#    y 0.000000 1.616720 0.000000 
#    z 0.000000 0.000000 1.585730 
# 
# From -- ./inp_files/18878.got.cif
#   From: 2010.05.17/outbox.cif.g08.bks.cpg/sg38_10_cif.got.tgz:18878.got - 2010.06.03 18:07:57.
