data_PCOD9358696
_publ_section_title
;
Structure prediction by ZEFSAII (Michael W. Deem and Ramdas Pophale) SiO2 
 PCOD9358696
Probable space group: A M M 2
;
_chemical_formula_sum "Si O2"
_cell_formula_units_Z 64
_cell_length_a 9.531872
_cell_length_b 29.257534
_cell_length_c 12.981108
_cell_angle_alpha 90.000000
_cell_angle_beta 90.000000
_cell_angle_gamma 90.000000
_cell_volume 3620.159315
_symmetry_space_group_name_H-M "A M M 2"
_symmetry_group_IT_number 38
_symmetry_cell_setting 'orthorhombic'
loop_
_space_group_symop_operation_xyz
x,y,z
-x,-y,z
-x,y,z
x,-y,z
x,1/2+y,1/2+z
-x,1/2-y,1/2+z
-x,1/2+y,1/2+z
x,1/2-y,1/2+z
loop_
_atom_site_type_symbol
_atom_site_label
_atom_site_fract_x
_atom_site_fract_y
_atom_site_fract_z
Si Si1 0.341062 0.712358 0.209240
Si Si2 0.168111 0.624114 0.144884
Si Si3 0.657250 0.706403 0.555138
Si Si4 0.835975 0.250360 0.891293
Si Si5 0.333200 0.622565 0.708424
Si Si6 0.833424 0.446208 0.324655
Si Si7 0.666878 0.554223 0.528591
Si Si8 0.165113 0.641938 0.914796
O O1 0.500000 0.701923 0.242378
O O2 0.253112 0.667310 0.186681
O O3 0.349414 0.744520 0.109846
O O4 0.259087 0.742316 0.292353
O O5 0.198502 0.582218 0.221548
O O6 0.000000 0.633026 0.148632
O O7 0.204327 0.618878 0.023897
O O8 0.500000 0.696263 0.513214
O O9 0.777169 0.713098 0.471361
O O10 0.688895 0.668227 0.640261
O O11 0.818058 0.302997 0.926665
O O12 0.000000 0.243288 0.870443
O O13 0.500000 0.619180 0.729001
O O14 0.291531 0.581558 0.631343
O O15 0.251728 0.625687 0.815755
O O16 0.802960 0.500000 0.309386
O O17 0.748443 0.430452 0.425734
O O18 0.000000 0.441501 0.344701
O O19 0.500000 0.561590 0.513894
O O20 0.691248 0.500000 0.541205
O O21 0.000000 0.633664 0.896233
#
# Coordination Sequence:
#
# PCOD9358696 Si02
#       8
#     8   8   8   8   8   8   8   8
#     4  11  22  35  53  77 108 144 185 225 266 318
#     4  10  21  38  56  80 112 144 184 227 273 325
#     4  10  21  35  51  75 106 142 183 226 266 314
#     4  11  22  35  52  74 107 147 183 224 272 321
#     4  10  21  37  56  79 109 144 184 225 270 323
#     4   9  19  37  61  85 109 139 175 221 275 328
#     4   9  19  37  60  84 111 141 174 221 277 328
#     4  10  21  36  54  77 110 147 184 224 267 321
#
# _framework density 17.678778999999999
#
# number of rings (size 3 to 8) (size 9 to 14) (size 15 to 20)
#    0.000    2.000    2.500    0.750    1.750    3.000 
#    0.000    0.625    0.000    0.750    0.000    0.000 
#    0.000    0.000    0.000    0.000    0.000    0.000 
#
# Total GULP energy -178445.339704 kJ/mol
# GULP energy per Si atom -5576.416866 kJ/mol
# Density = 1.763854 g / cm^3
# Si number density = 17.678779 Si / 1000 Ang^3
#
#
#
# Elastic Constant Matrix: (Units=GPa)
#
#
# Indices 1 2 3 4 5 6 
#
# 1 58.2606 29.0388 52.5566 0.0000 0.0000 0.0000
# 2 29.0388 56.5361 34.2805 0.0000 0.0000 0.0000
# 3 52.5566 34.2805 93.9437 0.0000 0.0000 0.0000
# 4 0.0000 0.0000 0.0000 33.3108 0.0000 0.0000
# 5 0.0000 0.0000 0.0000 0.0000 32.9605 0.0000
# 6 0.0000 0.0000 0.0000 0.0000 0.0000 13.3915
#
#
#
# Elastic Compliance Matrix: (Units=1/GPa)
#
#
# Indices 1 2 3 4 5 6 
#
# 1 0.037524 -0.008404 -0.017926 0.000000 0.000000 0.000000
# 2 -0.008404 0.024596 -0.004273 0.000000 0.000000 0.000000
# 3 -0.017926 -0.004273 0.022233 0.000000 0.000000 0.000000
# 4 0.000000 0.000000 0.000000 0.030020 0.000000 0.000000
# 5 0.000000 0.000000 0.000000 0.000000 0.030339 0.000000
# 6 0.000000 0.000000 0.000000 0.000000 0.000000 0.074674
#
#
# Mechanical properties :
#
#
# Convention : Reuss Voigt Hill
#
# Bulk Modulus (GPa) = 43.20535 48.94357 46.07446
# Shear Modulus (GPa) = 17.34251 22.12354 19.73303
#
# Velocity S-wave (km/s) = 3.13546 3.54138 3.34458
# Velocity P-wave (km/s) = 6.13191 6.66834 6.40574
#
# Compressibility (1/GPa) = 0.02314528
#
# Stress axis : x y z
#
# Youngs Moduli (GPa) = 26.64944 40.65769 44.97869
#
# Poissons Ratio (x) = 0.34170 0.80629
# Poissons Ratio (y) = 0.22397 0.19221
# Poissons Ratio (z) = 0.47772 0.17374
#
# Static dielectric constant tensor:
#      x y z
#    x 1.598700 0.000000 0.000000 
#    y 0.000000 1.597960 0.000000 
#    z 0.000000 0.000000 1.613110 
# 
# From -- ./inp_files/8535.got.cif
#   From: 2010.05.17/outbox.cif.g08.bks.cpg/sg38_5_cif.got.tgz:8535.got - 2010.06.03 18:07:57.
