data_PCOD9358172
_publ_section_title
;
Structure prediction by ZEFSAII (Michael W. Deem and Ramdas Pophale) SiO2 
 PCOD9358172
Probable space group: A M M 2
;
_chemical_formula_sum "Si O2"
_cell_formula_units_Z 48
_cell_length_a 7.643649
_cell_length_b 9.224064
_cell_length_c 34.900838
_cell_angle_alpha 90.000000
_cell_angle_beta 90.000000
_cell_angle_gamma 90.000000
_cell_volume 2460.701298
_symmetry_space_group_name_H-M "A M M 2"
_symmetry_group_IT_number 38
_symmetry_cell_setting 'orthorhombic'
loop_
_space_group_symop_operation_xyz
x,y,z
-x,-y,z
-x,y,z
x,-y,z
x,1/2+y,1/2+z
-x,1/2-y,1/2+z
-x,1/2+y,1/2+z
x,1/2-y,1/2+z
loop_
_atom_site_type_symbol
_atom_site_label
_atom_site_fract_x
_atom_site_fract_y
_atom_site_fract_z
Si Si1 0.198364 0.169243 0.138910
Si Si2 0.211240 0.333347 0.299859
Si Si3 0.786956 0.165417 0.374873
Si Si4 0.791750 0.327192 0.453108
Si Si5 0.500000 0.829451 0.593455
Si Si6 0.706928 0.667247 0.213977
Si Si7 0.500000 0.671772 0.002141
O O1 0.331656 0.256109 0.112525
O O2 0.208234 0.234814 0.181597
O O3 0.000000 0.182883 0.124731
O O4 0.246089 0.000000 0.139914
O O5 0.272192 0.500000 0.304188
O O6 0.273683 0.236266 0.335109
O O7 0.263118 0.282398 0.257507
O O8 0.000000 0.335281 0.301124
O O9 0.742073 0.262781 0.411498
O O10 0.000000 0.162940 0.373504
O O11 0.727102 0.000000 0.379410
O O12 0.764170 0.500000 0.453948
O O13 0.670123 0.247348 0.483754
O O14 0.000000 0.300247 0.459053
O O15 0.500000 0.810306 0.547852
O O16 0.500000 0.000000 0.602394
O O17 0.500000 0.666634 0.206466
O O18 0.770419 0.500000 0.211656
O O19 0.500000 0.500000 0.993394
#
# Coordination Sequence:
#
# PCOD9358172 Si02
#       7
#     8   8   8   8   4   8   4
#     4  11  24  41  64  93 124 160 200 246 302 360
#     4   9  17  30  49  75 110 154 203 251 298 352
#     4   9  17  31  53  80 113 155 202 252 300 347
#     4  10  21  39  64  92 123 162 205 247 297 359
#     4  11  25  45  67  92 123 158 197 245 297 360
#     4  10  20  35  56  83 117 159 205 251 299 353
#     4  11  25  43  65  94 125 156 195 245 303 362
#
# _framework density 19.506632
#
# number of rings (size 3 to 8) (size 9 to 14) (size 15 to 20)
#    0.000    2.000    0.833    2.500    0.000    7.667 
#    1.500    5.000    0.000    0.000    0.000    0.000 
#    0.000    0.000    0.000    0.000    0.000    0.000 
#
# Total GULP energy -134107.197870 kJ/mol
# GULP energy per Si atom -5587.799911 kJ/mol
# Density = 1.946223 g / cm^3
# Si number density = 19.506632 Si / 1000 Ang^3
#
#
#
# Elastic Constant Matrix: (Units=GPa)
#
#
# Indices 1 2 3 4 5 6 
#
# 1 80.5836 64.7533 56.1221 0.0000 0.0000 0.0000
# 2 64.7533 147.4231 100.4012 0.0000 0.0000 0.0000
# 3 56.1221 100.4012 130.6616 0.0000 0.0000 0.0000
# 4 0.0000 0.0000 0.0000 34.9815 0.0000 0.0000
# 5 0.0000 0.0000 0.0000 0.0000 29.7243 0.0000
# 6 0.0000 0.0000 0.0000 0.0000 0.0000 29.6722
#
#
#
# Elastic Compliance Matrix: (Units=1/GPa)
#
#
# Indices 1 2 3 4 5 6 
#
# 1 0.020072 -0.006178 -0.003874 0.000000 0.000000 0.000000
# 2 -0.006178 0.016131 -0.009742 0.000000 0.000000 0.000000
# 3 -0.003874 -0.009742 0.016803 0.000000 0.000000 0.000000
# 4 0.000000 0.000000 0.000000 0.028586 0.000000 0.000000
# 5 0.000000 0.000000 0.000000 0.000000 0.033642 0.000000
# 6 0.000000 0.000000 0.000000 0.000000 0.000000 0.033702
#
#
# Mechanical properties :
#
#
# Convention : Reuss Voigt Hill
#
# Bulk Modulus (GPa) = 74.52411 89.02459 81.77435
# Shear Modulus (GPa) = 25.90705 28.03507 26.97106
#
# Velocity S-wave (km/s) = 3.64828 3.79516 3.72245
# Velocity P-wave (km/s) = 7.48559 8.05863 7.77739
#
# Compressibility (1/GPa) = 0.01341848
#
# Stress axis : x y z
#
# Youngs Moduli (GPa) = 49.82109 61.99132 59.51220
#
# Poissons Ratio (x) = 0.38296 0.23057
# Poissons Ratio (y) = 0.30778 0.57977
# Poissons Ratio (z) = 0.19303 0.60392
#
# Static dielectric constant tensor:
#      x y z
#    x 1.700700 0.000000 0.000000 
#    y 0.000000 1.658600 0.000000 
#    z 0.000000 0.000000 1.651740 
# 
# From -- ./inp_files/24365.got.cif
#   From: 2010.05.17/outbox.cif.g08.bks.cpg/sg38_13_cif.got.tgz:24365.got - 2010.06.03 18:07:57.
