data_PCOD9358849
_publ_section_title
;
Structure prediction by ZEFSAII (Michael W. Deem and Ramdas Pophale) SiO2 
 PCOD9358849
Probable space group: A M M 2
;
_chemical_formula_sum "Si O2"
_cell_formula_units_Z 64
_cell_length_a 24.306167
_cell_length_b 8.864699
_cell_length_c 15.349486
_cell_angle_alpha 90.000000
_cell_angle_beta 90.000000
_cell_angle_gamma 90.000000
_cell_volume 3307.305464
_symmetry_space_group_name_H-M "A M M 2"
_symmetry_group_IT_number 38
_symmetry_cell_setting 'orthorhombic'
loop_
_space_group_symop_operation_xyz
x,y,z
-x,-y,z
-x,y,z
x,-y,z
x,1/2+y,1/2+z
-x,1/2-y,1/2+z
-x,1/2+y,1/2+z
x,1/2-y,1/2+z
loop_
_atom_site_type_symbol
_atom_site_label
_atom_site_fract_x
_atom_site_fract_y
_atom_site_fract_z
Si Si1 0.384157 0.818960 0.061790
Si Si2 0.866755 0.820138 0.318745
Si Si3 0.063206 0.182221 0.669277
Si Si4 0.738035 0.676541 0.504650
Si Si5 0.436038 0.178601 0.395691
Si Si6 0.632781 0.180899 0.740945
Si Si7 0.147100 0.681409 0.019231
Si Si8 0.247616 0.323130 0.296499
O O1 0.321293 0.772786 0.038178
O O2 0.394607 0.760122 0.158470
O O3 0.387941 0.000000 0.056389
O O4 0.423171 0.742817 0.991063
O O5 0.913056 0.746022 0.259231
O O6 0.867551 0.769658 0.420243
O O7 0.807381 0.770629 0.281095
O O8 0.871797 0.000000 0.316747
O O9 0.102954 0.233045 0.590487
O O10 0.000000 0.227206 0.655253
O O11 0.065371 0.000000 0.672105
O O12 0.744192 0.500000 0.525747
O O13 0.791280 0.763255 0.539263
O O14 0.738795 0.690673 0.399551
O O15 0.500000 0.202136 0.373937
O O16 0.397346 0.264986 0.327930
O O17 0.424437 0.000000 0.392842
O O18 0.697371 0.224490 0.746552
O O19 0.630285 0.000000 0.734479
O O20 0.147360 0.500000 0.019083
O O21 0.236663 0.500000 0.278332
#
# Coordination Sequence:
#
# PCOD9358849 Si02
#       8
#     8   8   8   8   8   8   8   8
#     4  11  23  40  62  93 127 163 204 251 307 364
#     4  10  21  36  57  87 117 149 191 243 298 348
#     4  10  22  40  59  80 112 156 201 241 289 355
#     4   9  18  35  58  86 120 154 192 241 296 353
#     4  11  25  45  67  91 122 163 210 258 306 362
#     4  11  23  40  63  93 125 164 206 251 307 364
#     4   9  20  37  57  83 113 152 194 236 291 351
#     4   9  18  36  59  85 120 158 196 238 293 360
#
# _framework density 19.351101
#
# number of rings (size 3 to 8) (size 9 to 14) (size 15 to 20)
#    0.000    2.000    1.250    1.500    1.750    5.250 
#    0.000    1.250    0.000    0.000    0.000    0.000 
#    0.000    0.000    0.000    0.000    0.000    0.000 
#
# Total GULP energy -178770.173110 kJ/mol
# GULP energy per Si atom -5586.567910 kJ/mol
# Density = 1.930706 g / cm^3
# Si number density = 19.351101 Si / 1000 Ang^3
#
#
#
# Elastic Constant Matrix: (Units=GPa)
#
#
# Indices 1 2 3 4 5 6 
#
# 1 55.6334 18.0439 -2.3758 0.0000 0.0000 0.0000
# 2 18.0439 19.3064 1.7843 0.0000 0.0000 0.0000
# 3 -2.3758 1.7843 34.0715 0.0000 0.0000 0.0000
# 4 0.0000 0.0000 0.0000 28.5843 0.0000 0.0000
# 5 0.0000 0.0000 0.0000 0.0000 21.1336 0.0000
# 6 0.0000 0.0000 0.0000 0.0000 0.0000 29.7316
#
#
#
# Elastic Compliance Matrix: (Units=1/GPa)
#
#
# Indices 1 2 3 4 5 6 
#
# 1 0.026118 -0.024698 0.003115 0.000000 0.000000 0.000000
# 2 -0.024698 0.075404 -0.005671 0.000000 0.000000 0.000000
# 3 0.003115 -0.005671 0.029864 0.000000 0.000000 0.000000
# 4 0.000000 0.000000 0.000000 0.034984 0.000000 0.000000
# 5 0.000000 0.000000 0.000000 0.000000 0.047318 0.000000
# 6 0.000000 0.000000 0.000000 0.000000 0.000000 0.033634
#
#
# Mechanical properties :
#
#
# Convention : Reuss Voigt Hill
#
# Bulk Modulus (GPa) = 13.00780 15.99067 14.49924
# Shear Modulus (GPa) = 15.26916 21.99382 18.63149
#
# Velocity S-wave (km/s) = 2.81207 3.37496 3.10629
# Velocity P-wave (km/s) = 4.15695 4.84443 4.51380
#
# Compressibility (1/GPa) = 0.07687693
#
# Stress axis : x y z
#
# Youngs Moduli (GPa) = 38.28723 13.26198 33.48491
#
# Poissons Ratio (x) = 0.32755 -0.10429
# Poissons Ratio (y) = 0.94563 0.18989
# Poissons Ratio (z) = -0.11925 0.07521
#
# Static dielectric constant tensor:
#      x y z
#    x 1.655100 0.000000 0.000000 
#    y 0.000000 1.648070 0.000000 
#    z 0.000000 0.000000 1.686720 
# 
# From -- ./inp_files/15817.got.cif
#   From: 2010.05.17/outbox.cif.g08.bks.cpg/sg38_8_cif.got.tgz:15817.got - 2010.06.03 18:07:57.
