data_PCOD9358200
_publ_section_title
;
Structure prediction by ZEFSAII (Michael W. Deem and Ramdas Pophale) SiO2 
 PCOD9358200
Probable space group: A M M 2
;
_chemical_formula_sum "Si O2"
_cell_formula_units_Z 64
_cell_length_a 8.913135
_cell_length_b 20.989111
_cell_length_c 19.967136
_cell_angle_alpha 90.000000
_cell_angle_beta 90.000000
_cell_angle_gamma 90.000000
_cell_volume 3735.427440
_symmetry_space_group_name_H-M "A M M 2"
_symmetry_group_IT_number 38
_symmetry_cell_setting 'orthorhombic'
loop_
_space_group_symop_operation_xyz
x,y,z
-x,-y,z
-x,y,z
x,-y,z
x,1/2+y,1/2+z
-x,1/2-y,1/2+z
-x,1/2+y,1/2+z
x,1/2-y,1/2+z
loop_
_atom_site_type_symbol
_atom_site_label
_atom_site_fract_x
_atom_site_fract_y
_atom_site_fract_z
Si Si1 0.821797 0.615976 0.127190
Si Si2 0.821485 0.571905 0.400298
Si Si3 0.180175 0.928049 0.480492
Si Si4 0.177324 0.232374 0.116292
Si Si5 0.320544 0.813012 0.398424
Si Si6 0.820340 0.761903 0.267627
Si Si7 0.321425 0.685905 0.483098
Si Si8 0.321183 0.620840 0.266435
O O1 0.795145 0.691341 0.113988
O O2 0.733468 0.597118 0.193809
O O3 0.000000 0.608082 0.139805
O O4 0.781393 0.580274 0.059031
O O5 0.791471 0.500000 0.424174
O O6 0.756760 0.625522 0.449261
O O7 0.746754 0.581653 0.327763
O O8 0.000000 0.580268 0.393729
O O9 0.262532 0.874589 0.437673
O O10 0.000000 0.918275 0.475532
O O11 0.214889 0.000000 0.459015
O O12 0.211912 0.213091 0.192700
O O13 0.000000 0.222743 0.104118
O O14 0.269465 0.197665 0.058938
O O15 0.500000 0.814666 0.391184
O O16 0.242395 0.805346 0.326623
O O17 0.280901 0.749724 0.441307
O O18 0.743160 0.692697 0.273785
O O19 0.000000 0.753764 0.273046
O O20 0.500000 0.678250 0.479259
O O21 0.500000 0.621992 0.270224
#
# Coordination Sequence:
#
# PCOD9358200 Si02
#       8
#     8   8   8   8   8   8   8   8
#     4   9  18  33  52  77 110 149 191 229 267 320
#     4  11  24  40  58  79 107 148 192 231 274 327
#     4  10  21  37  57  80 109 150 195 235 276 325
#     4   9  18  33  55  82 110 143 183 227 274 321
#     4  11  22  35  55  85 115 147 184 227 284 334
#     4  10  20  35  57  83 111 145 186 230 274 323
#     4  11  22  35  56  85 113 145 182 226 280 332
#     4  11  21  33  52  80 114 148 183 226 276 329
#
# _framework density 17.133246
#
# number of rings (size 3 to 8) (size 9 to 14) (size 15 to 20)
#    0.000    1.750    2.500    3.375    0.000    5.750 
#    0.000    1.250    0.000    0.750    0.000    5.250 
#    0.000    0.000    0.000    0.000    0.000    0.000 
#
# Total GULP energy -178725.434858 kJ/mol
# GULP energy per Si atom -5585.169839 kJ/mol
# Density = 1.709425 g / cm^3
# Si number density = 17.133246 Si / 1000 Ang^3
#
#
#
# Elastic Constant Matrix: (Units=GPa)
#
#
# Indices 1 2 3 4 5 6 
#
# 1 75.3428 58.5509 58.9667 0.0000 0.0000 0.0000
# 2 58.5509 94.3239 60.9941 0.0000 0.0000 0.0000
# 3 58.9667 60.9941 112.1677 0.0000 0.0000 0.0000
# 4 0.0000 0.0000 0.0000 21.5376 0.0000 0.0000
# 5 0.0000 0.0000 0.0000 0.0000 7.3432 0.0000
# 6 0.0000 0.0000 0.0000 0.0000 0.0000 14.0333
#
#
#
# Elastic Compliance Matrix: (Units=1/GPa)
#
#
# Indices 1 2 3 4 5 6 
#
# 1 0.030420 -0.013175 -0.008828 0.000000 0.000000 0.000000
# 2 -0.013175 0.022057 -0.005068 0.000000 0.000000 0.000000
# 3 -0.008828 -0.005068 0.016312 0.000000 0.000000 0.000000
# 4 0.000000 0.000000 0.000000 0.046430 0.000000 0.000000
# 5 0.000000 0.000000 0.000000 0.000000 0.136181 0.000000
# 6 0.000000 0.000000 0.000000 0.000000 0.000000 0.071259
#
#
# Mechanical properties :
#
#
# Convention : Reuss Voigt Hill
#
# Bulk Modulus (GPa) = 68.26923 70.98421 69.62672
# Shear Modulus (GPa) = 13.09985 15.47099 14.28542
#
# Velocity S-wave (km/s) = 2.76812 3.00822 2.89066
# Velocity P-wave (km/s) = 7.08161 7.32028 7.20193
#
# Compressibility (1/GPa) = 0.01464789
#
# Stress axis : x y z
#
# Youngs Moduli (GPa) = 32.87306 45.33681 61.30441
#
# Poissons Ratio (x) = 0.59729 0.54119
# Poissons Ratio (y) = 0.43309 0.31071
# Poissons Ratio (z) = 0.29020 0.22978
#
# Static dielectric constant tensor:
#      x y z
#    x 1.570540 0.000000 0.000000 
#    y 0.000000 1.568380 0.000000 
#    z 0.000000 0.000000 1.575850 
# 
# From -- ./inp_files/17178.got.cif
#   From: 2010.05.17/outbox.cif.g08.bks.cpg/sg38_9_cif.got.tgz:17178.got - 2010.06.03 18:07:57.
