data_PCOD9358682
_publ_section_title
;
Structure prediction by ZEFSAII (Michael W. Deem and Ramdas Pophale) SiO2 
 PCOD9358682
Probable space group: A M M 2
;
_chemical_formula_sum "Si O2"
_cell_formula_units_Z 56
_cell_length_a 21.766783
_cell_length_b 7.272643
_cell_length_c 14.475909
_cell_angle_alpha 90.000000
_cell_angle_beta 90.000000
_cell_angle_gamma 90.000000
_cell_volume 2291.565955
_symmetry_space_group_name_H-M "A M M 2"
_symmetry_group_IT_number 38
_symmetry_cell_setting 'orthorhombic'
loop_
_space_group_symop_operation_xyz
x,y,z
-x,-y,z
-x,y,z
x,-y,z
x,1/2+y,1/2+z
-x,1/2-y,1/2+z
-x,1/2+y,1/2+z
x,1/2-y,1/2+z
loop_
_atom_site_type_symbol
_atom_site_label
_atom_site_fract_x
_atom_site_fract_y
_atom_site_fract_z
Si Si1 0.434687 0.721936 0.073330
Si Si2 0.433546 0.278246 0.851978
Si Si3 0.695931 0.281055 0.079580
Si Si4 0.831862 0.721040 0.871462
Si Si5 0.300814 0.281093 0.855980
Si Si6 0.068895 0.715289 0.221995
Si Si7 0.171428 0.774965 0.584153
O O1 0.500000 0.791251 0.109641
O O2 0.434564 0.500000 0.083359
O O3 0.369969 0.793075 0.111182
O O4 0.434237 0.756258 0.962813
O O5 0.500000 0.210309 0.816446
O O6 0.433451 0.500000 0.841191
O O7 0.366512 0.208544 0.819888
O O8 0.694990 0.500000 0.095998
O O9 0.760880 0.211100 0.116078
O O10 0.698239 0.257986 0.967930
O O11 0.827736 0.500000 0.871503
O O12 0.766793 0.789898 0.829228
O O13 0.892225 0.771255 0.815620
O O14 0.836275 0.778867 0.977705
O O15 0.301618 0.500000 0.838576
O O16 0.062924 0.500000 0.200549
O O17 0.115259 0.792050 0.145358
O O18 0.000000 0.791209 0.226559
O O19 0.172506 0.000000 0.587015
#
# Coordination Sequence:
#
# PCOD9358682 Si02
#       7
#     8   8   8   8   8   8   8
#     4   7   8   9  16  36  68 101 130 165 209 248
#     4   7   8  10  19  40  74 111 138 164 207 256
#     4   7   9  15  29  49  73 103 140 176 208 249
#     4   9  17  31  52  74  94 119 153 191 227 266
#     4   7  10  17  31  54  82 109 140 179 217 251
#     4  10  21  35  49  68  94 120 148 185 229 278
#     4   8  15  29  48  67  88 118 153 185 220 266
#
# _framework density 24.437438
#
# number of rings (size 3 to 8) (size 9 to 14) (size 15 to 20)
#    0.000    4.143    0.000    4.286    0.000    0.857 
#    0.000    2.143    0.000    0.000    0.000    1.000 
#    0.000    1.714    0.000    0.000    0.000    4.714 
#
# Total GULP energy -156142.019456 kJ/mol
# GULP energy per Si atom -5576.500695 kJ/mol
# Density = 2.438182 g / cm^3
# Si number density = 24.437438 Si / 1000 Ang^3
#
#
#
# Elastic Constant Matrix: (Units=GPa)
#
#
# Indices 1 2 3 4 5 6 
#
# 1 333.2483 13.9691 55.9603 0.0000 0.0000 0.0000
# 2 13.9691 107.0433 -4.8018 0.0000 0.0000 0.0000
# 3 55.9603 -4.8018 87.1647 0.0000 0.0000 0.0000
# 4 0.0000 0.0000 0.0000 32.7356 0.0000 0.0000
# 5 0.0000 0.0000 0.0000 0.0000 31.1424 0.0000
# 6 0.0000 0.0000 0.0000 0.0000 0.0000 -83.6403
#
#
#
# Elastic Compliance Matrix: (Units=1/GPa)
#
#
# Indices 1 2 3 4 5 6 
#
# 1 0.003394 -0.000542 -0.002209 0.000000 0.000000 0.000000
# 2 -0.000542 0.009452 0.000869 0.000000 0.000000 0.000000
# 3 -0.002209 0.000869 0.012939 0.000000 0.000000 0.000000
# 4 0.000000 0.000000 0.000000 0.030548 0.000000 0.000000
# 5 0.000000 0.000000 0.000000 0.000000 0.032111 0.000000
# 6 0.000000 0.000000 0.000000 0.000000 0.000000 -0.011956
#
#
# Mechanical properties :
#
#
# Convention : Reuss Voigt Hill
#
# Bulk Modulus (GPa) = 45.41359 73.07906 59.24632
# Shear Modulus (GPa) = 57.08274 26.86945 41.97610
#
# Velocity S-wave (km/s) = 4.83833 3.31950 4.14901
# Velocity P-wave (km/s) = 7.05950 6.68293 6.87379
#
# Compressibility (1/GPa) = 0.02201984
#
# Stress axis : x y z
#
# Youngs Moduli (GPa) = 294.59840 105.80081 77.28776
#
# Poissons Ratio (x) = 0.05735 0.17074
# Poissons Ratio (y) = 0.15969 -0.06714
# Poissons Ratio (z) = 0.65080 -0.09191
#
# Static dielectric constant tensor:
#      x y z
#    x 1.988970 0.000000 0.000000 
#    y 0.000000 0.833770 0.000000 
#    z 0.000000 0.000000 1.987620 
# 
# From -- ./inp_files/15470.got.cif
#   From: 2010.05.17/outbox.cif.g08.bks.cpg/sg38_8_cif.got.tgz:15470.got - 2010.06.03 18:07:57.
