data_PCOD9358541
_publ_section_title
;
Structure prediction by ZEFSAII (Michael W. Deem and Ramdas Pophale) SiO2 
 PCOD9358541
Probable space group: A M M 2
;
_chemical_formula_sum "Si O2"
_cell_formula_units_Z 40
_cell_length_a 7.877325
_cell_length_b 8.697731
_cell_length_c 30.253779
_cell_angle_alpha 90.000000
_cell_angle_beta 90.000000
_cell_angle_gamma 90.000000
_cell_volume 2072.833247
_symmetry_space_group_name_H-M "A M M 2"
_symmetry_group_IT_number 38
_symmetry_cell_setting 'orthorhombic'
loop_
_space_group_symop_operation_xyz
x,y,z
-x,-y,z
-x,y,z
x,-y,z
x,1/2+y,1/2+z
-x,1/2-y,1/2+z
-x,1/2+y,1/2+z
x,1/2-y,1/2+z
loop_
_atom_site_type_symbol
_atom_site_label
_atom_site_fract_x
_atom_site_fract_y
_atom_site_fract_z
Si Si1 0.000000 0.315932 0.697201
Si Si2 0.703987 0.323183 0.951719
Si Si3 0.302426 0.183522 0.857704
Si Si4 0.689661 0.685843 0.141426
Si Si5 0.000000 0.184253 0.299516
Si Si6 0.200476 0.679187 0.046819
O O1 0.834873 0.254119 0.671930
O O2 0.000000 0.266634 0.748321
O O3 0.000000 0.500000 0.695673
O O4 0.500000 0.327157 0.953994
O O5 0.766802 0.500000 0.947716
O O6 0.748947 0.233287 0.907369
O O7 0.765110 0.254204 0.998331
O O8 0.500000 0.233184 0.850701
O O9 0.168200 0.255053 0.824037
O O10 0.297481 0.000000 0.854200
O O11 0.500000 0.721836 0.157011
O O12 0.709347 0.500000 0.140459
O O13 0.711759 0.742154 0.090703
O O14 0.000000 0.000000 0.301430
O O15 0.256387 0.500000 0.043025
O O16 0.000000 0.681813 0.055335
#
# Coordination Sequence:
#
# PCOD9358541 Si02
#       6
#     4   8   8   8   4   8
#     4  11  25  43  60  85 118 149 188 241 298 355
#     4   9  17  30  51  81 116 155 198 237 275 328
#     4  10  22  40  61  88 121 153 189 237 293 349
#     4  10  20  37  63  90 117 153 196 240 286 338
#     4  11  25  43  64  85 110 149 196 243 292 349
#     4   9  16  28  51  84 118 152 195 241 277 322
#
# _framework density 19.297257999999999
#
# number of rings (size 3 to 8) (size 9 to 14) (size 15 to 20)
#    0.000    2.200    1.000    1.800    1.400    6.400 
#    0.000    5.000    0.000    2.400    0.000    0.000 
#    0.000    0.000    0.000    0.000    0.000    0.000 
#
# Total GULP energy -111616.078393 kJ/mol
# GULP energy per Si atom -5580.803920 kJ/mol
# Density = 1.925334 g / cm^3
# Si number density = 19.297258 Si / 1000 Ang^3
#
#
#
# Elastic Constant Matrix: (Units=GPa)
#
#
# Indices 1 2 3 4 5 6 
#
# 1 119.3695 36.1347 95.5342 0.0000 0.0000 0.0000
# 2 36.1347 29.7490 37.1599 0.0000 0.0000 0.0000
# 3 95.5342 37.1599 170.5356 0.0000 0.0000 0.0000
# 4 0.0000 0.0000 0.0000 26.4710 0.0000 0.0000
# 5 0.0000 0.0000 0.0000 0.0000 -57.9905 0.0000
# 6 0.0000 0.0000 0.0000 0.0000 0.0000 18.5199
#
#
#
# Elastic Compliance Matrix: (Units=1/GPa)
#
#
# Indices 1 2 3 4 5 6 
#
# 1 0.018177 -0.012859 -0.007381 0.000000 0.000000 0.000000
# 2 -0.012859 0.055283 -0.004842 0.000000 0.000000 0.000000
# 3 -0.007381 -0.004842 0.011054 0.000000 0.000000 0.000000
# 4 0.000000 0.000000 0.000000 0.037777 0.000000 0.000000
# 5 0.000000 0.000000 0.000000 0.000000 -0.017244 0.000000
# 6 0.000000 0.000000 0.000000 0.000000 0.000000 0.053996
#
#
# Mechanical properties :
#
#
# Convention : Reuss Voigt Hill
#
# Bulk Modulus (GPa) = 29.11317 73.03464 51.07391
# Shear Modulus (GPa) = 22.65962 7.45512 15.05737
#
# Velocity S-wave (km/s) = 3.43044 1.96766 2.79639
# Velocity P-wave (km/s) = 5.55067 6.56442 6.07871
#
# Compressibility (1/GPa) = 0.03434871
#
# Stress axis : x y z
#
# Youngs Moduli (GPa) = 55.01465 18.08877 90.46740
#
# Poissons Ratio (x) = 0.23261 0.66771
# Poissons Ratio (y) = 0.70745 0.43808
# Poissons Ratio (z) = 0.40605 0.08759
#
# Static dielectric constant tensor:
#      x y z
#    x 1.671520 0.000000 0.000000 
#    y 0.000000 1.673110 0.000000 
#    z 0.000000 0.000000 1.678670 
# 
# From -- ./inp_files/23257.got.cif
#   From: 2010.05.17/outbox.cif.g08.bks.cpg/sg38_12_cif.got.tgz:23257.got - 2010.06.03 18:07:57.
