data_PCOD9358278
_publ_section_title
;
Structure prediction by ZEFSAII (Michael W. Deem and Ramdas Pophale) SiO2 
 PCOD9358278
Probable space group: A M M 2
;
_chemical_formula_sum "Si O2"
_cell_formula_units_Z 48
_cell_length_a 10.300444
_cell_length_b 29.225409
_cell_length_c 8.291899
_cell_angle_alpha 90.000000
_cell_angle_beta 90.000000
_cell_angle_gamma 90.000000
_cell_volume 2496.149235
_symmetry_space_group_name_H-M "A M M 2"
_symmetry_group_IT_number 38
_symmetry_cell_setting 'orthorhombic'
loop_
_space_group_symop_operation_xyz
x,y,z
-x,-y,z
-x,y,z
x,-y,z
x,1/2+y,1/2+z
-x,1/2-y,1/2+z
-x,1/2+y,1/2+z
x,1/2-y,1/2+z
loop_
_atom_site_type_symbol
_atom_site_label
_atom_site_fract_x
_atom_site_fract_y
_atom_site_fract_z
Si Si1 0.849084 0.449885 0.655880
Si Si2 0.229393 0.147779 0.190512
Si Si3 0.000000 0.788661 0.307197
Si Si4 0.500000 0.188843 0.223833
Si Si5 0.500000 0.208462 0.839473
Si Si6 0.650806 0.550112 0.354908
Si Si7 0.262423 0.853775 0.801417
Si Si8 0.000000 0.187370 0.679605
O O1 0.836580 0.500000 0.737846
O O2 0.816969 0.402584 0.746022
O O3 0.748591 0.450912 0.506745
O O4 0.000000 0.446288 0.601603
O O5 0.125746 0.186574 0.233202
O O6 0.369475 0.161010 0.259331
O O7 0.240746 0.146513 0.995601
O O8 0.000000 0.734674 0.278636
O O9 0.000000 0.798474 0.495206
O O10 0.500000 0.237817 0.309016
O O11 0.500000 0.198599 0.031021
O O12 0.627180 0.183833 0.768008
O O13 0.500000 0.555423 0.407804
O O14 0.661607 0.500000 0.274821
O O15 0.688185 0.595484 0.257903
O O16 0.128228 0.840889 0.720331
#
# Coordination Sequence:
#
# PCOD9358278 Si02
#       8
#     8   8   4   4   4   8   8   4
#     4   9  17  29  51  84 115 149 185 227 276 327
#     4  10  20  36  58  82 115 146 186 227 281 333
#     4  12  24  42  57  82 107 151 188 235 283 338
#     4  10  22  34  55  81 109 143 184 228 279 332
#     4  10  20  36  53  79 109 141 186 224 277 332
#     4   9  17  30  53  85 118 148 184 232 282 331
#     4  10  20  36  56  85 113 150 181 231 277 335
#     4  12  26  38  59  80 113 143 194 233 281 338
#
# _framework density 19.229619
#
# number of rings (size 3 to 8) (size 9 to 14) (size 15 to 20)
#    0.000    2.000    1.667    2.500    7.000    4.000 
#    0.000    0.000    0.000    2.000    0.000    0.000 
#    0.000    0.000    0.000    0.000    0.000    0.000 
#
# Total GULP energy -133846.944770 kJ/mol
# GULP energy per Si atom -5576.956032 kJ/mol
# Density = 1.918585 g / cm^3
# Si number density = 19.229619 Si / 1000 Ang^3
#
#
#
# Elastic Constant Matrix: (Units=GPa)
#
#
# Indices 1 2 3 4 5 6 
#
# 1 166.1255 70.7683 13.0755 0.0000 0.0000 0.0000
# 2 70.7683 139.2289 11.7878 0.0000 0.0000 0.0000
# 3 13.0755 11.7878 13.3921 0.0000 0.0000 0.0000
# 4 0.0000 0.0000 0.0000 9.2235 0.0000 0.0000
# 5 0.0000 0.0000 0.0000 0.0000 -28.8754 0.0000
# 6 0.0000 0.0000 0.0000 0.0000 0.0000 46.1885
#
#
#
# Elastic Compliance Matrix: (Units=1/GPa)
#
#
# Indices 1 2 3 4 5 6 
#
# 1 0.007930 -0.003647 -0.004532 0.000000 0.000000 0.000000
# 2 -0.003647 0.009438 -0.004747 0.000000 0.000000 0.000000
# 3 -0.004532 -0.004747 0.083274 0.000000 0.000000 0.000000
# 4 0.000000 0.000000 0.000000 0.108419 0.000000 0.000000
# 5 0.000000 0.000000 0.000000 0.000000 -0.034632 0.000000
# 6 0.000000 0.000000 0.000000 0.000000 0.000000 0.021650
#
#
# Mechanical properties :
#
#
# Convention : Reuss Voigt Hill
#
# Bulk Modulus (GPa) = 13.37075 56.66773 35.01924
# Shear Modulus (GPa) = 20.25431 20.18166 20.21798
#
# Velocity S-wave (km/s) = 3.24896 3.24313 3.24604
# Velocity P-wave (km/s) = 4.58722 6.59976 5.68328
#
# Compressibility (1/GPa) = 0.07479015
#
# Stress axis : x y z
#
# Youngs Moduli (GPa) = 126.10596 105.95502 12.00853
#
# Poissons Ratio (x) = 0.38641 0.05443
# Poissons Ratio (y) = 0.45990 0.05700
# Poissons Ratio (z) = 0.57156 0.50293
#
# Static dielectric constant tensor:
#      x y z
#    x 1.663640 0.000000 0.000000 
#    y 0.000000 1.773600 0.000000 
#    z 0.000000 0.000000 1.659350 
# 
# From -- ./inp_files/3898.got.cif
#   From: 2010.05.17/outbox.cif.g08.bks.cpg/sg38_2_cif.got.tgz:3898.got - 2010.06.03 18:07:57.
