data_PCOD9358717
_publ_section_title
;
Structure prediction by ZEFSAII (Michael W. Deem and Ramdas Pophale) SiO2 
 PCOD9358717
Probable space group: A M M 2
;
_chemical_formula_sum "Si O2"
_cell_formula_units_Z 58
_cell_length_a 14.560230
_cell_length_b 8.787149
_cell_length_c 24.523853
_cell_angle_alpha 90.000000
_cell_angle_beta 90.000000
_cell_angle_gamma 90.000000
_cell_volume 3137.653129
_symmetry_space_group_name_H-M "A M M 2"
_symmetry_group_IT_number 38
_symmetry_cell_setting 'orthorhombic'
loop_
_space_group_symop_operation_xyz
x,y,z
-x,-y,z
-x,y,z
x,-y,z
x,1/2+y,1/2+z
-x,1/2-y,1/2+z
-x,1/2+y,1/2+z
x,1/2-y,1/2+z
loop_
_atom_site_type_symbol
_atom_site_label
_atom_site_fract_x
_atom_site_fract_y
_atom_site_fract_z
Si Si1 0.109788 0.674518 0.464620
Si Si2 0.227945 0.679056 0.870584
Si Si3 0.605799 0.814908 0.056609
Si Si4 0.190639 0.666808 0.257601
Si Si5 0.109523 0.673282 0.077926
Si Si6 0.000000 0.500000 0.242142
Si Si7 0.253171 0.178687 0.149255
Si Si8 0.609046 0.682116 0.433107
O O1 0.136222 0.500000 0.477186
O O2 0.160052 0.731180 0.411033
O O3 0.131587 0.780567 0.516053
O O4 0.000000 0.678428 0.456629
O O5 0.217316 0.500000 0.878445
O O6 0.203891 0.725637 0.809230
O O7 0.329033 0.731635 0.889579
O O8 0.500000 0.768248 0.064195
O O9 0.669922 0.764870 0.106244
O O10 0.607785 0.000000 0.056429
O O11 0.635340 0.770161 0.995269
O O12 0.229057 0.500000 0.272804
O O13 0.243201 0.731968 0.205411
O O14 0.083402 0.630456 0.244030
O O15 0.138643 0.500000 0.090376
O O16 0.158704 0.790625 0.117265
O O17 0.000000 0.679792 0.084362
O O18 0.267393 0.000000 0.159301
O O19 0.500000 0.708467 0.427204
O O20 0.624346 0.500000 0.428663
#
# Coordination Sequence:
#
# PCOD9358717 Si02
#       8
#     8   8   8   8   8   2   8   8
#     4  10  21  36  55  79 110 147 188 234 289 350
#     4  12  24  37  57  85 117 149 189 241 301 359
#     4   8  16  33  58  87 118 151 188 229 279 340
#     4  10  23  42  61  79 107 148 204 245 293 346
#     4  10  21  35  52  77 112 149 185 228 286 350
#     4   8  24  44  66  76 102 156 214 248 304 338
#     4  11  21  34  57  86 115 147 191 240 294 352
#     4   9  18  36  63  91 118 156 200 238 283 346
#
# _framework density 18.485153
#
# number of rings (size 3 to 8) (size 9 to 14) (size 15 to 20)
#    0.414    1.655    0.000    4.552    1.931    3.034 
#    0.000    2.069    0.000    5.793    0.000    0.000 
#    0.000    0.000    0.000    0.000    0.000    0.000 
#
# Total GULP energy -161534.704651 kJ/mol
# GULP energy per Si atom -5570.162229 kJ/mol
# Density = 1.844308 g / cm^3
# Si number density = 18.485153 Si / 1000 Ang^3
#
#
#
# Elastic Constant Matrix: (Units=GPa)
#
#
# Indices 1 2 3 4 5 6 
#
# 1 44.3794 11.6565 5.6273 0.0000 0.0000 0.0000
# 2 11.6565 40.0099 -11.3775 0.0000 0.0000 0.0000
# 3 5.6273 -11.3775 32.1861 0.0000 0.0000 0.0000
# 4 0.0000 0.0000 0.0000 29.8855 0.0000 0.0000
# 5 0.0000 0.0000 0.0000 0.0000 -17.7894 0.0000
# 6 0.0000 0.0000 0.0000 0.0000 0.0000 23.6347
#
#
#
# Elastic Compliance Matrix: (Units=1/GPa)
#
#
# Indices 1 2 3 4 5 6 
#
# 1 0.026163 -0.009920 -0.008081 0.000000 0.000000 0.000000
# 2 -0.009920 0.031549 0.012887 0.000000 0.000000 0.000000
# 3 -0.008081 0.012887 0.037037 0.000000 0.000000 0.000000
# 4 0.000000 0.000000 0.000000 0.033461 0.000000 0.000000
# 5 0.000000 0.000000 0.000000 0.000000 -0.056213 0.000000
# 6 0.000000 0.000000 0.000000 0.000000 0.000000 0.042311
#
#
# Mechanical properties :
#
#
# Convention : Reuss Voigt Hill
#
# Bulk Modulus (GPa) = 11.83159 14.26532 13.04846
# Shear Modulus (GPa) = 32.74164 14.52410 23.63287
#
# Velocity S-wave (km/s) = 4.21318 2.80611 3.57946
# Velocity P-wave (km/s) = 5.48473 4.27000 4.91504
#
# Compressibility (1/GPa) = 0.08451951
#
# Stress axis : x y z
#
# Youngs Moduli (GPa) = 38.22147 31.69720 26.99970
#
# Poissons Ratio (x) = 0.31445 0.21819
# Poissons Ratio (y) = 0.37917 -0.34793
# Poissons Ratio (z) = 0.30887 -0.40847
#
# Static dielectric constant tensor:
#      x y z
#    x 1.647630 0.000000 0.000000 
#    y 0.000000 1.623860 0.000000 
#    z 0.000000 0.000000 1.636450 
# 
# From -- ./inp_files/22836.got.cif
#   From: 2010.05.17/outbox.cif.g08.bks.cpg/sg38_12_cif.got.tgz:22836.got - 2010.06.03 18:07:57.
