data_PCOD9358326
_publ_section_title
;
Structure prediction by ZEFSAII (Michael W. Deem and Ramdas Pophale) SiO2 
 PCOD9358326
Probable space group: A M M 2
;
_chemical_formula_sum "Si O2"
_cell_formula_units_Z 64
_cell_length_a 7.837614
_cell_length_b 15.927872
_cell_length_c 24.610250
_cell_angle_alpha 90.000000
_cell_angle_beta 90.000000
_cell_angle_gamma 90.000000
_cell_volume 3072.257784
_symmetry_space_group_name_H-M "A M M 2"
_symmetry_group_IT_number 38
_symmetry_cell_setting 'orthorhombic'
loop_
_space_group_symop_operation_xyz
x,y,z
-x,-y,z
-x,y,z
x,-y,z
x,1/2+y,1/2+z
-x,1/2-y,1/2+z
-x,1/2+y,1/2+z
x,1/2-y,1/2+z
loop_
_atom_site_type_symbol
_atom_site_label
_atom_site_fract_x
_atom_site_fract_y
_atom_site_fract_z
Si Si1 0.196562 0.359593 0.708030
Si Si2 0.790410 0.750862 0.013791
Si Si3 0.205708 0.406027 0.084724
Si Si4 0.699109 0.670382 0.200243
Si Si5 0.793123 0.406252 0.313872
Si Si6 0.201418 0.242237 0.890580
Si Si7 0.791562 0.093309 0.088279
Si Si8 0.301170 0.407327 0.827023
O O1 0.203713 0.258594 0.705622
O O2 0.265735 0.391897 0.650397
O O3 0.285633 0.390535 0.762581
O O4 0.000000 0.386897 0.712397
O O5 0.733695 0.665714 0.043499
O O6 0.736164 0.831388 0.049197
O O7 0.000000 0.750419 0.013994
O O8 0.730257 0.754817 0.951755
O O9 0.269943 0.500000 0.073883
O O10 0.250822 0.377177 0.145462
O O11 0.000000 0.407934 0.081066
O O12 0.500000 0.691273 0.198356
O O13 0.736131 0.614907 0.252982
O O14 0.739327 0.500000 0.329730
O O15 0.727873 0.333184 0.353659
O O16 0.000000 0.404098 0.314001
O O17 0.220723 0.330121 0.859343
O O18 0.000000 0.225585 0.895887
O O19 0.000000 0.096486 0.089485
O O20 0.741845 0.000000 0.070088
O O21 0.500000 0.407447 0.841323
O O22 0.229076 0.500000 0.839108
#
# Coordination Sequence:
#
# PCOD9358326 Si02
#       8
#     8   8   8   8   8   8   8   8
#     4  11  20  35  60  87 116 149 187 231 282 340
#     4   9  18  34  55  83 114 145 189 238 282 327
#     4  10  20  36  58  82 112 150 188 233 285 335
#     4  12  23  35  56  85 116 150 187 231 288 347
#     4  10  21  37  57  84 117 152 190 234 286 341
#     4  10  21  37  60  85 112 152 197 241 283 333
#     4   9  17  30  54  87 117 142 174 224 282 335
#     4  11  24  40  58  84 119 155 188 232 290 344
#
# _framework density 20.831586000000001
#
# number of rings (size 3 to 8) (size 9 to 14) (size 15 to 20)
#    0.000    1.750    2.500    2.625    0.000    4.500 
#    0.000    4.375    0.000    0.000    0.000    0.000 
#    0.000    0.000    0.000    0.000    0.000    0.000 
#
# Total GULP energy -178817.563057 kJ/mol
# GULP energy per Si atom -5588.048846 kJ/mol
# Density = 2.078417 g / cm^3
# Si number density = 20.831586 Si / 1000 Ang^3
#
#
#
# Elastic Constant Matrix: (Units=GPa)
#
#
# Indices 1 2 3 4 5 6 
#
# 1 26.6749 -4.8536 -6.1941 0.0000 0.0000 0.0000
# 2 -4.8536 153.9447 64.7060 0.0000 0.0000 0.0000
# 3 -6.1941 64.7060 138.3726 0.0000 0.0000 0.0000
# 4 0.0000 0.0000 0.0000 -2.8762 0.0000 0.0000
# 5 0.0000 0.0000 0.0000 0.0000 -74.2411 0.0000
# 6 0.0000 0.0000 0.0000 0.0000 0.0000 -355.3790
#
#
#
# Elastic Compliance Matrix: (Units=1/GPa)
#
#
# Indices 1 2 3 4 5 6 
#
# 1 0.037927 0.000600 0.001417 0.000000 0.000000 0.000000
# 2 0.000600 0.008094 -0.003758 0.000000 0.000000 0.000000
# 3 0.001417 -0.003758 0.009048 0.000000 0.000000 0.000000
# 4 0.000000 0.000000 0.000000 -0.347679 0.000000 0.000000
# 5 0.000000 0.000000 0.000000 0.000000 -0.013470 0.000000
# 6 0.000000 0.000000 0.000000 0.000000 0.000000 -0.002814
#
#
# Mechanical properties :
#
#
# Convention : Reuss Voigt Hill
#
# Bulk Modulus (GPa) = 19.38480 47.36764 33.37622
# Shear Modulus (GPa) = -17.34813 -68.81035 -43.07924
#
# Velocity S-wave (km/s) = -2.88892 -5.75356 -4.55243
# Velocity P-wave (km/s) = 1.34244 4.62063 3.40238
#
# Compressibility (1/GPa) = 0.05158682
#
# Stress axis : x y z
#
# Youngs Moduli (GPa) = 26.36665 123.54161 110.52467
#
# Poissons Ratio (x) = -0.07414 -0.15663
# Poissons Ratio (y) = -0.01582 0.41538
# Poissons Ratio (z) = -0.03737 0.46430
#
# Static dielectric constant tensor:
#      x y z
#    x 1.757110 0.000000 0.000000 
#    y 0.000000 1.745600 0.000000 
#    z 0.000000 0.000000 1.704840 
# 
# From -- ./inp_files/22138.got.cif
#   From: 2010.05.17/outbox.cif.g08.bks.cpg/sg38_12_cif.got.tgz:22138.got - 2010.06.03 18:07:57.
