data_PCOD9358553
_publ_section_title
;
Structure prediction by ZEFSAII (Michael W. Deem and Ramdas Pophale) SiO2 
 PCOD9358553
Probable space group: A M M 2
;
_chemical_formula_sum "Si O2"
_cell_formula_units_Z 64
_cell_length_a 22.912911
_cell_length_b 14.522766
_cell_length_c 8.276650
_cell_angle_alpha 90.000000
_cell_angle_beta 90.000000
_cell_angle_gamma 90.000000
_cell_volume 2754.128493
_symmetry_space_group_name_H-M "A M M 2"
_symmetry_group_IT_number 38
_symmetry_cell_setting 'orthorhombic'
loop_
_space_group_symop_operation_xyz
x,y,z
-x,-y,z
-x,y,z
x,-y,z
x,1/2+y,1/2+z
-x,1/2-y,1/2+z
-x,1/2+y,1/2+z
x,1/2-y,1/2+z
loop_
_atom_site_type_symbol
_atom_site_label
_atom_site_fract_x
_atom_site_fract_y
_atom_site_fract_z
Si Si1 0.742146 0.665674 0.404310
Si Si2 0.619127 0.243059 0.014746
Si Si3 0.431179 0.391031 0.751878
Si Si4 0.670496 0.405431 0.128567
Si Si5 0.223946 0.864140 0.418379
Si Si6 0.931077 0.226286 0.299792
Si Si7 0.887067 0.388173 0.113401
Si Si8 0.848716 0.097711 0.114181
O O1 0.683899 0.698118 0.500128
O O2 0.716174 0.598808 0.272832
O O3 0.766527 0.736800 0.844842
O O4 0.796570 0.623702 0.495740
O O5 0.597843 0.318091 0.879658
O O6 0.579612 0.159961 0.079026
O O7 0.629677 0.318776 0.155897
O O8 0.500000 0.392558 0.785845
O O9 0.411248 0.500000 0.754061
O O10 0.636745 0.500000 0.124765
O O11 0.712569 0.397912 0.972154
O O12 0.181001 0.868735 0.572573
O O13 0.187030 0.911759 0.281605
O O14 0.906468 0.330644 0.272594
O O15 0.918347 0.164658 0.460911
O O16 0.897941 0.171174 0.156729
O O17 0.000000 0.229942 0.277465
O O18 0.896619 0.500000 0.117565
O O19 0.875162 0.000000 0.067892
#
# Coordination Sequence:
#
# PCOD9358553 Si02
#       8
#     8   8   8   8   8   8   8   8
#     4  11  22  38  61  94 136 172 214 275 336 398
#     4  11  23  45  66  99 142 177 224 285 333 396
#     4  11  25  47  75 103 137 186 235 280 334 393
#     4  11  22  36  60  95 132 174 218 268 336 398
#     4  10  20  38  59  88 126 169 212 264 329 397
#     4  11  24  43  67  95 130 168 222 285 335 407
#     4  11  24  44  70  95 127 171 217 271 339 402
#     4  11  23  39  62  92 126 171 219 271 339 407
#
# _framework density 23.237841
#
# number of rings (size 3 to 8) (size 9 to 14) (size 15 to 20)
#    0.000    1.125    2.500    5.250    3.500    2.750 
#    0.000    1.250    0.000    5.250    0.000    0.000 
#    0.000    0.000    0.000    0.000    0.000    0.000 
#
# Total GULP energy -178306.030327 kJ/mol
# GULP energy per Si atom -5572.063448 kJ/mol
# Density = 2.318495 g / cm^3
# Si number density = 23.237841 Si / 1000 Ang^3
#
#
#
# Elastic Constant Matrix: (Units=GPa)
#
#
# Indices 1 2 3 4 5 6 
#
# 1 89.7465 43.6961 4.3489 0.0000 0.0000 0.0000
# 2 43.6961 201.4386 41.2012 0.0000 0.0000 0.0000
# 3 4.3489 41.2012 43.9713 0.0000 0.0000 0.0000
# 4 0.0000 0.0000 0.0000 34.7607 0.0000 0.0000
# 5 0.0000 0.0000 0.0000 0.0000 28.8301 0.0000
# 6 0.0000 0.0000 0.0000 0.0000 0.0000 23.7810
#
#
#
# Elastic Compliance Matrix: (Units=1/GPa)
#
#
# Indices 1 2 3 4 5 6 
#
# 1 0.012551 -0.003054 0.001620 0.000000 0.000000 0.000000
# 2 -0.003054 0.006884 -0.006149 0.000000 0.000000 0.000000
# 3 0.001620 -0.006149 0.028343 0.000000 0.000000 0.000000
# 4 0.000000 0.000000 0.000000 0.028768 0.000000 0.000000
# 5 0.000000 0.000000 0.000000 0.000000 0.034686 0.000000
# 6 0.000000 0.000000 0.000000 0.000000 0.000000 0.042050
#
#
# Mechanical properties :
#
#
# Convention : Reuss Voigt Hill
#
# Bulk Modulus (GPa) = 30.66196 57.07207 43.86701
# Shear Modulus (GPa) = 27.88331 33.86837 30.87584
#
# Velocity S-wave (km/s) = 3.46773 3.82182 3.64907
# Velocity P-wave (km/s) = 5.40898 6.63991 6.05580
#
# Compressibility (1/GPa) = 0.03261370
#
# Stress axis : x y z
#
# Youngs Moduli (GPa) = 79.67566 145.25694 35.28194
#
# Poissons Ratio (x) = 0.44360 -0.05716
# Poissons Ratio (y) = 0.24332 0.21693
# Poissons Ratio (z) = -0.12909 0.89313
#
# Static dielectric constant tensor:
#      x y z
#    x 1.824440 0.000000 0.000000 
#    y 0.000000 2.009020 0.000000 
#    z 0.000000 0.000000 2.027710 
# 
# From -- ./inp_files/6988.got.cif
#   From: 2010.05.17/outbox.cif.g08.bks.cpg/sg38_4_cif.got.tgz:6988.got - 2010.06.03 18:07:57.
