data_PCOD9358198
_publ_section_title
;
Structure prediction by ZEFSAII (Michael W. Deem and Ramdas Pophale) SiO2 
 PCOD9358198
Probable space group: A M M 2
;
_chemical_formula_sum "Si O2"
_cell_formula_units_Z 64
_cell_length_a 31.247666
_cell_length_b 10.409870
_cell_length_c 10.159453
_cell_angle_alpha 90.000000
_cell_angle_beta 90.000000
_cell_angle_gamma 90.000000
_cell_volume 3304.708941
_symmetry_space_group_name_H-M "A M M 2"
_symmetry_group_IT_number 38
_symmetry_cell_setting 'orthorhombic'
loop_
_space_group_symop_operation_xyz
x,y,z
-x,-y,z
-x,y,z
x,-y,z
x,1/2+y,1/2+z
-x,1/2-y,1/2+z
-x,1/2+y,1/2+z
x,1/2-y,1/2+z
loop_
_atom_site_type_symbol
_atom_site_label
_atom_site_fract_x
_atom_site_fract_y
_atom_site_fract_z
Si Si1 0.363503 0.357450 0.073920
Si Si2 0.773079 0.150306 0.903764
Si Si3 0.912316 0.148449 0.588304
Si Si4 0.551118 0.866481 0.927868
Si Si5 0.190094 0.851326 0.613024
Si Si6 0.051341 0.648590 0.380273
Si Si7 0.671503 0.349881 0.368434
Si Si8 0.550749 0.268960 0.168957
O O1 0.349215 0.500000 0.031871
O O2 0.342523 0.328501 0.216858
O O3 0.351286 0.247985 0.969044
O O4 0.414517 0.360269 0.101638
O O5 0.796046 0.173961 0.763624
O O6 0.722378 0.166885 0.882293
O O7 0.781021 0.000000 0.939773
O O8 0.789088 0.249266 0.013892
O O9 0.861085 0.157168 0.600259
O O10 0.929065 0.250049 0.482087
O O11 0.932432 0.173895 0.732020
O O12 0.923243 0.000000 0.552608
O O13 0.500000 0.869963 0.921793
O O14 0.559782 0.854061 0.080416
O O15 0.561820 0.758735 0.821833
O O16 0.567914 0.000000 0.872856
O O17 0.202864 0.000000 0.583170
O O18 0.063347 0.500000 0.412327
O O19 0.000000 0.657636 0.383540
O O20 0.662239 0.500000 0.400111
O O21 0.500000 0.302770 0.153965
#
# Coordination Sequence:
#
# PCOD9358198 Si02
#       8
#     8   8   8   8   8   8   8   8
#     4  11  23  39  60  85 114 149 187 229 277 328
#     4  10  21  39  62  86 114 149 187 229 283 346
#     4  10  21  37  57  84 118 153 193 244 298 349
#     4   9  18  34  54  75 103 138 174 216 264 312
#     4  10  21  37  60  90 120 150 187 236 293 350
#     4  10  21  37  57  81 113 158 208 252 293 340
#     4  10  23  42  62  86 116 149 187 231 278 335
#     4  10  20  35  57  83 110 143 183 225 272 325
#
# _framework density 19.366306000000002
#
# number of rings (size 3 to 8) (size 9 to 14) (size 15 to 20)
#    0.000    2.000    0.000    3.000    0.000    7.500 
#    0.000    2.500    0.000    7.500    0.000    0.000 
#    0.000    0.000    0.000    0.000    0.000    0.000 
#
# Total GULP energy -178324.370793 kJ/mol
# GULP energy per Si atom -5572.636587 kJ/mol
# Density = 1.932223 g / cm^3
# Si number density = 19.366306 Si / 1000 Ang^3
#
#
#
# Elastic Constant Matrix: (Units=GPa)
#
#
# Indices 1 2 3 4 5 6 
#
# 1 50.0882 16.1145 6.7413 0.0000 0.0000 0.0000
# 2 16.1145 104.0969 76.0342 0.0000 0.0000 0.0000
# 3 6.7413 76.0342 109.9106 0.0000 0.0000 0.0000
# 4 0.0000 0.0000 0.0000 33.3079 0.0000 0.0000
# 5 0.0000 0.0000 0.0000 0.0000 35.6295 0.0000
# 6 0.0000 0.0000 0.0000 0.0000 0.0000 20.4736
#
#
#
# Elastic Compliance Matrix: (Units=1/GPa)
#
#
# Indices 1 2 3 4 5 6 
#
# 1 0.021219 -0.004718 0.001963 0.000000 0.000000 0.000000
# 2 -0.004718 0.020467 -0.013870 0.000000 0.000000 0.000000
# 3 0.001963 -0.013870 0.018573 0.000000 0.000000 0.000000
# 4 0.000000 0.000000 0.000000 0.030023 0.000000 0.000000
# 5 0.000000 0.000000 0.000000 0.000000 0.028067 0.000000
# 6 0.000000 0.000000 0.000000 0.000000 0.000000 0.048843
#
#
# Mechanical properties :
#
#
# Convention : Reuss Voigt Hill
#
# Bulk Modulus (GPa) = 37.02581 51.31952 44.17267
# Shear Modulus (GPa) = 23.87262 28.89590 26.38426
#
# Velocity S-wave (km/s) = 3.51478 3.86692 3.69505
# Velocity P-wave (km/s) = 5.96923 6.81868 6.40805
#
# Compressibility (1/GPa) = 0.02700819
#
# Stress axis : x y z
#
# Youngs Moduli (GPa) = 47.12844 48.85807 53.84248
#
# Poissons Ratio (x) = 0.23052 -0.10567
# Poissons Ratio (y) = 0.22236 0.74678
# Poissons Ratio (z) = -0.09249 0.67764
#
# Static dielectric constant tensor:
#      x y z
#    x 1.697540 0.000000 0.000000 
#    y 0.000000 1.692120 0.000000 
#    z 0.000000 0.000000 1.643320 
# 
# From -- ./inp_files/7050.got.cif
#   From: 2010.05.17/outbox.cif.g08.bks.cpg/sg38_4_cif.got.tgz:7050.got - 2010.06.03 18:07:57.
