data_PCOD9358340
_publ_section_title
;
Structure prediction by ZEFSAII (Michael W. Deem and Ramdas Pophale) SiO2 
 PCOD9358340
Probable space group: A M M 2
;
_chemical_formula_sum "Si O2"
_cell_formula_units_Z 48
_cell_length_a 7.937636
_cell_length_b 34.830332
_cell_length_c 9.168651
_cell_angle_alpha 90.000000
_cell_angle_beta 90.000000
_cell_angle_gamma 90.000000
_cell_volume 2534.861500
_symmetry_space_group_name_H-M "A M M 2"
_symmetry_group_IT_number 38
_symmetry_cell_setting 'orthorhombic'
loop_
_space_group_symop_operation_xyz
x,y,z
-x,-y,z
-x,y,z
x,-y,z
x,1/2+y,1/2+z
-x,1/2-y,1/2+z
-x,1/2+y,1/2+z
x,1/2-y,1/2+z
loop_
_atom_site_type_symbol
_atom_site_label
_atom_site_fract_x
_atom_site_fract_y
_atom_site_fract_z
Si Si1 0.306393 0.078545 0.434920
Si Si2 0.500000 0.210323 0.925032
Si Si3 0.203071 0.424654 0.601400
Si Si4 0.500000 0.707284 0.074129
Si Si5 0.205965 0.500000 0.425133
Si Si6 0.797779 0.000000 0.590075
Si Si7 0.186622 0.653892 0.084273
Si Si8 0.803809 0.153841 0.932241
O O1 0.500000 0.087439 0.466811
O O2 0.277995 0.075700 0.262416
O O3 0.201566 0.113504 0.502199
O O4 0.260930 0.038188 0.508282
O O5 0.500000 0.213204 0.749095
O O6 0.667255 0.186376 0.968217
O O7 0.500000 0.252062 0.995281
O O8 0.259918 0.461721 0.509855
O O9 0.239668 0.385347 0.516049
O O10 0.000000 0.427179 0.615586
O O11 0.334508 0.682422 0.036789
O O12 0.261866 0.500000 0.257595
O O13 0.000000 0.500000 0.423538
O O14 0.000000 0.000000 0.590448
O O15 0.206341 0.646910 0.257935
O O16 0.000000 0.670336 0.059859
O O17 0.000000 0.163838 0.965080
#
# Coordination Sequence:
#
# PCOD9358340 Si02
#       8
#     8   4   8   4   4   4   8   8
#     4  12  24  37  55  87 122 154 197 245 294 348
#     4  10  22  38  62  85 126 151 190 238 299 340
#     4  10  20  36  58  86 116 153 198 244 295 346
#     4  10  22  40  58  93 116 155 192 240 285 362
#     4   9  19  37  60  82 110 151 204 249 286 345
#     4  11  22  39  60  82 112 159 204 244 295 343
#     4  10  20  40  64  86 117 157 197 242 292 347
#     4   9  20  38  62  88 115 155 202 240 289 355
#
# _framework density 18.935945
#
# number of rings (size 3 to 8) (size 9 to 14) (size 15 to 20)
#    0.000    1.833    0.833    3.250    1.167    5.333 
#    0.000    1.667    0.000    0.000    0.000    0.000 
#    0.000    0.000    0.000    0.000    0.000    0.000 
#
# Total GULP energy -134093.111017 kJ/mol
# GULP energy per Si atom -5587.212959 kJ/mol
# Density = 1.889285 g / cm^3
# Si number density = 18.935945 Si / 1000 Ang^3
#
#
#
# Elastic Constant Matrix: (Units=GPa)
#
#
# Indices 1 2 3 4 5 6 
#
# 1 99.4800 68.0915 45.1376 0.0000 0.0000 0.0000
# 2 68.0915 157.4661 62.2987 0.0000 0.0000 0.0000
# 3 45.1376 62.2987 69.4725 0.0000 0.0000 0.0000
# 4 0.0000 0.0000 0.0000 38.9523 0.0000 0.0000
# 5 0.0000 0.0000 0.0000 0.0000 18.7002 0.0000
# 6 0.0000 0.0000 0.0000 0.0000 0.0000 10.1810
#
#
#
# Elastic Compliance Matrix: (Units=1/GPa)
#
#
# Indices 1 2 3 4 5 6 
#
# 1 0.015962 -0.004339 -0.006481 0.000000 0.000000 0.000000
# 2 -0.004339 0.011022 -0.007065 0.000000 0.000000 0.000000
# 3 -0.006481 -0.007065 0.024940 0.000000 0.000000 0.000000
# 4 0.000000 0.000000 0.000000 0.025672 0.000000 0.000000
# 5 0.000000 0.000000 0.000000 0.000000 0.053475 0.000000
# 6 0.000000 0.000000 0.000000 0.000000 0.000000 0.098222
#
#
# Mechanical properties :
#
#
# Convention : Reuss Voigt Hill
#
# Bulk Modulus (GPa) = 61.89505 75.27492 68.58499
# Shear Modulus (GPa) = 18.48790 23.62606 21.05698
#
# Velocity S-wave (km/s) = 3.12803 3.53609 3.33830
# Velocity P-wave (km/s) = 6.76784 7.51735 7.15242
#
# Compressibility (1/GPa) = 0.01615638
#
# Stress axis : x y z
#
# Youngs Moduli (GPa) = 62.64749 90.73021 40.09632
#
# Poissons Ratio (x) = 0.39364 0.25984
# Poissons Ratio (y) = 0.27180 0.28327
# Poissons Ratio (z) = 0.40599 0.64099
#
# Static dielectric constant tensor:
#      x y z
#    x 1.671510 0.000000 0.000000 
#    y 0.000000 1.638310 0.000000 
#    z 0.000000 0.000000 1.630020 
# 
# From -- ./inp_files/3861.got.cif
#   From: 2010.05.17/outbox.cif.g08.bks.cpg/sg38_2_cif.got.tgz:3861.got - 2010.06.03 18:07:57.
