data_PCOD9358574
_publ_section_title
;
Structure prediction by ZEFSAII (Michael W. Deem and Ramdas Pophale) SiO2 
 PCOD9358574
Probable space group: A M M 2
;
_chemical_formula_sum "Si O2"
_cell_formula_units_Z 64
_cell_length_a 13.832572
_cell_length_b 23.083510
_cell_length_c 9.731428
_cell_angle_alpha 90.000000
_cell_angle_beta 90.000000
_cell_angle_gamma 90.000000
_cell_volume 3107.286943
_symmetry_space_group_name_H-M "A M M 2"
_symmetry_group_IT_number 38
_symmetry_cell_setting 'orthorhombic'
loop_
_space_group_symop_operation_xyz
x,y,z
-x,-y,z
-x,y,z
x,-y,z
x,1/2+y,1/2+z
-x,1/2-y,1/2+z
-x,1/2+y,1/2+z
x,1/2-y,1/2+z
loop_
_atom_site_type_symbol
_atom_site_label
_atom_site_fract_x
_atom_site_fract_y
_atom_site_fract_z
Si Si1 0.757769 0.752539 0.480470
Si Si2 0.609764 0.651291 0.890631
Si Si3 0.111786 0.877504 0.110157
Si Si4 0.112644 0.256059 0.217052
Si Si5 0.266542 0.430717 0.408517
Si Si6 0.107624 0.430871 0.896908
Si Si7 0.389204 0.349489 0.571925
Si Si8 0.716919 0.430619 0.087582
O O1 0.685023 0.797408 0.412170
O O2 0.838192 0.736945 0.365627
O O3 0.815398 0.782935 0.605037
O O4 0.688612 0.700614 0.534363
O O5 0.500000 0.671311 0.911001
O O6 0.619972 0.633385 0.731763
O O7 0.635271 0.602264 0.001318
O O8 0.115601 0.810909 0.161941
O O9 0.141704 0.912739 0.246068
O O10 0.000000 0.890513 0.078291
O O11 0.178170 0.898195 0.985220
O O12 0.000000 0.274004 0.217569
O O13 0.256460 0.500000 0.423823
O O14 0.360941 0.404789 0.481643
O O15 0.274738 0.416363 0.247743
O O16 0.100555 0.500000 0.900433
O O17 0.000000 0.405625 0.917072
O O18 0.183581 0.414273 0.011423
O O19 0.500000 0.330505 0.548104
O O20 0.703881 0.500000 0.076483
#
# Coordination Sequence:
#
# PCOD9358574 Si02
#       8
#     8   8   8   8   8   8   8   8
#     4  12  22  44  66  96 134 164 214 267 325 383
#     4  11  25  44  68  94 122 168 223 271 326 388
#     4  10  20  38  62  92 128 170 218 263 313 381
#     4  11  24  40  65  96 132 171 208 254 317 391
#     4  11  23  40  62  94 132 170 214 270 332 391
#     4   9  17  32  57  87 121 166 214 256 305 368
#     4  11  25  45  67  94 125 169 224 275 328 389
#     4  10  23  40  61  92 132 169 210 268 331 391
#
# _framework density 20.596747000000001
#
# number of rings (size 3 to 8) (size 9 to 14) (size 15 to 20)
#    0.000    1.375    2.500    2.625    1.750    3.750 
#    0.000    4.375    0.000    0.000    0.000    0.000 
#    0.000    0.000    0.000    0.000    0.000    0.000 
#
# Total GULP energy -178750.466067 kJ/mol
# GULP energy per Si atom -5585.952065 kJ/mol
# Density = 2.054987 g / cm^3
# Si number density = 20.596747 Si / 1000 Ang^3
#
#
#
# Elastic Constant Matrix: (Units=GPa)
#
#
# Indices 1 2 3 4 5 6 
#
# 1 131.5278 23.4381 60.5768 0.0000 0.0000 0.0000
# 2 23.4381 55.2759 27.6598 0.0000 0.0000 0.0000
# 3 60.5768 27.6598 130.5440 0.0000 0.0000 0.0000
# 4 0.0000 0.0000 0.0000 31.4907 0.0000 0.0000
# 5 0.0000 0.0000 0.0000 0.0000 -127.3056 0.0000
# 6 0.0000 0.0000 0.0000 0.0000 0.0000 14.8277
#
#
#
# Elastic Compliance Matrix: (Units=1/GPa)
#
#
# Indices 1 2 3 4 5 6 
#
# 1 0.009887 -0.002121 -0.004138 0.000000 0.000000 0.000000
# 2 -0.002121 0.020692 -0.003400 0.000000 0.000000 0.000000
# 3 -0.004138 -0.003400 0.010301 0.000000 0.000000 0.000000
# 4 0.000000 0.000000 0.000000 0.031755 0.000000 0.000000
# 5 0.000000 0.000000 0.000000 0.000000 -0.007855 0.000000
# 6 0.000000 0.000000 0.000000 0.000000 0.000000 0.067441
#
#
# Mechanical properties :
#
#
# Convention : Reuss Voigt Hill
#
# Bulk Modulus (GPa) = 46.38107 60.07745 53.22926
# Shear Modulus (GPa) = 31.50056 -2.48589 14.50733
#
# Velocity S-wave (km/s) = 3.91499 -1.09980 2.65684
# Velocity P-wave (km/s) = 6.55772 5.25538 5.94234
#
# Compressibility (1/GPa) = 0.02156052
#
# Stress axis : x y z
#
# Youngs Moduli (GPa) = 101.14303 48.32824 97.07834
#
# Poissons Ratio (x) = 0.10253 0.40175
# Poissons Ratio (y) = 0.21457 0.33005
# Poissons Ratio (z) = 0.41857 0.16431
#
# Static dielectric constant tensor:
#      x y z
#    x 1.790480 0.000000 0.000000 
#    y 0.000000 1.765670 0.000000 
#    z 0.000000 0.000000 1.728750 
# 
# From -- ./inp_files/5893.got.cif
#   From: 2010.05.17/outbox.cif.g08.bks.cpg/sg38_3_cif.got.tgz:5893.got - 2010.06.03 18:07:57.
