data_PCOD9358930
_publ_section_title
;
Structure prediction by ZEFSAII (Michael W. Deem and Ramdas Pophale) SiO2 
 PCOD9358930
Probable space group: A M M 2
;
_chemical_formula_sum "Si O2"
_cell_formula_units_Z 48
_cell_length_a 27.533063
_cell_length_b 8.531680
_cell_length_c 10.590323
_cell_angle_alpha 90.000000
_cell_angle_beta 90.000000
_cell_angle_gamma 90.000000
_cell_volume 2487.701640
_symmetry_space_group_name_H-M "A M M 2"
_symmetry_group_IT_number 38
_symmetry_cell_setting 'orthorhombic'
loop_
_space_group_symop_operation_xyz
x,y,z
-x,-y,z
-x,y,z
x,-y,z
x,1/2+y,1/2+z
-x,1/2-y,1/2+z
-x,1/2+y,1/2+z
x,1/2-y,1/2+z
loop_
_atom_site_type_symbol
_atom_site_label
_atom_site_fract_x
_atom_site_fract_y
_atom_site_fract_z
Si Si1 0.888411 0.188017 0.304710
Si Si2 0.723455 0.810366 0.071912
Si Si3 0.611197 0.310561 0.557000
Si Si4 0.556155 0.689527 0.303192
Si Si5 0.056143 0.189507 0.558990
Si Si6 0.221063 0.311989 0.317327
O O1 0.917303 0.239939 0.430193
O O2 0.915440 0.248508 0.180303
O O3 0.833455 0.248268 0.309618
O O4 0.888005 0.000000 0.302365
O O5 0.667361 0.760040 0.061588
O O6 0.748357 0.745722 0.197472
O O7 0.724467 0.000000 0.076774
O O8 0.753095 0.760826 0.947370
O O9 0.610489 0.500000 0.558246
O O10 0.584895 0.258349 0.428365
O O11 0.582438 0.250375 0.678365
O O12 0.500000 0.740395 0.307583
O O13 0.556859 0.500000 0.301269
O O14 0.000000 0.240780 0.560376
O O15 0.056853 0.000000 0.561966
O O16 0.219690 0.500000 0.316220
#
# Coordination Sequence:
#
# PCOD9358930 Si02
#       6
#     8   8   8   8   8   8
#     4  11  23  39  60  87 118 151 190 235 282 334
#     4  10  22  39  59  85 114 146 188 235 283 337
#     4  10  21  38  59  83 113 148 187 233 283 335
#     4  10  21  37  57  83 115 149 187 232 280 333
#     4  10  22  40  61  87 118 151 190 235 282 334
#     4  11  23  39  60  85 114 150 190 232 282 338
#
# _framework density 19.294917000000002
#
# number of rings (size 3 to 8) (size 9 to 14) (size 15 to 20)
#    0.000    1.667    0.000    4.000    0.000   10.000 
#    0.000    0.000    0.000    0.000    0.000    0.000 
#    0.000    0.000    0.000    0.000    0.000    0.000 
#
# Total GULP energy -134195.581960 kJ/mol
# GULP energy per Si atom -5591.482582 kJ/mol
# Density = 1.925100 g / cm^3
# Si number density = 19.294917 Si / 1000 Ang^3
#
#
#
# Elastic Constant Matrix: (Units=GPa)
#
#
# Indices 1 2 3 4 5 6 
#
# 1 82.5294 8.6290 -6.5398 0.0000 0.0000 0.0000
# 2 8.6290 8.8455 8.1170 0.0000 0.0000 0.0000
# 3 -6.5398 8.1170 91.3080 0.0000 0.0000 0.0000
# 4 0.0000 0.0000 0.0000 31.6296 0.0000 0.0000
# 5 0.0000 0.0000 0.0000 0.0000 44.0350 0.0000
# 6 0.0000 0.0000 0.0000 0.0000 0.0000 20.7594
#
#
#
# Elastic Compliance Matrix: (Units=1/GPa)
#
#
# Indices 1 2 3 4 5 6 
#
# 1 0.013963 -0.015830 0.002407 0.000000 0.000000 0.000000
# 2 -0.015830 0.141041 -0.013672 0.000000 0.000000 0.000000
# 3 0.002407 -0.013672 0.012340 0.000000 0.000000 0.000000
# 4 0.000000 0.000000 0.000000 0.031616 0.000000 0.000000
# 5 0.000000 0.000000 0.000000 0.000000 0.022709 0.000000
# 6 0.000000 0.000000 0.000000 0.000000 0.000000 0.048171
#
#
# Mechanical properties :
#
#
# Convention : Reuss Voigt Hill
#
# Bulk Modulus (GPa) = 8.83753 22.56616 15.70184
# Shear Modulus (GPa) = 13.82181 30.78324 22.30253
#
# Velocity S-wave (km/s) = 2.67937 3.99859 3.40351
# Velocity P-wave (km/s) = 3.76327 5.74796 4.85805
#
# Compressibility (1/GPa) = 0.11315382
#
# Stress axis : x y z
#
# Youngs Moduli (GPa) = 71.61885 7.09015 81.03891
#
# Poissons Ratio (x) = 0.11224 -0.19509
# Poissons Ratio (y) = 1.13374 1.10796
# Poissons Ratio (z) = -0.17241 0.09694
#
# Static dielectric constant tensor:
#      x y z
#    x 1.691840 0.000000 0.000000 
#    y 0.000000 1.666190 0.000000 
#    z 0.000000 0.000000 1.630350 
# 
# From -- ./inp_files/7030.got.cif
#   From: 2010.05.17/outbox.cif.g08.bks.cpg/sg38_4_cif.got.tgz:7030.got - 2010.06.03 18:07:57.
