data_PCOD9358676
_publ_section_title
;
Structure prediction by ZEFSAII (Michael W. Deem and Ramdas Pophale) SiO2 
 PCOD9358676
Probable space group: A M M 2
;
_chemical_formula_sum "Si O2"
_cell_formula_units_Z 48
_cell_length_a 8.996008
_cell_length_b 7.645556
_cell_length_c 36.801853
_cell_angle_alpha 90.000000
_cell_angle_beta 90.000000
_cell_angle_gamma 90.000000
_cell_volume 2531.212421
_symmetry_space_group_name_H-M "A M M 2"
_symmetry_group_IT_number 38
_symmetry_cell_setting 'orthorhombic'
loop_
_space_group_symop_operation_xyz
x,y,z
-x,-y,z
-x,y,z
x,-y,z
x,1/2+y,1/2+z
-x,1/2-y,1/2+z
-x,1/2+y,1/2+z
x,1/2-y,1/2+z
loop_
_atom_site_type_symbol
_atom_site_label
_atom_site_fract_x
_atom_site_fract_y
_atom_site_fract_z
Si Si1 0.176187 0.211613 0.165980
Si Si2 0.821154 0.703082 0.939178
Si Si3 0.181560 0.500000 0.300542
Si Si4 0.818256 0.702425 0.745260
Si Si5 0.829931 0.289696 0.587687
Si Si6 0.333116 0.290385 0.013051
Si Si7 0.181342 0.000000 0.883677
O O1 0.232836 0.269759 0.205394
O O2 0.234986 0.271916 0.126699
O O3 0.000000 0.252178 0.164599
O O4 0.188556 0.000000 0.167440
O O5 0.777587 0.500000 0.933347
O O6 0.757980 0.768301 0.977737
O O7 0.773093 0.829402 0.906598
O O8 0.000000 0.708083 0.941287
O O9 0.227648 0.670212 0.277565
O O10 0.232741 0.500000 0.342109
O O11 0.000000 0.500000 0.301135
O O12 0.773686 0.500000 0.750389
O O13 0.000000 0.703388 0.743998
O O14 0.836665 0.500000 0.590284
O O15 0.740846 0.247714 0.551624
O O16 0.000000 0.225615 0.583864
O O17 0.500000 0.220317 0.011996
O O18 0.338568 0.500000 0.010133
O O19 0.000000 0.000000 0.882863
#
# Coordination Sequence:
#
# PCOD9358676 Si02
#       7
#     8   8   4   8   8   8   4
#     4   7  11  22  38  57  85 121 157 188 223 270
#     4   9  18  33  51  68  91 126 162 197 241 292
#     4   9  16  24  36  61  91 117 153 193 231 283
#     4   8  13  22  36  54  84 124 155 185 228 275
#     4   9  17  29  47  70  95 124 160 202 241 281
#     4  10  21  35  48  66  95 125 157 200 246 292
#     4   9  18  30  45  67  93 121 159 203 239 287
#
# _framework density 18.963244
#
# number of rings (size 3 to 8) (size 9 to 14) (size 15 to 20)
#    0.000    3.333    0.000    2.500    1.167    2.000 
#    1.500    3.333    0.000    0.000    0.000    0.000 
#    0.000    2.667    0.000    5.833    0.000    5.333 
#
# Total GULP energy -133625.073987 kJ/mol
# GULP energy per Si atom -5567.711416 kJ/mol
# Density = 1.892008 g / cm^3
# Si number density = 18.963244 Si / 1000 Ang^3
#
#
#
# Elastic Constant Matrix: (Units=GPa)
#
#
# Indices 1 2 3 4 5 6 
#
# 1 11.8884 16.1195 31.0063 0.0000 0.0000 0.0000
# 2 16.1195 76.8363 73.8870 0.0000 0.0000 0.0000
# 3 31.0063 73.8870 233.8907 0.0000 0.0000 0.0000
# 4 0.0000 0.0000 0.0000 50.0719 0.0000 0.0000
# 5 0.0000 0.0000 0.0000 0.0000 -6.0948 0.0000
# 6 0.0000 0.0000 0.0000 0.0000 0.0000 4.4630
#
#
#
# Elastic Compliance Matrix: (Units=1/GPa)
#
#
# Indices 1 2 3 4 5 6 
#
# 1 0.142242 -0.016817 -0.013544 0.000000 0.000000 0.000000
# 2 -0.016817 0.020681 -0.004304 0.000000 0.000000 0.000000
# 3 -0.013544 -0.004304 0.007431 0.000000 0.000000 0.000000
# 4 0.000000 0.000000 0.000000 0.019971 0.000000 0.000000
# 5 0.000000 0.000000 0.000000 0.000000 -0.164073 0.000000
# 6 0.000000 0.000000 0.000000 0.000000 0.000000 0.224067
#
#
# Mechanical properties :
#
#
# Convention : Reuss Voigt Hill
#
# Bulk Modulus (GPa) = 9.89859 62.73790 36.31824
# Shear Modulus (GPa) = 14.15134 23.12818 18.63976
#
# Velocity S-wave (km/s) = 2.73472 3.49611 3.13859
# Velocity P-wave (km/s) = 3.89908 7.03227 5.68576
#
# Compressibility (1/GPa) = 0.10102451
#
# Stress axis : x y z
#
# Youngs Moduli (GPa) = 7.03027 48.35254 134.57711
#
# Poissons Ratio (x) = 0.81312 1.82275
# Poissons Ratio (y) = 0.11823 0.57922
# Poissons Ratio (z) = 0.09522 0.20811
#
# Static dielectric constant tensor:
#      x y z
#    x 1.631450 0.000000 0.000000 
#    y 0.000000 1.688880 0.000000 
#    z 0.000000 0.000000 1.678980 
# 
# From -- ./inp_files/24394.got.cif
#   From: 2010.05.17/outbox.cif.g08.bks.cpg/sg38_13_cif.got.tgz:24394.got - 2010.06.03 18:07:57.
