data_PCOD9358755
_publ_section_title
;
Structure prediction by ZEFSAII (Michael W. Deem and Ramdas Pophale) SiO2 
 PCOD9358755
Probable space group: A M M 2
;
_chemical_formula_sum "Si O2"
_cell_formula_units_Z 56
_cell_length_a 7.771098
_cell_length_b 15.091359
_cell_length_c 22.767608
_cell_angle_alpha 90.000000
_cell_angle_beta 90.000000
_cell_angle_gamma 90.000000
_cell_volume 2670.103780
_symmetry_space_group_name_H-M "A M M 2"
_symmetry_group_IT_number 38
_symmetry_cell_setting 'orthorhombic'
loop_
_space_group_symop_operation_xyz
x,y,z
-x,-y,z
-x,y,z
x,-y,z
x,1/2+y,1/2+z
-x,1/2-y,1/2+z
-x,1/2+y,1/2+z
x,1/2-y,1/2+z
loop_
_atom_site_type_symbol
_atom_site_label
_atom_site_fract_x
_atom_site_fract_y
_atom_site_fract_z
Si Si1 0.207794 0.100504 0.340570
Si Si2 0.789978 0.098371 0.476408
Si Si3 0.788590 0.283747 0.515833
Si Si4 0.209373 0.100654 0.905971
Si Si5 0.303500 0.713594 0.730567
Si Si6 0.792527 0.099309 0.771750
Si Si7 0.200710 0.400604 0.623201
O O1 0.259875 0.113884 0.408228
O O2 0.274231 0.171923 0.294868
O O3 0.000000 0.104720 0.339138
O O4 0.258571 0.000000 0.323383
O O5 0.733228 0.181560 0.514703
O O6 0.000000 0.096985 0.476857
O O7 0.731847 0.000000 0.493884
O O8 0.734505 0.330513 0.455084
O O9 0.725182 0.341164 0.570628
O O10 0.000000 0.283177 0.516400
O O11 0.267225 0.115924 0.839062
O O12 0.000000 0.104206 0.904712
O O13 0.256783 0.000000 0.922602
O O14 0.500000 0.704221 0.714079
O O15 0.258066 0.817147 0.732791
O O16 0.206052 0.653808 0.683484
O O17 0.000000 0.097412 0.773113
O O18 0.734518 0.000000 0.754477
O O19 0.274137 0.500000 0.628529
O O20 0.000000 0.410880 0.608104
#
# Coordination Sequence:
#
# PCOD9358755 Si02
#       7
#     8   8   8   8   8   8   8
#     4   9  17  31  53  79 106 136 170 210 256 306
#     4   8  14  25  45  76 107 129 154 198 257 312
#     4   9  15  25  45  72 101 130 161 204 255 302
#     4   8  13  23  45  78 106 124 150 196 253 303
#     4  12  24  35  50  72 102 140 176 213 258 304
#     4   9  18  34  57  82 106 133 166 205 250 303
#     4  10  21  36  53  73  98 131 174 220 259 299
#
# _framework density 20.972967000000001
#
# number of rings (size 3 to 8) (size 9 to 14) (size 15 to 20)
#    0.000    2.714    0.000    4.714    0.000    6.571 
#    0.000    0.714    0.000    6.000    0.000    4.000 
#    0.000    0.000    0.000    0.000    0.000    0.000 
#
# Total GULP energy -156225.636981 kJ/mol
# GULP energy per Si atom -5579.487035 kJ/mol
# Density = 2.092523 g / cm^3
# Si number density = 20.972967 Si / 1000 Ang^3
#
#
#
# Elastic Constant Matrix: (Units=GPa)
#
#
# Indices 1 2 3 4 5 6 
#
# 1 27.1281 4.7674 -0.8898 0.0000 0.0000 0.0000
# 2 4.7674 195.9832 73.9770 0.0000 0.0000 0.0000
# 3 -0.8898 73.9770 49.4453 0.0000 0.0000 0.0000
# 4 0.0000 0.0000 0.0000 24.8056 0.0000 0.0000
# 5 0.0000 0.0000 0.0000 0.0000 -24.5955 0.0000
# 6 0.0000 0.0000 0.0000 0.0000 0.0000 -20.8206
#
#
#
# Elastic Compliance Matrix: (Units=1/GPa)
#
#
# Indices 1 2 3 4 5 6 
#
# 1 0.037487 -0.002680 0.004684 0.000000 0.000000 0.000000
# 2 -0.002680 0.011914 -0.017874 0.000000 0.000000 0.000000
# 3 0.004684 -0.017874 0.047051 0.000000 0.000000 0.000000
# 4 0.000000 0.000000 0.000000 0.040313 0.000000 0.000000
# 5 0.000000 0.000000 0.000000 0.000000 -0.040658 0.000000
# 6 0.000000 0.000000 0.000000 0.000000 0.000000 -0.048029
#
#
# Mechanical properties :
#
#
# Convention : Reuss Voigt Hill
#
# Bulk Modulus (GPa) = 15.45298 47.58510 31.51904
# Shear Modulus (GPa) = 49.31543 8.85804 29.08673
#
# Velocity S-wave (km/s) = 4.85436 2.05736 3.72811
# Velocity P-wave (km/s) = 6.22927 5.32744 5.79593
#
# Compressibility (1/GPa) = 0.06471245
#
# Stress axis : x y z
#
# Youngs Moduli (GPa) = 26.67603 83.93155 21.25375
#
# Poissons Ratio (x) = 0.22494 -0.09956
# Poissons Ratio (y) = 0.07149 0.37989
# Poissons Ratio (z) = -0.12496 1.50019
#
# Static dielectric constant tensor:
#      x y z
#    x 1.772600 0.000000 0.000000 
#    y 0.000000 1.777400 0.000000 
#    z 0.000000 0.000000 1.723210 
# 
# From -- ./inp_files/19822.got.cif
#   From: 2010.05.17/outbox.cif.g08.bks.cpg/sg38_10_cif.got.tgz:19822.got - 2010.06.03 18:07:57.
