data_PCOD9358802
_publ_section_title
;
Structure prediction by ZEFSAII (Michael W. Deem and Ramdas Pophale) SiO2 
 PCOD9358802
Probable space group: A M M 2
;
_chemical_formula_sum "Si O2"
_cell_formula_units_Z 64
_cell_length_a 14.162241
_cell_length_b 8.865418
_cell_length_c 26.603193
_cell_angle_alpha 90.000000
_cell_angle_beta 90.000000
_cell_angle_gamma 90.000000
_cell_volume 3340.142250
_symmetry_space_group_name_H-M "A M M 2"
_symmetry_group_IT_number 38
_symmetry_cell_setting 'orthorhombic'
loop_
_space_group_symop_operation_xyz
x,y,z
-x,-y,z
-x,y,z
x,-y,z
x,1/2+y,1/2+z
-x,1/2-y,1/2+z
-x,1/2+y,1/2+z
x,1/2-y,1/2+z
loop_
_atom_site_type_symbol
_atom_site_label
_atom_site_fract_x
_atom_site_fract_y
_atom_site_fract_z
Si Si1 0.610753 0.680903 0.256330
Si Si2 0.109803 0.317814 0.397761
Si Si3 0.715953 0.680511 0.660906
Si Si4 0.885447 0.671254 0.511096
Si Si5 0.385586 0.823486 0.948775
Si Si6 0.889160 0.178318 0.615724
Si Si7 0.608657 0.316692 0.559909
Si Si8 0.288552 0.678939 0.853164
O O1 0.500000 0.722666 0.255154
O O2 0.617306 0.500000 0.256879
O O3 0.663457 0.745974 0.207735
O O4 0.659484 0.746586 0.305974
O O5 0.115211 0.500000 0.394847
O O6 0.140174 0.277008 0.455070
O O7 0.182660 0.242308 0.360050
O O8 0.000000 0.275443 0.390458
O O9 0.710505 0.500000 0.664556
O O10 0.823298 0.734025 0.654499
O O11 0.665578 0.730028 0.608878
O O12 0.849792 0.500000 0.519365
O O13 0.861969 0.771192 0.559050
O O14 0.000000 0.663290 0.509509
O O15 0.500000 0.817961 0.948238
O O16 0.343721 0.728497 0.903547
O O17 0.358508 0.000000 0.941960
O O18 0.355036 0.771819 0.004661
O O19 0.000000 0.213894 0.622152
O O20 0.876305 0.000000 0.621168
O O21 0.500000 0.267045 0.564796
O O22 0.608147 0.500000 0.558928
O O23 0.287766 0.500000 0.847923
#
# Coordination Sequence:
#
# PCOD9358802 Si02
#       8
#     8   8   8   8   8   8   8   8
#     4  11  25  46  69  90 115 153 200 249 300 359
#     4   9  19  37  60  85 117 159 205 249 294 352
#     4  11  22  37  62  92 120 153 198 251 302 356
#     4   8  15  30  53  80 111 152 201 247 290 341
#     4   9  18  35  58  83 115 156 199 241 288 352
#     4  10  21  36  54  81 122 166 205 247 295 350
#     4   8  16  32  55  84 116 150 188 232 289 355
#     4  12  25  38  58  89 122 156 197 248 303 357
#
# _framework density 19.160858999999999
#
# number of rings (size 3 to 8) (size 9 to 14) (size 15 to 20)
#    0.000    2.250    0.000    4.500    1.750    4.750 
#    0.000    2.500    0.000    5.250    0.000    0.000 
#    0.000    0.000    0.000    0.000    0.000    0.000 
#
# Total GULP energy -178752.126534 kJ/mol
# GULP energy per Si atom -5586.003954 kJ/mol
# Density = 1.911725 g / cm^3
# Si number density = 19.160859 Si / 1000 Ang^3
#
#
#
# Elastic Constant Matrix: (Units=GPa)
#
#
# Indices 1 2 3 4 5 6 
#
# 1 110.1082 54.8127 77.5718 0.0000 0.0000 0.0000
# 2 54.8127 60.8604 54.5554 0.0000 0.0000 0.0000
# 3 77.5718 54.5554 143.5396 0.0000 0.0000 0.0000
# 4 0.0000 0.0000 0.0000 30.9623 0.0000 0.0000
# 5 0.0000 0.0000 0.0000 0.0000 36.5517 0.0000
# 6 0.0000 0.0000 0.0000 0.0000 0.0000 19.4445
#
#
#
# Elastic Compliance Matrix: (Units=1/GPa)
#
#
# Indices 1 2 3 4 5 6 
#
# 1 0.019158 -0.012094 -0.005757 0.000000 0.000000 0.000000
# 2 -0.012094 0.032556 -0.005838 0.000000 0.000000 0.000000
# 3 -0.005757 -0.005838 0.012297 0.000000 0.000000 0.000000
# 4 0.000000 0.000000 0.000000 0.032297 0.000000 0.000000
# 5 0.000000 0.000000 0.000000 0.000000 0.027358 0.000000
# 6 0.000000 0.000000 0.000000 0.000000 0.000000 0.051428
#
#
# Mechanical properties :
#
#
# Convention : Reuss Voigt Hill
#
# Bulk Modulus (GPa) = 60.11906 76.48757 68.30331
# Shear Modulus (GPa) = 21.92811 25.89626 23.91219
#
# Velocity S-wave (km/s) = 3.38660 3.68029 3.53649
# Velocity P-wave (km/s) = 6.83639 7.62002 7.23881
#
# Compressibility (1/GPa) = 0.01663366
#
# Stress axis : x y z
#
# Youngs Moduli (GPa) = 52.19687 30.71592 81.32247
#
# Poissons Ratio (x) = 0.37148 0.46817
# Poissons Ratio (y) = 0.63127 0.47476
# Poissons Ratio (z) = 0.30049 0.17932
#
# Static dielectric constant tensor:
#      x y z
#    x 1.705950 0.000000 0.000000 
#    y 0.000000 1.639150 0.000000 
#    z 0.000000 0.000000 1.645850 
# 
# From -- ./inp_files/23004.got.cif
#   From: 2010.05.17/outbox.cif.g08.bks.cpg/sg38_12_cif.got.tgz:23004.got - 2010.06.03 18:07:57.
