data_PCOD9358516
_publ_section_title
;
Structure prediction by ZEFSAII (Michael W. Deem and Ramdas Pophale) SiO2 
 PCOD9358516
Probable space group: A M M 2
;
_chemical_formula_sum "Si O2"
_cell_formula_units_Z 64
_cell_length_a 24.366733
_cell_length_b 8.715129
_cell_length_c 15.437538
_cell_angle_alpha 90.000000
_cell_angle_beta 90.000000
_cell_angle_gamma 90.000000
_cell_volume 3278.303550
_symmetry_space_group_name_H-M "A M M 2"
_symmetry_group_IT_number 38
_symmetry_cell_setting 'orthorhombic'
loop_
_space_group_symop_operation_xyz
x,y,z
-x,-y,z
-x,y,z
x,-y,z
x,1/2+y,1/2+z
-x,1/2-y,1/2+z
-x,1/2+y,1/2+z
x,1/2-y,1/2+z
loop_
_atom_site_type_symbol
_atom_site_label
_atom_site_fract_x
_atom_site_fract_y
_atom_site_fract_z
Si Si1 0.561982 0.686964 0.168880
Si Si2 0.063882 0.183623 0.394700
Si Si3 0.128921 0.182040 0.737243
Si Si4 0.356497 0.682337 0.319708
Si Si5 0.244443 0.177303 0.265518
Si Si6 0.264222 0.821752 0.058993
Si Si7 0.623927 0.818448 0.497042
Si Si8 0.859520 0.815469 0.045134
O O1 0.500000 0.739440 0.185249
O O2 0.561836 0.500000 0.171657
O O3 0.605849 0.738160 0.240321
O O4 0.583633 0.730351 0.074212
O O5 0.085053 0.247351 0.302992
O O6 0.100564 0.253743 0.471394
O O7 0.000000 0.222222 0.407554
O O8 0.069743 0.000000 0.395394
O O9 0.188913 0.226729 0.774691
O O10 0.125954 0.250820 0.640330
O O11 0.123283 0.000000 0.733080
O O12 0.349754 0.500000 0.312589
O O13 0.296595 0.758447 0.316043
O O14 0.385108 0.727815 0.408875
O O15 0.259822 0.184208 0.163351
O O16 0.233774 0.000000 0.287715
O O17 0.204099 0.773223 0.025898
O O18 0.274181 0.000000 0.033948
O O19 0.314273 0.719230 0.027972
O O20 0.618095 0.000000 0.482641
O O21 0.861380 0.000000 0.049235
#
# Coordination Sequence:
#
# PCOD9358516 Si02
#       8
#     8   8   8   8   8   8   8   8
#     4   9  20  40  62  84 117 160 204 250 300 359
#     4  11  25  44  65  91 125 166 212 259 308 366
#     4  11  23  40  64  93 126 164 207 255 310 371
#     4  11  22  37  59  88 120 158 202 247 303 364
#     4  10  20  37  61  89 124 159 199 252 307 364
#     4   9  19  36  59  87 122 156 194 247 302 360
#     4  11  22  36  58  88 119 158 200 245 302 360
#     4  10  22  41  64  92 125 164 206 256 311 366
#
# _framework density 19.522292
#
# number of rings (size 3 to 8) (size 9 to 14) (size 15 to 20)
#    0.000    1.750    1.250    3.750    1.750    4.500 
#    0.000    0.000    0.000    5.250    0.000    0.000 
#    0.000    0.000    0.000    0.000    0.000    0.000 
#
# Total GULP energy -178859.224096 kJ/mol
# GULP energy per Si atom -5589.350753 kJ/mol
# Density = 1.947786 g / cm^3
# Si number density = 19.522292 Si / 1000 Ang^3
#
#
#
# Elastic Constant Matrix: (Units=GPa)
#
#
# Indices 1 2 3 4 5 6 
#
# 1 60.0837 9.7869 1.0091 0.0000 0.0000 0.0000
# 2 9.7869 40.7696 -2.3819 0.0000 0.0000 0.0000
# 3 1.0091 -2.3819 33.5695 0.0000 0.0000 0.0000
# 4 0.0000 0.0000 0.0000 33.3951 0.0000 0.0000
# 5 0.0000 0.0000 0.0000 0.0000 16.9571 0.0000
# 6 0.0000 0.0000 0.0000 0.0000 0.0000 20.0270
#
#
#
# Elastic Compliance Matrix: (Units=1/GPa)
#
#
# Indices 1 2 3 4 5 6 
#
# 1 0.017343 -0.004211 -0.000820 0.000000 0.000000 0.000000
# 2 -0.004211 0.025653 0.001947 0.000000 0.000000 0.000000
# 3 -0.000820 0.001947 0.029952 0.000000 0.000000 0.000000
# 4 0.000000 0.000000 0.000000 0.029944 0.000000 0.000000
# 5 0.000000 0.000000 0.000000 0.000000 0.058972 0.000000
# 6 0.000000 0.000000 0.000000 0.000000 0.000000 0.049933
#
#
# Mechanical properties :
#
#
# Convention : Reuss Voigt Hill
#
# Bulk Modulus (GPa) = 14.97487 16.80564 15.89026
# Shear Modulus (GPa) = 20.81377 22.47644 21.64511
#
# Velocity S-wave (km/s) = 3.26874 3.39679 3.33338
# Velocity P-wave (km/s) = 4.68333 4.90014 4.79296
#
# Compressibility (1/GPa) = 0.06677856
#
# Stress axis : x y z
#
# Youngs Moduli (GPa) = 57.65953 38.98222 33.38702
#
# Poissons Ratio (x) = 0.16416 0.02738
# Poissons Ratio (y) = 0.24282 -0.06500
# Poissons Ratio (z) = 0.04729 -0.07589
#
# Static dielectric constant tensor:
#      x y z
#    x 1.662280 0.000000 0.000000 
#    y 0.000000 1.658220 0.000000 
#    z 0.000000 0.000000 1.684480 
# 
# From -- ./inp_files/15871.got.cif
#   From: 2010.05.17/outbox.cif.g08.bks.cpg/sg38_8_cif.got.tgz:15871.got - 2010.06.03 18:07:57.
