data_PCOD9358222
_publ_section_title
;
Structure prediction by ZEFSAII (Michael W. Deem and Ramdas Pophale) SiO2 
 PCOD9358222
Probable space group: A M M 2
;
_chemical_formula_sum "Si O2"
_cell_formula_units_Z 64
_cell_length_a 19.479036
_cell_length_b 15.534178
_cell_length_c 9.618034
_cell_angle_alpha 90.000000
_cell_angle_beta 90.000000
_cell_angle_gamma 90.000000
_cell_volume 2910.328723
_symmetry_space_group_name_H-M "A M M 2"
_symmetry_group_IT_number 38
_symmetry_cell_setting 'orthorhombic'
loop_
_space_group_symop_operation_xyz
x,y,z
-x,-y,z
-x,y,z
x,-y,z
x,1/2+y,1/2+z
-x,1/2-y,1/2+z
-x,1/2+y,1/2+z
x,1/2-y,1/2+z
loop_
_atom_site_type_symbol
_atom_site_label
_atom_site_fract_x
_atom_site_fract_y
_atom_site_fract_z
Si Si1 0.866038 0.669376 0.534920
Si Si2 0.285425 0.394807 0.577102
Si Si3 0.576692 0.604932 0.087746
Si Si4 0.082018 0.331529 0.851027
Si Si5 0.827434 0.404272 0.061652
Si Si6 0.421404 0.395040 0.406977
Si Si7 0.301167 0.894549 0.398372
Si Si8 0.925679 0.598536 0.285601
O O1 0.785333 0.647788 0.525341
O O2 0.890398 0.670536 0.693999
O O3 0.890561 0.751838 0.445035
O O4 0.907203 0.598374 0.446423
O O5 0.278486 0.500000 0.566448
O O6 0.355795 0.369288 0.498760
O O7 0.292995 0.370309 0.738965
O O8 0.500000 0.632496 0.053121
O O9 0.578136 0.500000 0.087518
O O10 0.591696 0.630579 0.246525
O O11 0.629819 0.634528 0.972774
O O12 0.117171 0.407681 0.938095
O O13 0.000000 0.335461 0.853613
O O14 0.805042 0.500000 0.105594
O O15 0.760928 0.362159 0.994469
O O16 0.864421 0.362744 0.193878
O O17 0.500000 0.367986 0.445586
O O18 0.422679 0.500000 0.411358
O O19 0.299378 0.000000 0.398353
O O20 0.930344 0.500000 0.237453
O O21 0.000000 0.640356 0.259973
#
# Coordination Sequence:
#
# PCOD9358222 Si02
#       8
#     8   8   8   8   8   8   8   8
#     4  12  25  42  60  84 113 151 197 247 297 356
#     4  10  20  35  57  88 124 158 194 240 293 347
#     4   8  14  25  44  74 114 157 194 228 275 335
#     4  12  25  42  63  82 111 151 194 245 300 359
#     4  10  21  38  60  88 117 147 186 236 294 358
#     4   8  15  28  49  82 122 160 196 235 282 335
#     4   9  17  30  49  78 115 151 186 227 278 337
#     4  10  21  37  58  84 113 145 186 236 294 357
#
# _framework density 21.990642999999999
#
# number of rings (size 3 to 8) (size 9 to 14) (size 15 to 20)
#    0.000    2.125    1.250    3.375    1.750    1.750 
#    0.000    2.500    0.000    0.000    0.000    1.750 
#    0.000    0.000    0.000    0.000    0.000    0.000 
#
# Total GULP energy -178517.909159 kJ/mol
# GULP energy per Si atom -5578.684661 kJ/mol
# Density = 2.194059 g / cm^3
# Si number density = 21.990643 Si / 1000 Ang^3
#
#
#
# Elastic Constant Matrix: (Units=GPa)
#
#
# Indices 1 2 3 4 5 6 
#
# 1 168.6172 -4.3936 59.1019 0.0000 0.0000 0.0000
# 2 -4.3936 27.4117 -2.2072 0.0000 0.0000 0.0000
# 3 59.1019 -2.2072 111.1886 0.0000 0.0000 0.0000
# 4 0.0000 0.0000 0.0000 10.0839 0.0000 0.0000
# 5 0.0000 0.0000 0.0000 0.0000 45.2613 0.0000
# 6 0.0000 0.0000 0.0000 0.0000 0.0000 11.1156
#
#
#
# Elastic Compliance Matrix: (Units=1/GPa)
#
#
# Indices 1 2 3 4 5 6 
#
# 1 0.007309 0.000860 -0.003868 0.000000 0.000000 0.000000
# 2 0.000860 0.036640 0.000270 0.000000 0.000000 0.000000
# 3 -0.003868 0.000270 0.011055 0.000000 0.000000 0.000000
# 4 0.000000 0.000000 0.000000 0.099168 0.000000 0.000000
# 5 0.000000 0.000000 0.000000 0.000000 0.022094 0.000000
# 6 0.000000 0.000000 0.000000 0.000000 0.000000 0.089964
#
#
# Mechanical properties :
#
#
# Convention : Reuss Voigt Hill
#
# Bulk Modulus (GPa) = 20.19024 45.80217 32.99621
# Shear Modulus (GPa) = 17.34821 30.27326 23.81073
#
# Velocity S-wave (km/s) = 2.81177 3.71434 3.29411
# Velocity P-wave (km/s) = 4.44326 6.26644 5.43189
#
# Compressibility (1/GPa) = 0.04952887
#
# Stress axis : x y z
#
# Youngs Moduli (GPa) = 136.82286 27.29231 90.45653
#
# Poissons Ratio (x) = -0.02347 0.34987
# Poissons Ratio (y) = -0.11767 -0.02444
# Poissons Ratio (z) = 0.52921 -0.00737
#
# Static dielectric constant tensor:
#      x y z
#    x 1.805020 0.000000 0.000000 
#    y 0.000000 1.942330 0.000000 
#    z 0.000000 0.000000 1.767130 
# 
# From -- ./inp_files/6468.got.cif
#   From: 2010.05.17/outbox.cif.g08.bks.cpg/sg38_4_cif.got.tgz:6468.got - 2010.06.03 18:07:57.
