data_PCOD9358427
_publ_section_title
;
Structure prediction by ZEFSAII (Michael W. Deem and Ramdas Pophale) SiO2 
 PCOD9358427
Probable space group: A M M 2
;
_chemical_formula_sum "Si O2"
_cell_formula_units_Z 56
_cell_length_a 16.740299
_cell_length_b 8.903107
_cell_length_c 19.527647
_cell_angle_alpha 90.000000
_cell_angle_beta 90.000000
_cell_angle_gamma 90.000000
_cell_volume 2910.413655
_symmetry_space_group_name_H-M "A M M 2"
_symmetry_group_IT_number 38
_symmetry_cell_setting 'orthorhombic'
loop_
_space_group_symop_operation_xyz
x,y,z
-x,-y,z
-x,y,z
x,-y,z
x,1/2+y,1/2+z
-x,1/2-y,1/2+z
-x,1/2+y,1/2+z
x,1/2-y,1/2+z
loop_
_atom_site_type_symbol
_atom_site_label
_atom_site_fract_x
_atom_site_fract_y
_atom_site_fract_z
Si Si1 0.593361 0.170874 0.735900
Si Si2 0.310656 0.824326 0.347499
Si Si3 0.848507 0.319552 0.284347
Si Si4 0.000000 0.682624 0.376733
Si Si5 0.592231 0.322319 0.465426
Si Si6 0.144580 0.821192 0.133100
Si Si7 0.672916 0.325564 0.611304
Si Si8 0.000000 0.316762 0.535171
O O1 0.500000 0.182151 0.720936
O O2 0.619108 0.284846 0.794430
O O3 0.642705 0.214289 0.669231
O O4 0.610808 0.000000 0.758110
O O5 0.232814 0.741256 0.317984
O O6 0.344192 0.762595 0.418682
O O7 0.294635 0.000000 0.350451
O O8 0.846064 0.500000 0.281371
O O9 0.921959 0.272802 0.333382
O O10 0.858889 0.257021 0.207293
O O11 0.000000 0.500000 0.378858
O O12 0.000000 0.734523 0.455969
O O13 0.500000 0.272414 0.456464
O O14 0.594836 0.500000 0.448387
O O15 0.620891 0.306390 0.543430
O O16 0.232792 0.800767 0.101481
O O17 0.077320 0.770401 0.079381
O O18 0.133423 0.000000 0.144444
O O19 0.663432 0.500000 0.634311
O O20 0.000000 0.500000 0.532819
#
# Coordination Sequence:
#
# PCOD9358427 Si02
#       8
#     8   8   8   4   8   8   8   4
#     4  11  23  39  61  89 120 156 200 252 305 356
#     4  12  25  40  60  88 121 161 207 251 304 360
#     4  11  22  39  64  91 123 159 199 249 301 357
#     4   9  21  38  63  95 120 155 202 244 293 356
#     4  10  22  40  61  87 121 162 205 252 309 365
#     4  10  20  36  61  91 123 160 199 242 293 357
#     4  10  21  37  61  91 122 160 203 246 300 365
#     4   9  19  36  61  93 124 157 198 242 291 354
#
# _framework density 19.241250999999998
#
# number of rings (size 3 to 8) (size 9 to 14) (size 15 to 20)
#    0.000    1.571    1.429    3.429    2.000    4.286 
#    0.000    1.071    0.000    1.714    0.000    0.000 
#    0.000    0.000    0.000    0.000    0.000    0.000 
#
# Total GULP energy -156400.888550 kJ/mol
# GULP energy per Si atom -5585.746020 kJ/mol
# Density = 1.919746 g / cm^3
# Si number density = 19.241251 Si / 1000 Ang^3
#
#
#
# Elastic Constant Matrix: (Units=GPa)
#
#
# Indices 1 2 3 4 5 6 
#
# 1 87.4522 17.1180 19.8510 0.0000 0.0000 0.0000
# 2 17.1180 35.3374 18.0057 0.0000 0.0000 0.0000
# 3 19.8510 18.0057 64.1928 0.0000 0.0000 0.0000
# 4 0.0000 0.0000 0.0000 33.2739 0.0000 0.0000
# 5 0.0000 0.0000 0.0000 0.0000 1086.8240 0.0000
# 6 0.0000 0.0000 0.0000 0.0000 0.0000 14.2819
#
#
#
# Elastic Compliance Matrix: (Units=1/GPa)
#
#
# Indices 1 2 3 4 5 6 
#
# 1 0.013002 -0.004958 -0.002630 0.000000 0.000000 0.000000
# 2 -0.004958 0.034908 -0.008258 0.000000 0.000000 0.000000
# 3 -0.002630 -0.008258 0.018708 0.000000 0.000000 0.000000
# 4 0.000000 0.000000 0.000000 0.030054 0.000000 0.000000
# 5 0.000000 0.000000 0.000000 0.000000 0.000920 0.000000
# 6 0.000000 0.000000 0.000000 0.000000 0.000000 0.070019
#
#
# Mechanical properties :
#
#
# Convention : Reuss Voigt Hill
#
# Bulk Modulus (GPa) = 28.63269 32.99241 30.81255
# Shear Modulus (GPa) = 23.70271 235.67647 129.68959
#
# Velocity S-wave (km/s) = 3.51361 11.07930 8.21877
# Velocity P-wave (km/s) = 5.60123 13.44812 10.30111
#
# Compressibility (1/GPa) = 0.03492512
#
# Stress axis : x y z
#
# Youngs Moduli (GPa) = 76.90894 28.64637 53.45375
#
# Poissons Ratio (x) = 0.14204 0.14059
# Poissons Ratio (y) = 0.38135 0.44143
# Poissons Ratio (z) = 0.20227 0.23657
#
# Static dielectric constant tensor:
#      x y z
#    x 1.319850 0.000000 0.000000 
#    y 0.000000 1.658610 0.000000 
#    z 0.000000 0.000000 1.659910 
# 
# From -- ./inp_files/21146.got.cif
#   From: 2010.05.17/outbox.cif.g08.bks.cpg/sg38_11_cif.got.tgz:21146.got - 2010.06.03 18:07:57.
