data_PCOD9358945
_publ_section_title
;
Structure prediction by ZEFSAII (Michael W. Deem and Ramdas Pophale) SiO2 
 PCOD9358945
Probable space group: A M M 2
;
_chemical_formula_sum "Si O2"
_cell_formula_units_Z 56
_cell_length_a 8.920255
_cell_length_b 14.149845
_cell_length_c 24.748367
_cell_angle_alpha 90.000000
_cell_angle_beta 90.000000
_cell_angle_gamma 90.000000
_cell_volume 3123.744466
_symmetry_space_group_name_H-M "A M M 2"
_symmetry_group_IT_number 38
_symmetry_cell_setting 'orthorhombic'
loop_
_space_group_symop_operation_xyz
x,y,z
-x,-y,z
-x,y,z
x,-y,z
x,1/2+y,1/2+z
-x,1/2-y,1/2+z
-x,1/2+y,1/2+z
x,1/2-y,1/2+z
loop_
_atom_site_type_symbol
_atom_site_label
_atom_site_fract_x
_atom_site_fract_y
_atom_site_fract_z
Si Si1 0.834644 0.606337 0.065330
Si Si2 0.318702 0.610887 0.902915
Si Si3 0.830381 0.612732 0.789359
Si Si4 0.325748 0.749189 0.999445
Si Si5 0.828508 0.895098 0.694832
Si Si6 0.179628 0.388939 0.578776
Si Si7 0.676937 0.200387 0.186881
O O1 0.819330 0.500000 0.044359
O O2 0.835904 0.601268 0.129682
O O3 0.000000 0.643431 0.048369
O O4 0.701060 0.670815 0.045724
O O5 0.500000 0.611809 0.901140
O O6 0.275783 0.500000 0.914595
O O7 0.251003 0.639077 0.845109
O O8 0.271751 0.689530 0.947121
O O9 0.840606 0.500000 0.790829
O O10 0.737703 0.638965 0.736471
O O11 0.000000 0.651457 0.786255
O O12 0.500000 0.772284 0.992592
O O13 0.239394 0.839006 0.024065
O O14 0.722706 0.806613 0.704372
O O15 0.000000 0.878121 0.713666
O O16 0.781198 0.000000 0.713570
O O17 0.221128 0.500000 0.581175
O O18 0.244550 0.334292 0.631338
O O19 0.000000 0.381847 0.580768
O O20 0.500000 0.192139 0.179837
#
# Coordination Sequence:
#
# PCOD9358945 Si02
#       7
#     8   8   8   8   8   8   8
#     4   9  17  29  47  72 104 142 178 212 254 309
#     4   9  19  36  56  82 116 147 177 220 275 332
#     4  10  21  37  58  83 110 145 189 232 274 324
#     4  11  21  33  53  81 111 143 177 220 276 329
#     4   9  18  33  52  75 107 145 181 219 263 315
#     4  11  24  40  56  76 107 147 190 233 274 325
#     4  12  23  35  56  84 113 147 183 227 282 334
#
# _framework density 17.927202999999999
#
# number of rings (size 3 to 8) (size 9 to 14) (size 15 to 20)
#    0.000    1.857    1.429    4.286    0.000    6.000 
#    0.000    2.857    0.000    0.857    0.000    4.000 
#    0.000    0.000    0.000    0.000    0.000    0.000 
#
# Total GULP energy -156036.634951 kJ/mol
# GULP energy per Si atom -5572.736963 kJ/mol
# Density = 1.788640 g / cm^3
# Si number density = 17.927203 Si / 1000 Ang^3
#
#
#
# Elastic Constant Matrix: (Units=GPa)
#
#
# Indices 1 2 3 4 5 6 
#
# 1 60.2015 29.4794 27.3431 0.0000 0.0000 0.0000
# 2 29.4794 83.3832 29.6682 0.0000 0.0000 0.0000
# 3 27.3431 29.6682 78.5746 0.0000 0.0000 0.0000
# 4 0.0000 0.0000 0.0000 27.9528 0.0000 0.0000
# 5 0.0000 0.0000 0.0000 0.0000 30.5034 0.0000
# 6 0.0000 0.0000 0.0000 0.0000 0.0000 19.8971
#
#
#
# Elastic Compliance Matrix: (Units=1/GPa)
#
#
# Indices 1 2 3 4 5 6 
#
# 1 0.021928 -0.005819 -0.005434 0.000000 0.000000 0.000000
# 2 -0.005819 0.015398 -0.003789 0.000000 0.000000 0.000000
# 3 -0.005434 -0.003789 0.016048 0.000000 0.000000 0.000000
# 4 0.000000 0.000000 0.000000 0.035775 0.000000 0.000000
# 5 0.000000 0.000000 0.000000 0.000000 0.032783 0.000000
# 6 0.000000 0.000000 0.000000 0.000000 0.000000 0.050259
#
#
# Mechanical properties :
#
#
# Convention : Reuss Voigt Hill
#
# Bulk Modulus (GPa) = 42.93484 43.90453 43.41969
# Shear Modulus (GPa) = 23.80512 24.71524 24.26018
#
# Velocity S-wave (km/s) = 3.64796 3.71704 3.68266
# Velocity P-wave (km/s) = 6.46104 6.55480 6.50809
#
# Compressibility (1/GPa) = 0.02329111
#
# Stress axis : x y z
#
# Youngs Moduli (GPa) = 45.60303 64.94199 62.31203
#
# Poissons Ratio (x) = 0.37792 0.33858
# Poissons Ratio (y) = 0.26538 0.23610
# Poissons Ratio (z) = 0.24779 0.24607
#
# Static dielectric constant tensor:
#      x y z
#    x 1.616470 0.000000 0.000000 
#    y 0.000000 1.655960 0.000000 
#    z 0.000000 0.000000 1.605670 
# 
# From -- ./inp_files/19821.got.cif
#   From: 2010.05.17/outbox.cif.g08.bks.cpg/sg38_10_cif.got.tgz:19821.got - 2010.06.03 18:07:57.
