data_PCOD9358064
_publ_section_title
;
Structure prediction by ZEFSAII (Michael W. Deem and Ramdas Pophale) SiO2 
 PCOD9358064
Probable space group: A M M 2
;
_chemical_formula_sum "Si O2"
_cell_formula_units_Z 64
_cell_length_a 24.329151
_cell_length_b 8.561056
_cell_length_c 15.981966
_cell_angle_alpha 90.000000
_cell_angle_beta 90.000000
_cell_angle_gamma 90.000000
_cell_volume 3328.775407
_symmetry_space_group_name_H-M "A M M 2"
_symmetry_group_IT_number 38
_symmetry_cell_setting 'orthorhombic'
loop_
_space_group_symop_operation_xyz
x,y,z
-x,-y,z
-x,y,z
x,-y,z
x,1/2+y,1/2+z
-x,1/2-y,1/2+z
-x,1/2+y,1/2+z
x,1/2-y,1/2+z
loop_
_atom_site_type_symbol
_atom_site_label
_atom_site_fract_x
_atom_site_fract_y
_atom_site_fract_z
Si Si1 0.562045 0.186073 0.480550
Si Si2 0.865804 0.311173 0.383521
Si Si3 0.257244 0.186259 0.379738
Si Si4 0.936368 0.311489 0.224318
Si Si5 0.561560 0.685908 0.292720
Si Si6 0.328657 0.188734 0.220640
Si Si7 0.675498 0.185142 0.035647
Si Si8 0.936376 0.688548 0.542717
O O1 0.500000 0.229555 0.506997
O O2 0.566757 0.228779 0.382245
O O3 0.611222 0.273614 0.526167
O O4 0.568525 0.000000 0.490864
O O5 0.866945 0.500000 0.383735
O O6 0.803358 0.256383 0.383186
O O7 0.898189 0.258036 0.300451
O O8 0.898115 0.258058 0.466669
O O9 0.290317 0.241085 0.297265
O O10 0.291589 0.232061 0.461772
O O11 0.253304 0.000000 0.375058
O O12 0.935412 0.500000 0.222604
O O13 0.918891 0.249775 0.133562
O O14 0.000000 0.263286 0.238020
O O15 0.500000 0.717672 0.259774
O O16 0.566162 0.500000 0.306573
O O17 0.610808 0.742773 0.235108
O O18 0.306851 0.232870 0.129064
O O19 0.332475 0.000000 0.223230
O O20 0.683141 0.000000 0.026366
O O21 0.935400 0.500000 0.544383
O O22 0.000000 0.736782 0.529003
#
# Coordination Sequence:
#
# PCOD9358064 Si02
#       8
#     8   8   8   8   8   8   8   8
#     4  10  20  35  57  85 118 152 184 227 286 344
#     4  10  21  37  58  82 112 152 193 233 280 338
#     4  11  24  42  60  81 112 150 193 242 290 338
#     4   9  18  34  57  86 119 152 188 232 280 331
#     4  10  20  34  57  88 117 147 186 232 282 341
#     4  10  23  41  60  82 112 149 188 234 292 347
#     4  11  23  40  62  86 112 148 192 238 289 347
#     4   9  18  34  57  85 117 152 188 228 279 337
#
# _framework density 19.226289000000001
#
# number of rings (size 3 to 8) (size 9 to 14) (size 15 to 20)
#    0.000    2.000    1.250    1.875    0.000    7.000 
#    0.000    6.250    0.000    3.750    0.000    0.000 
#    0.000    0.000    0.000    0.000    0.000    0.000 
#
# Total GULP energy -178720.652796 kJ/mol
# GULP energy per Si atom -5585.020400 kJ/mol
# Density = 1.918253 g / cm^3
# Si number density = 19.226289 Si / 1000 Ang^3
#
#
#
# Elastic Constant Matrix: (Units=GPa)
#
#
# Indices 1 2 3 4 5 6 
#
# 1 105.4135 12.0039 77.3081 0.0000 0.0000 0.0000
# 2 12.0039 10.1867 16.4941 0.0000 0.0000 0.0000
# 3 77.3081 16.4941 143.0759 0.0000 0.0000 0.0000
# 4 0.0000 0.0000 0.0000 26.8874 0.0000 0.0000
# 5 0.0000 0.0000 0.0000 0.0000 -1.8933 0.0000
# 6 0.0000 0.0000 0.0000 0.0000 0.0000 29.8574
#
#
#
# Elastic Compliance Matrix: (Units=1/GPa)
#
#
# Indices 1 2 3 4 5 6 
#
# 1 0.016003 -0.005972 -0.007959 0.000000 0.000000 0.000000
# 2 -0.005972 0.122925 -0.010944 0.000000 0.000000 0.000000
# 3 -0.007959 -0.010944 0.012551 0.000000 0.000000 0.000000
# 4 0.000000 0.000000 0.000000 0.037192 0.000000 0.000000
# 5 0.000000 0.000000 0.000000 0.000000 -0.528172 0.000000
# 6 0.000000 0.000000 0.000000 0.000000 0.000000 0.033493
#
#
# Mechanical properties :
#
#
# Convention : Reuss Voigt Hill
#
# Bulk Modulus (GPa) = 9.82989 52.25424 31.04206
# Shear Modulus (GPa) = -22.48723 21.16162 -0.66281
#
# Velocity S-wave (km/s) = -3.42366 3.32122 -0.58778
# Velocity P-wave (km/s) = 3.24111 6.47649 3.96485
#
# Compressibility (1/GPa) = 0.10173051
#
# Stress axis : x y z
#
# Youngs Moduli (GPa) = 62.48797 8.13501 79.67363
#
# Poissons Ratio (x) = 0.04858 0.63408
# Poissons Ratio (y) = 0.37316 0.87198
# Poissons Ratio (z) = 0.49731 0.08903
#
# Static dielectric constant tensor:
#      x y z
#    x 1.646410 0.000000 0.000000 
#    y 0.000000 1.654040 0.000000 
#    z 0.000000 0.000000 1.674400 
# 
# From -- ./inp_files/15758.got.cif
#   From: 2010.05.17/outbox.cif.g08.bks.cpg/sg38_8_cif.got.tgz:15758.got - 2010.06.03 18:07:57.
