data_PCOD9358055
_publ_section_title
;
Structure prediction by ZEFSAII (Michael W. Deem and Ramdas Pophale) SiO2 
 PCOD9358055
Probable space group: A M M 2
;
_chemical_formula_sum "Si O2"
_cell_formula_units_Z 40
_cell_length_a 7.704085
_cell_length_b 9.010014
_cell_length_c 29.537567
_cell_angle_alpha 90.000000
_cell_angle_beta 90.000000
_cell_angle_gamma 90.000000
_cell_volume 2050.318127
_symmetry_space_group_name_H-M "A M M 2"
_symmetry_group_IT_number 38
_symmetry_cell_setting 'orthorhombic'
loop_
_space_group_symop_operation_xyz
x,y,z
-x,-y,z
-x,y,z
x,-y,z
x,1/2+y,1/2+z
-x,1/2-y,1/2+z
-x,1/2+y,1/2+z
x,1/2-y,1/2+z
loop_
_atom_site_type_symbol
_atom_site_label
_atom_site_fract_x
_atom_site_fract_y
_atom_site_fract_z
Si Si1 0.289283 0.171170 0.777710
Si Si2 0.290143 0.672265 0.869736
Si Si3 0.198690 0.676693 0.971336
Si Si4 0.500000 0.176994 0.627724
Si Si5 0.199080 0.674611 0.685499
Si Si6 0.500000 0.176770 0.029098
O O1 0.500000 0.179238 0.775789
O O2 0.235240 0.231292 0.826819
O O3 0.218419 0.270265 0.737059
O O4 0.238799 0.000000 0.771504
O O5 0.500000 0.679599 0.872938
O O6 0.242398 0.500000 0.861968
O O7 0.217736 0.718363 0.918425
O O8 0.239955 0.500000 0.974072
O O9 0.000000 0.697898 0.985651
O O10 0.332872 0.766881 0.001359
O O11 0.667433 0.233488 0.655271
O O12 0.500000 0.248737 0.578257
O O13 0.500000 0.000000 0.624953
O O14 0.241369 0.500000 0.682821
O O15 0.000000 0.695723 0.670979
O O16 0.500000 0.000000 0.033058
#
# Coordination Sequence:
#
# PCOD9358055 Si02
#       6
#     8   8   8   4   8   4
#     4  10  20  34  56  89 128 169 210 252 302 360
#     4   9  17  32  56  86 124 167 210 254 302 362
#     4  10  21  40  66  94 125 162 208 258 308 366
#     4  12  26  46  71  94 121 158 202 255 313 371
#     4  11  24  42  66  95 127 163 205 253 307 368
#     4  12  26  44  67  92 125 162 200 253 311 373
#
# _framework density 19.509169
#
# number of rings (size 3 to 8) (size 9 to 14) (size 15 to 20)
#    0.000    1.600    2.000    3.000    0.000    5.200 
#    0.000    2.000    0.000    0.000    0.000    0.000 
#    0.000    0.000    0.000    0.000    0.000    0.000 
#
# Total GULP energy -111840.695376 kJ/mol
# GULP energy per Si atom -5592.034769 kJ/mol
# Density = 1.946476 g / cm^3
# Si number density = 19.509169 Si / 1000 Ang^3
#
#
#
# Elastic Constant Matrix: (Units=GPa)
#
#
# Indices 1 2 3 4 5 6 
#
# 1 88.4309 71.7147 60.3736 0.0000 0.0000 0.0000
# 2 71.7147 136.0545 78.8462 0.0000 0.0000 0.0000
# 3 60.3736 78.8462 133.3209 0.0000 0.0000 0.0000
# 4 0.0000 0.0000 0.0000 38.4742 0.0000 0.0000
# 5 0.0000 0.0000 0.0000 0.0000 -16.1236 0.0000
# 6 0.0000 0.0000 0.0000 0.0000 0.0000 46.7642
#
#
#
# Elastic Compliance Matrix: (Units=1/GPa)
#
#
# Indices 1 2 3 4 5 6 
#
# 1 0.021464 -0.008643 -0.004608 0.000000 0.000000 0.000000
# 2 -0.008643 0.014663 -0.004758 0.000000 0.000000 0.000000
# 3 -0.004608 -0.004758 0.012401 0.000000 0.000000 0.000000
# 4 0.000000 0.000000 0.000000 0.025991 0.000000 0.000000
# 5 0.000000 0.000000 0.000000 0.000000 -0.062021 0.000000
# 6 0.000000 0.000000 0.000000 0.000000 0.000000 0.021384
#
#
# Mechanical properties :
#
#
# Convention : Reuss Voigt Hill
#
# Bulk Modulus (GPa) = 79.93673 86.63060 83.28366
# Shear Modulus (GPa) = 67.50394 23.61442 45.55918
#
# Velocity S-wave (km/s) = 5.88865 3.48289 4.83771
# Velocity P-wave (km/s) = 9.34333 7.78945 8.60155
#
# Compressibility (1/GPa) = 0.01250989
#
# Stress axis : x y z
#
# Youngs Moduli (GPa) = 46.59069 68.19919 80.63699
#
# Poissons Ratio (x) = 0.58944 0.37159
# Poissons Ratio (y) = 0.40268 0.38365
# Poissons Ratio (z) = 0.21470 0.32448
#
# Static dielectric constant tensor:
#      x y z
#    x 1.700170 0.000000 0.000000 
#    y 0.000000 1.652830 0.000000 
#    z 0.000000 0.000000 1.648110 
# 
# From -- ./inp_files/23220.got.cif
#   From: 2010.05.17/outbox.cif.g08.bks.cpg/sg38_12_cif.got.tgz:23220.got - 2010.06.03 18:07:57.
