data_PCOD9358495
_publ_section_title
;
Structure prediction by ZEFSAII (Michael W. Deem and Ramdas Pophale) SiO2 
 PCOD9358495
Probable space group: A M M 2
;
_chemical_formula_sum "Si O2"
_cell_formula_units_Z 40
_cell_length_a 7.819509
_cell_length_b 12.090885
_cell_length_c 20.674242
_cell_angle_alpha 90.000000
_cell_angle_beta 90.000000
_cell_angle_gamma 90.000000
_cell_volume 1954.641746
_symmetry_space_group_name_H-M "A M M 2"
_symmetry_group_IT_number 38
_symmetry_cell_setting 'orthorhombic'
loop_
_space_group_symop_operation_xyz
x,y,z
-x,-y,z
-x,y,z
x,-y,z
x,1/2+y,1/2+z
-x,1/2-y,1/2+z
-x,1/2+y,1/2+z
x,1/2-y,1/2+z
loop_
_atom_site_type_symbol
_atom_site_label
_atom_site_fract_x
_atom_site_fract_y
_atom_site_fract_z
Si Si1 0.706311 0.373276 0.220400
Si Si2 0.793627 0.256938 0.591669
Si Si3 0.202753 0.375749 0.967036
Si Si4 0.794517 0.500000 0.421086
Si Si5 0.793094 0.500000 0.573905
Si Si6 0.300765 0.774318 0.851236
O O1 0.500000 0.377405 0.226222
O O2 0.768910 0.500000 0.225840
O O3 0.750366 0.320386 0.151857
O O4 0.771489 0.297865 0.279719
O O5 0.728938 0.202204 0.524756
O O6 0.729061 0.382617 0.600541
O O7 0.000000 0.263846 0.586797
O O8 0.274439 0.500000 0.969306
O O9 0.224122 0.318362 0.897700
O O10 0.000000 0.383768 0.978642
O O11 0.758128 0.500000 0.497205
O O12 0.721347 0.609114 0.388043
O O13 0.000000 0.500000 0.413449
O O14 0.000000 0.500000 0.581726
O O15 0.500000 0.747620 0.844953
#
# Coordination Sequence:
#
# PCOD9358495 Si02
#       6
#     8   8   8   4   4   8
#     4  10  22  40  57  79 115 152 188 234 282 334
#     4  10  20  37  60  86 113 146 189 235 282 335
#     4  10  21  38  60  87 117 148 190 241 288 339
#     4  11  19  35  63  89 115 144 185 238 291 339
#     4   9  18  35  59  85 115 142 177 236 287 327
#     4  11  22  38  59  85 118 151 190 237 288 344
#
# _framework density 20.464106000000001
#
# number of rings (size 3 to 8) (size 9 to 14) (size 15 to 20)
#    0.000    1.800    3.000    1.500    0.000    4.000 
#    1.800    0.500    0.000    0.000    0.000    0.000 
#    0.000    0.000    0.000    0.000    0.000    0.000 
#
# Total GULP energy -111664.632654 kJ/mol
# GULP energy per Si atom -5583.231633 kJ/mol
# Density = 2.041753 g / cm^3
# Si number density = 20.464106 Si / 1000 Ang^3
#
#
#
# Elastic Constant Matrix: (Units=GPa)
#
#
# Indices 1 2 3 4 5 6 
#
# 1 21.1110 4.0456 1.8405 0.0000 0.0000 0.0000
# 2 4.0456 140.4921 62.1843 0.0000 0.0000 0.0000
# 3 1.8405 62.1843 115.2901 0.0000 0.0000 0.0000
# 4 0.0000 0.0000 0.0000 73.8435 0.0000 0.0000
# 5 0.0000 0.0000 0.0000 0.0000 27.0631 0.0000
# 6 0.0000 0.0000 0.0000 0.0000 0.0000 14.8263
#
#
#
# Elastic Compliance Matrix: (Units=1/GPa)
#
#
# Indices 1 2 3 4 5 6 
#
# 1 0.047632 -0.001360 -0.000027 0.000000 0.000000 0.000000
# 2 -0.001360 0.009389 -0.005042 0.000000 0.000000 0.000000
# 3 -0.000027 -0.005042 0.011394 0.000000 0.000000 0.000000
# 4 0.000000 0.000000 0.000000 0.013542 0.000000 0.000000
# 5 0.000000 0.000000 0.000000 0.000000 0.036951 0.000000
# 6 0.000000 0.000000 0.000000 0.000000 0.000000 0.067448
#
#
# Mechanical properties :
#
#
# Convention : Reuss Voigt Hill
#
# Bulk Modulus (GPa) = 17.99976 45.89268 31.94622
# Shear Modulus (GPa) = 22.96402 37.06809 30.01606
#
# Velocity S-wave (km/s) = 3.35350 4.26064 3.83399
# Velocity P-wave (km/s) = 4.87950 6.83218 5.93667
#
# Compressibility (1/GPa) = 0.05555631
#
# Stress axis : x y z
#
# Youngs Moduli (GPa) = 20.99443 106.50947 87.76610
#
# Poissons Ratio (x) = 0.14481 0.00237
# Poissons Ratio (y) = 0.02854 0.44255
# Poissons Ratio (z) = 0.00057 0.53706
#
# Static dielectric constant tensor:
#      x y z
#    x 1.747460 0.000000 0.000000 
#    y 0.000000 1.694320 0.000000 
#    z 0.000000 0.000000 1.701900 
# 
# From -- ./inp_files/19491.got.cif
#   From: 2010.05.17/outbox.cif.g08.bks.cpg/sg38_10_cif.got.tgz:19491.got - 2010.06.03 18:07:57.
