data_PCOD9358003
_publ_section_title
;
Structure prediction by ZEFSAII (Michael W. Deem and Ramdas Pophale) SiO2 
 PCOD9358003
Probable space group: A M M 2
;
_chemical_formula_sum "Si O2"
_cell_formula_units_Z 48
_cell_length_a 25.823572
_cell_length_b 10.743116
_cell_length_c 9.033891
_cell_angle_alpha 90.000000
_cell_angle_beta 90.000000
_cell_angle_gamma 90.000000
_cell_volume 2506.232898
_symmetry_space_group_name_H-M "A M M 2"
_symmetry_group_IT_number 38
_symmetry_cell_setting 'orthorhombic'
loop_
_space_group_symop_operation_xyz
x,y,z
-x,-y,z
-x,y,z
x,-y,z
x,1/2+y,1/2+z
-x,1/2-y,1/2+z
-x,1/2+y,1/2+z
x,1/2-y,1/2+z
loop_
_atom_site_type_symbol
_atom_site_label
_atom_site_fract_x
_atom_site_fract_y
_atom_site_fract_z
Si Si1 0.558495 0.358579 0.347060
Si Si2 0.120112 0.252512 0.535500
Si Si3 0.185667 0.347873 0.777395
Si Si4 0.628060 0.708255 0.078154
Si Si5 0.696996 0.639688 0.809141
Si Si6 0.061346 0.000000 0.505083
Si Si7 0.939228 0.000000 0.141696
O O1 0.500000 0.308041 0.330016
O O2 0.554978 0.500000 0.397701
O O3 0.588874 0.357625 0.191363
O O4 0.591543 0.287194 0.469280
O O5 0.173225 0.287184 0.620183
O O6 0.141401 0.219351 0.373644
O O7 0.085909 0.375205 0.570229
O O8 0.088537 0.124942 0.569790
O O9 0.179956 0.500000 0.779323
O O10 0.243788 0.317894 0.827670
O O11 0.665598 0.782981 0.188380
O O12 0.665826 0.639697 0.963181
O O13 0.699951 0.500000 0.750591
O O14 0.065771 0.000000 0.322940
O O15 0.000000 0.000000 0.537617
O O16 0.000000 0.000000 0.109927
#
# Coordination Sequence:
#
# PCOD9358003 Si02
#       7
#     8   8   8   8   8   4   4
#     4  10  20  34  55  82 115 150 186 237 291 340
#     4  12  20  44  62  90 120 160 192 248 294 354
#     4  11  23  40  61  86 123 154 197 246 303 349
#     4  10  20  36  56  82 112 148 198 236 280 346
#     4  10  21  37  58  82 111 155 191 240 290 343
#     4  11  24  43  65  91 125 157 195 243 296 349
#     4  11  24  43  65  91 125 157 195 243 296 349
#
# _framework density 19.152249999999999
#
# number of rings (size 3 to 8) (size 9 to 14) (size 15 to 20)
#    0.000    1.333    3.333    3.000    0.000    0.667 
#    0.000    0.833    7.333    8.000    0.000    0.000 
#    0.000    0.000    0.000    0.000    0.000    0.000 
#
# Total GULP energy -133611.154321 kJ/mol
# GULP energy per Si atom -5567.131430 kJ/mol
# Density = 1.910866 g / cm^3
# Si number density = 19.152250 Si / 1000 Ang^3
#
#
#
# Elastic Constant Matrix: (Units=GPa)
#
#
# Indices 1 2 3 4 5 6 
#
# 1 139.9712 54.4555 21.4408 0.0000 0.0000 0.0000
# 2 54.4555 117.0124 35.0681 0.0000 0.0000 0.0000
# 3 21.4408 35.0681 65.3517 0.0000 0.0000 0.0000
# 4 0.0000 0.0000 0.0000 26.6012 0.0000 0.0000
# 5 0.0000 0.0000 0.0000 0.0000 26.2983 0.0000
# 6 0.0000 0.0000 0.0000 0.0000 0.0000 30.6580
#
#
#
# Elastic Compliance Matrix: (Units=1/GPa)
#
#
# Indices 1 2 3 4 5 6 
#
# 1 0.008760 -0.003832 -0.000818 0.000000 0.000000 0.000000
# 2 -0.003832 0.011860 -0.005107 0.000000 0.000000 0.000000
# 3 -0.000818 -0.005107 0.018311 0.000000 0.000000 0.000000
# 4 0.000000 0.000000 0.000000 0.037592 0.000000 0.000000
# 5 0.000000 0.000000 0.000000 0.000000 0.038025 0.000000
# 6 0.000000 0.000000 0.000000 0.000000 0.000000 0.032618
#
#
# Mechanical properties :
#
#
# Convention : Reuss Voigt Hill
#
# Bulk Modulus (GPa) = 51.50005 60.47380 55.98693
# Shear Modulus (GPa) = 28.87636 30.80291 29.83964
#
# Velocity S-wave (km/s) = 3.88716 4.01474 3.95146
# Velocity P-wave (km/s) = 6.86257 7.28935 7.07918
#
# Compressibility (1/GPa) = 0.01941746
#
# Stress axis : x y z
#
# Youngs Moduli (GPa) = 114.15044 84.31800 54.61319
#
# Poissons Ratio (x) = 0.32309 0.04467
# Poissons Ratio (y) = 0.43740 0.27891
# Poissons Ratio (z) = 0.09337 0.43061
#
# Static dielectric constant tensor:
#      x y z
#    x 1.698840 0.000000 0.000000 
#    y 0.000000 1.650250 0.000000 
#    z 0.000000 0.000000 1.644570 
# 
# From -- ./inp_files/7035.got.cif
#   From: 2010.05.17/outbox.cif.g08.bks.cpg/sg38_4_cif.got.tgz:7035.got - 2010.06.03 18:07:57.
