data_PCOD9358030
_publ_section_title
;
Structure prediction by ZEFSAII (Michael W. Deem and Ramdas Pophale) SiO2 
 PCOD9358030
Probable space group: A M M 2
;
_chemical_formula_sum "Si O2"
_cell_formula_units_Z 64
_cell_length_a 24.610941
_cell_length_b 7.987571
_cell_length_c 15.967470
_cell_angle_alpha 90.000000
_cell_angle_beta 90.000000
_cell_angle_gamma 90.000000
_cell_volume 3138.911417
_symmetry_space_group_name_H-M "A M M 2"
_symmetry_group_IT_number 38
_symmetry_cell_setting 'orthorhombic'
loop_
_space_group_symop_operation_xyz
x,y,z
-x,-y,z
-x,y,z
x,-y,z
x,1/2+y,1/2+z
-x,1/2-y,1/2+z
-x,1/2+y,1/2+z
x,1/2-y,1/2+z
loop_
_atom_site_type_symbol
_atom_site_label
_atom_site_fract_x
_atom_site_fract_y
_atom_site_fract_z
Si Si1 0.242006 0.198337 0.563970
Si Si2 0.437489 0.704292 0.920078
Si Si3 0.939921 0.699819 0.481473
Si Si4 0.437904 0.201940 0.230682
Si Si5 0.827298 0.702498 0.907496
Si Si6 0.176649 0.694784 0.724683
Si Si7 0.364633 0.798187 0.574518
Si Si8 0.060617 0.196715 0.673539
O O1 0.209117 0.267365 0.484208
O O2 0.206729 0.221030 0.647324
O O3 0.302852 0.266276 0.574359
O O4 0.247134 0.000000 0.549180
O O5 0.500000 0.753963 0.936553
O O6 0.436492 0.500000 0.920568
O O7 0.423158 0.757112 0.825273
O O8 0.397891 0.763481 0.993307
O O9 0.938160 0.500000 0.493705
O O10 0.889639 0.751022 0.424920
O O11 0.934173 0.782239 0.573050
O O12 0.000000 0.743695 0.448181
O O13 0.500000 0.258790 0.213269
O O14 0.396961 0.256514 0.158899
O O15 0.438731 0.000000 0.231604
O O16 0.824609 0.500000 0.906258
O O17 0.808972 0.763297 0.816330
O O18 0.191232 0.500000 0.721046
O O19 0.111837 0.713158 0.713695
O O20 0.362888 0.000000 0.569021
O O21 0.000000 0.257868 0.696289
O O22 0.063901 0.000000 0.694115
#
# Coordination Sequence:
#
# PCOD9358030 Si02
#       8
#     8   8   8   8   8   8   8   8
#     4  10  22  40  57  77 109 147 186 231 282 331
#     4   8  15  30  53  80 110 145 182 218 263 325
#     4  10  20  34  56  86 115 142 178 225 275 332
#     4   9  18  33  54  82 115 147 179 220 273 329
#     4  10  22  39  58  80 109 146 186 229 281 336
#     4  11  23  38  59  85 109 141 188 235 278 331
#     4  10  20  34  56  82 107 142 189 232 271 320
#     4  10  20  35  57  83 113 148 180 218 277 338
#
# _framework density 20.389234999999999
#
# number of rings (size 3 to 8) (size 9 to 14) (size 15 to 20)
#    0.000    2.250    1.250    2.250    0.000    5.250 
#    0.000    5.625    0.000    0.750    0.000    0.000 
#    0.000    0.000    0.000    0.000    0.000    0.000 
#
# Total GULP energy -178652.517629 kJ/mol
# GULP energy per Si atom -5582.891176 kJ/mol
# Density = 2.034283 g / cm^3
# Si number density = 20.389235 Si / 1000 Ang^3
#
#
#
# Elastic Constant Matrix: (Units=GPa)
#
#
# Indices 1 2 3 4 5 6 
#
# 1 130.8293 2.6576 85.6937 0.0000 0.0000 0.0000
# 2 2.6576 16.9658 0.3652 0.0000 0.0000 0.0000
# 3 85.6937 0.3652 136.5485 0.0000 0.0000 0.0000
# 4 0.0000 0.0000 0.0000 20.3086 0.0000 0.0000
# 5 0.0000 0.0000 0.0000 0.0000 -5.3297 0.0000
# 6 0.0000 0.0000 0.0000 0.0000 0.0000 16.1768
#
#
#
# Elastic Compliance Matrix: (Units=1/GPa)
#
#
# Indices 1 2 3 4 5 6 
#
# 1 0.013037 -0.001866 -0.008177 0.000000 0.000000 0.000000
# 2 -0.001866 0.059213 0.001013 0.000000 0.000000 0.000000
# 3 -0.008177 0.001013 0.012452 0.000000 0.000000 0.000000
# 4 0.000000 0.000000 0.000000 0.049240 0.000000 0.000000
# 5 0.000000 0.000000 0.000000 0.000000 -0.187628 0.000000
# 6 0.000000 0.000000 0.000000 0.000000 0.000000 0.061817
#
#
# Mechanical properties :
#
#
# Convention : Reuss Voigt Hill
#
# Bulk Modulus (GPa) = 15.00557 51.30849 33.15703
# Shear Modulus (GPa) = 103.29406 19.27295 61.28351
#
# Velocity S-wave (km/s) = 7.12538 3.07783 5.48836
# Velocity P-wave (km/s) = 8.66431 6.15222 7.51399
#
# Compressibility (1/GPa) = 0.06664191
#
# Stress axis : x y z
#
# Youngs Moduli (GPa) = 76.70285 16.88824 80.30687
#
# Poissons Ratio (x) = 0.03152 0.65666
# Poissons Ratio (y) = 0.14314 -0.08134
# Poissons Ratio (z) = 0.62719 -0.01711
#
# Static dielectric constant tensor:
#      x y z
#    x 1.712010 0.000000 0.000000 
#    y 0.000000 1.735480 0.000000 
#    z 0.000000 0.000000 1.721740 
# 
# From -- ./inp_files/15824.got.cif
#   From: 2010.05.17/outbox.cif.g08.bks.cpg/sg38_8_cif.got.tgz:15824.got - 2010.06.03 18:07:57.
