data_PCOD9358807
_publ_section_title
;
Structure prediction by ZEFSAII (Michael W. Deem and Ramdas Pophale) SiO2 
 PCOD9358807
Probable space group: A M M 2
;
_chemical_formula_sum "Si O2"
_cell_formula_units_Z 64
_cell_length_a 20.015126
_cell_length_b 8.946424
_cell_length_c 20.566287
_cell_angle_alpha 90.000000
_cell_angle_beta 90.000000
_cell_angle_gamma 90.000000
_cell_volume 3682.677576
_symmetry_space_group_name_H-M "A M M 2"
_symmetry_group_IT_number 38
_symmetry_cell_setting 'orthorhombic'
loop_
_space_group_symop_operation_xyz
x,y,z
-x,-y,z
-x,y,z
x,-y,z
x,1/2+y,1/2+z
-x,1/2-y,1/2+z
-x,1/2+y,1/2+z
x,1/2-y,1/2+z
loop_
_atom_site_type_symbol
_atom_site_label
_atom_site_fract_x
_atom_site_fract_y
_atom_site_fract_z
Si Si1 0.078677 0.321314 0.451930
Si Si2 0.921608 0.178968 0.801184
Si Si3 0.322547 0.821046 0.050156
Si Si4 0.822565 0.821697 0.555043
Si Si5 0.421354 0.321810 0.946447
Si Si6 0.329034 0.677574 0.700587
Si Si7 0.827157 0.178198 0.194318
Si Si8 0.578136 0.822593 0.807649
O O1 0.088559 0.500000 0.460016
O O2 0.093788 0.284545 0.376512
O O3 0.124925 0.233624 0.501594
O O4 0.000000 0.290978 0.462740
O O5 0.875128 0.264204 0.750817
O O6 0.000000 0.212446 0.790174
O O7 0.913140 0.000000 0.793535
O O8 0.250212 0.747087 0.039555
O O9 0.342938 0.788137 0.124839
O O10 0.316344 0.000000 0.044106
O O11 0.375741 0.757151 0.999826
O O12 0.842127 0.758622 0.626036
O O13 0.818816 0.000000 0.556805
O O14 0.500000 0.289483 0.957651
O O15 0.411977 0.500000 0.948669
O O16 0.404566 0.260556 0.874771
O O17 0.339029 0.500000 0.710305
O O18 0.250469 0.710335 0.711017
O O19 0.375496 0.766580 0.749597
O O20 0.833121 0.000000 0.185422
O O21 0.500000 0.790682 0.793388
O O22 0.585217 0.000000 0.816937
#
# Coordination Sequence:
#
# PCOD9358807 Si02
#       8
#     8   8   8   8   8   8   8   8
#     4   9  19  37  58  79 108 145 182 222 269 321
#     4   9  19  36  57  81 108 139 177 220 266 317
#     4  10  21  38  58  80 109 143 180 222 268 322
#     4  11  22  36  56  81 110 142 179 225 271 318
#     4  10  21  37  57  81 110 143 180 223 268 315
#     4   9  20  37  55  77 106 140 178 220 265 315
#     4  10  21  37  56  79 108 142 180 220 265 320
#     4  10  21  36  55  80 109 142 180 220 264 317
#
# _framework density 17.37866
#
# number of rings (size 3 to 8) (size 9 to 14) (size 15 to 20)
#    0.000    2.250    0.000    4.125    0.000    7.500 
#    0.000    6.250    0.000    0.000    0.000    0.000 
#    0.000    0.000    0.000    0.000    0.000    0.000 
#
# Total GULP energy -178665.529298 kJ/mol
# GULP energy per Si atom -5583.297791 kJ/mol
# Density = 1.733911 g / cm^3
# Si number density = 17.378660 Si / 1000 Ang^3
#
#
#
# Elastic Constant Matrix: (Units=GPa)
#
#
# Indices 1 2 3 4 5 6 
#
# 1 93.5724 77.2126 109.4735 0.0000 0.0000 0.0000
# 2 77.2126 96.0804 93.8898 0.0000 0.0000 0.0000
# 3 109.4735 93.8898 149.1764 0.0000 0.0000 0.0000
# 4 0.0000 0.0000 0.0000 35.9555 0.0000 0.0000
# 5 0.0000 0.0000 0.0000 0.0000 41.4816 0.0000
# 6 0.0000 0.0000 0.0000 0.0000 0.0000 33.1901
#
#
#
# Elastic Compliance Matrix: (Units=1/GPa)
#
#
# Indices 1 2 3 4 5 6 
#
# 1 0.087971 -0.019768 -0.052116 0.000000 0.000000 0.000000
# 2 -0.019768 0.031478 -0.005305 0.000000 0.000000 0.000000
# 3 -0.052116 -0.005305 0.048288 0.000000 0.000000 0.000000
# 4 0.000000 0.000000 0.000000 0.027812 0.000000 0.000000
# 5 0.000000 0.000000 0.000000 0.000000 0.024107 0.000000
# 6 0.000000 0.000000 0.000000 0.000000 0.000000 0.030129
#
#
# Mechanical properties :
#
#
# Convention : Reuss Voigt Hill
#
# Bulk Modulus (GPa) = 74.85699 99.99789 87.42744
# Shear Modulus (GPa) = 12.23639 26.00899 19.12269
#
# Velocity S-wave (km/s) = 2.65638 3.87279 3.32076
# Velocity P-wave (km/s) = 7.25093 8.81269 8.06968
#
# Compressibility (1/GPa) = 0.01335881
#
# Stress axis : x y z
#
# Youngs Moduli (GPa) = 11.36742 31.76790 20.70904
#
# Poissons Ratio (x) = 0.62798 1.07927
# Poissons Ratio (y) = 0.22471 0.10987
# Poissons Ratio (z) = 0.59242 0.16854
#
# Static dielectric constant tensor:
#      x y z
#    x 1.567660 0.000000 0.000000 
#    y 0.000000 1.576330 0.000000 
#    z 0.000000 0.000000 1.562680 
# 
# From -- ./inp_files/18949.got.cif
#   From: 2010.05.17/outbox.cif.g08.bks.cpg/sg38_10_cif.got.tgz:18949.got - 2010.06.03 18:07:57.
