data_PCOD9358291
_publ_section_title
;
Structure prediction by ZEFSAII (Michael W. Deem and Ramdas Pophale) SiO2 
 PCOD9358291
Probable space group: A M M 2
;
_chemical_formula_sum "Si O2"
_cell_formula_units_Z 48
_cell_length_a 9.345946
_cell_length_b 7.640206
_cell_length_c 35.730969
_cell_angle_alpha 90.000000
_cell_angle_beta 90.000000
_cell_angle_gamma 90.000000
_cell_volume 2551.368152
_symmetry_space_group_name_H-M "A M M 2"
_symmetry_group_IT_number 38
_symmetry_cell_setting 'orthorhombic'
loop_
_space_group_symop_operation_xyz
x,y,z
-x,-y,z
-x,y,z
x,-y,z
x,1/2+y,1/2+z
-x,1/2-y,1/2+z
-x,1/2+y,1/2+z
x,1/2-y,1/2+z
loop_
_atom_site_type_symbol
_atom_site_label
_atom_site_fract_x
_atom_site_fract_y
_atom_site_fract_z
Si Si1 0.164444 0.714269 0.520990
Si Si2 0.828964 0.500000 0.812262
Si Si3 0.170269 0.294389 0.372340
Si Si4 0.664185 0.213514 0.947493
Si Si5 0.326220 0.194520 0.677512
Si Si6 0.326516 0.500000 0.733288
Si Si7 0.665099 0.211646 0.094251
O O1 0.165938 0.500000 0.520969
O O2 0.251260 0.771608 0.484381
O O3 0.241282 0.770751 0.559198
O O4 0.000000 0.769599 0.519396
O O5 0.794905 0.330052 0.837563
O O6 0.744383 0.500000 0.773668
O O7 0.000000 0.500000 0.805367
O O8 0.200415 0.500000 0.364964
O O9 0.255679 0.237896 0.409321
O O10 0.000000 0.278593 0.379711
O O11 0.500000 0.271603 0.947930
O O12 0.664088 0.000000 0.948304
O O13 0.500000 0.204765 0.675881
O O14 0.281609 0.334336 0.708173
O O15 0.279477 0.232019 0.634978
O O16 0.284089 0.000000 0.688461
O O17 0.500000 0.500000 0.736732
O O18 0.500000 0.270309 0.089933
O O19 0.663345 0.000000 0.094283
#
# Coordination Sequence:
#
# PCOD9358291 Si02
#       7
#     8   4   8   8   8   4   8
#     4   9  16  25  41  69 103 139 177 215 257 307
#     4  10  22  38  56  80 108 138 172 212 262 318
#     4   9  18  34  55  76 102 138 174 210 257 312
#     4   9  16  27  46  74 105 136 175 219 259 302
#     4   9  17  31  53  78 103 134 171 213 262 313
#     4  10  20  36  56  80 106 134 172 216 262 314
#     4   9  15  26  46  70  97 131 173 217 259 304
#
# _framework density 18.813434999999998
#
# number of rings (size 3 to 8) (size 9 to 14) (size 15 to 20)
#    0.000    2.833    0.833    1.000    0.000    5.333 
#    0.000    0.833    1.833    1.500    0.000    0.000 
#    0.000    0.000    0.000    0.000    0.000    0.000 
#
# Total GULP energy -133918.744749 kJ/mol
# GULP energy per Si atom -5579.947698 kJ/mol
# Density = 1.877061 g / cm^3
# Si number density = 18.813435 Si / 1000 Ang^3
#
#
#
# Elastic Constant Matrix: (Units=GPa)
#
#
# Indices 1 2 3 4 5 6 
#
# 1 80.6259 38.7330 92.2011 0.0000 0.0000 0.0000
# 2 38.7330 82.3939 75.5970 0.0000 0.0000 0.0000
# 3 92.2011 75.5970 215.8513 0.0000 0.0000 0.0000
# 4 0.0000 0.0000 0.0000 -25.3867 0.0000 0.0000
# 5 0.0000 0.0000 0.0000 0.0000 -146.8142 0.0000
# 6 0.0000 0.0000 0.0000 0.0000 0.0000 3.3873
#
#
#
# Elastic Compliance Matrix: (Units=1/GPa)
#
#
# Indices 1 2 3 4 5 6 
#
# 1 0.024691 -0.002844 -0.009551 0.000000 0.000000 0.000000
# 2 -0.002844 0.018211 -0.005163 0.000000 0.000000 0.000000
# 3 -0.009551 -0.005163 0.010521 0.000000 0.000000 0.000000
# 4 0.000000 0.000000 0.000000 -0.039391 0.000000 0.000000
# 5 0.000000 0.000000 0.000000 0.000000 -0.006811 0.000000
# 6 0.000000 0.000000 0.000000 0.000000 0.000000 0.295222
#
#
# Mechanical properties :
#
#
# Convention : Reuss Voigt Hill
#
# Bulk Modulus (GPa) = 54.62470 87.99257 71.30864
# Shear Modulus (GPa) = 14.54919 -22.27338 -3.86209
#
# Velocity S-wave (km/s) = 2.78392 -3.44453 -1.43433
# Velocity P-wave (km/s) = 6.27946 5.57252 5.93652
#
# Compressibility (1/GPa) = 0.01830674
#
# Stress axis : x y z
#
# Youngs Moduli (GPa) = 40.50003 54.91167 95.05109
#
# Poissons Ratio (x) = 0.15619 0.90781
# Poissons Ratio (y) = 0.11520 0.49075
# Poissons Ratio (z) = 0.38681 0.28351
#
# Static dielectric constant tensor:
#      x y z
#    x 1.630640 0.000000 0.000000 
#    y 0.000000 1.687800 0.000000 
#    z 0.000000 0.000000 1.607570 
# 
# From -- ./inp_files/24364.got.cif
#   From: 2010.05.17/outbox.cif.g08.bks.cpg/sg38_13_cif.got.tgz:24364.got - 2010.06.03 18:07:57.
