data_PCOD9358054
_publ_section_title
;
Structure prediction by ZEFSAII (Michael W. Deem and Ramdas Pophale) SiO2 
 PCOD9358054
Probable space group: A M M 2
;
_chemical_formula_sum "Si O2"
_cell_formula_units_Z 48
_cell_length_a 8.004260
_cell_length_b 23.377567
_cell_length_c 11.832899
_cell_angle_alpha 90.000000
_cell_angle_beta 90.000000
_cell_angle_gamma 90.000000
_cell_volume 2214.173533
_symmetry_space_group_name_H-M "A M M 2"
_symmetry_group_IT_number 38
_symmetry_cell_setting 'orthorhombic'
loop_
_space_group_symop_operation_xyz
x,y,z
-x,-y,z
-x,y,z
x,-y,z
x,1/2+y,1/2+z
-x,1/2-y,1/2+z
-x,1/2+y,1/2+z
x,1/2-y,1/2+z
loop_
_atom_site_type_symbol
_atom_site_label
_atom_site_fract_x
_atom_site_fract_y
_atom_site_fract_z
Si Si1 0.802184 0.064342 0.739890
Si Si2 0.800611 0.145098 0.288232
Si Si3 0.202532 0.737302 0.603126
Si Si4 0.190297 0.348876 0.421455
Si Si5 0.304319 0.638844 0.046373
Si Si6 0.305274 0.934036 0.103167
O O1 0.729643 0.114768 0.819887
O O2 0.780728 0.086795 0.612946
O O3 0.000000 0.061867 0.766162
O O4 0.734594 0.000000 0.757561
O O5 0.746034 0.199265 0.211088
O O6 0.754982 0.147547 0.418497
O O7 0.720429 0.090080 0.228425
O O8 0.000000 0.141607 0.278262
O O9 0.262922 0.706307 0.486642
O O10 0.263188 0.801665 0.608766
O O11 0.000000 0.737276 0.598964
O O12 0.192785 0.395295 0.522458
O O13 0.000000 0.333307 0.387807
O O14 0.500000 0.628393 0.047529
O O15 0.500000 0.926619 0.071180
O O16 0.261206 0.000000 0.093463
#
# Coordination Sequence:
#
# PCOD9358054 Si02
#       6
#     8   8   8   8   8   8
#     4  10  22  41  64  90 122 164 214 257 297 357
#     4  10  22  41  63  85 112 153 203 250 294 351
#     4   9  20  39  63  90 118 152 198 250 303 361
#     4   9  19  37  63  92 119 155 202 252 299 352
#     4  12  26  40  59  88 124 161 197 247 308 370
#     4  10  20  34  56  88 124 157 190 239 301 357
#
# _framework density 21.678518
#
# number of rings (size 3 to 8) (size 9 to 14) (size 15 to 20)
#    0.000    2.000    0.000    4.000    2.333    7.000 
#    0.000    0.000    0.000    0.000    0.000    0.000 
#    0.000    0.000    0.000    0.000    0.000    0.000 
#
# Total GULP energy -133998.618400 kJ/mol
# GULP energy per Si atom -5583.275767 kJ/mol
# Density = 2.162918 g / cm^3
# Si number density = 21.678518 Si / 1000 Ang^3
#
#
#
# Elastic Constant Matrix: (Units=GPa)
#
#
# Indices 1 2 3 4 5 6 
#
# 1 28.0074 -0.6558 -9.3564 0.0000 0.0000 0.0000
# 2 -0.6558 71.7804 13.6403 0.0000 0.0000 0.0000
# 3 -9.3564 13.6403 90.8341 0.0000 0.0000 0.0000
# 4 0.0000 0.0000 0.0000 12.9906 0.0000 0.0000
# 5 0.0000 0.0000 0.0000 0.0000 5.2333 0.0000
# 6 0.0000 0.0000 0.0000 0.0000 0.0000 30.5096
#
#
#
# Elastic Compliance Matrix: (Units=1/GPa)
#
#
# Indices 1 2 3 4 5 6 
#
# 1 0.036988 -0.000397 0.003870 0.000000 0.000000 0.000000
# 2 -0.000397 0.014345 -0.002195 0.000000 0.000000 0.000000
# 3 0.003870 -0.002195 0.011737 0.000000 0.000000 0.000000
# 4 0.000000 0.000000 0.000000 0.076979 0.000000 0.000000
# 5 0.000000 0.000000 0.000000 0.000000 0.191084 0.000000
# 6 0.000000 0.000000 0.000000 0.000000 0.000000 0.032777
#
#
# Mechanical properties :
#
#
# Convention : Reuss Voigt Hill
#
# Bulk Modulus (GPa) = 15.23813 21.98647 18.61230
# Shear Modulus (GPa) = 13.04697 22.21294 17.62996
#
# Velocity S-wave (km/s) = 2.45590 3.20449 2.85484
# Velocity P-wave (km/s) = 3.88411 4.88424 4.41260
#
# Compressibility (1/GPa) = 0.06562485
#
# Stress axis : x y z
#
# Youngs Moduli (GPa) = 27.03556 69.71129 85.19844
#
# Poissons Ratio (x) = 0.02770 -0.32969
# Poissons Ratio (y) = 0.01074 0.18702
# Poissons Ratio (z) = -0.10462 0.15302
#
# Static dielectric constant tensor:
#      x y z
#    x 1.786590 0.000000 0.000000 
#    y 0.000000 1.781090 0.000000 
#    z 0.000000 0.000000 1.822350 
# 
# From -- ./inp_files/8121.got.cif
#   From: 2010.05.17/outbox.cif.g08.bks.cpg/sg38_5_cif.got.tgz:8121.got - 2010.06.03 18:07:57.
