data_PCOD9358542
_publ_section_title
;
Structure prediction by ZEFSAII (Michael W. Deem and Ramdas Pophale) SiO2 
 PCOD9358542
Probable space group: A M M 2
;
_chemical_formula_sum "Si O2"
_cell_formula_units_Z 48
_cell_length_a 8.524531
_cell_length_b 7.978183
_cell_length_c 35.675472
_cell_angle_alpha 90.000000
_cell_angle_beta 90.000000
_cell_angle_gamma 90.000000
_cell_volume 2426.298423
_symmetry_space_group_name_H-M "A M M 2"
_symmetry_group_IT_number 38
_symmetry_cell_setting 'orthorhombic'
loop_
_space_group_symop_operation_xyz
x,y,z
-x,-y,z
-x,y,z
x,-y,z
x,1/2+y,1/2+z
-x,1/2-y,1/2+z
-x,1/2+y,1/2+z
x,1/2-y,1/2+z
loop_
_atom_site_type_symbol
_atom_site_label
_atom_site_fract_x
_atom_site_fract_y
_atom_site_fract_z
Si Si1 0.186248 0.500000 0.672000
Si Si2 0.686265 0.000000 0.256179
Si Si3 0.309948 0.686030 0.125225
Si Si4 0.680065 0.701059 0.386024
Si Si5 0.315387 0.697265 0.545536
Si Si6 0.186782 0.194744 0.805385
Si Si7 0.680711 0.801272 0.466135
O O1 0.243548 0.500000 0.714632
O O2 0.247987 0.335358 0.650637
O O3 0.000000 0.500000 0.670903
O O4 0.740229 0.832671 0.278086
O O5 0.500000 0.000000 0.253850
O O6 0.500000 0.697735 0.124490
O O7 0.266911 0.500000 0.138563
O O8 0.252990 0.710468 0.082257
O O9 0.500000 0.764851 0.382993
O O10 0.675020 0.500000 0.387827
O O11 0.769927 0.744113 0.348076
O O12 0.750781 0.760575 0.425537
O O13 0.500000 0.746808 0.542469
O O14 0.308511 0.500000 0.553301
O O15 0.246042 0.731688 0.504435
O O16 0.000000 0.196786 0.800899
O O17 0.240465 0.000000 0.799477
O O18 0.500000 0.734019 0.463944
O O19 0.674271 0.000000 0.470286
#
# Coordination Sequence:
#
# PCOD9358542 Si02
#       7
#     4   4   8   8   8   8   8
#     4  12  26  44  64  90 126 162 200 246 304 374
#     4  12  26  44  70  96 122 154 200 256 308 362
#     4  10  20  37  63  92 122 159 204 255 307 361
#     4   9  17  30  49  76 112 154 202 252 302 354
#     4   9  15  26  48  78 115 154 196 251 309 356
#     4  10  22  41  64  91 125 164 202 244 302 371
#     4   9  16  24  39  72 114 152 196 251 306 352
#
# _framework density 19.783221999999999
#
# number of rings (size 3 to 8) (size 9 to 14) (size 15 to 20)
#    0.000    2.167    0.833    3.000    1.167    6.000 
#    0.000    0.000    0.000    1.000    0.000    0.000 
#    0.000    0.000    0.000    0.000    0.000    0.000 
#
# Total GULP energy -133904.730558 kJ/mol
# GULP energy per Si atom -5579.363773 kJ/mol
# Density = 1.973819 g / cm^3
# Si number density = 19.783222 Si / 1000 Ang^3
#
#
#
# Elastic Constant Matrix: (Units=GPa)
#
#
# Indices 1 2 3 4 5 6 
#
# 1 32.5293 33.4867 18.6880 0.0000 0.0000 0.0000
# 2 33.4867 113.3156 85.5131 0.0000 0.0000 0.0000
# 3 18.6880 85.5131 146.0385 0.0000 0.0000 0.0000
# 4 0.0000 0.0000 0.0000 0.4319 0.0000 0.0000
# 5 0.0000 0.0000 0.0000 0.0000 -73.3297 0.0000
# 6 0.0000 0.0000 0.0000 0.0000 0.0000 12.9651
#
#
#
# Elastic Compliance Matrix: (Units=1/GPa)
#
#
# Indices 1 2 3 4 5 6 
#
# 1 0.045245 -0.016128 0.003654 0.000000 0.000000 0.000000
# 2 -0.016128 0.021561 -0.010561 0.000000 0.000000 0.000000
# 3 0.003654 -0.010561 0.012564 0.000000 0.000000 0.000000
# 4 0.000000 0.000000 0.000000 2.315096 0.000000 0.000000
# 5 0.000000 0.000000 0.000000 0.000000 -0.013637 0.000000
# 6 0.000000 0.000000 0.000000 0.000000 0.000000 0.077130
#
#
# Mechanical properties :
#
#
# Convention : Reuss Voigt Hill
#
# Bulk Modulus (GPa) = 30.03046 63.02877 46.52961
# Shear Modulus (GPa) = 1.98797 -1.70682 0.14057
#
# Velocity S-wave (km/s) = 1.00352 -0.92986 0.26685
# Velocity P-wave (km/s) = 4.06884 5.54761 4.86474
#
# Compressibility (1/GPa) = 0.03329952
#
# Stress axis : x y z
#
# Youngs Moduli (GPa) = 22.10177 46.37978 79.59188
#
# Poissons Ratio (x) = 0.74803 -0.29084
# Poissons Ratio (y) = 0.35646 0.84059
# Poissons Ratio (z) = -0.08076 0.48983
#
# Static dielectric constant tensor:
#      x y z
#    x 1.692660 0.000000 0.000000 
#    y 0.000000 1.697470 0.000000 
#    z 0.000000 0.000000 1.713480 
# 
# From -- ./inp_files/24350.got.cif
#   From: 2010.05.17/outbox.cif.g08.bks.cpg/sg38_13_cif.got.tgz:24350.got - 2010.06.03 18:07:57.
