data_PCOD9358669
_publ_section_title
;
Structure prediction by ZEFSAII (Michael W. Deem and Ramdas Pophale) SiO2 
 PCOD9358669
Probable space group: A M M 2
;
_chemical_formula_sum "Si O2"
_cell_formula_units_Z 44
_cell_length_a 20.476274
_cell_length_b 5.722468
_cell_length_c 13.849937
_cell_angle_alpha 90.000000
_cell_angle_beta 90.000000
_cell_angle_gamma 90.000000
_cell_volume 1622.863913
_symmetry_space_group_name_H-M "A M M 2"
_symmetry_group_IT_number 38
_symmetry_cell_setting 'orthorhombic'
loop_
_space_group_symop_operation_xyz
x,y,z
-x,-y,z
-x,y,z
x,-y,z
x,1/2+y,1/2+z
-x,1/2-y,1/2+z
-x,1/2+y,1/2+z
x,1/2-y,1/2+z
loop_
_atom_site_type_symbol
_atom_site_label
_atom_site_fract_x
_atom_site_fract_y
_atom_site_fract_z
Si Si1 0.577340 0.000000 0.433618
Si Si2 0.251786 0.749666 0.674267
Si Si3 0.248827 0.249638 0.441478
Si Si4 0.078128 0.250122 0.134865
Si Si5 0.574749 0.500000 0.508362
Si Si6 0.622558 0.000000 0.218337
Si Si7 0.900123 0.749842 0.865317
O O1 0.603465 0.248576 0.474958
O O2 0.585988 0.000000 0.318587
O O3 0.500000 0.000000 0.458812
O O4 0.221727 0.500000 0.706320
O O5 0.247972 0.751303 0.558109
O O6 0.326864 0.716285 0.705736
O O7 0.226821 0.000000 0.708937
O O8 0.277657 0.500000 0.411806
O O9 0.174864 0.249282 0.400844
O O10 0.278323 0.000000 0.409649
O O11 0.104023 0.500000 0.097333
O O12 0.092039 0.250159 0.249389
O O13 0.000000 0.251482 0.122907
O O14 0.102750 0.000000 0.096303
O O15 0.500000 0.500000 0.472719
O O16 0.578125 0.500000 0.623987
O O17 0.928688 0.500000 0.896814
O O18 0.928556 0.000000 0.896543
#
# Coordination Sequence:
#
# PCOD9358669 Si02
#       7
#     4   8   8   8   4   4   8
#     4  10  23  39  56  81 107 134 171 206 241 293
#     4   8  16  25  41  66  86 114 150 182 227 279
#     4   8  12  20  29  45  70  90 122 163 203 256
#     4   8  12  16  20  28  41  62  99 140 184 236
#     4  10  23  39  56  81 107 134 171 206 241 293
#     4  10  21  34  60  74 106 136 165 202 256 284
#     4   8  12  16  24  33  49  78 103 143 200 236
#
# _framework density 27.112559999999998
#
# number of rings (size 3 to 8) (size 9 to 14) (size 15 to 20)
#    0.545    2.909    0.000    0.273    2.545    0.000 
#    0.000    2.727    0.000    0.000    0.000    0.000 
#    0.000    0.000    0.000    0.000    0.000    0.000 
#
# Total GULP energy -122917.636765 kJ/mol
# GULP energy per Si atom -5587.165308 kJ/mol
# Density = 2.705085 g / cm^3
# Si number density = 27.112560 Si / 1000 Ang^3
#
#
#
# Elastic Constant Matrix: (Units=GPa)
#
#
# Indices 1 2 3 4 5 6 
#
# 1 77.3917 42.8911 -18.8581 0.0000 0.0000 0.0000
# 2 42.8911 372.5265 35.1967 0.0000 0.0000 0.0000
# 3 -18.8581 35.1967 171.1720 0.0000 0.0000 0.0000
# 4 0.0000 0.0000 0.0000 127.8070 0.0000 0.0000
# 5 0.0000 0.0000 0.0000 0.0000 10.3964 0.0000
# 6 0.0000 0.0000 0.0000 0.0000 0.0000 -40.5303
#
#
#
# Elastic Compliance Matrix: (Units=1/GPa)
#
#
# Indices 1 2 3 4 5 6 
#
# 1 0.014425 -0.001847 0.001969 0.000000 0.000000 0.000000
# 2 -0.001847 0.002974 -0.000815 0.000000 0.000000 0.000000
# 3 0.001969 -0.000815 0.006227 0.000000 0.000000 0.000000
# 4 0.000000 0.000000 0.000000 0.007824 0.000000 0.000000
# 5 0.000000 0.000000 0.000000 0.000000 0.096188 0.000000
# 6 0.000000 0.000000 0.000000 0.000000 0.000000 -0.024673
#
#
# Mechanical properties :
#
#
# Convention : Reuss Voigt Hill
#
# Bulk Modulus (GPa) = 44.96531 82.17218 63.56874
# Shear Modulus (GPa) = 44.73752 56.99198 50.86475
#
# Velocity S-wave (km/s) = 4.06651 4.58979 4.33605
# Velocity P-wave (km/s) = 6.21847 7.64603 6.96890
#
# Compressibility (1/GPa) = 0.02223937
#
# Stress axis : x y z
#
# Youngs Moduli (GPa) = 69.32623 336.24674 160.60204
#
# Poissons Ratio (x) = 0.62098 -0.31621
# Poissons Ratio (y) = 0.12803 0.13089
# Poissons Ratio (z) = -0.13650 0.27404
#
# Static dielectric constant tensor:
#      x y z
#    x 2.061760 0.000000 0.000000 
#    y 0.000000 2.164700 0.000000 
#    z 0.000000 0.000000 2.018650 
# 
# From -- ./inp_files/15893.got.cif
#   From: 2010.05.17/outbox.cif.g08.bks.cpg/sg38_8_cif.got.tgz:15893.got - 2010.06.03 18:07:57.
