data_PCOD9358919
_publ_section_title
;
Structure prediction by ZEFSAII (Michael W. Deem and Ramdas Pophale) SiO2 
 PCOD9358919
Probable space group: A M M 2
;
_chemical_formula_sum "Si O2"
_cell_formula_units_Z 56
_cell_length_a 19.931305
_cell_length_b 8.287994
_cell_length_c 16.295996
_cell_angle_alpha 90.000000
_cell_angle_beta 90.000000
_cell_angle_gamma 90.000000
_cell_volume 2691.944318
_symmetry_space_group_name_H-M "A M M 2"
_symmetry_group_IT_number 38
_symmetry_cell_setting 'orthorhombic'
loop_
_space_group_symop_operation_xyz
x,y,z
-x,-y,z
-x,y,z
x,-y,z
x,1/2+y,1/2+z
-x,1/2-y,1/2+z
-x,1/2+y,1/2+z
x,1/2-y,1/2+z
loop_
_atom_site_type_symbol
_atom_site_label
_atom_site_fract_x
_atom_site_fract_y
_atom_site_fract_z
Si Si1 0.212177 0.813282 0.292670
Si Si2 0.338503 0.804047 0.708941
Si Si3 0.647864 0.311728 0.029098
Si Si4 0.784165 0.811989 0.969014
Si Si5 0.073531 0.804673 0.036541
Si Si6 0.423892 0.193277 0.866109
Si Si7 0.925017 0.808186 0.724128
O O1 0.263476 0.761751 0.221745
O O2 0.228583 0.708442 0.372570
O O3 0.135944 0.781534 0.266966
O O4 0.222370 0.000000 0.312959
O O5 0.367807 0.752035 0.621006
O O6 0.381347 0.748026 0.787645
O O7 0.335871 0.000000 0.708636
O O8 0.631514 0.500000 0.025178
O O9 0.727395 0.286147 0.016083
O O10 0.611085 0.230439 0.952607
O O11 0.777893 0.000000 0.991903
O O12 0.860124 0.756938 0.987255
O O13 0.078056 0.731627 0.127458
O O14 0.000000 0.759793 0.001783
O O15 0.074597 0.000000 0.042976
O O16 0.500000 0.255948 0.864938
O O17 0.426374 0.000000 0.857979
O O18 0.000000 0.761877 0.752605
O O19 0.917155 0.000000 0.736712
#
# Coordination Sequence:
#
# PCOD9358919 Si02
#       7
#     8   8   8   8   8   8   8
#     4  12  24  37  58  87 119 156 204 258 309 362
#     4  10  22  41  65  92 127 167 206 250 306 369
#     4  11  23  39  63  95 126 162 209 258 306 361
#     4  11  22  37  58  84 119 161 204 253 310 368
#     4   9  19  36  57  82 113 151 198 252 308 365
#     4  10  22  42  67  94 127 168 208 248 301 366
#     4  10  21  37  57  81 113 155 201 250 307 369
#
# _framework density 20.802807000000001
#
# number of rings (size 3 to 8) (size 9 to 14) (size 15 to 20)
#    0.000    1.571    1.429    3.429    0.000    6.857 
#    0.000    2.857    0.000    0.000    0.000    0.000 
#    0.000    0.000    0.000    0.000    0.000    0.000 
#
# Total GULP energy -156440.582779 kJ/mol
# GULP energy per Si atom -5587.163671 kJ/mol
# Density = 2.075546 g / cm^3
# Si number density = 20.802807 Si / 1000 Ang^3
#
#
#
# Elastic Constant Matrix: (Units=GPa)
#
#
# Indices 1 2 3 4 5 6 
#
# 1 103.8647 11.0352 37.0430 0.0000 0.0000 0.0000
# 2 11.0352 14.3869 -0.0301 0.0000 0.0000 0.0000
# 3 37.0430 -0.0301 100.8808 0.0000 0.0000 0.0000
# 4 0.0000 0.0000 0.0000 22.2090 0.0000 0.0000
# 5 0.0000 0.0000 0.0000 0.0000 14.9062 0.0000
# 6 0.0000 0.0000 0.0000 0.0000 0.0000 13.8716
#
#
#
# Elastic Compliance Matrix: (Units=1/GPa)
#
#
# Indices 1 2 3 4 5 6 
#
# 1 0.012228 -0.009388 -0.004493 0.000000 0.000000 0.000000
# 2 -0.009388 0.076716 0.003470 0.000000 0.000000 0.000000
# 3 -0.004493 0.003470 0.011563 0.000000 0.000000 0.000000
# 4 0.000000 0.000000 0.000000 0.045027 0.000000 0.000000
# 5 0.000000 0.000000 0.000000 0.000000 0.067086 0.000000
# 6 0.000000 0.000000 0.000000 0.000000 0.000000 0.072090
#
#
# Mechanical properties :
#
#
# Convention : Reuss Voigt Hill
#
# Bulk Modulus (GPa) = 12.54935 35.02538 23.78737
# Shear Modulus (GPa) = 15.05601 21.60298 18.32950
#
# Velocity S-wave (km/s) = 2.69318 3.22602 2.97156
# Velocity P-wave (km/s) = 3.96441 5.54524 4.82007
#
# Compressibility (1/GPa) = 0.07968542
#
# Stress axis : x y z
#
# Youngs Moduli (GPa) = 81.78148 13.03508 86.47940
#
# Poissons Ratio (x) = 0.12238 0.38853
# Poissons Ratio (y) = 0.76780 -0.30010
# Poissons Ratio (z) = 0.36742 -0.04523
#
# Static dielectric constant tensor:
#      x y z
#    x 1.752710 0.000000 0.000000 
#    y 0.000000 1.710160 0.000000 
#    z 0.000000 0.000000 1.735830 
# 
# From -- ./inp_files/15483.got.cif
#   From: 2010.05.17/outbox.cif.g08.bks.cpg/sg38_8_cif.got.tgz:15483.got - 2010.06.03 18:07:57.
