data_PCOD9358393
_publ_section_title
;
Structure prediction by ZEFSAII (Michael W. Deem and Ramdas Pophale) SiO2 
 PCOD9358393
Probable space group: A M M 2
;
_chemical_formula_sum "Si O2"
_cell_formula_units_Z 56
_cell_length_a 9.477422
_cell_length_b 20.100415
_cell_length_c 14.883314
_cell_angle_alpha 90.000000
_cell_angle_beta 90.000000
_cell_angle_gamma 90.000000
_cell_volume 2835.273033
_symmetry_space_group_name_H-M "A M M 2"
_symmetry_group_IT_number 38
_symmetry_cell_setting 'orthorhombic'
loop_
_space_group_symop_operation_xyz
x,y,z
-x,-y,z
-x,y,z
x,-y,z
x,1/2+y,1/2+z
-x,1/2-y,1/2+z
-x,1/2+y,1/2+z
x,1/2-y,1/2+z
loop_
_atom_site_type_symbol
_atom_site_label
_atom_site_fract_x
_atom_site_fract_y
_atom_site_fract_z
Si Si1 0.832607 0.579366 0.390660
Si Si2 0.842938 0.197996 0.025713
Si Si3 0.163561 0.427099 0.991867
Si Si4 0.159030 0.192240 0.241615
Si Si5 0.335158 0.573587 0.807326
Si Si6 0.657413 0.686255 0.065305
Si Si7 0.338550 0.186212 0.781230
O O1 0.799103 0.500000 0.400551
O O2 0.817096 0.625762 0.480613
O O3 0.735284 0.619164 0.318810
O O4 0.000000 0.582992 0.366245
O O5 0.850794 0.200782 0.134087
O O6 0.715406 0.249543 0.011718
O O7 0.000000 0.219500 0.993294
O O8 0.178238 0.500000 0.034768
O O9 0.226416 0.369818 0.051392
O O10 0.000000 0.417107 0.970556
O O11 0.256070 0.426612 0.902226
O O12 0.259723 0.129614 0.251597
O O13 0.230823 0.252547 0.296582
O O14 0.000000 0.180969 0.274928
O O15 0.500000 0.586807 0.818910
O O16 0.318935 0.500000 0.767039
O O17 0.500000 0.668702 0.033179
O O18 0.649034 0.691601 0.173020
O O19 0.500000 0.192704 0.815999
#
# Coordination Sequence:
#
# PCOD9358393 Si02
#       7
#     8   8   8   8   8   8   8
#     4  10  22  40  61  86 117 153 194 242 295 349
#     4   9  20  38  59  84 113 147 191 239 285 340
#     4  10  21  36  55  81 112 147 188 231 278 336
#     4  10  20  36  60  86 113 149 192 238 287 339
#     4  10  21  36  54  80 115 151 186 227 279 338
#     4  10  21  37  58  83 113 150 190 236 289 341
#     4  10  22  39  58  83 115 151 193 238 286 343
#
# _framework density 19.751185
#
# number of rings (size 3 to 8) (size 9 to 14) (size 15 to 20)
#    0.000    2.143    0.000    2.143    2.000    6.000 
#    0.000    4.286    0.000    0.000    0.000    0.000 
#    0.000    0.000    0.000    0.000    0.000    0.000 
#
# Total GULP energy -155961.232865 kJ/mol
# GULP energy per Si atom -5570.044031 kJ/mol
# Density = 1.970623 g / cm^3
# Si number density = 19.751185 Si / 1000 Ang^3
#
#
#
# Elastic Constant Matrix: (Units=GPa)
#
#
# Indices 1 2 3 4 5 6 
#
# 1 142.7818 88.1847 13.3932 0.0000 0.0000 0.0000
# 2 88.1847 97.0996 20.7845 0.0000 0.0000 0.0000
# 3 13.3932 20.7845 29.9811 0.0000 0.0000 0.0000
# 4 0.0000 0.0000 0.0000 78.5112 0.0000 0.0000
# 5 0.0000 0.0000 0.0000 0.0000 18.5499 0.0000
# 6 0.0000 0.0000 0.0000 0.0000 0.0000 29.4622
#
#
#
# Elastic Compliance Matrix: (Units=1/GPa)
#
#
# Indices 1 2 3 4 5 6 
#
# 1 0.016256 -0.015511 0.003491 0.000000 0.000000 0.000000
# 2 -0.015511 0.026893 -0.011715 0.000000 0.000000 0.000000
# 3 0.003491 -0.011715 0.039916 0.000000 0.000000 0.000000
# 4 0.000000 0.000000 0.000000 0.012737 0.000000 0.000000
# 5 0.000000 0.000000 0.000000 0.000000 0.053909 0.000000
# 6 0.000000 0.000000 0.000000 0.000000 0.000000 0.033942
#
#
# Mechanical properties :
#
#
# Convention : Reuss Voigt Hill
#
# Bulk Modulus (GPa) = 28.09290 57.17637 42.63463
# Shear Modulus (GPa) = 20.57728 35.13800 27.85764
#
# Velocity S-wave (km/s) = 3.23123 4.22243 3.75964
# Velocity P-wave (km/s) = 5.30805 7.26520 6.36233
#
# Compressibility (1/GPa) = 0.03559618
#
# Stress axis : x y z
#
# Youngs Moduli (GPa) = 61.51606 37.18454 25.05255
#
# Poissons Ratio (x) = 0.57676 -0.08746
# Poissons Ratio (y) = 0.95416 0.29348
# Poissons Ratio (z) = -0.21475 0.43560
#
# Static dielectric constant tensor:
#      x y z
#    x 1.770740 0.000000 0.000000 
#    y 0.000000 1.723730 0.000000 
#    z 0.000000 0.000000 1.725450 
# 
# From -- ./inp_files/12385.got.cif
#   From: 2010.05.17/outbox.cif.g08.bks.cpg/sg38_7_cif.got.tgz:12385.got - 2010.06.03 18:07:57.
