data_PCOD9358378
_publ_section_title
;
Structure prediction by ZEFSAII (Michael W. Deem and Ramdas Pophale) SiO2 
 PCOD9358378
Probable space group: A M M 2
;
_chemical_formula_sum "Si O2"
_cell_formula_units_Z 40
_cell_length_a 9.134252
_cell_length_b 7.901024
_cell_length_c 29.038687
_cell_angle_alpha 90.000000
_cell_angle_beta 90.000000
_cell_angle_gamma 90.000000
_cell_volume 2095.720423
_symmetry_space_group_name_H-M "A M M 2"
_symmetry_group_IT_number 38
_symmetry_cell_setting 'orthorhombic'
loop_
_space_group_symop_operation_xyz
x,y,z
-x,-y,z
-x,y,z
x,-y,z
x,1/2+y,1/2+z
-x,1/2-y,1/2+z
-x,1/2+y,1/2+z
x,1/2-y,1/2+z
loop_
_atom_site_type_symbol
_atom_site_label
_atom_site_fract_x
_atom_site_fract_y
_atom_site_fract_z
Si Si1 0.824074 0.308296 0.767570
Si Si2 0.830029 0.202924 0.664717
Si Si3 0.673075 0.000000 0.929185
Si Si4 0.327181 0.000000 0.819514
Si Si5 0.174262 0.691451 0.981017
Si Si6 0.330740 0.201524 0.071908
O O1 0.787464 0.500000 0.781557
O O2 0.787106 0.282124 0.713658
O O3 0.745578 0.165546 0.797185
O O4 0.000000 0.286136 0.771166
O O5 0.731417 0.259747 0.622328
O O6 0.000000 0.249293 0.655479
O O7 0.822692 0.000000 0.669403
O O8 0.693632 0.000000 0.874375
O O9 0.746168 0.165988 0.951153
O O10 0.500000 0.000000 0.939763
O O11 0.500000 0.000000 0.809776
O O12 0.203947 0.500000 0.964704
O O13 0.000000 0.719038 0.980454
O O14 0.233923 0.710177 0.032942
O O15 0.500000 0.254470 0.068140
O O16 0.323164 0.000000 0.063860
#
# Coordination Sequence:
#
# PCOD9358378 Si02
#       6
#     8   8   4   4   8   8
#     4  10  21  40  66  93 124 165 212 263 315 370
#     4  10  20  36  59  87 121 163 210 258 308 366
#     4  11  25  45  67  93 125 167 211 259 322 379
#     4  11  25  43  65  93 129 167 207 261 322 383
#     4  11  24  42  66  95 125 162 208 260 316 373
#     4  11  23  37  56  87 127 169 209 253 308 371
#
# _framework density 19.086514000000001
#
# number of rings (size 3 to 8) (size 9 to 14) (size 15 to 20)
#    0.000    1.400    2.000    3.000    0.000   10.000 
#    0.000    4.000    0.000    0.000    0.000    0.000 
#    0.000    0.000    0.000    0.000    0.000    0.000 
#
# Total GULP energy -111842.197691 kJ/mol
# GULP energy per Si atom -5592.109885 kJ/mol
# Density = 1.904307 g / cm^3
# Si number density = 19.086514 Si / 1000 Ang^3
#
#
#
# Elastic Constant Matrix: (Units=GPa)
#
#
# Indices 1 2 3 4 5 6 
#
# 1 102.8326 87.1626 73.1128 0.0000 0.0000 0.0000
# 2 87.1626 152.9656 77.3175 0.0000 0.0000 0.0000
# 3 73.1128 77.3175 98.2041 0.0000 0.0000 0.0000
# 4 0.0000 0.0000 0.0000 22.5552 0.0000 0.0000
# 5 0.0000 0.0000 0.0000 0.0000 36.9336 0.0000
# 6 0.0000 0.0000 0.0000 0.0000 0.0000 15.3004
#
#
#
# Elastic Compliance Matrix: (Units=1/GPa)
#
#
# Indices 1 2 3 4 5 6 
#
# 1 0.025716 -0.008265 -0.012638 0.000000 0.000000 0.000000
# 2 -0.008265 0.013515 -0.004487 0.000000 0.000000 0.000000
# 3 -0.012638 -0.004487 0.023125 0.000000 0.000000 0.000000
# 4 0.000000 0.000000 0.000000 0.044336 0.000000 0.000000
# 5 0.000000 0.000000 0.000000 0.000000 0.027076 0.000000
# 6 0.000000 0.000000 0.000000 0.000000 0.000000 0.065358
#
#
# Mechanical properties :
#
#
# Convention : Reuss Voigt Hill
#
# Bulk Modulus (GPa) = 86.39544 92.13201 89.26373
# Shear Modulus (GPa) = 19.70332 22.71846 21.21089
#
# Velocity S-wave (km/s) = 3.21645 3.45380 3.33724
# Velocity P-wave (km/s) = 7.69139 8.01751 7.85615
#
# Compressibility (1/GPa) = 0.01157468
#
# Stress axis : x y z
#
# Youngs Moduli (GPa) = 38.88646 73.99036 43.24403
#
# Poissons Ratio (x) = 0.61156 0.54652
# Poissons Ratio (y) = 0.32141 0.19404
# Poissons Ratio (z) = 0.49144 0.33201
#
# Static dielectric constant tensor:
#      x y z
#    x 1.638590 0.000000 0.000000 
#    y 0.000000 1.665720 0.000000 
#    z 0.000000 0.000000 1.632090 
# 
# From -- ./inp_files/23236.got.cif
#   From: 2010.05.17/outbox.cif.g08.bks.cpg/sg38_12_cif.got.tgz:23236.got - 2010.06.03 18:07:57.
