data_PCOD9358841
_publ_section_title
;
Structure prediction by ZEFSAII (Michael W. Deem and Ramdas Pophale) SiO2 
 PCOD9358841
Probable space group: A M M 2
;
_chemical_formula_sum "Si O2"
_cell_formula_units_Z 64
_cell_length_a 14.256327
_cell_length_b 9.224218
_cell_length_c 26.625350
_cell_angle_alpha 90.000000
_cell_angle_beta 90.000000
_cell_angle_gamma 90.000000
_cell_volume 3501.325865
_symmetry_space_group_name_H-M "A M M 2"
_symmetry_group_IT_number 38
_symmetry_cell_setting 'orthorhombic'
loop_
_space_group_symop_operation_xyz
x,y,z
-x,-y,z
-x,y,z
x,-y,z
x,1/2+y,1/2+z
-x,1/2-y,1/2+z
-x,1/2+y,1/2+z
x,1/2-y,1/2+z
loop_
_atom_site_type_symbol
_atom_site_label
_atom_site_fract_x
_atom_site_fract_y
_atom_site_fract_z
Si Si1 0.107965 0.172771 0.645600
Si Si2 0.107422 0.326493 0.941519
Si Si3 0.386678 0.670339 0.601766
Si Si4 0.610646 0.674659 0.790320
Si Si5 0.612642 0.329226 0.488686
Si Si6 0.294516 0.826246 0.394493
Si Si7 0.886061 0.664618 0.543613
Si Si8 0.294651 0.827345 0.695808
O O1 0.138704 0.254705 0.594951
O O2 0.183810 0.203597 0.688478
O O3 0.000000 0.212406 0.657348
O O4 0.110067 0.000000 0.635764
O O5 0.108196 0.500000 0.949570
O O6 0.183930 0.291989 0.899238
O O7 0.000000 0.283885 0.930039
O O8 0.138644 0.249554 0.993052
O O9 0.500000 0.679883 0.603747
O O10 0.362797 0.500000 0.609046
O O11 0.357026 0.713967 0.545193
O O12 0.343629 0.766093 0.645622
O O13 0.500000 0.708512 0.790583
O O14 0.619935 0.500000 0.785920
O O15 0.657756 0.721453 0.842790
O O16 0.660909 0.749702 0.743615
O O17 0.500000 0.312884 0.486839
O O18 0.633466 0.500000 0.483050
O O19 0.656978 0.242062 0.443172
O O20 0.305003 0.000000 0.397193
O O21 0.851065 0.500000 0.542773
O O22 0.000000 0.660781 0.543594
O O23 0.307654 0.000000 0.699093
#
# Coordination Sequence:
#
# PCOD9358841 Si02
#       8
#     8   8   8   8   8   8   8   8
#     4   9  19  36  54  74 108 149 183 219 269 325
#     4   9  18  33  52  76 111 150 183 219 267 320
#     4   9  19  36  55  77 110 148 178 212 272 340
#     4  10  22  41  61  80 107 143 180 225 284 339
#     4   9  19  35  54  79 111 144 176 216 275 337
#     4  10  21  36  57  82 107 141 188 229 267 322
#     4   9  17  29  48  76 108 143 184 225 261 306
#     4  11  23  36  56  84 108 137 185 233 272 320
#
# _framework density 18.278789
#
# number of rings (size 3 to 8) (size 9 to 14) (size 15 to 20)
#    0.000    2.500    0.000    2.250    1.750    6.750 
#    0.000    1.875    0.000    0.750    0.000    0.000 
#    0.000    0.000    0.000    0.000    0.000    0.000 
#
# Total GULP energy -178592.841146 kJ/mol
# GULP energy per Si atom -5581.026286 kJ/mol
# Density = 1.823719 g / cm^3
# Si number density = 18.278789 Si / 1000 Ang^3
#
#
#
# Elastic Constant Matrix: (Units=GPa)
#
#
# Indices 1 2 3 4 5 6 
#
# 1 115.6139 48.4373 88.0704 0.0000 0.0000 0.0000
# 2 48.4373 31.6843 51.5755 0.0000 0.0000 0.0000
# 3 88.0704 51.5755 153.2343 0.0000 0.0000 0.0000
# 4 0.0000 0.0000 0.0000 30.6911 0.0000 0.0000
# 5 0.0000 0.0000 0.0000 0.0000 35.5678 0.0000
# 6 0.0000 0.0000 0.0000 0.0000 0.0000 20.9310
#
#
#
# Elastic Compliance Matrix: (Units=1/GPa)
#
#
# Indices 1 2 3 4 5 6 
#
# 1 0.024791 -0.032526 -0.003301 0.000000 0.000000 0.000000
# 2 -0.032526 0.112483 -0.019165 0.000000 0.000000 0.000000
# 3 -0.003301 -0.019165 0.014874 0.000000 0.000000 0.000000
# 4 0.000000 0.000000 0.000000 0.032583 0.000000 0.000000
# 5 0.000000 0.000000 0.000000 0.000000 0.028115 0.000000
# 6 0.000000 0.000000 0.000000 0.000000 0.000000 0.047776
#
#
# Mechanical properties :
#
#
# Convention : Reuss Voigt Hill
#
# Bulk Modulus (GPa) = 23.71743 75.18878 49.45310
# Shear Modulus (GPa) = 12.99849 24.93460 18.96654
#
# Velocity S-wave (km/s) = 2.66958 3.69742 3.22471
# Velocity P-wave (km/s) = 4.74403 7.71049 6.40146
#
# Compressibility (1/GPa) = 0.04216309
#
# Stress axis : x y z
#
# Youngs Moduli (GPa) = 40.33720 8.89025 67.23281
#
# Poissons Ratio (x) = 0.28917 0.22192
# Poissons Ratio (y) = 1.31201 1.28853
# Poissons Ratio (z) = 0.13315 0.17038
#
# Static dielectric constant tensor:
#      x y z
#    x 1.678860 0.000000 0.000000 
#    y 0.000000 1.609890 0.000000 
#    z 0.000000 0.000000 1.587050 
# 
# From -- ./inp_files/22924.got.cif
#   From: 2010.05.17/outbox.cif.g08.bks.cpg/sg38_12_cif.got.tgz:22924.got - 2010.06.03 18:07:57.
