data_PCOD9358604
_publ_section_title
;
Structure prediction by ZEFSAII (Michael W. Deem and Ramdas Pophale) SiO2 
 PCOD9358604
Probable space group: A M M 2
;
_chemical_formula_sum "Si O2"
_cell_formula_units_Z 48
_cell_length_a 7.893485
_cell_length_b 35.057068
_cell_length_c 9.101642
_cell_angle_alpha 90.000000
_cell_angle_beta 90.000000
_cell_angle_gamma 90.000000
_cell_volume 2518.628586
_symmetry_space_group_name_H-M "A M M 2"
_symmetry_group_IT_number 38
_symmetry_cell_setting 'orthorhombic'
loop_
_space_group_symop_operation_xyz
x,y,z
-x,-y,z
-x,y,z
x,-y,z
x,1/2+y,1/2+z
-x,1/2-y,1/2+z
-x,1/2+y,1/2+z
x,1/2-y,1/2+z
loop_
_atom_site_type_symbol
_atom_site_label
_atom_site_fract_x
_atom_site_fract_y
_atom_site_fract_z
Si Si1 0.500000 0.709096 0.486780
Si Si2 0.198110 0.652221 0.485827
Si Si3 0.810714 0.654367 0.836040
Si Si4 0.707180 0.500000 0.825492
Si Si5 0.303594 0.077505 0.479455
Si Si6 0.296726 0.500000 0.487255
Si Si7 0.500000 0.208592 0.340280
Si Si8 0.800139 0.075420 0.810278
O O1 0.332207 0.684929 0.445601
O O2 0.500000 0.750333 0.414144
O O3 0.500000 0.712985 0.663631
O O4 0.211241 0.646289 0.661795
O O5 0.243832 0.613225 0.402502
O O6 0.000000 0.661481 0.454053
O O7 0.665598 0.683951 0.881123
O O8 0.000000 0.669854 0.858207
O O9 0.790673 0.614881 0.922314
O O10 0.500000 0.500000 0.830448
O O11 0.761159 0.500000 0.656260
O O12 0.762765 0.461503 0.906942
O O13 0.500000 0.082027 0.434810
O O14 0.292031 0.074278 0.654462
O O15 0.500000 0.500000 0.487325
O O16 0.237002 0.462213 0.404006
O O17 0.000000 0.077044 0.779337
#
# Coordination Sequence:
#
# PCOD9358604 Si02
#       8
#     4   8   8   4   8   4   4   8
#     4  10  22  38  64  85 122 149 196 234 295 346
#     4   9  21  39  61  87 117 155 198 241 289 350
#     4  10  20  39  62  86 118 155 195 241 290 345
#     4   9  21  37  56  82 114 152 199 246 289 343
#     4  11  21  36  58  87 119 153 196 243 293 346
#     4  11  22  37  58  82 110 155 202 245 293 341
#     4  10  22  40  58  93 114 155 190 238 285 360
#     4  11  23  38  55  84 120 154 194 244 298 347
#
# _framework density 19.057991999999999
#
# number of rings (size 3 to 8) (size 9 to 14) (size 15 to 20)
#    0.000    1.833    0.833    2.750    2.333    2.667 
#    0.000    3.750    0.000    0.000    0.000    0.000 
#    0.000    0.000    0.000    0.000    0.000    0.000 
#
# Total GULP energy -134095.161461 kJ/mol
# GULP energy per Si atom -5587.298394 kJ/mol
# Density = 1.901462 g / cm^3
# Si number density = 19.057992 Si / 1000 Ang^3
#
#
#
# Elastic Constant Matrix: (Units=GPa)
#
#
# Indices 1 2 3 4 5 6 
#
# 1 86.8634 66.4372 37.5396 0.0000 0.0000 0.0000
# 2 66.4372 176.8782 66.9126 0.0000 0.0000 0.0000
# 3 37.5396 66.9126 67.8062 0.0000 0.0000 0.0000
# 4 0.0000 0.0000 0.0000 18.9987 0.0000 0.0000
# 5 0.0000 0.0000 0.0000 0.0000 20.2323 0.0000
# 6 0.0000 0.0000 0.0000 0.0000 0.0000 13.3668
#
#
#
# Elastic Compliance Matrix: (Units=1/GPa)
#
#
# Indices 1 2 3 4 5 6 
#
# 1 0.017157 -0.004549 -0.005009 0.000000 0.000000 0.000000
# 2 -0.004549 0.010228 -0.007574 0.000000 0.000000 0.000000
# 3 -0.005009 -0.007574 0.024996 0.000000 0.000000 0.000000
# 4 0.000000 0.000000 0.000000 0.052635 0.000000 0.000000
# 5 0.000000 0.000000 0.000000 0.000000 0.049426 0.000000
# 6 0.000000 0.000000 0.000000 0.000000 0.000000 0.074812
#
#
# Mechanical properties :
#
#
# Convention : Reuss Voigt Hill
#
# Bulk Modulus (GPa) = 55.20427 74.81406 65.00917
# Shear Modulus (GPa) = 18.54900 21.23015 19.88957
#
# Velocity S-wave (km/s) = 3.12315 3.34125 3.23404
# Velocity P-wave (km/s) = 6.48342 7.36386 6.93762
#
# Compressibility (1/GPa) = 0.01811454
#
# Stress axis : x y z
#
# Youngs Moduli (GPa) = 58.28670 97.77390 40.00707
#
# Poissons Ratio (x) = 0.44480 0.20040
# Poissons Ratio (y) = 0.26516 0.30303
# Poissons Ratio (z) = 0.29196 0.74057
#
# Static dielectric constant tensor:
#      x y z
#    x 1.688800 0.000000 0.000000 
#    y 0.000000 1.626640 0.000000 
#    z 0.000000 0.000000 1.640600 
# 
# From -- ./inp_files/3874.got.cif
#   From: 2010.05.17/outbox.cif.g08.bks.cpg/sg38_2_cif.got.tgz:3874.got - 2010.06.03 18:07:57.
