data_PCOD9358965
_publ_section_title
;
Structure prediction by ZEFSAII (Michael W. Deem and Ramdas Pophale) SiO2 
 PCOD9358965
Probable space group: A M M 2
;
_chemical_formula_sum "Si O2"
_cell_formula_units_Z 64
_cell_length_a 7.835209
_cell_length_b 15.870436
_cell_length_c 24.531952
_cell_angle_alpha 90.000000
_cell_angle_beta 90.000000
_cell_angle_gamma 90.000000
_cell_volume 3050.503656
_symmetry_space_group_name_H-M "A M M 2"
_symmetry_group_IT_number 38
_symmetry_cell_setting 'orthorhombic'
loop_
_space_group_symop_operation_xyz
x,y,z
-x,-y,z
-x,y,z
x,-y,z
x,1/2+y,1/2+z
-x,1/2-y,1/2+z
-x,1/2+y,1/2+z
x,1/2-y,1/2+z
loop_
_atom_site_type_symbol
_atom_site_label
_atom_site_fract_x
_atom_site_fract_y
_atom_site_fract_z
Si Si1 0.301232 0.907362 0.710950
Si Si2 0.298529 0.828509 0.077154
Si Si3 0.802549 0.138559 0.591380
Si Si4 0.705749 0.905194 0.962530
Si Si5 0.205602 0.255193 0.892968
Si Si6 0.793137 0.406074 0.689750
Si Si7 0.208625 0.406384 0.970884
Si Si8 0.201311 0.238354 0.270213
O O1 0.500000 0.906821 0.725713
O O2 0.286611 0.892587 0.646050
O O3 0.219518 0.829082 0.742052
O O4 0.229379 0.000000 0.723912
O O5 0.500000 0.810824 0.071170
O O6 0.208658 0.739724 0.088438
O O7 0.271064 0.887420 0.129087
O O8 0.235422 0.871478 0.021628
O O9 0.734488 0.105991 0.533443
O O10 0.000000 0.112649 0.596005
O O11 0.500000 0.908780 0.964748
O O12 0.753690 0.835389 0.918437
O O13 0.768531 0.000000 0.951888
O O14 0.268382 0.330065 0.932663
O O15 0.272310 0.262733 0.831382
O O16 0.000000 0.262381 0.891592
O O17 0.744708 0.500000 0.707405
O O18 0.727945 0.333482 0.730183
O O19 0.000000 0.401805 0.687855
O O20 0.256420 0.500000 0.951661
O O21 0.000000 0.402551 0.972050
O O22 0.000000 0.220517 0.275064
#
# Coordination Sequence:
#
# PCOD9358965 Si02
#       8
#     8   8   8   8   8   8   8   8
#     4  11  24  40  59  85 116 152 192 235 286 344
#     4  11  21  35  58  86 117 152 189 231 286 346
#     4  11  20  34  59  88 119 151 185 230 286 342
#     4  10  22  39  58  82 115 153 189 230 287 346
#     4  10  21  38  59  84 113 148 195 242 282 329
#     4  10  21  37  58  86 117 150 189 233 285 344
#     4   9  18  33  56  86 117 148 182 224 279 339
#     4  10  22  39  59  83 114 152 192 240 290 335
#
# _framework density 20.980142000000001
#
# number of rings (size 3 to 8) (size 9 to 14) (size 15 to 20)
#    0.000    1.750    2.500    1.875    0.000    4.500 
#    0.000    5.000    0.000    1.125    0.000    1.750 
#    0.000    0.000    0.000    0.000    0.000    0.000 
#
# Total GULP energy -178811.650817 kJ/mol
# GULP energy per Si atom -5587.864088 kJ/mol
# Density = 2.093239 g / cm^3
# Si number density = 20.980142 Si / 1000 Ang^3
#
#
#
# Elastic Constant Matrix: (Units=GPa)
#
#
# Indices 1 2 3 4 5 6 
#
# 1 25.4882 -10.7962 -7.0484 0.0000 0.0000 0.0000
# 2 -10.7962 113.8985 22.1210 0.0000 0.0000 0.0000
# 3 -7.0484 22.1210 102.8087 0.0000 0.0000 0.0000
# 4 0.0000 0.0000 0.0000 -1.1650 0.0000 0.0000
# 5 0.0000 0.0000 0.0000 0.0000 13.4008 0.0000
# 6 0.0000 0.0000 0.0000 0.0000 0.0000 33.4910
#
#
#
# Elastic Compliance Matrix: (Units=1/GPa)
#
#
# Indices 1 2 3 4 5 6 
#
# 1 0.041295 0.003511 0.002076 0.000000 0.000000 0.000000
# 2 0.003511 0.009461 -0.001795 0.000000 0.000000 0.000000
# 3 0.002076 -0.001795 0.010255 0.000000 0.000000 0.000000
# 4 0.000000 0.000000 0.000000 -0.858362 0.000000 0.000000
# 5 0.000000 0.000000 0.000000 0.000000 0.074622 0.000000
# 6 0.000000 0.000000 0.000000 0.000000 0.000000 0.029859
#
#
# Mechanical properties :
#
#
# Convention : Reuss Voigt Hill
#
# Bulk Modulus (GPa) = 14.57833 27.86094 21.21963
# Shear Modulus (GPa) = -7.37912 25.00663 8.81376
#
# Velocity S-wave (km/s) = -1.87745 3.45616 2.05186
# Velocity P-wave (km/s) = 1.50464 5.40696 3.96858
#
# Compressibility (1/GPa) = 0.06859498
#
# Stress axis : x y z
#
# Youngs Moduli (GPa) = 24.21602 105.69502 97.51028
#
# Poissons Ratio (x) = -0.37111 -0.20239
# Poissons Ratio (y) = -0.08503 0.17503
# Poissons Ratio (z) = -0.05026 0.18972
#
# Static dielectric constant tensor:
#      x y z
#    x 1.740120 0.000000 0.000000 
#    y 0.000000 1.747840 0.000000 
#    z 0.000000 0.000000 1.728090 
# 
# From -- ./inp_files/22126.got.cif
#   From: 2010.05.17/outbox.cif.g08.bks.cpg/sg38_12_cif.got.tgz:22126.got - 2010.06.03 18:07:57.
