data_PCOD9358882
_publ_section_title
;
Structure prediction by ZEFSAII (Michael W. Deem and Ramdas Pophale) SiO2 
 PCOD9358882
Probable space group: A M M 2
;
_chemical_formula_sum "Si O2"
_cell_formula_units_Z 64
_cell_length_a 8.546390
_cell_length_b 33.298386
_cell_length_c 12.136362
_cell_angle_alpha 90.000000
_cell_angle_beta 90.000000
_cell_angle_gamma 90.000000
_cell_volume 3453.777951
_symmetry_space_group_name_H-M "A M M 2"
_symmetry_group_IT_number 38
_symmetry_cell_setting 'orthorhombic'
loop_
_space_group_symop_operation_xyz
x,y,z
-x,-y,z
-x,y,z
x,-y,z
x,1/2+y,1/2+z
-x,1/2-y,1/2+z
-x,1/2+y,1/2+z
x,1/2-y,1/2+z
loop_
_atom_site_type_symbol
_atom_site_label
_atom_site_fract_x
_atom_site_fract_y
_atom_site_fract_z
Si Si1 0.314325 0.684941 0.267630
Si Si2 0.679746 0.601924 0.651650
Si Si3 0.185122 0.228067 0.219278
Si Si4 0.310645 0.046592 0.714275
Si Si5 0.680105 0.815072 0.017979
Si Si6 0.186840 0.877659 0.591144
Si Si7 0.686942 0.452338 0.460609
Si Si8 0.187653 0.648695 0.850023
O O1 0.500000 0.677551 0.262713
O O2 0.275004 0.730801 0.238971
O O3 0.262711 0.679338 0.394048
O O4 0.233883 0.654554 0.183673
O O5 0.500000 0.591010 0.679119
O O6 0.677501 0.642176 0.578142
O O7 0.752007 0.569218 0.568865
O O8 0.765515 0.614260 0.763217
O O9 0.217471 0.213476 0.094848
O O10 0.241083 0.191673 0.299500
O O11 0.000000 0.234145 0.236087
O O12 0.500000 0.047056 0.715933
O O13 0.252166 0.079041 0.627264
O O14 0.255922 0.059064 0.838144
O O15 0.263498 0.000000 0.694970
O O16 0.500000 0.799983 0.014300
O O17 0.245346 0.862064 0.472008
O O18 0.000000 0.880415 0.585492
O O19 0.500000 0.443086 0.460973
O O20 0.704444 0.500000 0.469131
O O21 0.000000 0.651226 0.853329
#
# Coordination Sequence:
#
# PCOD9358882 Si02
#       8
#     8   8   8   8   8   8   8   8
#     4  11  23  37  56  82 110 139 179 228 276 329
#     4   9  16  30  54  78 101 133 175 218 262 316
#     4  10  21  37  56  77 105 141 181 225 277 332
#     4   9  18  35  59  85 114 148 185 229 282 333
#     4   9  19  35  53  76 103 134 174 220 269 321
#     4  11  23  38  56  81 112 150 191 229 278 334
#     4   8  14  27  51  82 112 138 168 216 275 327
#     4   9  21  39  54  72 105 147 184 222 271 328
#
# _framework density 18.530432999999999
#
# number of rings (size 3 to 8) (size 9 to 14) (size 15 to 20)
#    0.000    2.500    0.000    2.625    1.750    4.750 
#    0.000    3.750    0.000    3.375    0.000    0.000 
#    0.000    0.000    0.000    0.000    0.000    0.000 
#
# Total GULP energy -178436.091455 kJ/mol
# GULP energy per Si atom -5576.127858 kJ/mol
# Density = 1.848826 g / cm^3
# Si number density = 18.530433 Si / 1000 Ang^3
#
#
#
# Elastic Constant Matrix: (Units=GPa)
#
#
# Indices 1 2 3 4 5 6 
#
# 1 6.7922 8.8778 12.9834 0.0000 0.0000 0.0000
# 2 8.8778 63.3883 54.2043 0.0000 0.0000 0.0000
# 3 12.9834 54.2043 143.2292 0.0000 0.0000 0.0000
# 4 0.0000 0.0000 0.0000 19.2568 0.0000 0.0000
# 5 0.0000 0.0000 0.0000 0.0000 20.7871 0.0000
# 6 0.0000 0.0000 0.0000 0.0000 0.0000 19.9994
#
#
#
# Elastic Compliance Matrix: (Units=1/GPa)
#
#
# Indices 1 2 3 4 5 6 
#
# 1 0.190520 -0.017616 -0.010604 0.000000 0.000000 0.000000
# 2 -0.017616 0.024952 -0.007846 0.000000 0.000000 0.000000
# 3 -0.010604 -0.007846 0.010912 0.000000 0.000000 0.000000
# 4 0.000000 0.000000 0.000000 0.051930 0.000000 0.000000
# 5 0.000000 0.000000 0.000000 0.000000 0.048107 0.000000
# 6 0.000000 0.000000 0.000000 0.000000 0.000000 0.050002
#
#
# Mechanical properties :
#
#
# Convention : Reuss Voigt Hill
#
# Bulk Modulus (GPa) = 6.48283 40.61563 23.54923
# Shear Modulus (GPa) = 10.00055 21.16495 15.58275
#
# Velocity S-wave (km/s) = 2.32563 3.38327 2.90302
# Velocity P-wave (km/s) = 3.27375 6.10147 4.89619
#
# Compressibility (1/GPa) = 0.15425362
#
# Stress axis : x y z
#
# Youngs Moduli (GPa) = 5.24879 40.07622 91.63904
#
# Poissons Ratio (x) = 0.70598 0.97170
# Poissons Ratio (y) = 0.09246 0.71903
# Poissons Ratio (z) = 0.05566 0.31445
#
# Static dielectric constant tensor:
#      x y z
#    x 1.654150 0.000000 0.000000 
#    y 0.000000 1.629990 0.000000 
#    z 0.000000 0.000000 1.654410 
# 
# From -- ./inp_files/8539.got.cif
#   From: 2010.05.17/outbox.cif.g08.bks.cpg/sg38_5_cif.got.tgz:8539.got - 2010.06.03 18:07:57.
