data_PCOD9358983
_publ_section_title
;
Structure prediction by ZEFSAII (Michael W. Deem and Ramdas Pophale) SiO2 
 PCOD9358983
Probable space group: A M M 2
;
_chemical_formula_sum "Si O2"
_cell_formula_units_Z 58
_cell_length_a 14.683237
_cell_length_b 9.472275
_cell_length_c 24.127710
_cell_angle_alpha 90.000000
_cell_angle_beta 90.000000
_cell_angle_gamma 90.000000
_cell_volume 3355.770184
_symmetry_space_group_name_H-M "A M M 2"
_symmetry_group_IT_number 38
_symmetry_cell_setting 'orthorhombic'
loop_
_space_group_symop_operation_xyz
x,y,z
-x,-y,z
-x,y,z
x,-y,z
x,1/2+y,1/2+z
-x,1/2-y,1/2+z
-x,1/2+y,1/2+z
x,1/2-y,1/2+z
loop_
_atom_site_type_symbol
_atom_site_label
_atom_site_fract_x
_atom_site_fract_y
_atom_site_fract_z
Si Si1 0.392019 0.333448 0.355490
Si Si2 0.106688 0.161102 0.467994
Si Si3 0.000000 0.000000 0.167244
Si Si4 0.750504 0.331862 0.536599
Si Si5 0.244375 0.667145 0.266128
Si Si6 0.107036 0.158357 0.335546
Si Si7 0.191636 0.154560 0.161733
Si Si8 0.609102 0.666270 0.967094
O O1 0.500000 0.316085 0.346850
O O2 0.374951 0.500000 0.367766
O O3 0.335261 0.295326 0.300820
O O4 0.365060 0.239660 0.408572
O O5 0.168365 0.274419 0.498032
O O6 0.117232 0.169428 0.401628
O O7 0.000000 0.181831 0.480423
O O8 0.131284 0.000000 0.484395
O O9 0.917070 0.121411 0.166086
O O10 0.738418 0.500000 0.530228
O O11 0.780354 0.303045 0.599701
O O12 0.662348 0.247440 0.515429
O O13 0.241880 0.500000 0.260167
O O14 0.163212 0.724134 0.304647
O O15 0.229145 0.740196 0.207405
O O16 0.000000 0.167645 0.322557
O O17 0.137115 0.000000 0.318106
O O18 0.234630 0.000000 0.172223
O O19 0.500000 0.680291 0.973147
O O20 0.631793 0.500000 0.966111
#
# Coordination Sequence:
#
# PCOD9358983 Si02
#       8
#     8   8   2   8   8   8   8   8
#     4   9  19  37  59  83 115 150 182 222 279 341
#     4   9  19  34  52  78 109 143 180 222 276 338
#     4   8  20  44  62  72 102 152 206 228 268 338
#     4  11  22  35  57  81 108 144 185 234 281 331
#     4  11  22  34  53  82 110 136 182 235 280 324
#     4   9  19  34  51  71 103 144 177 210 267 336
#     4   9  22  39  59  75 104 146 193 226 272 330
#     4  10  21  37  59  87 116 148 186 228 278 339
#
# _framework density 17.283663000000001
#
# number of rings (size 3 to 8) (size 9 to 14) (size 15 to 20)
#    0.414    1.931    0.000    2.897    1.931    6.345 
#    0.000    2.069    0.000    2.483    0.000    0.000 
#    0.000    0.000    0.000    0.000    0.000    0.000 
#
# Total GULP energy -161440.978930 kJ/mol
# GULP energy per Si atom -5566.930308 kJ/mol
# Density = 1.724432 g / cm^3
# Si number density = 17.283663 Si / 1000 Ang^3
#
#
#
# Elastic Constant Matrix: (Units=GPa)
#
#
# Indices 1 2 3 4 5 6 
#
# 1 62.0400 41.6990 42.3179 0.0000 0.0000 0.0000
# 2 41.6990 71.0471 49.1516 0.0000 0.0000 0.0000
# 3 42.3179 49.1516 64.6659 0.0000 0.0000 0.0000
# 4 0.0000 0.0000 0.0000 23.2703 0.0000 0.0000
# 5 0.0000 0.0000 0.0000 0.0000 253.3953 0.0000
# 6 0.0000 0.0000 0.0000 0.0000 0.0000 30.8128
#
#
#
# Elastic Compliance Matrix: (Units=1/GPa)
#
#
# Indices 1 2 3 4 5 6 
#
# 1 0.031597 -0.008942 -0.013880 0.000000 0.000000 0.000000
# 2 -0.008942 0.032215 -0.018634 0.000000 0.000000 0.000000
# 3 -0.013880 -0.018634 0.038711 0.000000 0.000000 0.000000
# 4 0.000000 0.000000 0.000000 0.042973 0.000000 0.000000
# 5 0.000000 0.000000 0.000000 0.000000 0.003946 0.000000
# 6 0.000000 0.000000 0.000000 0.000000 0.000000 0.032454
#
#
# Mechanical properties :
#
#
# Convention : Reuss Voigt Hill
#
# Bulk Modulus (GPa) = 50.99625 51.56555 51.28090
# Shear Modulus (GPa) = 18.42656 65.80131 42.11393
#
# Velocity S-wave (km/s) = 3.26870 6.17690 4.94158
# Velocity P-wave (km/s) = 6.61932 8.98731 7.89263
#
# Compressibility (1/GPa) = 0.01960929
#
# Stress axis : x y z
#
# Youngs Moduli (GPa) = 31.64868 31.04137 25.83222
#
# Poissons Ratio (x) = 0.27758 0.35856
# Poissons Ratio (y) = 0.28301 0.48137
# Poissons Ratio (z) = 0.43930 0.57844
#
# Static dielectric constant tensor:
#      x y z
#    x 1.587300 0.000000 0.000000 
#    y 0.000000 1.582670 0.000000 
#    z 0.000000 0.000000 1.592890 
# 
# From -- ./inp_files/22857.got.cif
#   From: 2010.05.17/outbox.cif.g08.bks.cpg/sg38_12_cif.got.tgz:22857.got - 2010.06.03 18:07:57.
