data_PCOD9358774
_publ_section_title
;
Structure prediction by ZEFSAII (Michael W. Deem and Ramdas Pophale) SiO2 
 PCOD9358774
Probable space group: A M M 2
;
_chemical_formula_sum "Si O2"
_cell_formula_units_Z 56
_cell_length_a 7.555768
_cell_length_b 22.361795
_cell_length_c 14.588585
_cell_angle_alpha 90.000000
_cell_angle_beta 90.000000
_cell_angle_gamma 90.000000
_cell_volume 2464.895128
_symmetry_space_group_name_H-M "A M M 2"
_symmetry_group_IT_number 38
_symmetry_cell_setting 'orthorhombic'
loop_
_space_group_symop_operation_xyz
x,y,z
-x,-y,z
-x,y,z
x,-y,z
x,1/2+y,1/2+z
-x,1/2-y,1/2+z
-x,1/2+y,1/2+z
x,1/2-y,1/2+z
loop_
_atom_site_type_symbol
_atom_site_label
_atom_site_fract_x
_atom_site_fract_y
_atom_site_fract_z
Si Si1 0.284540 0.434539 0.713030
Si Si2 0.698691 0.213721 0.681734
Si Si3 0.209607 0.500000 0.024410
Si Si4 0.794062 0.621857 0.324359
Si Si5 0.283254 0.183354 0.310485
Si Si6 0.287728 0.859326 0.503465
Si Si7 0.713280 0.432763 0.504058
Si Si8 0.784195 0.000000 0.732560
O O1 0.500000 0.435328 0.713041
O O2 0.224011 0.500000 0.742188
O O3 0.229205 0.382129 0.777742
O O4 0.230422 0.423381 0.608315
O O5 0.500000 0.231115 0.651156
O O6 0.690777 0.171931 0.771184
O O7 0.782656 0.271899 0.730529
O O8 0.775298 0.172425 0.598937
O O9 0.252944 0.431393 0.990714
O O10 0.279736 0.500000 0.128804
O O11 0.000000 0.500000 0.025577
O O12 0.776568 0.616285 0.432840
O O13 0.727637 0.558984 0.284823
O O14 0.000000 0.629494 0.300592
O O15 0.500000 0.188703 0.310022
O O16 0.228549 0.181997 0.417303
O O17 0.500000 0.856930 0.506274
O O18 0.500000 0.433025 0.502149
O O19 0.774476 0.500000 0.477578
O O20 0.000000 0.000000 0.731976
#
# Coordination Sequence:
#
# PCOD9358774 Si02
#       8
#     8   8   4   8   8   8   8   4
#     4   8  15  29  51  80 110 140 177 223 279 336
#     4  10  21  36  53  80 114 146 185 236 283 329
#     4  11  21  37  59  84 117 154 190 239 299 347
#     4  11  20  33  52  76 107 148 188 226 278 339
#     4   9  19  35  56  82 114 149 183 229 287 341
#     4  10  21  36  58  89 117 148 196 243 285 339
#     4   9  17  29  48  78 109 137 175 222 269 321
#     4   9  18  31  49  74 103 140 182 221 277 341
#
# _framework density 22.719017999999998
#
# number of rings (size 3 to 8) (size 9 to 14) (size 15 to 20)
#    0.000    2.429    2.143    1.500    1.000    1.143 
#    0.000    5.000    0.000    3.429    0.000    0.000 
#    0.000    0.000    0.000    0.000    0.000    0.000 
#
# Total GULP energy -156007.369374 kJ/mol
# GULP energy per Si atom -5571.691763 kJ/mol
# Density = 2.266731 g / cm^3
# Si number density = 22.719018 Si / 1000 Ang^3
#
#
#
# Elastic Constant Matrix: (Units=GPa)
#
#
# Indices 1 2 3 4 5 6 
#
# 1 62.6770 3.2272 4.7913 0.0000 0.0000 0.0000
# 2 3.2272 103.4363 58.3778 0.0000 0.0000 0.0000
# 3 4.7913 58.3778 91.0426 0.0000 0.0000 0.0000
# 4 0.0000 0.0000 0.0000 22.9063 0.0000 0.0000
# 5 0.0000 0.0000 0.0000 0.0000 -19.5176 0.0000
# 6 0.0000 0.0000 0.0000 0.0000 0.0000 -16.2885
#
#
#
# Elastic Compliance Matrix: (Units=1/GPa)
#
#
# Indices 1 2 3 4 5 6 
#
# 1 0.016019 -0.000038 -0.000819 0.000000 0.000000 0.000000
# 2 -0.000038 0.015151 -0.009713 0.000000 0.000000 0.000000
# 3 -0.000819 -0.009713 0.017255 0.000000 0.000000 0.000000
# 4 0.000000 0.000000 0.000000 0.043656 0.000000 0.000000
# 5 0.000000 0.000000 0.000000 0.000000 -0.051236 0.000000
# 6 0.000000 0.000000 0.000000 0.000000 0.000000 -0.061393
#
#
# Mechanical properties :
#
#
# Convention : Reuss Voigt Hill
#
# Bulk Modulus (GPa) = 36.64851 43.32760 39.98806
# Shear Modulus (GPa) = 516.16281 10.13734 263.15008
#
# Velocity S-wave (km/s) = 15.08931 2.11465 10.77402
# Velocity P-wave (km/s) = 17.88154 5.00747 13.13058
#
# Compressibility (1/GPa) = 0.02728624
#
# Stress axis : x y z
#
# Youngs Moduli (GPa) = 62.42451 66.00327 57.95419
#
# Poissons Ratio (x) = 0.00248 0.04746
# Poissons Ratio (y) = 0.00235 0.56290
# Poissons Ratio (z) = 0.05112 0.64108
#
# Static dielectric constant tensor:
#      x y z
#    x 1.876400 0.000000 0.000000 
#    y 0.000000 1.904750 0.000000 
#    z 0.000000 0.000000 1.850480 
# 
# From -- ./inp_files/12504.got.cif
#   From: 2010.05.17/outbox.cif.g08.bks.cpg/sg38_7_cif.got.tgz:12504.got - 2010.06.03 18:07:57.
