data_PCOD9358337
_publ_section_title
;
Structure prediction by ZEFSAII (Michael W. Deem and Ramdas Pophale) SiO2 
 PCOD9358337
Probable space group: A M M 2
;
_chemical_formula_sum "Si O2"
_cell_formula_units_Z 64
_cell_length_a 8.830522
_cell_length_b 20.858024
_cell_length_c 19.954217
_cell_angle_alpha 90.000000
_cell_angle_beta 90.000000
_cell_angle_gamma 90.000000
_cell_volume 3675.312152
_symmetry_space_group_name_H-M "A M M 2"
_symmetry_group_IT_number 38
_symmetry_cell_setting 'orthorhombic'
loop_
_space_group_symop_operation_xyz
x,y,z
-x,-y,z
-x,y,z
x,-y,z
x,1/2+y,1/2+z
-x,1/2-y,1/2+z
-x,1/2+y,1/2+z
x,1/2-y,1/2+z
loop_
_atom_site_type_symbol
_atom_site_label
_atom_site_fract_x
_atom_site_fract_y
_atom_site_fract_z
Si Si1 0.822891 0.612969 0.346260
Si Si2 0.819006 0.626527 0.197858
Si Si3 0.320114 0.306143 0.981845
Si Si4 0.178132 0.232115 0.343512
Si Si5 0.819101 0.427578 0.053573
Si Si6 0.321065 0.073260 0.982544
Si Si7 0.180394 0.188247 0.065550
Si Si8 0.319496 0.267350 0.700628
O O1 0.779452 0.596211 0.269847
O O2 0.808530 0.690415 0.350308
O O3 0.725547 0.582775 0.405063
O O4 0.000000 0.596606 0.356547
O O5 0.792579 0.583748 0.132852
O O6 0.731984 0.693493 0.189505
O O7 0.000000 0.641273 0.201409
O O8 0.500000 0.298653 0.985547
O O9 0.262719 0.299145 0.905939
O O10 0.268475 0.373359 0.013147
O O11 0.242509 0.249226 0.024216
O O12 0.250249 0.213873 0.272399
O O13 0.000000 0.216899 0.344927
O O14 0.777452 0.500000 0.035150
O O15 0.000000 0.419293 0.042903
O O16 0.500000 0.085265 0.989913
O O17 0.288611 0.000000 0.002146
O O18 0.230803 0.124772 0.026253
O O19 0.251559 0.192463 0.139362
O O20 0.000000 0.192508 0.069268
O O21 0.500000 0.271378 0.701508
#
# Coordination Sequence:
#
# PCOD9358337 Si02
#       8
#     8   8   8   8   8   8   8   8
#     4   9  18  32  53  80 111 150 192 231 274 332
#     4   9  18  33  53  78 113 152 193 234 276 332
#     4  12  23  36  58  87 115 148 191 242 292 337
#     4  10  20  36  58  85 115 149 187 233 283 340
#     4  10  21  37  57  81 113 156 199 237 282 340
#     4  11  24  39  55  80 115 152 191 238 290 342
#     4  12  23  38  60  84 112 150 195 239 282 341
#     4  11  21  34  56  87 118 147 183 235 288 338
#
# _framework density 17.413487
#
# number of rings (size 3 to 8) (size 9 to 14) (size 15 to 20)
#    0.000    1.500    2.500    4.875    0.000    3.750 
#    0.000    1.250    0.000    0.750    0.000    0.000 
#    0.000    0.000    0.000    0.000    0.000    0.000 
#
# Total GULP energy -178804.256785 kJ/mol
# GULP energy per Si atom -5587.633025 kJ/mol
# Density = 1.737385 g / cm^3
# Si number density = 17.413487 Si / 1000 Ang^3
#
#
#
# Elastic Constant Matrix: (Units=GPa)
#
#
# Indices 1 2 3 4 5 6 
#
# 1 101.4908 45.1775 45.7316 0.0000 0.0000 0.0000
# 2 45.1775 65.3280 38.4737 0.0000 0.0000 0.0000
# 3 45.7316 38.4737 104.6672 0.0000 0.0000 0.0000
# 4 0.0000 0.0000 0.0000 17.4614 0.0000 0.0000
# 5 0.0000 0.0000 0.0000 0.0000 -79.4800 0.0000
# 6 0.0000 0.0000 0.0000 0.0000 0.0000 22.4181
#
#
#
# Elastic Compliance Matrix: (Units=1/GPa)
#
#
# Indices 1 2 3 4 5 6 
#
# 1 0.015200 -0.008424 -0.003545 0.000000 0.000000 0.000000
# 2 -0.008424 0.024205 -0.005217 0.000000 0.000000 0.000000
# 3 -0.003545 -0.005217 0.013020 0.000000 0.000000 0.000000
# 4 0.000000 0.000000 0.000000 0.057269 0.000000 0.000000
# 5 0.000000 0.000000 0.000000 0.000000 -0.012582 0.000000
# 6 0.000000 0.000000 0.000000 0.000000 0.000000 0.044607
#
#
# Mechanical properties :
#
#
# Convention : Reuss Voigt Hill
#
# Bulk Modulus (GPa) = 55.38695 58.91687 57.15191
# Shear Modulus (GPa) = 27.45592 1.55344 14.50468
#
# Velocity S-wave (km/s) = 3.97508 0.94553 2.88923
# Velocity P-wave (km/s) = 7.27629 5.92449 6.63490
#
# Compressibility (1/GPa) = 0.01805479
#
# Stress axis : x y z
#
# Youngs Moduli (GPa) = 65.78820 41.31316 76.80198
#
# Poissons Ratio (x) = 0.34803 0.27225
# Poissons Ratio (y) = 0.55421 0.40066
# Poissons Ratio (z) = 0.23321 0.21552
#
# Static dielectric constant tensor:
#      x y z
#    x 1.590660 0.000000 0.000000 
#    y 0.000000 1.573950 0.000000 
#    z 0.000000 0.000000 1.595010 
# 
# From -- ./inp_files/17212.got.cif
#   From: 2010.05.17/outbox.cif.g08.bks.cpg/sg38_9_cif.got.tgz:17212.got - 2010.06.03 18:07:57.
