data_PCOD9358095
_publ_section_title
;
Structure prediction by ZEFSAII (Michael W. Deem and Ramdas Pophale) SiO2 
 PCOD9358095
Probable space group: A M M 2
;
_chemical_formula_sum "Si O2"
_cell_formula_units_Z 56
_cell_length_a 7.411377
_cell_length_b 21.817980
_cell_length_c 14.902944
_cell_angle_alpha 90.000000
_cell_angle_beta 90.000000
_cell_angle_gamma 90.000000
_cell_volume 2409.825048
_symmetry_space_group_name_H-M "A M M 2"
_symmetry_group_IT_number 38
_symmetry_cell_setting 'orthorhombic'
loop_
_space_group_symop_operation_xyz
x,y,z
-x,-y,z
-x,y,z
x,-y,z
x,1/2+y,1/2+z
-x,1/2-y,1/2+z
-x,1/2+y,1/2+z
x,1/2-y,1/2+z
loop_
_atom_site_type_symbol
_atom_site_label
_atom_site_fract_x
_atom_site_fract_y
_atom_site_fract_z
Si Si1 0.701169 0.284612 0.538550
Si Si2 0.720777 0.358545 0.713352
Si Si3 0.204419 0.373425 0.387732
Si Si4 0.783929 0.070214 0.713530
Si Si5 0.714441 0.567865 0.011507
Si Si6 0.715774 0.000000 0.189220
Si Si7 0.279227 0.181605 0.405571
Si Si8 0.284135 0.500000 0.476126
O O1 0.500000 0.264952 0.567703
O O2 0.780543 0.322127 0.623180
O O3 0.689913 0.333106 0.457753
O O4 0.785725 0.228074 0.483224
O O5 0.500000 0.361534 0.709189
O O6 0.778471 0.430983 0.719197
O O7 0.771872 0.318433 0.800896
O O8 0.283272 0.383446 0.288932
O O9 0.203123 0.440831 0.429781
O O10 0.000000 0.349147 0.382152
O O11 0.744647 0.089853 0.612812
O O12 0.000000 0.067656 0.725232
O O13 0.715847 0.000000 0.724557
O O14 0.500000 0.563777 0.998687
O O15 0.791784 0.500000 0.004175
O O16 0.780313 0.615264 0.939566
O O17 0.500000 0.000000 0.207617
O O18 0.746915 0.000000 0.082192
O O19 0.500000 0.186576 0.406589
O O20 0.500000 0.500000 0.462279
#
# Coordination Sequence:
#
# PCOD9358095 Si02
#       8
#     8   8   8   8   8   4   8   4
#     4  10  20  35  53  77 108 143 186 228 271 333
#     4   9  17  30  50  78 109 143 182 225 277 333
#     4  11  21  34  52  78 111 148 184 225 275 327
#     4   9  18  33  50  71 103 143 177 207 261 330
#     4   9  18  32  51  79 106 131 176 234 280 319
#     4   9  16  27  49  80 109 138 176 221 267 323
#     4   9  19  33  52  78 109 143 177 227 287 333
#     4  11  19  31  53  84 111 140 182 229 279 329
#
# _framework density 23.238204
#
# number of rings (size 3 to 8) (size 9 to 14) (size 15 to 20)
#    0.000    2.429    2.143    0.643    1.000    2.286 
#    0.000    3.571    0.000    1.714    0.000    0.000 
#    0.000    0.000    0.000    0.000    0.000    0.000 
#
# Total GULP energy -156133.878639 kJ/mol
# GULP energy per Si atom -5576.209951 kJ/mol
# Density = 2.318531 g / cm^3
# Si number density = 23.238204 Si / 1000 Ang^3
#
#
#
# Elastic Constant Matrix: (Units=GPa)
#
#
# Indices 1 2 3 4 5 6 
#
# 1 74.4975 2.9581 2.7052 0.0000 0.0000 0.0000
# 2 2.9581 77.7171 70.1113 0.0000 0.0000 0.0000
# 3 2.7052 70.1113 133.3517 0.0000 0.0000 0.0000
# 4 0.0000 0.0000 0.0000 26.8380 0.0000 0.0000
# 5 0.0000 0.0000 0.0000 0.0000 15.3441 0.0000
# 6 0.0000 0.0000 0.0000 0.0000 0.0000 -7.0052
#
#
#
# Elastic Compliance Matrix: (Units=1/GPa)
#
#
# Indices 1 2 3 4 5 6 
#
# 1 0.013444 -0.000505 -0.000007 0.000000 0.000000 0.000000
# 2 -0.000505 0.024496 -0.012869 0.000000 0.000000 0.000000
# 3 -0.000007 -0.012869 0.014265 0.000000 0.000000 0.000000
# 4 0.000000 0.000000 0.000000 0.037261 0.000000 0.000000
# 5 0.000000 0.000000 0.000000 0.000000 0.065171 0.000000
# 6 0.000000 0.000000 0.000000 0.000000 0.000000 -0.142751
#
#
# Mechanical properties :
#
#
# Convention : Reuss Voigt Hill
#
# Bulk Modulus (GPa) = 39.30484 48.56839 43.93661
# Shear Modulus (GPa) = 106.09311 21.02150 63.55731
#
# Velocity S-wave (km/s) = 6.76415 3.01094 5.23543
# Velocity P-wave (km/s) = 8.82925 5.74746 7.44946
#
# Compressibility (1/GPa) = 0.02544216
#
# Stress axis : x y z
#
# Youngs Moduli (GPa) = 74.38490 40.82356 70.10188
#
# Poissons Ratio (x) = 0.02063 0.00049
# Poissons Ratio (y) = 0.03759 0.90212
# Poissons Ratio (z) = 0.00052 0.52534
#
# Static dielectric constant tensor:
#      x y z
#    x 1.901090 0.000000 0.000000 
#    y 0.000000 1.960380 0.000000 
#    z 0.000000 0.000000 1.840500 
# 
# From -- ./inp_files/12513.got.cif
#   From: 2010.05.17/outbox.cif.g08.bks.cpg/sg38_7_cif.got.tgz:12513.got - 2010.06.03 18:07:57.
