data_PCOD9358607
_publ_section_title
;
Structure prediction by ZEFSAII (Michael W. Deem and Ramdas Pophale) SiO2 
 PCOD9358607
Probable space group: A M M 2
;
_chemical_formula_sum "Si O2"
_cell_formula_units_Z 56
_cell_length_a 22.486478
_cell_length_b 8.530480
_cell_length_c 15.110203
_cell_angle_alpha 90.000000
_cell_angle_beta 90.000000
_cell_angle_gamma 90.000000
_cell_volume 2898.445952
_symmetry_space_group_name_H-M "A M M 2"
_symmetry_group_IT_number 38
_symmetry_cell_setting 'orthorhombic'
loop_
_space_group_symop_operation_xyz
x,y,z
-x,-y,z
-x,y,z
x,-y,z
x,1/2+y,1/2+z
-x,1/2-y,1/2+z
-x,1/2+y,1/2+z
x,1/2-y,1/2+z
loop_
_atom_site_type_symbol
_atom_site_label
_atom_site_fract_x
_atom_site_fract_y
_atom_site_fract_z
Si Si1 0.627771 0.685839 0.835490
Si Si2 0.628261 0.688311 0.534120
Si Si3 0.933552 0.190587 0.350181
Si Si4 0.500000 0.321068 0.550880
Si Si5 0.288658 0.815295 0.684002
Si Si6 0.931827 0.188963 0.555698
Si Si7 0.500000 0.679856 0.335185
Si Si8 0.156499 0.313073 0.700912
O O1 0.633886 0.500000 0.828665
O O2 0.674613 0.766938 0.770987
O O3 0.560732 0.735454 0.808931
O O4 0.636883 0.739588 0.936968
O O5 0.623226 0.500000 0.524401
O O6 0.564449 0.748598 0.572743
O O7 0.680264 0.730420 0.601083
O O8 0.923859 0.231557 0.452582
O O9 0.881812 0.244349 0.285292
O O10 0.000000 0.244329 0.323631
O O11 0.934394 0.000000 0.346126
O O12 0.500000 0.500000 0.584588
O O13 0.500000 0.323474 0.443074
O O14 0.220483 0.765330 0.693987
O O15 0.292927 0.000000 0.670095
O O16 0.884245 0.272240 0.616937
O O17 0.000000 0.229109 0.580495
O O18 0.925717 0.000000 0.563127
O O19 0.500000 0.500000 0.304816
O O20 0.164513 0.500000 0.707801
#
# Coordination Sequence:
#
# PCOD9358607 Si02
#       8
#     8   8   8   4   8   8   4   8
#     4  11  22  39  62  89 119 154 194 241 297 355
#     4  10  20  39  63  88 117 150 190 241 298 355
#     4   8  16  33  58  85 112 144 182 225 278 339
#     4   7  14  30  57  86 112 140 176 229 291 346
#     4  12  26  42  57  80 116 160 205 246 292 351
#     4   9  18  35  59  86 115 147 183 226 282 348
#     4   9  17  34  59  88 118 152 192 239 293 346
#     4  11  22  37  57  82 113 149 192 241 289 342
#
# _framework density 19.320698
#
# number of rings (size 3 to 8) (size 9 to 14) (size 15 to 20)
#    0.000    2.143    0.000    5.786    0.000    2.571 
#    0.000    8.929    0.000    1.714    0.000    0.000 
#    0.000    0.000    0.000    0.000    0.000    0.000 
#
# Total GULP energy -156370.934022 kJ/mol
# GULP energy per Si atom -5584.676215 kJ/mol
# Density = 1.927672 g / cm^3
# Si number density = 19.320698 Si / 1000 Ang^3
#
#
#
# Elastic Constant Matrix: (Units=GPa)
#
#
# Indices 1 2 3 4 5 6 
#
# 1 124.7969 0.2940 41.9193 0.0000 0.0000 0.0000
# 2 0.2940 33.9036 -11.6152 0.0000 0.0000 0.0000
# 3 41.9193 -11.6152 58.6455 0.0000 0.0000 0.0000
# 4 0.0000 0.0000 0.0000 26.3578 0.0000 0.0000
# 5 0.0000 0.0000 0.0000 0.0000 363.4170 0.0000
# 6 0.0000 0.0000 0.0000 0.0000 0.0000 13.3214
#
#
#
# Elastic Compliance Matrix: (Units=1/GPa)
#
#
# Indices 1 2 3 4 5 6 
#
# 1 0.010811 -0.002941 -0.008310 0.000000 0.000000 0.000000
# 2 -0.002941 0.032442 0.008528 0.000000 0.000000 0.000000
# 3 -0.008310 0.008528 0.024681 0.000000 0.000000 0.000000
# 4 0.000000 0.000000 0.000000 0.037939 0.000000 0.000000
# 5 0.000000 0.000000 0.000000 0.000000 0.002752 0.000000
# 6 0.000000 0.000000 0.000000 0.000000 0.000000 0.075067
#
#
# Mechanical properties :
#
#
# Convention : Reuss Voigt Hill
#
# Bulk Modulus (GPa) = 16.00325 30.94913 23.47619
# Shear Modulus (GPa) = 23.81302 93.06911 58.44106
#
# Velocity S-wave (km/s) = 3.51453 6.94804 5.50578
# Velocity P-wave (km/s) = 4.97696 8.96774 7.25226
#
# Compressibility (1/GPa) = 0.06248730
#
# Stress axis : x y z
#
# Youngs Moduli (GPa) = 92.49498 30.82385 40.51745
#
# Poissons Ratio (x) = 0.09065 0.33671
# Poissons Ratio (y) = 0.27201 -0.34552
# Poissons Ratio (z) = 0.76867 -0.26285
#
# Static dielectric constant tensor:
#      x y z
#    x 1.659390 0.000000 0.000000 
#    y 0.000000 1.653150 0.000000 
#    z 0.000000 0.000000 1.668380 
# 
# From -- ./inp_files/15583.got.cif
#   From: 2010.05.17/outbox.cif.g08.bks.cpg/sg38_8_cif.got.tgz:15583.got - 2010.06.03 18:07:57.
