data_PCOD9358053
_publ_section_title
;
Structure prediction by ZEFSAII (Michael W. Deem and Ramdas Pophale) SiO2 
 PCOD9358053
Probable space group: A M M 2
;
_chemical_formula_sum "Si O2"
_cell_formula_units_Z 56
_cell_length_a 16.956938
_cell_length_b 8.865921
_cell_length_c 20.516341
_cell_angle_alpha 90.000000
_cell_angle_beta 90.000000
_cell_angle_gamma 90.000000
_cell_volume 3084.403578
_symmetry_space_group_name_H-M "A M M 2"
_symmetry_group_IT_number 38
_symmetry_cell_setting 'orthorhombic'
loop_
_space_group_symop_operation_xyz
x,y,z
-x,-y,z
-x,y,z
x,-y,z
x,1/2+y,1/2+z
-x,1/2-y,1/2+z
-x,1/2+y,1/2+z
x,1/2-y,1/2+z
loop_
_atom_site_type_symbol
_atom_site_label
_atom_site_fract_x
_atom_site_fract_y
_atom_site_fract_z
Si Si1 0.409508 0.180526 0.275660
Si Si2 0.591922 0.822583 0.631972
Si Si3 0.253434 0.320912 0.321417
Si Si4 0.169505 0.821585 0.197797
Si Si5 0.734202 0.322280 0.563406
Si Si6 0.169364 0.319358 0.945769
Si Si7 0.000000 0.181850 0.146221
Si Si8 0.000000 0.318250 0.001352
O O1 0.500000 0.216026 0.295091
O O2 0.397961 0.245580 0.202708
O O3 0.341370 0.251008 0.319809
O O4 0.400838 0.000000 0.273589
O O5 0.500000 0.807996 0.614358
O O6 0.648833 0.743124 0.580767
O O7 0.611098 0.000000 0.637440
O O8 0.258543 0.500000 0.325382
O O9 0.211510 0.270538 0.254394
O O10 0.202641 0.255582 0.380710
O O11 0.214936 0.803342 0.129489
O O12 0.079230 0.776205 0.184655
O O13 0.172160 0.000000 0.214825
O O14 0.730895 0.500000 0.548302
O O15 0.776330 0.233976 0.505562
O O16 0.171785 0.500000 0.939313
O O17 0.079674 0.274001 0.963604
O O18 0.000000 0.000000 0.139202
O O19 0.000000 0.250545 0.073939
O O20 0.000000 0.500000 0.007188
#
# Coordination Sequence:
#
# PCOD9358053 Si02
#       8
#     8   8   8   8   8   8   4   4
#     4  10  20  36  60  88 118 154 196 244 299 356
#     4  10  20  34  56  88 123 158 199 247 296 347
#     4  12  25  40  60  88 123 160 201 247 297 356
#     4  10  21  37  60  88 119 155 195 244 298 350
#     4  11  21  36  61  90 120 155 198 244 295 353
#     4  11  24  42  63  86 121 161 200 246 300 360
#     4  10  20  37  62  89 119 155 197 249 298 349
#     4  10  22  39  62  89 115 153 199 245 296 357
#
# _framework density 18.155861000000002
#
# number of rings (size 3 to 8) (size 9 to 14) (size 15 to 20)
#    0.000    1.429    2.857    3.000    0.000    4.000 
#    0.000    3.571    0.000    4.286    0.000    0.000 
#    0.000    0.000    0.000    0.000    0.000    0.000 
#
# Total GULP energy -156473.796112 kJ/mol
# GULP energy per Si atom -5588.349861 kJ/mol
# Density = 1.811454 g / cm^3
# Si number density = 18.155861 Si / 1000 Ang^3
#
#
#
# Elastic Constant Matrix: (Units=GPa)
#
#
# Indices 1 2 3 4 5 6 
#
# 1 125.3681 50.8582 43.1999 0.0000 0.0000 0.0000
# 2 50.8582 80.5287 37.6537 0.0000 0.0000 0.0000
# 3 43.1999 37.6537 63.2947 0.0000 0.0000 0.0000
# 4 0.0000 0.0000 0.0000 33.9897 0.0000 0.0000
# 5 0.0000 0.0000 0.0000 0.0000 18.3438 0.0000
# 6 0.0000 0.0000 0.0000 0.0000 0.0000 24.3477
#
#
#
# Elastic Compliance Matrix: (Units=1/GPa)
#
#
# Indices 1 2 3 4 5 6 
#
# 1 0.011765 -0.005092 -0.005001 0.000000 0.000000 0.000000
# 2 -0.005092 0.019407 -0.008070 0.000000 0.000000 0.000000
# 3 -0.005001 -0.008070 0.024013 0.000000 0.000000 0.000000
# 4 0.000000 0.000000 0.000000 0.029421 0.000000 0.000000
# 5 0.000000 0.000000 0.000000 0.000000 0.054514 0.000000
# 6 0.000000 0.000000 0.000000 0.000000 0.000000 0.041072
#
#
# Mechanical properties :
#
#
# Convention : Reuss Voigt Hill
#
# Bulk Modulus (GPa) = 53.02208 59.17944 56.10076
# Shear Modulus (GPa) = 22.44120 24.50154 23.47137
#
# Velocity S-wave (km/s) = 3.51954 3.67756 3.59941
# Velocity P-wave (km/s) = 6.76634 7.12029 6.94557
#
# Compressibility (1/GPa) = 0.01886007
#
# Stress axis : x y z
#
# Youngs Moduli (GPa) = 84.99428 51.52732 41.64431
#
# Poissons Ratio (x) = 0.26239 0.20826
# Poissons Ratio (y) = 0.43281 0.33606
# Poissons Ratio (z) = 0.42504 0.41581
#
# Static dielectric constant tensor:
#      x y z
#    x 1.637410 0.000000 0.000000 
#    y 0.000000 1.606910 0.000000 
#    z 0.000000 0.000000 1.579830 
# 
# From -- ./inp_files/21120.got.cif
#   From: 2010.05.17/outbox.cif.g08.bks.cpg/sg38_11_cif.got.tgz:21120.got - 2010.06.03 18:07:57.
