data_PCOD9358008
_publ_section_title
;
Structure prediction by ZEFSAII (Michael W. Deem and Ramdas Pophale) SiO2 
 PCOD9358008
Probable space group: A M M 2
;
_chemical_formula_sum "Si O2"
_cell_formula_units_Z 40
_cell_length_a 9.429279
_cell_length_b 8.429689
_cell_length_c 26.385617
_cell_angle_alpha 90.000000
_cell_angle_beta 90.000000
_cell_angle_gamma 90.000000
_cell_volume 2097.284236
_symmetry_space_group_name_H-M "A M M 2"
_symmetry_group_IT_number 38
_symmetry_cell_setting 'orthorhombic'
loop_
_space_group_symop_operation_xyz
x,y,z
-x,-y,z
-x,y,z
x,-y,z
x,1/2+y,1/2+z
-x,1/2-y,1/2+z
-x,1/2+y,1/2+z
x,1/2-y,1/2+z
loop_
_atom_site_type_symbol
_atom_site_label
_atom_site_fract_x
_atom_site_fract_y
_atom_site_fract_z
Si Si1 0.337599 0.691978 0.695610
Si Si2 0.837168 0.310212 0.099245
Si Si3 0.165678 0.808472 0.407502
Si Si4 0.663044 0.310522 0.503018
Si Si5 0.162958 0.193293 0.292743
O O1 0.500000 0.746429 0.691077
O O2 0.338546 0.500000 0.696255
O O3 0.244894 0.745715 0.648103
O O4 0.265654 0.747030 0.748048
O O5 0.839132 0.500000 0.101672
O O6 0.754834 0.259480 0.048766
O O7 0.000000 0.252630 0.098258
O O8 0.265295 0.736384 0.450041
O O9 0.202029 0.758387 0.349950
O O10 0.000000 0.767279 0.416488
O O11 0.175474 0.000000 0.409984
O O12 0.500000 0.254500 0.505518
O O13 0.663106 0.500000 0.508015
O O14 0.000000 0.241862 0.282895
O O15 0.163921 0.000000 0.292746
#
# Coordination Sequence:
#
# PCOD9358008 Si02
#       5
#     8   8   8   8   8
#     4  10  20  34  55  84 114 143 178 219 264 317
#     4  11  24  40  58  80 105 137 180 225 269 321
#     4   9  18  34  57  84 111 141 181 224 264 312
#     4  11  24  39  55  79 110 142 178 220 268 323
#     4   8  15  30  53  80 110 144 181 220 261 308
#
# _framework density 19.072282999999999
#
# number of rings (size 3 to 8) (size 9 to 14) (size 15 to 20)
#    0.000    2.200    0.000    4.200    0.000   10.400 
#    0.000    3.000    0.000    1.200    0.000    0.000 
#    0.000    0.000    0.000    0.000    0.000    0.000 
#
# Total GULP energy -111693.183108 kJ/mol
# GULP energy per Si atom -5584.659155 kJ/mol
# Density = 1.902887 g / cm^3
# Si number density = 19.072283 Si / 1000 Ang^3
#
#
#
# Elastic Constant Matrix: (Units=GPa)
#
#
# Indices 1 2 3 4 5 6 
#
# 1 178.9672 26.7503 123.1044 0.0000 0.0000 0.0000
# 2 26.7503 13.8689 17.7092 0.0000 0.0000 0.0000
# 3 123.1044 17.7092 165.4313 0.0000 0.0000 0.0000
# 4 0.0000 0.0000 0.0000 29.7779 0.0000 0.0000
# 5 0.0000 0.0000 0.0000 0.0000 -97.2483 0.0000
# 6 0.0000 0.0000 0.0000 0.0000 0.0000 24.5553
#
#
#
# Elastic Compliance Matrix: (Units=1/GPa)
#
#
# Indices 1 2 3 4 5 6 
#
# 1 0.013894 -0.015749 -0.008653 0.000000 0.000000 0.000000
# 2 -0.015749 0.101372 0.000868 0.000000 0.000000 0.000000
# 3 -0.008653 0.000868 0.012391 0.000000 0.000000 0.000000
# 4 0.000000 0.000000 0.000000 0.033582 0.000000 0.000000
# 5 0.000000 0.000000 0.000000 0.000000 -0.010283 0.000000
# 6 0.000000 0.000000 0.000000 0.000000 0.000000 0.040724
#
#
# Mechanical properties :
#
#
# Convention : Reuss Voigt Hill
#
# Bulk Modulus (GPa) = 12.40876 77.04390 44.72633
# Shear Modulus (GPa) = 18.82452 4.13055 11.47754
#
# Velocity S-wave (km/s) = 3.14508 1.47324 2.45581
# Velocity P-wave (km/s) = 4.43948 6.58615 5.61633
#
# Compressibility (1/GPa) = 0.08058821
#
# Stress axis : x y z
#
# Youngs Moduli (GPa) = 71.97544 9.86466 80.70423
#
# Poissons Ratio (x) = 0.15536 0.69833
# Poissons Ratio (y) = 1.13354 -0.07003
# Poissons Ratio (z) = 0.62280 -0.00856
#
# Static dielectric constant tensor:
#      x y z
#    x 1.650850 0.000000 0.000000 
#    y 0.000000 1.664090 0.000000 
#    z 0.000000 0.000000 1.634540 
# 
# From -- ./inp_files/21666.got.cif
#   From: 2010.05.17/outbox.cif.g08.bks.cpg/sg38_11_cif.got.tgz:21666.got - 2010.06.03 18:07:57.
