data_PCOD9358460
_publ_section_title
;
Structure prediction by ZEFSAII (Michael W. Deem and Ramdas Pophale) SiO2 
 PCOD9358460
Probable space group: A M M 2
;
_chemical_formula_sum "Si O2"
_cell_formula_units_Z 64
_cell_length_a 18.158080
_cell_length_b 13.342196
_cell_length_c 14.064232
_cell_angle_alpha 90.000000
_cell_angle_beta 90.000000
_cell_angle_gamma 90.000000
_cell_volume 3407.322674
_symmetry_space_group_name_H-M "A M M 2"
_symmetry_group_IT_number 38
_symmetry_cell_setting 'orthorhombic'
loop_
_space_group_symop_operation_xyz
x,y,z
-x,-y,z
-x,y,z
x,-y,z
x,1/2+y,1/2+z
-x,1/2-y,1/2+z
-x,1/2+y,1/2+z
x,1/2-y,1/2+z
loop_
_atom_site_type_symbol
_atom_site_label
_atom_site_fract_x
_atom_site_fract_y
_atom_site_fract_z
Si Si1 0.770069 0.888033 0.655290
Si Si2 0.086992 0.721056 0.864037
Si Si3 0.914114 0.183186 0.576267
Si Si4 0.911166 0.111427 0.171321
Si Si5 0.211764 0.881526 0.872259
Si Si6 0.414362 0.619758 0.661897
Si Si7 0.411847 0.618672 0.881806
Si Si8 0.685379 0.759938 0.015938
O O1 0.857941 0.879766 0.638562
O O2 0.754834 0.869182 0.766062
O O3 0.734610 0.809211 0.584294
O O4 0.745032 0.000000 0.631524
O O5 0.111429 0.653650 0.774673
O O6 0.135223 0.820835 0.869292
O O7 0.000000 0.743264 0.853085
O O8 0.095803 0.664442 0.964404
O O9 0.895334 0.300309 0.597057
O O10 0.000000 0.168088 0.600831
O O11 0.000000 0.103914 0.173642
O O12 0.881562 0.000000 0.151707
O O13 0.263956 0.829102 0.949260
O O14 0.202297 0.000000 0.889767
O O15 0.500000 0.647765 0.648994
O O16 0.408852 0.500000 0.651373
O O17 0.394186 0.642747 0.771436
O O18 0.364746 0.673824 0.585072
O O19 0.500000 0.633027 0.894481
O O20 0.397013 0.500000 0.896915
O O21 0.364991 0.688329 0.950732
#
# Coordination Sequence:
#
# PCOD9358460 Si02
#       8
#     8   8   8   8   8   8   8   8
#     4  11  24  39  55  80 115 153 193 238 285 335
#     4  10  20  37  58  81 107 141 191 244 291 340
#     4  10  20  37  58  81 107 141 191 244 291 340
#     4   9  18  34  57  81 105 133 173 236 298 339
#     4  11  24  39  55  80 115 153 193 238 285 335
#     4   9  19  37  62  91 118 145 184 231 274 323
#     4   9  19  37  62  91 118 145 184 231 274 323
#     4  12  21  38  59  84 116 158 188 222 277 344
#
# _framework density 18.783076000000001
#
# number of rings (size 3 to 8) (size 9 to 14) (size 15 to 20)
#    0.000    1.875    2.500    2.625    0.000    1.500 
#    0.000    3.750    0.000    0.000    0.000   10.500 
#    0.000    0.000    0.000    0.000    0.000    0.000 
#
# Total GULP energy -178642.197363 kJ/mol
# GULP energy per Si atom -5582.568668 kJ/mol
# Density = 1.874032 g / cm^3
# Si number density = 18.783076 Si / 1000 Ang^3
#
#
#
# Elastic Constant Matrix: (Units=GPa)
#
#
# Indices 1 2 3 4 5 6 
#
# 1 52.8437 21.3281 27.3315 0.0000 0.0000 0.0000
# 2 21.3281 53.7948 17.7775 0.0000 0.0000 0.0000
# 3 27.3315 17.7775 78.6876 0.0000 0.0000 0.0000
# 4 0.0000 0.0000 0.0000 19.5386 0.0000 0.0000
# 5 0.0000 0.0000 0.0000 0.0000 24.0735 0.0000
# 6 0.0000 0.0000 0.0000 0.0000 0.0000 11.4170
#
#
#
# Elastic Compliance Matrix: (Units=1/GPa)
#
#
# Indices 1 2 3 4 5 6 
#
# 1 0.025815 -0.007858 -0.007191 0.000000 0.000000 0.000000
# 2 -0.007858 0.022481 -0.002350 0.000000 0.000000 0.000000
# 3 -0.007191 -0.002350 0.015737 0.000000 0.000000 0.000000
# 4 0.000000 0.000000 0.000000 0.051181 0.000000 0.000000
# 5 0.000000 0.000000 0.000000 0.000000 0.041539 0.000000
# 6 0.000000 0.000000 0.000000 0.000000 0.000000 0.087588
#
#
# Mechanical properties :
#
#
# Convention : Reuss Voigt Hill
#
# Bulk Modulus (GPa) = 34.20561 35.35561 34.78061
# Shear Modulus (GPa) = 17.30792 18.93175 18.11984
#
# Velocity S-wave (km/s) = 3.03886 3.17821 3.10931
# Velocity P-wave (km/s) = 5.52840 5.68613 5.60782
#
# Compressibility (1/GPa) = 0.02923497
#
# Stress axis : x y z
#
# Youngs Moduli (GPa) = 38.73744 44.48152 63.54416
#
# Poissons Ratio (x) = 0.34955 0.45696
# Poissons Ratio (y) = 0.30441 0.14930
# Poissons Ratio (z) = 0.27857 0.10451
#
# Static dielectric constant tensor:
#      x y z
#    x 1.643400 0.000000 0.000000 
#    y 0.000000 1.644030 0.000000 
#    z 0.000000 0.000000 1.653170 
# 
# From -- ./inp_files/15264.got.cif
#   From: 2010.05.17/outbox.cif.g08.bks.cpg/sg38_8_cif.got.tgz:15264.got - 2010.06.03 18:07:57.
