data_PCOD9358475
_publ_section_title
;
Structure prediction by ZEFSAII (Michael W. Deem and Ramdas Pophale) SiO2 
 PCOD9358475
Probable space group: A M M 2
;
_chemical_formula_sum "Si O2"
_cell_formula_units_Z 64
_cell_length_a 8.773072
_cell_length_b 29.424194
_cell_length_c 13.275043
_cell_angle_alpha 90.000000
_cell_angle_beta 90.000000
_cell_angle_gamma 90.000000
_cell_volume 3426.827200
_symmetry_space_group_name_H-M "A M M 2"
_symmetry_group_IT_number 38
_symmetry_cell_setting 'orthorhombic'
loop_
_space_group_symop_operation_xyz
x,y,z
-x,-y,z
-x,y,z
x,-y,z
x,1/2+y,1/2+z
-x,1/2-y,1/2+z
-x,1/2+y,1/2+z
x,1/2-y,1/2+z
loop_
_atom_site_type_symbol
_atom_site_label
_atom_site_fract_x
_atom_site_fract_y
_atom_site_fract_z
Si Si1 0.683544 0.552917 0.026000
Si Si2 0.826964 0.716076 0.128410
Si Si3 0.171686 0.199190 0.270070
Si Si4 0.684536 0.622242 0.201577
Si Si5 0.678183 0.748206 0.436641
Si Si6 0.682120 0.380820 0.646740
Si Si7 0.181974 0.946669 0.312233
Si Si8 0.314772 0.356356 0.423614
O O1 0.500000 0.554777 0.016937
O O2 0.728397 0.500000 0.038212
O O3 0.726512 0.582089 0.124300
O O4 0.753031 0.570040 0.920157
O O5 0.833764 0.751275 0.219773
O O6 0.762987 0.667918 0.161990
O O7 0.000000 0.712413 0.087208
O O8 0.712790 0.739653 0.050953
O O9 0.243796 0.210809 0.376555
O O10 0.269691 0.165707 0.201896
O O11 0.000000 0.180858 0.277401
O O12 0.500000 0.627228 0.197901
O O13 0.727144 0.618147 0.319984
O O14 0.500000 0.748324 0.412245
O O15 0.735593 0.696625 0.417682
O O16 0.500000 0.385347 0.646525
O O17 0.752512 0.419792 0.716949
O O18 0.736019 0.377796 0.530131
O O19 0.000000 0.942696 0.313826
O O20 0.223279 0.000000 0.304689
O O21 0.500000 0.355334 0.427828
#
# Coordination Sequence:
#
# PCOD9358475 Si02
#       8
#     8   8   8   8   8   8   8   8
#     4   9  19  37  62  89 114 143 183 234 289 344
#     4  11  23  36  52  79 115 151 191 236 282 335
#     4  11  23  37  53  79 114 151 193 238 285 337
#     4  10  20  37  59  83 113 150 192 235 284 342
#     4  11  21  36  56  76 108 153 196 238 281 333
#     4  11  22  38  60  86 114 150 195 237 284 342
#     4  10  22  41  63  86 115 149 184 231 291 346
#     4   9  19  35  56  82 113 149 191 236 281 334
#
# _framework density 18.676169000000002
#
# number of rings (size 3 to 8) (size 9 to 14) (size 15 to 20)
#    0.000    1.750    2.500    1.875    1.750    2.250 
#    0.000    1.875    0.000    2.250    0.000    1.750 
#    0.000    0.000    0.000    0.000    0.000    0.000 
#
# Total GULP energy -178494.471332 kJ/mol
# GULP energy per Si atom -5577.952229 kJ/mol
# Density = 1.863366 g / cm^3
# Si number density = 18.676169 Si / 1000 Ang^3
#
#
#
# Elastic Constant Matrix: (Units=GPa)
#
#
# Indices 1 2 3 4 5 6 
#
# 1 16.1898 16.1232 16.3284 0.0000 0.0000 0.0000
# 2 16.1232 76.4118 52.2797 0.0000 0.0000 0.0000
# 3 16.3284 52.2797 116.5292 0.0000 0.0000 0.0000
# 4 0.0000 0.0000 0.0000 34.9889 0.0000 0.0000
# 5 0.0000 0.0000 0.0000 0.0000 10.7053 0.0000
# 6 0.0000 0.0000 0.0000 0.0000 0.0000 24.0850
#
#
#
# Elastic Compliance Matrix: (Units=1/GPa)
#
#
# Indices 1 2 3 4 5 6 
#
# 1 0.080384 -0.013354 -0.005273 0.000000 0.000000 0.000000
# 2 -0.013354 0.021102 -0.007596 0.000000 0.000000 0.000000
# 3 -0.005273 -0.007596 0.012728 0.000000 0.000000 0.000000
# 4 0.000000 0.000000 0.000000 0.028581 0.000000 0.000000
# 5 0.000000 0.000000 0.000000 0.000000 0.093412 0.000000
# 6 0.000000 0.000000 0.000000 0.000000 0.000000 0.041520
#
#
# Mechanical properties :
#
#
# Convention : Reuss Voigt Hill
#
# Bulk Modulus (GPa) = 16.18932 42.06593 29.12763
# Shear Modulus (GPa) = 14.25474 22.24912 18.25193
#
# Velocity S-wave (km/s) = 2.76571 3.45528 3.12955
# Velocity P-wave (km/s) = 4.34582 6.20414 5.35619
#
# Compressibility (1/GPa) = 0.06176913
#
# Stress axis : x y z
#
# Youngs Moduli (GPa) = 12.44028 47.38948 78.56588
#
# Poissons Ratio (x) = 0.63284 0.41424
# Poissons Ratio (y) = 0.16613 0.59678
# Poissons Ratio (z) = 0.06559 0.35997
#
# Static dielectric constant tensor:
#      x y z
#    x 1.649170 0.000000 0.000000 
#    y 0.000000 1.632000 0.000000 
#    z 0.000000 0.000000 1.652790 
# 
# From -- ./inp_files/8528.got.cif
#   From: 2010.05.17/outbox.cif.g08.bks.cpg/sg38_5_cif.got.tgz:8528.got - 2010.06.03 18:07:57.
