data_PCOD9358483
_publ_section_title
;
Structure prediction by ZEFSAII (Michael W. Deem and Ramdas Pophale) SiO2 
 PCOD9358483
Probable space group: A M M 2
;
_chemical_formula_sum "Si O2"
_cell_formula_units_Z 64
_cell_length_a 23.992362
_cell_length_b 7.616169
_cell_length_c 16.115813
_cell_angle_alpha 90.000000
_cell_angle_beta 90.000000
_cell_angle_gamma 90.000000
_cell_volume 2944.840635
_symmetry_space_group_name_H-M "A M M 2"
_symmetry_group_IT_number 38
_symmetry_cell_setting 'orthorhombic'
loop_
_space_group_symop_operation_xyz
x,y,z
-x,-y,z
-x,y,z
x,-y,z
x,1/2+y,1/2+z
-x,1/2-y,1/2+z
-x,1/2+y,1/2+z
x,1/2-y,1/2+z
loop_
_atom_site_type_symbol
_atom_site_label
_atom_site_fract_x
_atom_site_fract_y
_atom_site_fract_z
Si Si1 0.861708 0.705550 0.013390
Si Si2 0.325731 0.794450 0.327774
Si Si3 0.318403 0.297903 0.652946
Si Si4 0.935605 0.785738 0.667544
Si Si5 0.064476 0.212247 0.854612
Si Si6 0.561185 0.213957 0.406267
Si Si7 0.561755 0.287789 0.101171
Si Si8 0.736198 0.700971 0.488906
O O1 0.850998 0.500000 0.027894
O O2 0.896349 0.774230 0.092691
O O3 0.802008 0.792878 0.001644
O O4 0.897778 0.723779 0.929761
O O5 0.303303 0.717489 0.241704
O O6 0.385287 0.719861 0.356921
O O7 0.283328 0.785646 0.403587
O O8 0.335885 0.000000 0.310242
O O9 0.298390 0.500000 0.650924
O O10 0.385345 0.290271 0.647218
O O11 0.293604 0.216180 0.569363
O O12 0.918723 0.732307 0.761076
O O13 0.000000 0.731864 0.654264
O O14 0.935490 0.000000 0.666254
O O15 0.000000 0.266113 0.866928
O O16 0.065919 0.000000 0.855854
O O17 0.500000 0.271522 0.376588
O O18 0.566416 0.260194 0.503621
O O19 0.561788 0.000000 0.404098
O O20 0.500000 0.233716 0.130225
O O21 0.564854 0.500000 0.106410
O O22 0.716936 0.500000 0.481279
#
# Coordination Sequence:
#
# PCOD9358483 Si02
#       8
#     8   8   8   8   8   8   8   8
#     4  11  22  36  58  84 110 146 192 234 269 316
#     4  10  20  37  60  82 105 140 184 226 271 332
#     4  10  22  37  56  82 110 139 178 232 287 329
#     4   8  16  33  57  85 117 150 182 216 260 321
#     4   9  18  35  59  87 120 153 182 219 272 327
#     4   8  14  27  51  80 106 135 172 214 260 319
#     4   9  17  31  54  82 110 142 179 218 265 330
#     4  11  24  41  55  75 111 147 183 232 284 329
#
# _framework density 21.732924000000001
#
# number of rings (size 3 to 8) (size 9 to 14) (size 15 to 20)
#    0.000    2.500    1.250    2.625    0.000    3.500 
#    0.000    5.000    0.000    1.875    0.000    0.000 
#    0.000    0.000    0.000    0.000    0.000    0.000 
#
# Total GULP energy -178649.527163 kJ/mol
# GULP energy per Si atom -5582.797724 kJ/mol
# Density = 2.168346 g / cm^3
# Si number density = 21.732924 Si / 1000 Ang^3
#
#
#
# Elastic Constant Matrix: (Units=GPa)
#
#
# Indices 1 2 3 4 5 6 
#
# 1 83.7435 -7.8704 58.1968 0.0000 0.0000 0.0000
# 2 -7.8704 46.1630 0.4619 0.0000 0.0000 0.0000
# 3 58.1968 0.4619 147.0645 0.0000 0.0000 0.0000
# 4 0.0000 0.0000 0.0000 7.2866 0.0000 0.0000
# 5 0.0000 0.0000 0.0000 0.0000 -6.2940 0.0000
# 6 0.0000 0.0000 0.0000 0.0000 0.0000 -1.9257
#
#
#
# Elastic Compliance Matrix: (Units=1/GPa)
#
#
# Indices 1 2 3 4 5 6 
#
# 1 0.016861 0.002941 -0.006681 0.000000 0.000000 0.000000
# 2 0.002941 0.022176 -0.001234 0.000000 0.000000 0.000000
# 3 -0.006681 -0.001234 0.009448 0.000000 0.000000 0.000000
# 4 0.000000 0.000000 0.000000 0.137239 0.000000 0.000000
# 5 0.000000 0.000000 0.000000 0.000000 -0.158881 0.000000
# 6 0.000000 0.000000 0.000000 0.000000 0.000000 -0.519298
#
#
# Mechanical properties :
#
#
# Convention : Reuss Voigt Hill
#
# Bulk Modulus (GPa) = 25.94883 42.06087 34.00485
# Shear Modulus (GPa) = -10.64597 14.89222 2.12312
#
# Velocity S-wave (km/s) = -2.21567 2.62054 0.98946
# Velocity P-wave (km/s) = 2.32814 5.34340 4.12141
#
# Compressibility (1/GPa) = 0.03853738
#
# Stress axis : x y z
#
# Youngs Moduli (GPa) = 59.30879 45.09341 105.84665
#
# Poissons Ratio (x) = -0.13264 0.70721
# Poissons Ratio (y) = -0.17446 0.13058
# Poissons Ratio (z) = 0.39627 0.05563
#
# Static dielectric constant tensor:
#      x y z
#    x 1.752390 0.000000 0.000000 
#    y 0.000000 1.816810 0.000000 
#    z 0.000000 0.000000 1.815590 
# 
# From -- ./inp_files/15756.got.cif
#   From: 2010.05.17/outbox.cif.g08.bks.cpg/sg38_8_cif.got.tgz:15756.got - 2010.06.03 18:07:57.
