data_PCOD9358713
_publ_section_title
;
Structure prediction by ZEFSAII (Michael W. Deem and Ramdas Pophale) SiO2 
 PCOD9358713
Probable space group: A M M 2
;
_chemical_formula_sum "Si O2"
_cell_formula_units_Z 48
_cell_length_a 19.358929
_cell_length_b 8.588070
_cell_length_c 15.723619
_cell_angle_alpha 90.000000
_cell_angle_beta 90.000000
_cell_angle_gamma 90.000000
_cell_volume 2614.143443
_symmetry_space_group_name_H-M "A M M 2"
_symmetry_group_IT_number 38
_symmetry_cell_setting 'orthorhombic'
loop_
_space_group_symop_operation_xyz
x,y,z
-x,-y,z
-x,y,z
x,-y,z
x,1/2+y,1/2+z
-x,1/2-y,1/2+z
-x,1/2+y,1/2+z
x,1/2-y,1/2+z
loop_
_atom_site_type_symbol
_atom_site_label
_atom_site_fract_x
_atom_site_fract_y
_atom_site_fract_z
Si Si1 0.919688 0.313391 0.415150
Si Si2 0.080329 0.186588 0.229091
Si Si3 0.326748 0.811883 0.573197
Si Si4 0.832312 0.313167 0.072112
Si Si5 0.421143 0.310351 0.228429
Si Si6 0.579715 0.812057 0.922496
O O1 0.915952 0.500000 0.414798
O O2 0.900346 0.249916 0.322147
O O3 0.871808 0.247585 0.489010
O O4 0.000000 0.268528 0.430720
O O5 0.128103 0.253027 0.155298
O O6 0.000000 0.231532 0.213652
O O7 0.084010 0.000000 0.229172
O O8 0.247358 0.760048 0.572339
O O9 0.367754 0.756686 0.657190
O O10 0.368362 0.756798 0.490747
O O11 0.327014 0.000000 0.574486
O O12 0.833478 0.500000 0.072046
O O13 0.500000 0.261884 0.208704
O O14 0.420898 0.500000 0.227934
O O15 0.404670 0.263313 0.325228
O O16 0.500000 0.767072 0.940960
O O17 0.583008 0.000000 0.925566
#
# Coordination Sequence:
#
# PCOD9358713 Si02
#       6
#     8   8   8   8   8   8
#     4  10  21  38  60  83 106 139 185 231 276 327
#     4  10  21  38  60  84 109 140 180 226 277 331
#     4  10  21  35  52  77 107 141 179 216 261 317
#     4  11  23  36  52  80 116 149 184 226 271 324
#     4   8  15  31  54  75  98 133 174 213 256 309
#     4   9  18  33  54  79 104 134 176 223 269 317
#
# _framework density 18.361654000000001
#
# number of rings (size 3 to 8) (size 9 to 14) (size 15 to 20)
#    0.000    2.333    0.000    3.500    0.000    7.667 
#    0.000    2.500    0.000    1.000    0.000    0.000 
#    0.000    0.000    0.000    0.000    0.000    0.000 
#
# Total GULP energy -133993.668446 kJ/mol
# GULP energy per Si atom -5583.069519 kJ/mol
# Density = 1.831986 g / cm^3
# Si number density = 18.361654 Si / 1000 Ang^3
#
#
#
# Elastic Constant Matrix: (Units=GPa)
#
#
# Indices 1 2 3 4 5 6 
#
# 1 155.2645 37.2182 144.5528 0.0000 0.0000 0.0000
# 2 37.2182 24.6544 36.7041 0.0000 0.0000 0.0000
# 3 144.5528 36.7041 189.1890 0.0000 0.0000 0.0000
# 4 0.0000 0.0000 0.0000 34.9083 0.0000 0.0000
# 5 0.0000 0.0000 0.0000 0.0000 -16.0200 0.0000
# 6 0.0000 0.0000 0.0000 0.0000 0.0000 21.3538
#
#
#
# Elastic Compliance Matrix: (Units=1/GPa)
#
#
# Indices 1 2 3 4 5 6 
#
# 1 0.024990 -0.013075 -0.016557 0.000000 0.000000 0.000000
# 2 -0.013075 0.063875 -0.002402 0.000000 0.000000 0.000000
# 3 -0.016557 -0.002402 0.018402 0.000000 0.000000 0.000000
# 4 0.000000 0.000000 0.000000 0.028647 0.000000 0.000000
# 5 0.000000 0.000000 0.000000 0.000000 -0.062422 0.000000
# 6 0.000000 0.000000 0.000000 0.000000 0.000000 0.046830
#
#
# Mechanical properties :
#
#
# Convention : Reuss Voigt Hill
#
# Bulk Modulus (GPa) = 23.14888 89.56203 56.35545
# Shear Modulus (GPa) = 25.15228 18.09058 21.62143
#
# Velocity S-wave (km/s) = 3.70513 3.14225 3.43524
# Velocity P-wave (km/s) = 5.56224 7.87703 6.81858
#
# Compressibility (1/GPa) = 0.04319863
#
# Stress axis : x y z
#
# Youngs Moduli (GPa) = 40.01676 15.65563 54.34086
#
# Poissons Ratio (x) = 0.20470 0.89972
# Poissons Ratio (y) = 0.52322 0.13053
# Poissons Ratio (z) = 0.66256 0.03761
#
# Static dielectric constant tensor:
#      x y z
#    x 1.618920 0.000000 0.000000 
#    y 0.000000 1.626360 0.000000 
#    z 0.000000 0.000000 1.603580 
# 
# From -- ./inp_files/14972.got.cif
#   From: 2010.05.17/outbox.cif.g08.bks.cpg/sg38_8_cif.got.tgz:14972.got - 2010.06.03 18:07:57.
