data_PCOD9358927
_publ_section_title
;
Structure prediction by ZEFSAII (Michael W. Deem and Ramdas Pophale) SiO2 
 PCOD9358927
Probable space group: A M M 2
;
_chemical_formula_sum "Si O2"
_cell_formula_units_Z 56
_cell_length_a 19.859052
_cell_length_b 8.481160
_cell_length_c 16.326458
_cell_angle_alpha 90.000000
_cell_angle_beta 90.000000
_cell_angle_gamma 90.000000
_cell_volume 2749.829361
_symmetry_space_group_name_H-M "A M M 2"
_symmetry_group_IT_number 38
_symmetry_cell_setting 'orthorhombic'
loop_
_space_group_symop_operation_xyz
x,y,z
-x,-y,z
-x,y,z
x,-y,z
x,1/2+y,1/2+z
-x,1/2-y,1/2+z
-x,1/2+y,1/2+z
x,1/2-y,1/2+z
loop_
_atom_site_type_symbol
_atom_site_label
_atom_site_fract_x
_atom_site_fract_y
_atom_site_fract_z
Si Si1 0.159990 0.691509 0.744160
Si Si2 0.076756 0.189478 0.084189
Si Si3 0.424895 0.313339 0.931007
Si Si4 0.287636 0.312489 0.162856
Si Si5 0.284429 0.682419 0.486674
Si Si6 0.574473 0.188399 0.748003
Si Si7 0.848330 0.185074 0.424681
O O1 0.165339 0.500000 0.743276
O O2 0.115532 0.743175 0.666267
O O3 0.233585 0.765395 0.731037
O O4 0.131745 0.737808 0.833194
O O5 0.000000 0.248176 0.082865
O O6 0.075302 0.000000 0.088607
O O7 0.114661 0.234447 0.000768
O O8 0.500000 0.260910 0.957756
O O9 0.419766 0.500000 0.946073
O O10 0.361507 0.229319 0.971305
O O11 0.420760 0.277939 0.834072
O O12 0.284731 0.500000 0.146700
O O13 0.362967 0.271130 0.191036
O O14 0.269205 0.218547 0.081271
O O15 0.273860 0.500000 0.467572
O O16 0.231412 0.782975 0.434713
O O17 0.500000 0.218406 0.712405
O O18 0.579090 0.000000 0.764961
O O19 0.861424 0.000000 0.431269
#
# Coordination Sequence:
#
# PCOD9358927 Si02
#       7
#     8   8   8   8   8   8   8
#     4  10  22  40  63  91 125 165 205 251 308 369
#     4  10  22  42  66  93 128 168 206 248 304 368
#     4  10  21  37  57  82 114 153 201 256 309 364
#     4  11  22  36  58  87 118 155 203 257 308 362
#     4  12  24  38  58  84 119 161 205 254 312 370
#     4   9  19  36  56  80 113 153 197 247 307 370
#     4  11  23  40  65  96 127 163 211 259 306 363
#
# _framework density 20.364899999999999
#
# number of rings (size 3 to 8) (size 9 to 14) (size 15 to 20)
#    0.000    1.571    1.429    3.429    0.000    6.857 
#    0.000    2.857    0.000    0.000    0.000    0.000 
#    0.000    0.000    0.000    0.000    0.000    0.000 
#
# Total GULP energy -156443.822418 kJ/mol
# GULP energy per Si atom -5587.279372 kJ/mol
# Density = 2.031855 g / cm^3
# Si number density = 20.364900 Si / 1000 Ang^3
#
#
#
# Elastic Constant Matrix: (Units=GPa)
#
#
# Indices 1 2 3 4 5 6 
#
# 1 103.5531 5.2462 40.6211 0.0000 0.0000 0.0000
# 2 5.2462 10.7077 5.3490 0.0000 0.0000 0.0000
# 3 40.6211 5.3490 106.2471 0.0000 0.0000 0.0000
# 4 0.0000 0.0000 0.0000 23.9546 0.0000 0.0000
# 5 0.0000 0.0000 0.0000 0.0000 17.0431 0.0000
# 6 0.0000 0.0000 0.0000 0.0000 0.0000 22.3965
#
#
#
# Elastic Compliance Matrix: (Units=1/GPa)
#
#
# Indices 1 2 3 4 5 6 
#
# 1 0.011489 -0.003523 -0.004215 0.000000 0.000000 0.000000
# 2 -0.003523 0.096880 -0.003530 0.000000 0.000000 0.000000
# 3 -0.004215 -0.003530 0.011201 0.000000 0.000000 0.000000
# 4 0.000000 0.000000 0.000000 0.041746 0.000000 0.000000
# 5 0.000000 0.000000 0.000000 0.000000 0.058675 0.000000
# 6 0.000000 0.000000 0.000000 0.000000 0.000000 0.044650
#
#
# Mechanical properties :
#
#
# Convention : Reuss Voigt Hill
#
# Bulk Modulus (GPa) = 10.30577 35.88228 23.09403
# Shear Modulus (GPa) = 15.64833 23.96494 19.80664
#
# Velocity S-wave (km/s) = 2.77501 3.43414 3.12202
# Velocity P-wave (km/s) = 3.91651 5.77775 4.93566
#
# Compressibility (1/GPa) = 0.09703300
#
# Stress axis : x y z
#
# Youngs Moduli (GPa) = 87.04092 10.32200 89.27529
#
# Poissons Ratio (x) = 0.03637 0.37631
# Poissons Ratio (y) = 0.30667 0.31518
# Poissons Ratio (z) = 0.36689 0.03644
#
# Static dielectric constant tensor:
#      x y z
#    x 1.729900 0.000000 0.000000 
#    y 0.000000 1.694770 0.000000 
#    z 0.000000 0.000000 1.723340 
# 
# From -- ./inp_files/15475.got.cif
#   From: 2010.05.17/outbox.cif.g08.bks.cpg/sg38_8_cif.got.tgz:15475.got - 2010.06.03 18:07:57.
