data_PCOD9358439
_publ_section_title
;
Structure prediction by ZEFSAII (Michael W. Deem and Ramdas Pophale) SiO2 
 PCOD9358439
Probable space group: A M M 2
;
_chemical_formula_sum "Si O2"
_cell_formula_units_Z 48
_cell_length_a 9.259353
_cell_length_b 7.890030
_cell_length_c 34.975935
_cell_angle_alpha 90.000000
_cell_angle_beta 90.000000
_cell_angle_gamma 90.000000
_cell_volume 2555.221947
_symmetry_space_group_name_H-M "A M M 2"
_symmetry_group_IT_number 38
_symmetry_cell_setting 'orthorhombic'
loop_
_space_group_symop_operation_xyz
x,y,z
-x,-y,z
-x,y,z
x,-y,z
x,1/2+y,1/2+z
-x,1/2-y,1/2+z
-x,1/2+y,1/2+z
x,1/2-y,1/2+z
loop_
_atom_site_type_symbol
_atom_site_label
_atom_site_fract_x
_atom_site_fract_y
_atom_site_fract_z
Si Si1 0.664870 0.301481 0.182160
Si Si2 0.675142 0.000000 0.473318
Si Si3 0.335259 0.295555 0.332185
Si Si4 0.162844 0.201467 0.256701
Si Si5 0.826061 0.000000 0.555291
Si Si6 0.324449 0.194528 0.916907
Si Si7 0.326640 0.692589 0.598914
O O1 0.500000 0.250269 0.190977
O O2 0.665402 0.500000 0.172056
O O3 0.757749 0.275116 0.219801
O O4 0.711495 0.205139 0.143927
O O5 0.760345 0.000000 0.512781
O O6 0.712681 0.832770 0.448600
O O7 0.500000 0.000000 0.479568
O O8 0.500000 0.232522 0.328244
O O9 0.340315 0.500000 0.332257
O O10 0.243874 0.239438 0.296109
O O11 0.277561 0.248913 0.374299
O O12 0.000000 0.267165 0.258842
O O13 0.159952 0.000000 0.251605
O O14 0.762394 0.833886 0.576469
O O15 0.000000 0.000000 0.555619
O O16 0.500000 0.189879 0.915012
O O17 0.276969 0.000000 0.924406
O O18 0.500000 0.727703 0.596043
O O19 0.301984 0.500000 0.585419
#
# Coordination Sequence:
#
# PCOD9358439 Si02
#       7
#     8   4   8   8   4   8   8
#     4  10  20  37  62  87 112 144 191 247 299 350
#     4  10  20  36  62  88 114 152 200 248 300 354
#     4   9  18  34  56  81 108 141 188 243 296 344
#     4  11  24  36  47  74 116 157 196 237 283 345
#     4  12  26  42  60  90 132 168 198 242 304 376
#     4   8  16  32  56  87 115 141 186 248 301 347
#     4  10  21  41  69  94 118 154 203 257 306 357
#
# _framework density 18.785060999999999
#
# number of rings (size 3 to 8) (size 9 to 14) (size 15 to 20)
#    0.000    2.167    0.833    3.250    1.167    6.333 
#    0.000    2.500    0.000    1.000    0.000    0.000 
#    0.000    0.000    0.000    0.000    0.000    0.000 
#
# Total GULP energy -133947.487005 kJ/mol
# GULP energy per Si atom -5581.145292 kJ/mol
# Density = 1.874231 g / cm^3
# Si number density = 18.785061 Si / 1000 Ang^3
#
#
#
# Elastic Constant Matrix: (Units=GPa)
#
#
# Indices 1 2 3 4 5 6 
#
# 1 76.4464 43.0987 71.5258 0.0000 0.0000 0.0000
# 2 43.0987 96.7683 65.8059 0.0000 0.0000 0.0000
# 3 71.5258 65.8059 146.6290 0.0000 0.0000 0.0000
# 4 0.0000 0.0000 0.0000 -4.1906 0.0000 0.0000
# 5 0.0000 0.0000 0.0000 0.0000 -21.0118 0.0000
# 6 0.0000 0.0000 0.0000 0.0000 0.0000 17.9808
#
#
#
# Elastic Compliance Matrix: (Units=1/GPa)
#
#
# Indices 1 2 3 4 5 6 
#
# 1 0.025153 -0.004115 -0.010423 0.000000 0.000000 0.000000
# 2 -0.004115 0.015546 -0.004970 0.000000 0.000000 0.000000
# 3 -0.010423 -0.004970 0.014135 0.000000 0.000000 0.000000
# 4 0.000000 0.000000 0.000000 -0.238628 0.000000 0.000000
# 5 0.000000 0.000000 0.000000 0.000000 -0.047592 0.000000
# 6 0.000000 0.000000 0.000000 0.000000 0.000000 0.055615
#
#
# Mechanical properties :
#
#
# Convention : Reuss Voigt Hill
#
# Bulk Modulus (GPa) = 63.21576 75.63382 69.42479
# Shear Modulus (GPa) = -38.02750 7.84991 -15.08879
#
# Velocity S-wave (km/s) = -4.50416 2.04643 -2.83721
# Velocity P-wave (km/s) = 2.58366 6.77746 5.12881
#
# Compressibility (1/GPa) = 0.01581884
#
# Stress axis : x y z
#
# Youngs Moduli (GPa) = 39.75690 64.32421 70.74756
#
# Poissons Ratio (x) = 0.26467 0.73740
# Poissons Ratio (y) = 0.16358 0.35161
# Poissons Ratio (z) = 0.41439 0.31969
#
# Static dielectric constant tensor:
#      x y z
#    x 1.636280 0.000000 0.000000 
#    y 0.000000 1.688110 0.000000 
#    z 0.000000 0.000000 1.636600 
# 
# From -- ./inp_files/24416.got.cif
#   From: 2010.05.17/outbox.cif.g08.bks.cpg/sg38_13_cif.got.tgz:24416.got - 2010.06.03 18:07:57.
