data_PCOD9358144
_publ_section_title
;
Structure prediction by ZEFSAII (Michael W. Deem and Ramdas Pophale) SiO2 
 PCOD9358144
Probable space group: A M M 2
;
_chemical_formula_sum "Si O2"
_cell_formula_units_Z 48
_cell_length_a 14.603415
_cell_length_b 7.492791
_cell_length_c 21.223941
_cell_angle_alpha 90.000000
_cell_angle_beta 90.000000
_cell_angle_gamma 90.000000
_cell_volume 2322.330766
_symmetry_space_group_name_H-M "A M M 2"
_symmetry_group_IT_number 38
_symmetry_cell_setting 'orthorhombic'
loop_
_space_group_symop_operation_xyz
x,y,z
-x,-y,z
-x,y,z
x,-y,z
x,1/2+y,1/2+z
-x,1/2-y,1/2+z
-x,1/2+y,1/2+z
x,1/2-y,1/2+z
loop_
_atom_site_type_symbol
_atom_site_label
_atom_site_fract_x
_atom_site_fract_y
_atom_site_fract_z
Si Si1 0.270713 0.214849 0.151590
Si Si2 0.751865 0.203330 0.512709
Si Si3 0.109791 0.000000 0.982334
Si Si4 0.606104 0.716996 0.767966
Si Si5 0.394397 0.282433 0.908948
Si Si6 0.107651 0.790659 0.236144
Si Si7 0.889106 0.000000 0.835634
O O1 0.288666 0.291254 0.083039
O O2 0.334996 0.277907 0.208695
O O3 0.168327 0.255759 0.175796
O O4 0.279558 0.000000 0.146568
O O5 0.840774 0.328139 0.511572
O O6 0.676709 0.271689 0.462635
O O7 0.775475 0.000000 0.495964
O O8 0.135861 0.000000 0.908245
O O9 0.000000 0.000000 0.989411
O O10 0.500000 0.765262 0.759822
O O11 0.611623 0.500000 0.768206
O O12 0.633816 0.775237 0.838359
O O13 0.500000 0.226237 0.919869
O O14 0.395479 0.500000 0.909172
O O15 0.138450 0.672788 0.295411
O O16 0.000000 0.760971 0.225130
O O17 0.121990 0.000000 0.249848
O O18 0.000000 0.000000 0.835818
#
# Coordination Sequence:
#
# PCOD9358144 Si02
#       7
#     8   8   4   8   8   8   4
#     4  10  20  35  55  86 123 157 200 251 302 360
#     4  11  24  41  62  91 123 167 218 253 309 377
#     4  11  26  46  63  87 129 164 204 267 318 369
#     4   8  15  30  56  88 119 157 202 247 305 367
#     4   8  16  34  60  90 124 162 206 255 310 373
#     4   9  19  35  57  86 116 147 190 243 301 362
#     4   9  20  38  60  87 113 146 189 241 305 361
#
# _framework density 20.668890000000001
#
# number of rings (size 3 to 8) (size 9 to 14) (size 15 to 20)
#    0.000    2.667    0.833    1.000    3.500    2.333 
#    0.000    2.083    0.000    0.000    0.000    0.000 
#    0.000    0.000    0.000    0.000    0.000    0.000 
#
# Total GULP energy -133986.950900 kJ/mol
# GULP energy per Si atom -5582.789621 kJ/mol
# Density = 2.062185 g / cm^3
# Si number density = 20.668890 Si / 1000 Ang^3
#
#
#
# Elastic Constant Matrix: (Units=GPa)
#
#
# Indices 1 2 3 4 5 6 
#
# 1 106.7519 31.0803 73.4086 0.0000 0.0000 0.0000
# 2 31.0803 63.8741 25.2746 0.0000 0.0000 0.0000
# 3 73.4086 25.2746 154.3728 0.0000 0.0000 0.0000
# 4 0.0000 0.0000 0.0000 33.8751 0.0000 0.0000
# 5 0.0000 0.0000 0.0000 0.0000 22.0167 0.0000
# 6 0.0000 0.0000 0.0000 0.0000 0.0000 -14.5552
#
#
#
# Elastic Compliance Matrix: (Units=1/GPa)
#
#
# Indices 1 2 3 4 5 6 
#
# 1 0.015206 -0.004852 -0.006437 0.000000 0.000000 0.000000
# 2 -0.004852 0.018289 -0.000687 0.000000 0.000000 0.000000
# 3 -0.006437 -0.000687 0.009651 0.000000 0.000000 0.000000
# 4 0.000000 0.000000 0.000000 0.029520 0.000000 0.000000
# 5 0.000000 0.000000 0.000000 0.000000 0.045420 0.000000
# 6 0.000000 0.000000 0.000000 0.000000 0.000000 -0.068704
#
#
# Mechanical properties :
#
#
# Convention : Reuss Voigt Hill
#
# Bulk Modulus (GPa) = 52.09823 64.94729 58.52276
# Shear Modulus (GPa) = 62.70960 21.28300 41.99630
#
# Velocity S-wave (km/s) = 5.51416 3.21239 4.51251
# Velocity P-wave (km/s) = 8.11185 6.72683 7.45159
#
# Compressibility (1/GPa) = 0.01919451
#
# Stress axis : x y z
#
# Youngs Moduli (GPa) = 65.76164 54.67866 103.61520
#
# Poissons Ratio (x) = 0.26532 0.66693
# Poissons Ratio (y) = 0.31910 0.07117
# Poissons Ratio (z) = 0.42328 0.03756
#
# Static dielectric constant tensor:
#      x y z
#    x 1.721960 0.000000 0.000000 
#    y 0.000000 1.785840 0.000000 
#    z 0.000000 0.000000 1.721550 
# 
# From -- ./inp_files/18200.got.cif
#   From: 2010.05.17/outbox.cif.g08.bks.cpg/sg38_10_cif.got.tgz:18200.got - 2010.06.03 18:07:57.
