data_PCOD9358040
_publ_section_title
;
Structure prediction by ZEFSAII (Michael W. Deem and Ramdas Pophale) SiO2 
 PCOD9358040
Probable space group: A M M 2
;
_chemical_formula_sum "Si O2"
_cell_formula_units_Z 48
_cell_length_a 8.677860
_cell_length_b 21.003345
_cell_length_c 14.838107
_cell_angle_alpha 90.000000
_cell_angle_beta 90.000000
_cell_angle_gamma 90.000000
_cell_volume 2704.454032
_symmetry_space_group_name_H-M "A M M 2"
_symmetry_group_IT_number 38
_symmetry_cell_setting 'orthorhombic'
loop_
_space_group_symop_operation_xyz
x,y,z
-x,-y,z
-x,y,z
x,-y,z
x,1/2+y,1/2+z
-x,1/2-y,1/2+z
-x,1/2+y,1/2+z
x,1/2-y,1/2+z
loop_
_atom_site_type_symbol
_atom_site_label
_atom_site_fract_x
_atom_site_fract_y
_atom_site_fract_z
Si Si1 0.186179 0.572750 0.925350
Si Si2 0.814300 0.123049 0.622050
Si Si3 0.315446 0.186923 0.308420
Si Si4 0.686246 0.690520 0.428025
Si Si5 0.815451 0.271939 0.619273
Si Si6 0.685984 0.928544 0.808082
O O1 0.230710 0.500000 0.906181
O O2 0.257017 0.623649 0.857461
O O3 0.000000 0.577217 0.920812
O O4 0.231661 0.591374 0.027470
O O5 0.768470 0.197346 0.621311
O O6 0.743657 0.089017 0.708539
O O7 0.000000 0.119709 0.628448
O O8 0.500000 0.186971 0.304126
O O9 0.266685 0.248156 0.368419
O O10 0.248518 0.195154 0.208760
O O11 0.500000 0.690429 0.432839
O O12 0.752590 0.697663 0.527651
O O13 0.737418 0.626488 0.376866
O O14 0.000000 0.274348 0.619278
O O15 0.500000 0.927369 0.807328
O O16 0.736297 0.000000 0.832429
#
# Coordination Sequence:
#
# PCOD9358040 Si02
#       6
#     8   8   8   8   8   8
#     4  10  21  38  58  83 118 154 190 234 284 338
#     4  10  20  34  56  85 117 148 182 231 284 338
#     4  11  22  37  59  84 115 151 191 236 281 337
#     4  10  21  37  57  82 113 149 189 234 282 332
#     4  11  22  36  59  87 113 146 191 236 281 335
#     4  10  21  37  57  83 116 151 186 228 281 339
#
# _framework density 17.748498999999999
#
# number of rings (size 3 to 8) (size 9 to 14) (size 15 to 20)
#    0.000    1.667    3.333    1.500    0.000    4.000 
#    0.000    0.833    0.000    3.000    0.000    0.000 
#    0.000    0.000    0.000    0.000    0.000    0.000 
#
# Total GULP energy -134073.396788 kJ/mol
# GULP energy per Si atom -5586.391533 kJ/mol
# Density = 1.770810 g / cm^3
# Si number density = 17.748499 Si / 1000 Ang^3
#
#
#
# Elastic Constant Matrix: (Units=GPa)
#
#
# Indices 1 2 3 4 5 6 
#
# 1 16.7355 37.5024 35.2684 0.0000 0.0000 0.0000
# 2 37.5024 176.7384 98.1724 0.0000 0.0000 0.0000
# 3 35.2684 98.1724 166.9884 0.0000 0.0000 0.0000
# 4 0.0000 0.0000 0.0000 20.2311 0.0000 0.0000
# 5 0.0000 0.0000 0.0000 0.0000 31.2391 0.0000
# 6 0.0000 0.0000 0.0000 0.0000 0.0000 19.6427
#
#
#
# Elastic Compliance Matrix: (Units=1/GPa)
#
#
# Indices 1 2 3 4 5 6 
#
# 1 0.144418 -0.020346 -0.018540 0.000000 0.000000 0.000000
# 2 -0.020346 0.011268 -0.002327 0.000000 0.000000 0.000000
# 3 -0.018540 -0.002327 0.011272 0.000000 0.000000 0.000000
# 4 0.000000 0.000000 0.000000 0.049429 0.000000 0.000000
# 5 0.000000 0.000000 0.000000 0.000000 0.032011 0.000000
# 6 0.000000 0.000000 0.000000 0.000000 0.000000 0.050909
#
#
# Mechanical properties :
#
#
# Convention : Reuss Voigt Hill
#
# Bulk Modulus (GPa) = 11.82990 78.03874 44.93432
# Shear Modulus (GPa) = 12.19775 26.85719 19.52747
#
# Velocity S-wave (km/s) = 2.62440 3.89422 3.32057
# Velocity P-wave (km/s) = 3.98285 8.01777 6.33039
#
# Compressibility (1/GPa) = 0.08453156
#
# Stress axis : x y z
#
# Youngs Moduli (GPa) = 6.92436 88.74602 88.71190
#
# Poissons Ratio (x) = 1.80561 1.64472
# Poissons Ratio (y) = 0.14088 0.20647
# Poissons Ratio (z) = 0.12838 0.20655
#
# Static dielectric constant tensor:
#      x y z
#    x 1.602750 0.000000 0.000000 
#    y 0.000000 1.605160 0.000000 
#    z 0.000000 0.000000 1.562610 
# 
# From -- ./inp_files/8139.got.cif
#   From: 2010.05.17/outbox.cif.g08.bks.cpg/sg38_5_cif.got.tgz:8139.got - 2010.06.03 18:07:57.
