data_PCOD9358960
_publ_section_title
;
Structure prediction by ZEFSAII (Michael W. Deem and Ramdas Pophale) SiO2 
 PCOD9358960
Probable space group: A M M 2
;
_chemical_formula_sum "Si O2"
_cell_formula_units_Z 64
_cell_length_a 21.397691
_cell_length_b 16.429258
_cell_length_c 9.865275
_cell_angle_alpha 90.000000
_cell_angle_beta 90.000000
_cell_angle_gamma 90.000000
_cell_volume 3468.119531
_symmetry_space_group_name_H-M "A M M 2"
_symmetry_group_IT_number 38
_symmetry_cell_setting 'orthorhombic'
loop_
_space_group_symop_operation_xyz
x,y,z
-x,-y,z
-x,y,z
x,-y,z
x,1/2+y,1/2+z
-x,1/2-y,1/2+z
-x,1/2+y,1/2+z
x,1/2-y,1/2+z
loop_
_atom_site_type_symbol
_atom_site_label
_atom_site_fract_x
_atom_site_fract_y
_atom_site_fract_z
Si Si1 0.177822 0.903400 0.771700
Si Si2 0.425202 0.593640 0.329631
Si Si3 0.068161 0.405398 0.772904
Si Si4 0.646438 0.752919 0.436408
Si Si5 0.269690 0.769510 0.689863
Si Si6 0.425479 0.090938 0.504296
Si Si7 0.073642 0.160367 0.567281
Si Si8 0.152600 0.819619 0.058502
O O1 0.238714 0.858622 0.708585
O O2 0.116976 0.876302 0.685234
O O3 0.184329 0.000000 0.770915
O O4 0.168264 0.869025 0.923272
O O5 0.500000 0.601979 0.352593
O O6 0.407602 0.500000 0.369442
O O7 0.388955 0.668125 0.401742
O O8 0.414832 0.599477 0.166915
O O9 0.064391 0.500000 0.745176
O O10 0.119850 0.370156 0.676003
O O11 0.000000 0.366811 0.744320
O O12 0.080083 0.392537 0.931432
O O13 0.673008 0.758721 0.587807
O O14 0.705358 0.757979 0.335513
O O15 0.604063 0.833534 0.424644
O O16 0.214384 0.717195 0.625441
O O17 0.500000 0.092754 0.485463
O O18 0.402873 0.000000 0.464952
O O19 0.103949 0.246912 0.528034
O O20 0.000000 0.165210 0.602446
#
# Coordination Sequence:
#
# PCOD9358960 Si02
#       8
#     8   8   8   8   8   8   8   8
#     4  11  24  41  61  85 118 156 202 256 300 352
#     4   9  19  37  63  94 124 159 201 244 301 366
#     4  10  21  37  58  85 114 144 183 235 295 351
#     4  12  21  41  63  89 123 162 205 251 298 362
#     4  11  25  40  59  85 119 159 205 244 296 356
#     4   9  19  37  63  94 125 159 201 247 301 364
#     4  10  21  38  61  87 116 151 191 236 296 368
#     4  11  22  40  59  83 114 152 196 244 297 349
#
# _framework density 18.453804000000002
#
# number of rings (size 3 to 8) (size 9 to 14) (size 15 to 20)
#    0.000    1.625    2.500    3.750    1.750    3.750 
#    0.000    1.875    0.000    1.500    0.000    0.000 
#    0.000    0.000    0.000    0.000    0.000    0.000 
#
# Total GULP energy -178502.855970 kJ/mol
# GULP energy per Si atom -5578.214249 kJ/mol
# Density = 1.841180 g / cm^3
# Si number density = 18.453804 Si / 1000 Ang^3
#
#
#
# Elastic Constant Matrix: (Units=GPa)
#
#
# Indices 1 2 3 4 5 6 
#
# 1 66.9161 57.7897 20.6837 0.0000 0.0000 0.0000
# 2 57.7897 144.0203 35.2637 0.0000 0.0000 0.0000
# 3 20.6837 35.2637 51.8756 0.0000 0.0000 0.0000
# 4 0.0000 0.0000 0.0000 45.3938 0.0000 0.0000
# 5 0.0000 0.0000 0.0000 0.0000 36.9825 0.0000
# 6 0.0000 0.0000 0.0000 0.0000 0.0000 8.2496
#
#
#
# Elastic Compliance Matrix: (Units=1/GPa)
#
#
# Indices 1 2 3 4 5 6 
#
# 1 0.023397 -0.008523 -0.003535 0.000000 0.000000 0.000000
# 2 -0.008523 0.011434 -0.004375 0.000000 0.000000 0.000000
# 3 -0.003535 -0.004375 0.023660 0.000000 0.000000 0.000000
# 4 0.000000 0.000000 0.000000 0.022029 0.000000 0.000000
# 5 0.000000 0.000000 0.000000 0.000000 0.027040 0.000000
# 6 0.000000 0.000000 0.000000 0.000000 0.000000 0.121219
#
#
# Mechanical properties :
#
#
# Convention : Reuss Voigt Hill
#
# Bulk Modulus (GPa) = 39.02220 54.47626 46.74923
# Shear Modulus (GPa) = 18.50566 28.06350 23.28458
#
# Velocity S-wave (km/s) = 3.17015 3.90390 3.55600
# Velocity P-wave (km/s) = 5.88146 7.06435 6.49987
#
# Compressibility (1/GPa) = 0.02562644
#
# Stress axis : x y z
#
# Youngs Moduli (GPa) = 42.74008 87.45490 42.26490
#
# Poissons Ratio (x) = 0.74536 0.14942
# Poissons Ratio (y) = 0.36426 0.18490
# Poissons Ratio (z) = 0.15110 0.38259
#
# Static dielectric constant tensor:
#      x y z
#    x 1.744100 0.000000 0.000000 
#    y 0.000000 1.674730 0.000000 
#    z 0.000000 0.000000 1.611680 
# 
# From -- ./inp_files/6821.got.cif
#   From: 2010.05.17/outbox.cif.g08.bks.cpg/sg38_4_cif.got.tgz:6821.got - 2010.06.03 18:07:57.
