data_PCOD9358624
_publ_section_title
;
Structure prediction by ZEFSAII (Michael W. Deem and Ramdas Pophale) SiO2 
 PCOD9358624
Probable space group: A M M 2
;
_chemical_formula_sum "Si O2"
_cell_formula_units_Z 58
_cell_length_a 7.760734
_cell_length_b 18.069986
_cell_length_c 17.487940
_cell_angle_alpha 90.000000
_cell_angle_beta 90.000000
_cell_angle_gamma 90.000000
_cell_volume 2452.444957
_symmetry_space_group_name_H-M "A M M 2"
_symmetry_group_IT_number 38
_symmetry_cell_setting 'orthorhombic'
loop_
_space_group_symop_operation_xyz
x,y,z
-x,-y,z
-x,y,z
x,-y,z
x,1/2+y,1/2+z
-x,1/2-y,1/2+z
-x,1/2+y,1/2+z
x,1/2-y,1/2+z
loop_
_atom_site_type_symbol
_atom_site_label
_atom_site_fract_x
_atom_site_fract_y
_atom_site_fract_z
Si Si1 0.208379 0.635422 0.322490
Si Si2 0.790418 0.585534 0.749143
Si Si3 0.312753 0.106393 0.491834
Si Si4 0.297684 0.308632 0.610224
Si Si5 0.294669 0.080633 0.986037
Si Si6 0.798975 0.356346 0.152992
Si Si7 0.000000 0.500000 0.956280
Si Si8 0.207543 0.795747 0.375727
O O1 0.264484 0.588863 0.395599
O O2 0.265696 0.619079 0.236233
O O3 0.266126 0.718940 0.340386
O O4 0.000000 0.633615 0.320286
O O5 0.735080 0.500000 0.754885
O O6 0.724493 0.627841 0.674501
O O7 0.738853 0.636916 0.820459
O O8 0.000000 0.585338 0.747950
O O9 0.500000 0.080326 0.468379
O O10 0.297491 0.106757 0.582690
O O11 0.286381 0.188611 0.458413
O O12 0.151340 0.062677 0.459418
O O13 0.500000 0.291320 0.600797
O O14 0.225905 0.349312 0.534014
O O15 0.213151 0.232695 0.640553
O O16 0.500000 0.080625 0.999457
O O17 0.226629 0.000000 0.011495
O O18 0.000000 0.377233 0.146078
O O19 0.000000 0.792929 0.379678
#
# Coordination Sequence:
#
# PCOD9358624 Si02
#       8
#     8   8   8   8   8   8   2   8
#     4  10  22  40  67  96 129 172 218 272 337 402
#     4  10  21  36  60  91 129 176 218 264 335 409
#     4  12  26  44  71 101 130 180 230 271 345 411
#     4  11  22  38  63  93 128 170 221 277 334 405
#     4  10  23  42  61  87 129 173 213 273 343 397
#     4  11  22  44  67  94 132 171 219 281 341 393
#     4  12  26  52  68  94 140 176 218 300 332 390
#     4  10  20  40  65  95 133 175 218 275 337 395
#
# _framework density 23.649868000000001
#
# number of rings (size 3 to 8) (size 9 to 14) (size 15 to 20)
#    0.000    1.379    2.759    2.276    0.966    6.621 
#    1.241    0.000    0.000    0.000    0.000    0.000 
#    0.000    0.000    0.000    0.000    0.000    0.000 
#
# Total GULP energy -161936.496468 kJ/mol
# GULP energy per Si atom -5584.017120 kJ/mol
# Density = 2.359604 g / cm^3
# Si number density = 23.649868 Si / 1000 Ang^3
#
#
#
# Elastic Constant Matrix: (Units=GPa)
#
#
# Indices 1 2 3 4 5 6 
#
# 1 91.2744 4.8011 0.8937 0.0000 0.0000 0.0000
# 2 4.8011 52.7448 -11.1627 0.0000 0.0000 0.0000
# 3 0.8937 -11.1627 99.5210 0.0000 0.0000 0.0000
# 4 0.0000 0.0000 0.0000 -11.3606 0.0000 0.0000
# 5 0.0000 0.0000 0.0000 0.0000 25.5079 0.0000
# 6 0.0000 0.0000 0.0000 0.0000 0.0000 111.0976
#
#
#
# Elastic Compliance Matrix: (Units=1/GPa)
#
#
# Indices 1 2 3 4 5 6 
#
# 1 0.011013 -0.001048 -0.000216 0.000000 0.000000 0.000000
# 2 -0.001048 0.019520 0.002199 0.000000 0.000000 0.000000
# 3 -0.000216 0.002199 0.010297 0.000000 0.000000 0.000000
# 4 0.000000 0.000000 0.000000 -0.088024 0.000000 0.000000
# 5 0.000000 0.000000 0.000000 0.000000 0.039203 0.000000
# 6 0.000000 0.000000 0.000000 0.000000 0.000000 0.009001
#
#
# Mechanical properties :
#
#
# Convention : Reuss Voigt Hill
#
# Bulk Modulus (GPa) = 23.42026 25.84494 24.63260
# Shear Modulus (GPa) = 373.81945 41.64953 207.73449
#
# Velocity S-wave (km/s) = 12.58599 4.20109 9.38233
# Velocity P-wave (km/s) = 14.87058 5.87231 11.30527
#
# Compressibility (1/GPa) = 0.04269808
#
# Stress axis : x y z
#
# Youngs Moduli (GPa) = 90.79979 51.22957 97.11841
#
# Poissons Ratio (x) = 0.05370 0.02102
# Poissons Ratio (y) = 0.09519 -0.21355
# Poissons Ratio (z) = 0.01966 -0.11265
#
# Static dielectric constant tensor:
#      x y z
#    x 1.841490 0.000000 0.000000 
#    y 0.000000 1.942800 0.000000 
#    z 0.000000 0.000000 1.926120 
# 
# From -- ./inp_files/16967.got.cif
#   From: 2010.05.17/outbox.cif.g08.bks.cpg/sg38_9_cif.got.tgz:16967.got - 2010.06.03 18:07:57.
