data_PCOD9358288
_publ_section_title
;
Structure prediction by ZEFSAII (Michael W. Deem and Ramdas Pophale) SiO2 
 PCOD9358288
Probable space group: A M M 2
;
_chemical_formula_sum "Si O2"
_cell_formula_units_Z 40
_cell_length_a 7.458262
_cell_length_b 8.225367
_cell_length_c 29.190287
_cell_angle_alpha 90.000000
_cell_angle_beta 90.000000
_cell_angle_gamma 90.000000
_cell_volume 1790.734847
_symmetry_space_group_name_H-M "A M M 2"
_symmetry_group_IT_number 38
_symmetry_cell_setting 'orthorhombic'
loop_
_space_group_symop_operation_xyz
x,y,z
-x,-y,z
-x,y,z
x,-y,z
x,1/2+y,1/2+z
-x,1/2-y,1/2+z
-x,1/2+y,1/2+z
x,1/2-y,1/2+z
loop_
_atom_site_type_symbol
_atom_site_label
_atom_site_fract_x
_atom_site_fract_y
_atom_site_fract_z
Si Si1 0.718206 0.686252 0.189750
Si Si2 0.283604 0.179286 0.494555
Si Si3 0.702616 0.500000 0.333811
Si Si4 0.281299 0.687260 0.591072
Si Si5 0.719226 0.177307 0.286276
Si Si6 0.203092 0.500000 0.435543
O O1 0.500000 0.689150 0.188656
O O2 0.772762 0.500000 0.197107
O O3 0.779464 0.748249 0.140281
O O4 0.770892 0.792264 0.233421
O O5 0.500000 0.176492 0.494632
O O6 0.224013 0.210730 0.546902
O O7 0.233911 0.336967 0.464953
O O8 0.222515 0.000000 0.478781
O O9 0.500000 0.500000 0.314250
O O10 0.782861 0.331910 0.315349
O O11 0.691124 0.500000 0.388301
O O12 0.500000 0.691897 0.591575
O O13 0.228532 0.500000 0.584817
O O14 0.500000 0.174436 0.288208
O O15 0.780334 0.000000 0.302086
O O16 0.000000 0.500000 0.419983
#
# Coordination Sequence:
#
# PCOD9358288 Si02
#       6
#     8   8   4   8   8   4
#     4   9  14  21  36  67 112 150 174 208 266 333
#     4  10  20  37  61  87 116 150 191 239 290 347
#     4  10  20  36  56  78 106 142 186 238 285 338
#     4   9  15  24  43  74 113 148 179 219 271 334
#     4   9  16  27  45  72 108 143 175 217 275 336
#     4  12  26  42  60  82 112 152 196 248 297 348
#
# _framework density 22.337198999999998
#
# number of rings (size 3 to 8) (size 9 to 14) (size 15 to 20)
#    0.000    2.400    2.000    2.100    0.000    6.000 
#    0.000    2.000    0.000    0.000    0.000    1.400 
#    0.000    0.000    0.000    0.000    0.000    0.000 
#
# Total GULP energy -111699.194323 kJ/mol
# GULP energy per Si atom -5584.959716 kJ/mol
# Density = 2.228636 g / cm^3
# Si number density = 22.337199 Si / 1000 Ang^3
#
#
#
# Elastic Constant Matrix: (Units=GPa)
#
#
# Indices 1 2 3 4 5 6 
#
# 1 69.0759 6.3960 -4.5237 0.0000 0.0000 0.0000
# 2 6.3960 216.8021 74.2685 0.0000 0.0000 0.0000
# 3 -4.5237 74.2685 115.2082 0.0000 0.0000 0.0000
# 4 0.0000 0.0000 0.0000 29.3072 0.0000 0.0000
# 5 0.0000 0.0000 0.0000 0.0000 -69.1622 0.0000
# 6 0.0000 0.0000 0.0000 0.0000 0.0000 -79.7584
#
#
#
# Elastic Compliance Matrix: (Units=1/GPa)
#
#
# Indices 1 2 3 4 5 6 
#
# 1 0.014623 -0.000806 0.001094 0.000000 0.000000 0.000000
# 2 -0.000806 0.005964 -0.003876 0.000000 0.000000 0.000000
# 3 0.001094 -0.003876 0.011222 0.000000 0.000000 0.000000
# 4 0.000000 0.000000 0.000000 0.034121 0.000000 0.000000
# 5 0.000000 0.000000 0.000000 0.000000 -0.014459 0.000000
# 6 0.000000 0.000000 0.000000 0.000000 0.000000 -0.012538
#
#
# Mechanical properties :
#
#
# Convention : Reuss Voigt Hill
#
# Bulk Modulus (GPa) = 40.59809 61.48529 51.04169
# Shear Modulus (GPa) = 92.04402 -2.25964 44.89219
#
# Velocity S-wave (km/s) = 6.42620 -1.00688 4.48789
# Velocity P-wave (km/s) = 8.56014 5.12191 7.05372
#
# Compressibility (1/GPa) = 0.02463170
#
# Stress axis : x y z
#
# Youngs Moduli (GPa) = 68.38491 167.66662 89.11196
#
# Poissons Ratio (x) = 0.13516 -0.09747
# Poissons Ratio (y) = 0.05513 0.34544
# Poissons Ratio (z) = -0.07480 0.64995
#
# Static dielectric constant tensor:
#      x y z
#    x 1.881800 0.000000 0.000000 
#    y 0.000000 1.813340 0.000000 
#    z 0.000000 0.000000 1.777860 
# 
# From -- ./inp_files/21696.got.cif
#   From: 2010.05.17/outbox.cif.g08.bks.cpg/sg38_11_cif.got.tgz:21696.got - 2010.06.03 18:07:57.
