data_PCOD9358958
_publ_section_title
;
Structure prediction by ZEFSAII (Michael W. Deem and Ramdas Pophale) SiO2 
 PCOD9358958
Probable space group: A M M 2
;
_chemical_formula_sum "Si O2"
_cell_formula_units_Z 64
_cell_length_a 14.371336
_cell_length_b 23.356617
_cell_length_c 9.385667
_cell_angle_alpha 90.000000
_cell_angle_beta 90.000000
_cell_angle_gamma 90.000000
_cell_volume 3150.447335
_symmetry_space_group_name_H-M "A M M 2"
_symmetry_group_IT_number 38
_symmetry_cell_setting 'orthorhombic'
loop_
_space_group_symop_operation_xyz
x,y,z
-x,-y,z
-x,y,z
x,-y,z
x,1/2+y,1/2+z
-x,1/2-y,1/2+z
-x,1/2+y,1/2+z
x,1/2-y,1/2+z
loop_
_atom_site_type_symbol
_atom_site_label
_atom_site_fract_x
_atom_site_fract_y
_atom_site_fract_z
Si Si1 0.205716 0.256307 0.034720
Si Si2 0.391665 0.143246 0.886154
Si Si3 0.703298 0.151326 0.177932
Si Si4 0.608163 0.434142 0.126661
Si Si5 0.109962 0.814891 0.783824
Si Si6 0.888231 0.435013 0.183742
Si Si7 0.767879 0.565347 0.904434
Si Si8 0.395879 0.220432 0.403964
O O1 0.232513 0.204544 0.138185
O O2 0.136354 0.295436 0.123859
O O3 0.163161 0.225509 0.895901
O O4 0.303324 0.288156 0.999067
O O5 0.500000 0.128212 0.906187
O O6 0.358863 0.109102 0.748145
O O7 0.387869 0.212049 0.864542
O O8 0.336394 0.128518 0.029196
O O9 0.761193 0.107674 0.272894
O O10 0.619178 0.179389 0.269275
O O11 0.500000 0.422813 0.096047
O O12 0.616393 0.500000 0.177265
O O13 0.669650 0.429291 0.986679
O O14 0.136020 0.882392 0.788307
O O15 0.000000 0.809293 0.807922
O O16 0.859443 0.500000 0.226232
O O17 0.000000 0.434474 0.171082
O O18 0.842976 0.424153 0.028721
O O19 0.779787 0.500000 0.856270
O O20 0.500000 0.212345 0.466226
#
# Coordination Sequence:
#
# PCOD9358958 Si02
#       8
#     8   8   8   8   8   8   8   8
#     4  11  23  41  59  95 127 163 205 254 309 373
#     4   9  20  35  53  81 115 155 197 240 293 352
#     4  11  22  37  58  84 121 157 195 250 297 359
#     4   9  19  36  57  83 115 153 198 246 295 355
#     4  11  23  42  67  93 127 165 204 256 315 373
#     4   9  20  39  65  93 119 155 205 256 306 366
#     4  10  22  39  60  87 116 154 201 249 305 359
#     4  10  21  37  58  84 120 160 201 246 302 362
#
# _framework density 20.314575999999999
#
# number of rings (size 3 to 8) (size 9 to 14) (size 15 to 20)
#    0.000    2.000    1.250    1.500    3.500    4.000 
#    0.000    5.000    0.000    0.000    0.000    0.000 
#    0.000    0.000    0.000    0.000    0.000    0.000 
#
# Total GULP energy -178696.462021 kJ/mol
# GULP energy per Si atom -5584.264438 kJ/mol
# Density = 2.026834 g / cm^3
# Si number density = 20.314576 Si / 1000 Ang^3
#
#
#
# Elastic Constant Matrix: (Units=GPa)
#
#
# Indices 1 2 3 4 5 6 
#
# 1 86.3539 14.3276 13.3080 0.0000 0.0000 0.0000
# 2 14.3276 72.9482 35.5685 0.0000 0.0000 0.0000
# 3 13.3080 35.5685 50.1699 0.0000 0.0000 0.0000
# 4 0.0000 0.0000 0.0000 34.8154 0.0000 0.0000
# 5 0.0000 0.0000 0.0000 0.0000 13.8548 0.0000
# 6 0.0000 0.0000 0.0000 0.0000 0.0000 9.0051
#
#
#
# Elastic Compliance Matrix: (Units=1/GPa)
#
#
# Indices 1 2 3 4 5 6 
#
# 1 0.012147 -0.001245 -0.002339 0.000000 0.000000 0.000000
# 2 -0.001245 0.021078 -0.014613 0.000000 0.000000 0.000000
# 3 -0.002339 -0.014613 0.030913 0.000000 0.000000 0.000000
# 4 0.000000 0.000000 0.000000 0.028723 0.000000 0.000000
# 5 0.000000 0.000000 0.000000 0.000000 0.072177 0.000000
# 6 0.000000 0.000000 0.000000 0.000000 0.000000 0.111048
#
#
# Mechanical properties :
#
#
# Convention : Reuss Voigt Hill
#
# Bulk Modulus (GPa) = 36.04535 37.32002 36.68268
# Shear Modulus (GPa) = 15.54097 21.28627 18.41362
#
# Velocity S-wave (km/s) = 2.76889 3.24054 3.01395
# Velocity P-wave (km/s) = 5.29192 5.69319 5.49622
#
# Compressibility (1/GPa) = 0.02774283
#
# Stress axis : x y z
#
# Youngs Moduli (GPa) = 82.32233 47.44251 32.34882
#
# Poissons Ratio (x) = 0.05907 0.07568
# Poissons Ratio (y) = 0.10251 0.47272
# Poissons Ratio (z) = 0.19259 0.69329
#
# Static dielectric constant tensor:
#      x y z
#    x 1.731860 0.000000 0.000000 
#    y 0.000000 1.771320 0.000000 
#    z 0.000000 0.000000 1.722500 
# 
# From -- ./inp_files/5895.got.cif
#   From: 2010.05.17/outbox.cif.g08.bks.cpg/sg38_3_cif.got.tgz:5895.got - 2010.06.03 18:07:57.
