data_PCOD9358522
_publ_section_title
;
Structure prediction by ZEFSAII (Michael W. Deem and Ramdas Pophale) SiO2 
 PCOD9358522
Probable space group: A M M 2
;
_chemical_formula_sum "Si O2"
_cell_formula_units_Z 58
_cell_length_a 7.382475
_cell_length_b 26.573575
_cell_length_c 12.489307
_cell_angle_alpha 90.000000
_cell_angle_beta 90.000000
_cell_angle_gamma 90.000000
_cell_volume 2450.136674
_symmetry_space_group_name_H-M "A M M 2"
_symmetry_group_IT_number 38
_symmetry_cell_setting 'orthorhombic'
loop_
_space_group_symop_operation_xyz
x,y,z
-x,-y,z
-x,y,z
x,-y,z
x,1/2+y,1/2+z
-x,1/2-y,1/2+z
-x,1/2+y,1/2+z
x,1/2-y,1/2+z
loop_
_atom_site_type_symbol
_atom_site_label
_atom_site_fract_x
_atom_site_fract_y
_atom_site_fract_z
Si Si1 0.292992 0.166575 0.009670
Si Si2 0.708218 0.908935 0.392413
Si Si3 0.218679 0.445709 0.483718
Si Si4 0.721498 0.823507 0.241075
Si Si5 0.000000 0.000000 0.423922
Si Si6 0.282789 0.216228 0.793974
Si Si7 0.780284 0.946443 0.733902
Si Si8 0.213681 0.147194 0.599142
O O1 0.500000 0.184732 0.007704
O O2 0.292269 0.106441 0.025247
O O3 0.211597 0.185634 0.120188
O O4 0.214343 0.182577 0.894262
O O5 0.500000 0.925865 0.377033
O O6 0.775766 0.877127 0.289511
O O7 0.705460 0.865075 0.483920
O O8 0.841031 0.954816 0.421499
O O9 0.275704 0.500000 0.529662
O O10 0.269071 0.445647 0.358059
O O11 0.000000 0.443753 0.490277
O O12 0.500000 0.824682 0.239692
O O13 0.776232 0.773910 0.306519
O O14 0.500000 0.214662 0.796514
O O15 0.237477 0.194912 0.676167
O O16 0.713448 0.898567 0.672194
O O17 0.000000 0.945356 0.730210
O O18 0.723734 0.000000 0.686262
O O19 0.000000 0.141399 0.583617
#
# Coordination Sequence:
#
# PCOD9358522 Si02
#       8
#     8   8   8   8   2   8   8   8
#     4  10  20  37  61  91 125 164 217 277 336 404
#     4  11  25  47  74 103 141 189 236 292 363 425
#     4   9  17  33  53  80 115 160 204 247 313 387
#     4   9  22  44  67  93 129 177 232 288 348 417
#     4  12  26  52  76 106 142 180 242 300 346 436
#     4  10  21  38  65  96 130 179 232 287 353 419
#     4   8  15  27  49  75 116 165 204 258 327 386
#     4  11  21  36  62  97 139 178 230 294 346 412
#
# _framework density 23.672148
#
# number of rings (size 3 to 8) (size 9 to 14) (size 15 to 20)
#    0.000    2.207    2.069    1.448    2.897    0.276 
#    3.724    0.000    0.000    0.000    0.000    0.000 
#    0.000    0.000    0.000    0.000    0.000    0.000 
#
# Total GULP energy -161552.145470 kJ/mol
# GULP energy per Si atom -5570.763637 kJ/mol
# Density = 2.361827 g / cm^3
# Si number density = 23.672148 Si / 1000 Ang^3
#
#
#
# Elastic Constant Matrix: (Units=GPa)
#
#
# Indices 1 2 3 4 5 6 
#
# 1 114.9929 11.6335 7.5864 0.0000 0.0000 0.0000
# 2 11.6335 112.4347 31.2380 0.0000 0.0000 0.0000
# 3 7.5864 31.2380 77.7994 0.0000 0.0000 0.0000
# 4 0.0000 0.0000 0.0000 16.3697 0.0000 0.0000
# 5 0.0000 0.0000 0.0000 0.0000 -22.8610 0.0000
# 6 0.0000 0.0000 0.0000 0.0000 0.0000 39.1644
#
#
#
# Elastic Compliance Matrix: (Units=1/GPa)
#
#
# Indices 1 2 3 4 5 6 
#
# 1 0.008809 -0.000757 -0.000555 0.000000 0.000000 0.000000
# 2 -0.000757 0.010076 -0.003972 0.000000 0.000000 0.000000
# 3 -0.000555 -0.003972 0.014502 0.000000 0.000000 0.000000
# 4 0.000000 0.000000 0.000000 0.061089 0.000000 0.000000
# 5 0.000000 0.000000 0.000000 0.000000 -0.043743 0.000000
# 6 0.000000 0.000000 0.000000 0.000000 0.000000 0.025533
#
#
# Mechanical properties :
#
#
# Convention : Reuss Voigt Hill
#
# Bulk Modulus (GPa) = 43.82201 45.12699 44.47450
# Shear Modulus (GPa) = 52.94268 23.51922 38.23095
#
# Velocity S-wave (km/s) = 4.73429 3.15547 4.02309
# Velocity P-wave (km/s) = 6.95966 5.69040 6.35679
#
# Compressibility (1/GPa) = 0.02281958
#
# Stress axis : x y z
#
# Youngs Moduli (GPa) = 113.51488 99.24657 68.95391
#
# Poissons Ratio (x) = 0.07516 0.03827
# Poissons Ratio (y) = 0.08597 0.27387
# Poissons Ratio (z) = 0.06299 0.39419
#
# Static dielectric constant tensor:
#      x y z
#    x 1.929120 0.000000 0.000000 
#    y 0.000000 1.910010 0.000000 
#    z 0.000000 0.000000 1.941430 
# 
# From -- ./inp_files/8341.got.cif
#   From: 2010.05.17/outbox.cif.g08.bks.cpg/sg38_5_cif.got.tgz:8341.got - 2010.06.03 18:07:57.
