data_PCOD9358299
_publ_section_title
;
Structure prediction by ZEFSAII (Michael W. Deem and Ramdas Pophale) SiO2 
 PCOD9358299
Probable space group: A M M 2
;
_chemical_formula_sum "Si O2"
_cell_formula_units_Z 48
_cell_length_a 8.347140
_cell_length_b 15.902151
_cell_length_c 19.265502
_cell_angle_alpha 90.000000
_cell_angle_beta 90.000000
_cell_angle_gamma 90.000000
_cell_volume 2557.254200
_symmetry_space_group_name_H-M "A M M 2"
_symmetry_group_IT_number 38
_symmetry_cell_setting 'orthorhombic'
loop_
_space_group_symop_operation_xyz
x,y,z
-x,-y,z
-x,y,z
x,-y,z
x,1/2+y,1/2+z
-x,1/2-y,1/2+z
-x,1/2+y,1/2+z
x,1/2-y,1/2+z
loop_
_atom_site_type_symbol
_atom_site_label
_atom_site_fract_x
_atom_site_fract_y
_atom_site_fract_z
Si Si1 0.808407 0.656205 0.067280
Si Si2 0.693556 0.158621 0.067512
Si Si3 0.691320 0.000000 0.657181
Si Si4 0.303736 0.000000 0.816165
Si Si5 0.693282 0.157866 0.907597
Si Si6 0.806673 0.657269 0.907606
Si Si7 0.193950 0.000000 0.315833
Si Si8 0.306143 0.000000 0.158055
O O1 0.752211 0.749117 0.089024
O O2 0.746935 0.582626 0.116285
O O3 0.000000 0.654038 0.066982
O O4 0.752489 0.643218 0.987357
O O5 0.500000 0.159111 0.067836
O O6 0.748481 0.083377 0.116996
O O7 0.745758 0.144167 0.987568
O O8 0.750340 0.000000 0.736621
O O9 0.500000 0.000000 0.659067
O O10 0.251763 0.916895 0.857741
O O11 0.500000 0.000000 0.816393
O O12 0.500000 0.157411 0.907579
O O13 0.750318 0.250240 0.885797
O O14 0.751213 0.582931 0.857400
O O15 0.000000 0.656500 0.908094
O O16 0.250565 0.000000 0.237025
O O17 0.000000 0.000000 0.316655
O O18 0.500000 0.000000 0.156651
#
# Coordination Sequence:
#
# PCOD9358299 Si02
#       8
#     8   8   4   4   8   8   4   4
#     4  10  20  36  57  78 102 135 175 216 258 306
#     4   9  18  34  56  80 104 133 172 216 258 301
#     4  11  22  35  52  77 110 141 170 210 258 307
#     4   9  19  34  52  76 106 137 166 204 256 305
#     4   9  17  33  57  79  99 130 172 211 250 302
#     4   9  19  36  55  75 101 133 170 215 260 298
#     4  10  21  36  52  72 103 140 172 206 256 312
#     4  10  21  35  52  77 109 140 170 210 258 306
#
# _framework density 18.770132
#
# number of rings (size 3 to 8) (size 9 to 14) (size 15 to 20)
#    0.000    2.500    0.000    1.750    0.000    6.667 
#    0.000    7.917    0.000    4.000    0.000    0.000 
#    0.000    0.000    0.000    0.000    0.000    0.000 
#
# Total GULP energy -133954.217697 kJ/mol
# GULP energy per Si atom -5581.425737 kJ/mol
# Density = 1.872741 g / cm^3
# Si number density = 18.770132 Si / 1000 Ang^3
#
#
#
# Elastic Constant Matrix: (Units=GPa)
#
#
# Indices 1 2 3 4 5 6 
#
# 1 9.7665 24.7537 18.6546 0.0000 0.0000 0.0000
# 2 24.7537 222.1537 143.8280 0.0000 0.0000 0.0000
# 3 18.6546 143.8280 134.8882 0.0000 0.0000 0.0000
# 4 0.0000 0.0000 0.0000 -7.3288 0.0000 0.0000
# 5 0.0000 0.0000 0.0000 0.0000 22.1963 0.0000
# 6 0.0000 0.0000 0.0000 0.0000 0.0000 131.9979
#
#
#
# Elastic Compliance Matrix: (Units=1/GPa)
#
#
# Indices 1 2 3 4 5 6 
#
# 1 0.146137 -0.010330 -0.009196 0.000000 0.000000 0.000000
# 2 -0.010330 0.015266 -0.014850 0.000000 0.000000 0.000000
# 3 -0.009196 -0.014850 0.024519 0.000000 0.000000 0.000000
# 4 0.000000 0.000000 0.000000 -0.136448 0.000000 0.000000
# 5 0.000000 0.000000 0.000000 0.000000 0.045053 0.000000
# 6 0.000000 0.000000 0.000000 0.000000 0.000000 0.007576
#
#
# Mechanical properties :
#
#
# Convention : Reuss Voigt Hill
#
# Bulk Modulus (GPa) = 8.53446 82.36455 45.44950
# Shear Modulus (GPa) = 23.81959 41.34454 32.58207
#
# Velocity S-wave (km/s) = 3.56619 4.69836 4.17087
# Velocity P-wave (km/s) = 4.63828 8.56789 6.88921
#
# Compressibility (1/GPa) = 0.11717197
#
# Stress axis : x y z
#
# Youngs Moduli (GPa) = 6.84289 65.50319 40.78455
#
# Poissons Ratio (x) = 0.67664 0.37505
# Poissons Ratio (y) = 0.07069 0.60564
# Poissons Ratio (z) = 0.06293 0.97270
#
# Static dielectric constant tensor:
#      x y z
#    x 1.654460 0.000000 0.000000 
#    y 0.000000 1.626060 0.000000 
#    z 0.000000 0.000000 1.635380 
# 
# From -- ./inp_files/16749.got.cif
#   From: 2010.05.17/outbox.cif.g08.bks.cpg/sg38_9_cif.got.tgz:16749.got - 2010.06.03 18:07:57.
