data_PCOD9358989
_publ_section_title
;
Structure prediction by ZEFSAII (Michael W. Deem and Ramdas Pophale) SiO2 
 PCOD9358989
Probable space group: A M M 2
;
_chemical_formula_sum "Si O2"
_cell_formula_units_Z 48
_cell_length_a 8.520796
_cell_length_b 14.830544
_cell_length_c 20.813452
_cell_angle_alpha 90.000000
_cell_angle_beta 90.000000
_cell_angle_gamma 90.000000
_cell_volume 2630.155135
_symmetry_space_group_name_H-M "A M M 2"
_symmetry_group_IT_number 38
_symmetry_cell_setting 'orthorhombic'
loop_
_space_group_symop_operation_xyz
x,y,z
-x,-y,z
-x,y,z
x,-y,z
x,1/2+y,1/2+z
-x,1/2-y,1/2+z
-x,1/2+y,1/2+z
x,1/2-y,1/2+z
loop_
_atom_site_type_symbol
_atom_site_label
_atom_site_fract_x
_atom_site_fract_y
_atom_site_fract_z
Si Si1 0.191006 0.500000 0.775060
Si Si2 0.187743 0.195186 0.077662
Si Si3 0.689688 0.500000 0.379316
Si Si4 0.312593 0.808082 0.937923
Si Si5 0.313432 0.807228 0.696492
Si Si6 0.187076 0.500000 0.233559
Si Si7 0.190846 0.500000 0.626346
Si Si8 0.188381 0.303900 0.818489
O O1 0.242092 0.500000 0.700652
O O2 0.239947 0.407412 0.808656
O O3 0.000000 0.500000 0.774031
O O4 0.263794 0.260590 0.130107
O O5 0.000000 0.198919 0.085488
O O6 0.241370 0.092418 0.092706
O O7 0.234381 0.217309 0.005131
O O8 0.500000 0.500000 0.372318
O O9 0.735729 0.590606 0.416782
O O10 0.762330 0.500000 0.308398
O O11 0.500000 0.807333 0.945236
O O12 0.263143 0.742517 0.880375
O O13 0.500000 0.804910 0.704243
O O14 0.254474 0.909581 0.701860
O O15 0.236749 0.751359 0.755023
O O16 0.000000 0.500000 0.229370
O O17 0.000000 0.500000 0.625985
O O18 0.000000 0.301339 0.824181
#
# Coordination Sequence:
#
# PCOD9358989 Si02
#       8
#     4   8   4   8   8   4   4   8
#     4   9  18  35  60  90 121 150 194 254 298 340
#     4  11  22  39  62  89 122 162 208 251 299 364
#     4  10  21  37  59  88 129 163 194 246 310 369
#     4  11  23  39  58  87 127 164 199 249 312 364
#     4  12  24  40  61  89 125 160 197 250 309 362
#     4  12  24  39  64  93 119 155 207 253 298 361
#     4   9  17  33  59  91 123 152 191 251 302 346
#     4  11  21  38  63  89 118 159 206 249 297 361
#
# _framework density 18.249873999999998
#
# number of rings (size 3 to 8) (size 9 to 14) (size 15 to 20)
#    0.000    1.167    3.333    4.250    0.000    0.667 
#    0.000    4.583    0.000    1.000    0.000    0.000 
#    0.000    0.000    0.000    0.000    0.000    0.000 
#
# Total GULP energy -134183.882606 kJ/mol
# GULP energy per Si atom -5590.995109 kJ/mol
# Density = 1.820834 g / cm^3
# Si number density = 18.249874 Si / 1000 Ang^3
#
#
#
# Elastic Constant Matrix: (Units=GPa)
#
#
# Indices 1 2 3 4 5 6 
#
# 1 33.5627 2.8206 -9.5793 0.0000 0.0000 0.0000
# 2 2.8206 125.4565 38.8690 0.0000 0.0000 0.0000
# 3 -9.5793 38.8690 96.0664 0.0000 0.0000 0.0000
# 4 0.0000 0.0000 0.0000 9.9820 0.0000 0.0000
# 5 0.0000 0.0000 0.0000 0.0000 26.2874 0.0000
# 6 0.0000 0.0000 0.0000 0.0000 0.0000 19.1878
#
#
#
# Elastic Compliance Matrix: (Units=1/GPa)
#
#
# Indices 1 2 3 4 5 6 
#
# 1 0.031057 -0.001895 0.003864 0.000000 0.000000 0.000000
# 2 -0.001895 0.009229 -0.003923 0.000000 0.000000 0.000000
# 3 0.003864 -0.003923 0.012382 0.000000 0.000000 0.000000
# 4 0.000000 0.000000 0.000000 0.100180 0.000000 0.000000
# 5 0.000000 0.000000 0.000000 0.000000 0.038041 0.000000
# 6 0.000000 0.000000 0.000000 0.000000 0.000000 0.052116
#
#
# Mechanical properties :
#
#
# Convention : Reuss Voigt Hill
#
# Bulk Modulus (GPa) = 20.50917 35.47849 27.99383
# Shear Modulus (GPa) = 18.99927 25.95646 22.47787
#
# Velocity S-wave (km/s) = 3.23005 3.77541 3.51333
# Velocity P-wave (km/s) = 5.01731 6.20383 5.64185
#
# Compressibility (1/GPa) = 0.04875867
#
# Stress axis : x y z
#
# Youngs Moduli (GPa) = 32.19882 108.35468 80.76219
#
# Poissons Ratio (x) = 0.20537 -0.31204
# Poissons Ratio (y) = 0.06103 0.31684
# Poissons Ratio (z) = -0.12441 0.42508
#
# Static dielectric constant tensor:
#      x y z
#    x 1.618540 0.000000 0.000000 
#    y 0.000000 1.620220 0.000000 
#    z 0.000000 0.000000 1.586720 
# 
# From -- ./inp_files/16740.got.cif
#   From: 2010.05.17/outbox.cif.g08.bks.cpg/sg38_9_cif.got.tgz:16740.got - 2010.06.03 18:07:57.
