data_PCOD9358286
_publ_section_title
;
Structure prediction by ZEFSAII (Michael W. Deem and Ramdas Pophale) SiO2 
 PCOD9358286
Probable space group: A M M 2
;
_chemical_formula_sum "Si O2"
_cell_formula_units_Z 40
_cell_length_a 8.174504
_cell_length_b 7.828760
_cell_length_c 29.258744
_cell_angle_alpha 90.000000
_cell_angle_beta 90.000000
_cell_angle_gamma 90.000000
_cell_volume 1872.449309
_symmetry_space_group_name_H-M "A M M 2"
_symmetry_group_IT_number 38
_symmetry_cell_setting 'orthorhombic'
loop_
_space_group_symop_operation_xyz
x,y,z
-x,-y,z
-x,y,z
x,-y,z
x,1/2+y,1/2+z
-x,1/2-y,1/2+z
-x,1/2+y,1/2+z
x,1/2-y,1/2+z
loop_
_atom_site_type_symbol
_atom_site_label
_atom_site_fract_x
_atom_site_fract_y
_atom_site_fract_z
Si Si1 0.500000 0.808415 0.644290
Si Si2 0.812659 0.198658 0.086984
Si Si3 0.313315 0.207278 0.387928
Si Si4 0.804905 0.301859 0.984759
Si Si5 0.500000 0.696200 0.743987
Si Si6 0.822839 0.790552 0.292737
O O1 0.664317 0.780832 0.614803
O O2 0.500000 0.695592 0.689540
O O3 0.500000 0.000000 0.661972
O O4 0.773189 0.213640 0.033021
O O5 0.000000 0.267356 0.093294
O O6 0.816512 0.000000 0.099754
O O7 0.500000 0.247370 0.376163
O O8 0.272201 0.271397 0.438576
O O9 0.202495 0.261218 0.345582
O O10 0.297958 0.000000 0.390684
O O11 0.752381 0.500000 0.989988
O O12 0.000000 0.300055 0.977636
O O13 0.500000 0.500000 0.760768
O O14 0.332161 0.771261 0.763823
O O15 0.000000 0.733744 0.275718
O O16 0.823544 0.000000 0.291641
#
# Coordination Sequence:
#
# PCOD9358286 Si02
#       6
#     4   8   8   8   4   8
#     4  12  26  42  63  86 113 149 190 241 297 356
#     4  10  22  41  63  87 117 152 193 240 289 345
#     4   9  15  24  42  74 114 150 185 225 269 321
#     4   9  17  29  48  78 115 152 190 230 274 328
#     4  10  20  36  55  80 109 137 182 239 287 340
#     4   9  16  28  49  77 110 146 182 226 278 327
#
# _framework density 21.362393000000001
#
# number of rings (size 3 to 8) (size 9 to 14) (size 15 to 20)
#    0.000    2.400    1.000    2.100    1.400    4.400 
#    0.000    2.000    0.000    1.200    0.000    0.000 
#    0.000    0.000    0.000    0.000    0.000    0.000 
#
# Total GULP energy -111585.899904 kJ/mol
# GULP energy per Si atom -5579.294995 kJ/mol
# Density = 2.131377 g / cm^3
# Si number density = 21.362393 Si / 1000 Ang^3
#
#
#
# Elastic Constant Matrix: (Units=GPa)
#
#
# Indices 1 2 3 4 5 6 
#
# 1 150.7748 8.0278 72.8743 0.0000 0.0000 0.0000
# 2 8.0278 30.8902 -11.3960 0.0000 0.0000 0.0000
# 3 72.8743 -11.3960 88.2776 0.0000 0.0000 0.0000
# 4 0.0000 0.0000 0.0000 11.9923 0.0000 0.0000
# 5 0.0000 0.0000 0.0000 0.0000 7.4517 0.0000
# 6 0.0000 0.0000 0.0000 0.0000 0.0000 0.9260
#
#
#
# Elastic Compliance Matrix: (Units=1/GPa)
#
#
# Indices 1 2 3 4 5 6 
#
# 1 0.012456 -0.007382 -0.011236 0.000000 0.000000 0.000000
# 2 -0.007382 0.038367 0.011047 0.000000 0.000000 0.000000
# 3 -0.011236 0.011047 0.022029 0.000000 0.000000 0.000000
# 4 0.000000 0.000000 0.000000 0.083387 0.000000 0.000000
# 5 0.000000 0.000000 0.000000 0.000000 0.134197 0.000000
# 6 0.000000 0.000000 0.000000 0.000000 0.000000 1.079927
#
#
# Mechanical properties :
#
#
# Convention : Reuss Voigt Hill
#
# Bulk Modulus (GPa) = 17.32800 45.43940 31.38370
# Shear Modulus (GPa) = 3.55938 17.43644 10.49791
#
# Velocity S-wave (km/s) = 1.29221 2.86006 2.21920
# Velocity P-wave (km/s) = 3.21799 5.67657 4.61405
#
# Compressibility (1/GPa) = 0.05771008
#
# Stress axis : x y z
#
# Youngs Moduli (GPa) = 80.28297 26.06436 45.39463
#
# Poissons Ratio (x) = 0.19241 0.51003
# Poissons Ratio (y) = 0.59265 -0.50147
# Poissons Ratio (z) = 0.90202 -0.28793
#
# Static dielectric constant tensor:
#      x y z
#    x 1.772820 0.000000 0.000000 
#    y 0.000000 1.795350 0.000000 
#    z 0.000000 0.000000 1.738300 
# 
# From -- ./inp_files/23258.got.cif
#   From: 2010.05.17/outbox.cif.g08.bks.cpg/sg38_12_cif.got.tgz:23258.got - 2010.06.03 18:07:57.
