data_PCOD9358808
_publ_section_title
;
Structure prediction by ZEFSAII (Michael W. Deem and Ramdas Pophale) SiO2 
 PCOD9358808
Probable space group: A M M 2
;
_chemical_formula_sum "Si O2"
_cell_formula_units_Z 64
_cell_length_a 18.350432
_cell_length_b 15.244299
_cell_length_c 12.037081
_cell_angle_alpha 90.000000
_cell_angle_beta 90.000000
_cell_angle_gamma 90.000000
_cell_volume 3367.246686
_symmetry_space_group_name_H-M "A M M 2"
_symmetry_group_IT_number 38
_symmetry_cell_setting 'orthorhombic'
loop_
_space_group_symop_operation_xyz
x,y,z
-x,-y,z
-x,y,z
x,-y,z
x,1/2+y,1/2+z
-x,1/2-y,1/2+z
-x,1/2+y,1/2+z
x,1/2-y,1/2+z
loop_
_atom_site_type_symbol
_atom_site_label
_atom_site_fract_x
_atom_site_fract_y
_atom_site_fract_z
Si Si1 0.348549 0.642381 0.346500
Si Si2 0.417570 0.104409 0.614920
Si Si3 0.285483 0.898824 0.226560
Si Si4 0.180418 0.260984 0.608545
Si Si5 0.419259 0.102241 0.081965
Si Si6 0.815047 0.597915 0.271049
Si Si7 0.699727 0.818085 0.448146
Si Si8 0.913912 0.599411 0.490558
O O1 0.400661 0.623089 0.243612
O O2 0.381925 0.607543 0.461323
O O3 0.268430 0.606541 0.314239
O O4 0.336707 0.743931 0.372217
O O5 0.500000 0.131017 0.586238
O O6 0.356749 0.151808 0.541568
O O7 0.411394 0.000000 0.597246
O O8 0.227181 0.832099 0.176874
O O9 0.362097 0.866352 0.173695
O O10 0.283242 0.893290 0.359556
O O11 0.274062 0.000000 0.190718
O O12 0.167674 0.176638 0.686469
O O13 0.230268 0.224772 0.507361
O O14 0.113369 0.318688 0.563851
O O15 0.500000 0.143213 0.082577
O O16 0.427852 0.000000 0.107301
O O17 0.822688 0.500000 0.221242
O O18 0.867953 0.604004 0.376826
O O19 0.899940 0.500000 0.537128
O O20 0.000000 0.605698 0.470230
#
# Coordination Sequence:
#
# PCOD9358808 Si02
#       8
#     8   8   8   8   8   8   8   8
#     4  12  21  38  60  86 118 155 211 263 316 372
#     4  11  25  42  59  83 119 166 218 272 331 385
#     4  11  22  38  60  85 118 159 205 258 311 375
#     4  12  21  41  62  94 123 162 209 252 306 370
#     4  10  21  36  55  80 111 152 203 260 321 379
#     4  11  22  38  65  93 126 163 204 257 308 368
#     4  12  23  39  57  88 121 159 207 264 320 377
#     4  10  22  41  66  98 132 164 200 250 313 374
#
# _framework density 19.006627000000002
#
# number of rings (size 3 to 8) (size 9 to 14) (size 15 to 20)
#    0.000    0.875    5.000    2.250    0.000    5.500 
#    0.000    1.250    0.000    0.000    0.000    0.000 
#    0.000    0.000    0.000    0.000    0.000    0.000 
#
# Total GULP energy -178674.457345 kJ/mol
# GULP energy per Si atom -5583.576792 kJ/mol
# Density = 1.896337 g / cm^3
# Si number density = 19.006627 Si / 1000 Ang^3
#
#
#
# Elastic Constant Matrix: (Units=GPa)
#
#
# Indices 1 2 3 4 5 6 
#
# 1 78.1520 29.8424 22.2485 0.0000 0.0000 0.0000
# 2 29.8424 116.3602 27.0137 0.0000 0.0000 0.0000
# 3 22.2485 27.0137 74.3887 0.0000 0.0000 0.0000
# 4 0.0000 0.0000 0.0000 38.5612 0.0000 0.0000
# 5 0.0000 0.0000 0.0000 0.0000 -8.7114 0.0000
# 6 0.0000 0.0000 0.0000 0.0000 0.0000 22.5469
#
#
#
# Elastic Compliance Matrix: (Units=1/GPa)
#
#
# Indices 1 2 3 4 5 6 
#
# 1 0.014914 -0.003046 -0.003354 0.000000 0.000000 0.000000
# 2 -0.003046 0.010007 -0.002723 0.000000 0.000000 0.000000
# 3 -0.003354 -0.002723 0.015435 0.000000 0.000000 0.000000
# 4 0.000000 0.000000 0.000000 0.025933 0.000000 0.000000
# 5 0.000000 0.000000 0.000000 0.000000 -0.114792 0.000000
# 6 0.000000 0.000000 0.000000 0.000000 0.000000 0.044352
#
#
# Mechanical properties :
#
#
# Convention : Reuss Voigt Hill
#
# Bulk Modulus (GPa) = 45.23023 47.45668 46.34345
# Shear Modulus (GPa) = 232.93018 23.13244 128.03131
#
# Velocity S-wave (km/s) = 11.08233 3.49244 8.21630
# Velocity P-wave (km/s) = 13.69694 6.42538 10.69794
#
# Compressibility (1/GPa) = 0.02210911
#
# Stress axis : x y z
#
# Youngs Moduli (GPa) = 67.05273 99.92607 64.78797
#
# Poissons Ratio (x) = 0.30439 0.21732
# Poissons Ratio (y) = 0.20425 0.17642
# Poissons Ratio (z) = 0.22491 0.27210
#
# Static dielectric constant tensor:
#      x y z
#    x 1.676340 0.000000 0.000000 
#    y 0.000000 1.645840 0.000000 
#    z 0.000000 0.000000 1.658100 
# 
# From -- ./inp_files/10590.got.cif
#   From: 2010.05.17/outbox.cif.g08.bks.cpg/sg38_6_cif.got.tgz:10590.got - 2010.06.03 18:07:57.
