data_PCOD9358515
_publ_section_title
;
Structure prediction by ZEFSAII (Michael W. Deem and Ramdas Pophale) SiO2 
 PCOD9358515
Probable space group: A M M 2
;
_chemical_formula_sum "Si O2"
_cell_formula_units_Z 58
_cell_length_a 10.948834
_cell_length_b 7.795320
_cell_length_c 35.355405
_cell_angle_alpha 90.000000
_cell_angle_beta 90.000000
_cell_angle_gamma 90.000000
_cell_volume 3017.571961
_symmetry_space_group_name_H-M "A M M 2"
_symmetry_group_IT_number 38
_symmetry_cell_setting 'orthorhombic'
loop_
_space_group_symop_operation_xyz
x,y,z
-x,-y,z
-x,y,z
x,-y,z
x,1/2+y,1/2+z
-x,1/2-y,1/2+z
-x,1/2+y,1/2+z
x,1/2-y,1/2+z
loop_
_atom_site_type_symbol
_atom_site_label
_atom_site_fract_x
_atom_site_fract_y
_atom_site_fract_z
Si Si1 0.140304 0.295516 0.878480
Si Si2 0.860647 0.207094 0.965357
Si Si3 0.500000 0.500000 0.810988
Si Si4 0.859696 0.295516 0.743496
Si Si5 0.860647 0.292906 0.156618
Si Si6 0.307672 0.812060 0.810988
Si Si7 0.636793 0.793382 0.605086
Si Si8 0.636793 0.293382 0.516889
O O1 0.149196 0.500000 0.872865
O O2 0.168775 0.255204 0.922144
O O3 0.225325 0.204945 0.848418
O O4 0.000000 0.243455 0.872294
O O5 0.000000 0.268128 0.973841
O O6 0.863531 0.000000 0.968045
O O7 0.751932 0.270575 0.992520
O O8 0.396043 0.651153 0.810988
O O9 0.850804 0.500000 0.749110
O O10 0.831225 0.255204 0.699832
O O11 0.774675 0.204945 0.773557
O O12 0.000000 0.243455 0.749681
O O13 0.863531 0.500000 0.153930
O O14 0.751932 0.229425 0.129456
O O15 0.000000 0.231872 0.148135
O O16 0.364997 0.000000 0.810988
O O17 0.500000 0.731466 0.616404
O O18 0.653163 0.750000 0.560988
O O19 0.635249 0.000000 0.608674
O O20 0.500000 0.231466 0.505572
O O21 0.635249 0.500000 0.513302
#
# Coordination Sequence:
#
# PCOD9358515 Si02
#       8
#     8   8   2   8   8   8   8   8
#     4  10  20  37  61  89 119 149 191 248 299 355
#     4   9  18  33  52  78 110 143 184 234 288 350
#     4  12  26  48  58  86 128 156 210 254 280 362
#     4  10  20  37  61  89 119 149 191 248 299 355
#     4   9  18  33  52  78 110 143 184 234 288 350
#     4  12  24  42  66  87 119 164 200 246 303 349
#     4   9  18  33  51  72 102 139 184 232 283 349
#     4   9  18  33  51  72 102 139 184 232 283 349
#
# _framework density 19.220749999999999
#
# number of rings (size 3 to 8) (size 9 to 14) (size 15 to 20)
#    0.000    2.207    1.379    1.448    0.000    4.966 
#    2.483    0.000    0.000    0.000    0.000    0.000 
#    0.000    0.000    0.000    0.000    0.000    0.000 
#
# Total GULP energy -161538.567914 kJ/mol
# GULP energy per Si atom -5570.295445 kJ/mol
# Density = 1.917700 g / cm^3
# Si number density = 19.220750 Si / 1000 Ang^3
#
#
#
# Elastic Constant Matrix: (Units=GPa)
#
#
# Indices 1 2 3 4 5 6 
#
# 1 171.9401 42.4352 114.1967 0.0000 0.0000 0.0000
# 2 42.4352 76.2559 23.3070 0.0000 0.0000 0.0000
# 3 114.1967 23.3070 99.0741 0.0000 0.0000 0.0000
# 4 0.0000 0.0000 0.0000 24.2932 0.0000 0.0000
# 5 0.0000 0.0000 0.0000 0.0000 -42.3517 0.0000
# 6 0.0000 0.0000 0.0000 0.0000 0.0000 -174.2457
#
#
#
# Elastic Compliance Matrix: (Units=1/GPa)
#
#
# Indices 1 2 3 4 5 6 
#
# 1 0.027110 -0.005964 -0.029845 0.000000 0.000000 0.000000
# 2 -0.005964 0.015442 0.003242 0.000000 0.000000 0.000000
# 3 -0.029845 0.003242 0.043731 0.000000 0.000000 0.000000
# 4 0.000000 0.000000 0.000000 0.041164 0.000000 0.000000
# 5 0.000000 0.000000 0.000000 0.000000 -0.023612 0.000000
# 6 0.000000 0.000000 0.000000 0.000000 0.000000 -0.005739
#
#
# Mechanical properties :
#
#
# Convention : Reuss Voigt Hill
#
# Bulk Modulus (GPa) = 47.28432 78.57198 62.92815
# Shear Modulus (GPa) = 29.36345 -27.30544 1.02901
#
# Velocity S-wave (km/s) = 3.91281 -3.77320 0.73248
# Velocity P-wave (km/s) = 6.71324 4.68879 5.79018
#
# Compressibility (1/GPa) = 0.02114866
#
# Stress axis : x y z
#
# Youngs Moduli (GPa) = 36.88689 64.75884 22.86703
#
# Poissons Ratio (x) = 0.38625 0.68246
# Poissons Ratio (y) = 0.22001 -0.07414
# Poissons Ratio (z) = 1.10088 -0.20995
#
# Static dielectric constant tensor:
#      x y z
#    x 1.677980 0.000000 0.000000 
#    y 0.000000 1.679020 0.000000 
#    z 0.000000 0.000000 1.631790 
# 
# From -- ./inp_files/23818.got.cif
#   From: 2010.05.17/outbox.cif.g08.bks.cpg/sg38_12_cif.got.tgz:23818.got - 2010.06.03 18:07:57.
