data_PCOD9358251
_publ_section_title
;
Structure prediction by ZEFSAII (Michael W. Deem and Ramdas Pophale) SiO2 
 PCOD9358251
Probable space group: A M M 2
;
_chemical_formula_sum "Si O2"
_cell_formula_units_Z 48
_cell_length_a 14.289251
_cell_length_b 8.846578
_cell_length_c 20.860186
_cell_angle_alpha 90.000000
_cell_angle_beta 90.000000
_cell_angle_gamma 90.000000
_cell_volume 2636.956420
_symmetry_space_group_name_H-M "A M M 2"
_symmetry_group_IT_number 38
_symmetry_cell_setting 'orthorhombic'
loop_
_space_group_symop_operation_xyz
x,y,z
-x,-y,z
-x,y,z
x,-y,z
x,1/2+y,1/2+z
-x,1/2-y,1/2+z
-x,1/2+y,1/2+z
x,1/2-y,1/2+z
loop_
_atom_site_type_symbol
_atom_site_label
_atom_site_fract_x
_atom_site_fract_y
_atom_site_fract_z
Si Si1 0.786264 0.319338 0.940710
Si Si2 0.109836 0.318632 0.318545
Si Si3 0.212440 0.320530 0.695886
Si Si4 0.608091 0.819716 0.640908
Si Si5 0.110909 0.679166 0.074672
Si Si6 0.391820 0.319712 0.499248
O O1 0.782140 0.500000 0.933199
O O2 0.838887 0.246484 0.880915
O O3 0.843139 0.285840 0.006173
O O4 0.683087 0.252170 0.951531
O O5 0.116446 0.500000 0.317892
O O6 0.159220 0.252534 0.255668
O O7 0.000000 0.277088 0.319214
O O8 0.214925 0.500000 0.702322
O O9 0.316798 0.254921 0.687561
O O10 0.158275 0.272825 0.631182
O O11 0.500000 0.789610 0.658556
O O12 0.622824 0.752784 0.569587
O O13 0.622149 0.000000 0.638477
O O14 0.126496 0.500000 0.087386
O O15 0.000000 0.705474 0.072606
O O16 0.500000 0.290745 0.481183
O O17 0.378248 0.500000 0.503573
#
# Coordination Sequence:
#
# PCOD9358251 Si02
#       6
#     8   8   8   8   8   8
#     4  11  22  38  62  90 121 158 201 248 300 357
#     4  11  25  44  64  85 118 163 205 248 302 362
#     4  12  24  38  60  89 121 157 200 249 301 358
#     4  10  20  36  60  89 121 158 199 244 298 357
#     4  10  21  37  58  85 118 155 197 246 298 353
#     4  10  20  35  58  90 125 159 198 245 297 353
#
# _framework density 18.202801999999998
#
# number of rings (size 3 to 8) (size 9 to 14) (size 15 to 20)
#    0.000    1.333    1.667    4.500    0.000    7.000 
#    0.000    0.833    0.000    5.000    0.000    0.000 
#    0.000    0.000    0.000    0.000    0.000    0.000 
#
# Total GULP energy -134191.471545 kJ/mol
# GULP energy per Si atom -5591.311314 kJ/mol
# Density = 1.816137 g / cm^3
# Si number density = 18.202802 Si / 1000 Ang^3
#
#
#
# Elastic Constant Matrix: (Units=GPa)
#
#
# Indices 1 2 3 4 5 6 
#
# 1 164.9712 83.3257 89.7419 0.0000 0.0000 0.0000
# 2 83.3257 100.9786 75.4198 0.0000 0.0000 0.0000
# 3 89.7419 75.4198 127.6996 0.0000 0.0000 0.0000
# 4 0.0000 0.0000 0.0000 35.1519 0.0000 0.0000
# 5 0.0000 0.0000 0.0000 0.0000 32.7647 0.0000
# 6 0.0000 0.0000 0.0000 0.0000 0.0000 27.8694
#
#
#
# Elastic Compliance Matrix: (Units=1/GPa)
#
#
# Indices 1 2 3 4 5 6 
#
# 1 0.011681 -0.006276 -0.004502 0.000000 0.000000 0.000000
# 2 -0.006276 0.021092 -0.008046 0.000000 0.000000 0.000000
# 3 -0.004502 -0.008046 0.015747 0.000000 0.000000 0.000000
# 4 0.000000 0.000000 0.000000 0.028448 0.000000 0.000000
# 5 0.000000 0.000000 0.000000 0.000000 0.030521 0.000000
# 6 0.000000 0.000000 0.000000 0.000000 0.000000 0.035882
#
#
# Mechanical properties :
#
#
# Convention : Reuss Voigt Hill
#
# Bulk Modulus (GPa) = 91.99228 98.95824 95.47526
# Shear Modulus (GPa) = 27.07947 28.83467 27.95707
#
# Velocity S-wave (km/s) = 3.86120 3.98437 3.92326
# Velocity P-wave (km/s) = 8.39795 8.69766 8.54912
#
# Compressibility (1/GPa) = 0.01087048
#
# Stress axis : x y z
#
# Youngs Moduli (GPa) = 85.61091 47.41194 63.50524
#
# Poissons Ratio (x) = 0.29757 0.28590
# Poissons Ratio (y) = 0.53732 0.51097
# Poissons Ratio (z) = 0.38542 0.38148
#
# Static dielectric constant tensor:
#      x y z
#    x 1.630580 0.000000 0.000000 
#    y 0.000000 1.606030 0.000000 
#    z 0.000000 0.000000 1.583630 
# 
# From -- ./inp_files/18161.got.cif
#   From: 2010.05.17/outbox.cif.g08.bks.cpg/sg38_10_cif.got.tgz:18161.got - 2010.06.03 18:07:57.
