data_PCOD9358023
_publ_section_title
;
Structure prediction by ZEFSAII (Michael W. Deem and Ramdas Pophale) SiO2 
 PCOD9358023
Probable space group: A M M 2
;
_chemical_formula_sum "Si O2"
_cell_formula_units_Z 56
_cell_length_a 8.909898
_cell_length_b 14.348230
_cell_length_c 23.380502
_cell_angle_alpha 90.000000
_cell_angle_beta 90.000000
_cell_angle_gamma 90.000000
_cell_volume 2988.992970
_symmetry_space_group_name_H-M "A M M 2"
_symmetry_group_IT_number 38
_symmetry_cell_setting 'orthorhombic'
loop_
_space_group_symop_operation_xyz
x,y,z
-x,-y,z
-x,y,z
x,-y,z
x,1/2+y,1/2+z
-x,1/2-y,1/2+z
-x,1/2+y,1/2+z
x,1/2-y,1/2+z
loop_
_atom_site_type_symbol
_atom_site_label
_atom_site_fract_x
_atom_site_fract_y
_atom_site_fract_z
Si Si1 0.679240 0.108239 0.844640
Si Si2 0.820908 0.108525 0.158422
Si Si3 0.175236 0.388524 0.221136
Si Si4 0.179333 0.284827 0.888744
Si Si5 0.674716 0.388561 0.781366
Si Si6 0.678691 0.714614 0.113399
Si Si7 0.180094 0.390595 0.006385
O O1 0.500000 0.119002 0.843964
O O2 0.744787 0.129813 0.781573
O O3 0.753707 0.181051 0.887638
O O4 0.714687 0.000000 0.857061
O O5 0.760149 0.130476 0.222119
O O6 0.743051 0.180700 0.115970
O O7 0.000000 0.119849 0.157050
O O8 0.785237 0.000000 0.146825
O O9 0.182526 0.500000 0.211328
O O10 0.255074 0.336861 0.169238
O O11 0.000000 0.361572 0.224311
O O12 0.250324 0.337456 0.834548
O O13 0.000000 0.281632 0.882571
O O14 0.215608 0.340539 0.946511
O O15 0.500000 0.361501 0.775828
O O16 0.681797 0.500000 0.790695
O O17 0.500000 0.715316 0.115702
O O18 0.736856 0.660030 0.058077
O O19 0.218425 0.500000 0.004013
O O20 0.000000 0.383607 0.015455
#
# Coordination Sequence:
#
# PCOD9358023 Si02
#       7
#     8   8   8   8   8   8   8
#     4  10  21  37  57  83 116 150 186 231 281 333
#     4  10  21  38  60  84 112 148 190 233 276 328
#     4  10  20  35  57  84 115 151 190 232 278 331
#     4  11  22  37  59  84 112 148 190 234 279 330
#     4  10  20  34  55  85 120 153 185 227 280 335
#     4  12  24  37  57  84 115 149 185 230 284 338
#     4  10  23  43  63  83 110 146 189 233 274 324
#
# _framework density 18.735406999999999
#
# number of rings (size 3 to 8) (size 9 to 14) (size 15 to 20)
#    0.000    1.571    0.000    5.143    0.000    7.143 
#    0.000    0.714    0.000    0.857    0.000    0.000 
#    0.000    0.000    0.000    0.000    0.000    0.000 
#
# Total GULP energy -156582.713732 kJ/mol
# GULP energy per Si atom -5592.239776 kJ/mol
# Density = 1.869276 g / cm^3
# Si number density = 18.735407 Si / 1000 Ang^3
#
#
#
# Elastic Constant Matrix: (Units=GPa)
#
#
# Indices 1 2 3 4 5 6 
#
# 1 104.2099 76.5412 62.2007 0.0000 0.0000 0.0000
# 2 76.5412 127.1117 87.0496 0.0000 0.0000 0.0000
# 3 62.2007 87.0496 79.8983 0.0000 0.0000 0.0000
# 4 0.0000 0.0000 0.0000 33.1470 0.0000 0.0000
# 5 0.0000 0.0000 0.0000 0.0000 -184.5666 0.0000
# 6 0.0000 0.0000 0.0000 0.0000 0.0000 32.5463
#
#
#
# Elastic Compliance Matrix: (Units=1/GPa)
#
#
# Indices 1 2 3 4 5 6 
#
# 1 0.018726 -0.005091 -0.009032 0.000000 0.000000 0.000000
# 2 -0.005091 0.032372 -0.031306 0.000000 0.000000 0.000000
# 3 -0.009032 -0.031306 0.053655 0.000000 0.000000 0.000000
# 4 0.000000 0.000000 0.000000 0.030169 0.000000 0.000000
# 5 0.000000 0.000000 0.000000 0.000000 -0.005418 0.000000
# 6 0.000000 0.000000 0.000000 0.000000 0.000000 0.030725
#
#
# Mechanical properties :
#
#
# Convention : Reuss Voigt Hill
#
# Bulk Modulus (GPa) = 71.96384 84.75588 78.35986
# Shear Modulus (GPa) = 19.55277 -18.07944 0.73666
#
# Velocity S-wave (km/s) = 3.23403 -3.10980 0.62773
# Velocity P-wave (km/s) = 7.24149 5.69580 6.51465
#
# Compressibility (1/GPa) = 0.01389587
#
# Stress axis : x y z
#
# Youngs Moduli (GPa) = 53.40171 30.89099 18.63753
#
# Poissons Ratio (x) = 0.15726 0.16833
# Poissons Ratio (y) = 0.27186 0.58347
# Poissons Ratio (z) = 0.48230 0.96708
#
# Static dielectric constant tensor:
#      x y z
#    x 1.624210 0.000000 0.000000 
#    y 0.000000 1.674800 0.000000 
#    z 0.000000 0.000000 1.603050 
# 
# From -- ./inp_files/19770.got.cif
#   From: 2010.05.17/outbox.cif.g08.bks.cpg/sg38_10_cif.got.tgz:19770.got - 2010.06.03 18:07:57.
