data_PCOD9358813
_publ_section_title
;
Structure prediction by ZEFSAII (Michael W. Deem and Ramdas Pophale) SiO2 
 PCOD9358813
Probable space group: A M M 2
;
_chemical_formula_sum "Si O2"
_cell_formula_units_Z 48
_cell_length_a 8.874126
_cell_length_b 9.269792
_cell_length_c 31.646387
_cell_angle_alpha 90.000000
_cell_angle_beta 90.000000
_cell_angle_gamma 90.000000
_cell_volume 2603.273005
_symmetry_space_group_name_H-M "A M M 2"
_symmetry_group_IT_number 38
_symmetry_cell_setting 'orthorhombic'
loop_
_space_group_symop_operation_xyz
x,y,z
-x,-y,z
-x,y,z
x,-y,z
x,1/2+y,1/2+z
-x,1/2-y,1/2+z
-x,1/2+y,1/2+z
x,1/2-y,1/2+z
loop_
_atom_site_type_symbol
_atom_site_label
_atom_site_fract_x
_atom_site_fract_y
_atom_site_fract_z
Si Si1 0.180487 0.669590 0.320070
Si Si2 0.320200 0.329899 0.230176
Si Si3 0.818034 0.832515 0.405224
Si Si4 0.318143 0.831379 0.570699
Si Si5 0.819531 0.831623 0.150741
Si Si6 0.318183 0.167669 0.984881
O O1 0.211997 0.500000 0.328043
O O2 0.260589 0.711632 0.276541
O O3 0.227525 0.762073 0.360575
O O4 0.000000 0.684761 0.314631
O O5 0.500000 0.314973 0.228242
O O6 0.283097 0.500000 0.224108
O O7 0.244527 0.237666 0.193488
O O8 0.750106 0.744456 0.444068
O O9 0.000000 0.824590 0.407405
O O10 0.773527 0.000000 0.407436
O O11 0.500000 0.822308 0.574243
O O12 0.246182 0.754369 0.610934
O O13 0.272944 0.750969 0.527560
O O14 0.277097 0.000000 0.569060
O O15 0.000000 0.821220 0.150815
O O16 0.777040 0.000000 0.147831
O O17 0.500000 0.173771 0.982255
O O18 0.273205 0.000000 0.986892
#
# Coordination Sequence:
#
# PCOD9358813 Si02
#       6
#     8   8   8   8   8   8
#     4   9  18  34  55  78 108 147 187 227 272 322
#     4  10  21  37  58  84 112 143 181 225 274 328
#     4  10  21  36  55  81 113 148 185 226 273 324
#     4  10  21  38  60  84 110 142 181 225 274 327
#     4  11  24  39  56  81 112 146 184 225 270 322
#     4  10  21  37  58  83 111 145 184 226 273 324
#
# _framework density 18.438327999999998
#
# number of rings (size 3 to 8) (size 9 to 14) (size 15 to 20)
#    0.000    2.000    0.000    3.000    0.000    9.333 
#    0.000    3.333    0.000    0.000    0.000    0.000 
#    0.000    0.000    0.000    0.000    0.000    0.000 
#
# Total GULP energy -134098.942552 kJ/mol
# GULP energy per Si atom -5587.455940 kJ/mol
# Density = 1.839636 g / cm^3
# Si number density = 18.438328 Si / 1000 Ang^3
#
#
#
# Elastic Constant Matrix: (Units=GPa)
#
#
# Indices 1 2 3 4 5 6 
#
# 1 21.8503 54.0799 51.7921 0.0000 0.0000 0.0000
# 2 54.0799 172.4728 134.6412 0.0000 0.0000 0.0000
# 3 51.7921 134.6412 201.7181 0.0000 0.0000 0.0000
# 4 0.0000 0.0000 0.0000 42.6313 0.0000 0.0000
# 5 0.0000 0.0000 0.0000 0.0000 41.2213 0.0000
# 6 0.0000 0.0000 0.0000 0.0000 0.0000 27.3565
#
#
#
# Elastic Compliance Matrix: (Units=1/GPa)
#
#
# Indices 1 2 3 4 5 6 
#
# 1 0.253527 -0.059881 -0.025126 0.000000 0.000000 0.000000
# 2 -0.059881 0.026249 -0.002146 0.000000 0.000000 0.000000
# 3 -0.025126 -0.002146 0.012841 0.000000 0.000000 0.000000
# 4 0.000000 0.000000 0.000000 0.023457 0.000000 0.000000
# 5 0.000000 0.000000 0.000000 0.000000 0.024259 0.000000
# 6 0.000000 0.000000 0.000000 0.000000 0.000000 0.036554
#
#
# Mechanical properties :
#
#
# Convention : Reuss Voigt Hill
#
# Bulk Modulus (GPa) = 8.45219 97.45195 52.95207
# Shear Modulus (GPa) = 8.46554 32.61034 20.53794
#
# Velocity S-wave (km/s) = 2.14505 4.21005 3.34109
# Velocity P-wave (km/s) = 3.27551 8.75217 6.60793
#
# Compressibility (1/GPa) = 0.11831260
#
# Stress axis : x y z
#
# Youngs Moduli (GPa) = 3.94436 38.09637 77.87592
#
# Poissons Ratio (x) = 2.28123 1.95668
# Poissons Ratio (y) = 0.23619 0.16712
# Poissons Ratio (z) = 0.09910 0.08175
#
# Static dielectric constant tensor:
#      x y z
#    x 1.621810 0.000000 0.000000 
#    y 0.000000 1.621800 0.000000 
#    z 0.000000 0.000000 1.591950 
# 
# From -- ./inp_files/24264.got.cif
#   From: 2010.05.17/outbox.cif.g08.bks.cpg/sg38_13_cif.got.tgz:24264.got - 2010.06.03 18:07:57.
