data_PCOD9358333
_publ_section_title
;
Structure prediction by ZEFSAII (Michael W. Deem and Ramdas Pophale) SiO2 
 PCOD9358333
Probable space group: A M M 2
;
_chemical_formula_sum "Si O2"
_cell_formula_units_Z 48
_cell_length_a 9.245174
_cell_length_b 7.952723
_cell_length_c 35.009526
_cell_angle_alpha 90.000000
_cell_angle_beta 90.000000
_cell_angle_gamma 90.000000
_cell_volume 2574.051169
_symmetry_space_group_name_H-M "A M M 2"
_symmetry_group_IT_number 38
_symmetry_cell_setting 'orthorhombic'
loop_
_space_group_symop_operation_xyz
x,y,z
-x,-y,z
-x,y,z
x,-y,z
x,1/2+y,1/2+z
-x,1/2-y,1/2+z
-x,1/2+y,1/2+z
x,1/2-y,1/2+z
loop_
_atom_site_type_symbol
_atom_site_label
_atom_site_fract_x
_atom_site_fract_y
_atom_site_fract_z
Si Si1 0.333263 0.300191 0.579270
Si Si2 0.675940 0.186898 0.842642
Si Si3 0.827576 0.188181 0.654530
Si Si4 0.174330 0.000000 0.208519
Si Si5 0.833986 0.296284 0.002863
Si Si6 0.331113 0.296536 0.926654
Si Si7 0.675570 0.000000 0.290250
O O1 0.500000 0.245662 0.577021
O O2 0.329237 0.500000 0.586232
O O3 0.253056 0.213415 0.614532
O O4 0.254048 0.263467 0.539558
O O5 0.500000 0.190803 0.843222
O O6 0.720541 0.223620 0.886271
O O7 0.720539 0.335325 0.814351
O O8 0.721875 0.000000 0.830905
O O9 0.786348 0.334852 0.683899
O O10 0.000000 0.203720 0.647718
O O11 0.798940 0.000000 0.669342
O O12 0.253715 0.000000 0.248836
O O13 0.000000 0.000000 0.213725
O O14 0.832024 0.500000 0.003099
O O15 0.759688 0.241814 0.963334
O O16 0.000000 0.240399 0.004995
O O17 0.500000 0.251082 0.932071
O O18 0.324443 0.500000 0.923755
O O19 0.500000 0.000000 0.287310
#
# Coordination Sequence:
#
# PCOD9358333 Si02
#       7
#     8   8   8   4   8   8   4
#     4  11  23  37  55  81 113 148 190 237 285 336
#     4   9  17  31  54  82 110 144 186 232 283 336
#     4  10  21  39  63  86 111 149 191 230 281 344
#     4  10  22  40  60  86 118 150 184 230 286 342
#     4  10  21  35  52  78 112 151 192 233 282 340
#     4   9  16  30  52  75 104 144 188 234 283 332
#     4  10  20  36  58  84 114 146 186 234 282 338
#
# _framework density 18.647649000000001
#
# number of rings (size 3 to 8) (size 9 to 14) (size 15 to 20)
#    0.000    2.167    1.667    1.500    0.000    6.333 
#    0.000    2.500    0.000    1.000    0.000    0.000 
#    0.000    0.000    0.000    0.000    0.000    0.000 
#
# Total GULP energy -134004.419987 kJ/mol
# GULP energy per Si atom -5583.517499 kJ/mol
# Density = 1.860521 g / cm^3
# Si number density = 18.647649 Si / 1000 Ang^3
#
#
#
# Elastic Constant Matrix: (Units=GPa)
#
#
# Indices 1 2 3 4 5 6 
#
# 1 53.5195 43.8763 56.2635 0.0000 0.0000 0.0000
# 2 43.8763 116.7157 80.6775 0.0000 0.0000 0.0000
# 3 56.2635 80.6775 161.9985 0.0000 0.0000 0.0000
# 4 0.0000 0.0000 0.0000 16.6740 0.0000 0.0000
# 5 0.0000 0.0000 0.0000 0.0000 97.3855 0.0000
# 6 0.0000 0.0000 0.0000 0.0000 0.0000 12.6464
#
#
#
# Elastic Compliance Matrix: (Units=1/GPa)
#
#
# Indices 1 2 3 4 5 6 
#
# 1 0.032580 -0.006750 -0.007954 0.000000 0.000000 0.000000
# 2 -0.006750 0.014464 -0.004859 0.000000 0.000000 0.000000
# 3 -0.007954 -0.004859 0.011355 0.000000 0.000000 0.000000
# 4 0.000000 0.000000 0.000000 0.059974 0.000000 0.000000
# 5 0.000000 0.000000 0.000000 0.000000 0.010268 0.000000
# 6 0.000000 0.000000 0.000000 0.000000 0.000000 0.079074
#
#
# Mechanical properties :
#
#
# Convention : Reuss Voigt Hill
#
# Bulk Modulus (GPa) = 51.88342 77.09648 64.48995
# Shear Modulus (GPa) = 19.74220 35.43561 27.58890
#
# Velocity S-wave (km/s) = 3.25729 4.36394 3.85058
# Velocity P-wave (km/s) = 6.48306 8.17469 7.37752
#
# Compressibility (1/GPa) = 0.01927398
#
# Stress axis : x y z
#
# Youngs Moduli (GPa) = 30.69374 69.13786 88.06529
#
# Poissons Ratio (x) = 0.46665 0.70046
# Poissons Ratio (y) = 0.20717 0.42791
# Poissons Ratio (z) = 0.24414 0.33594
#
# Static dielectric constant tensor:
#      x y z
#    x 1.625450 0.000000 0.000000 
#    y 0.000000 1.672770 0.000000 
#    z 0.000000 0.000000 1.595200 
# 
# From -- ./inp_files/24410.got.cif
#   From: 2010.05.17/outbox.cif.g08.bks.cpg/sg38_13_cif.got.tgz:24410.got - 2010.06.03 18:07:57.
