data_PCOD9358366
_publ_section_title
;
Structure prediction by ZEFSAII (Michael W. Deem and Ramdas Pophale) SiO2 
 PCOD9358366
Probable space group: A M M 2
;
_chemical_formula_sum "Si O2"
_cell_formula_units_Z 64
_cell_length_a 8.124982
_cell_length_b 15.984605
_cell_length_c 24.573485
_cell_angle_alpha 90.000000
_cell_angle_beta 90.000000
_cell_angle_gamma 90.000000
_cell_volume 3191.472221
_symmetry_space_group_name_H-M "A M M 2"
_symmetry_group_IT_number 38
_symmetry_cell_setting 'orthorhombic'
loop_
_space_group_symop_operation_xyz
x,y,z
-x,-y,z
-x,y,z
x,-y,z
x,1/2+y,1/2+z
-x,1/2-y,1/2+z
-x,1/2+y,1/2+z
x,1/2-y,1/2+z
loop_
_atom_site_type_symbol
_atom_site_label
_atom_site_fract_x
_atom_site_fract_y
_atom_site_fract_z
Si Si1 0.199268 0.406152 0.586150
Si Si2 0.798354 0.746550 0.662225
Si Si3 0.302270 0.592765 0.357335
Si Si4 0.804933 0.748881 0.285985
Si Si5 0.305901 0.592223 0.855217
Si Si6 0.696551 0.667445 0.472154
Si Si7 0.193463 0.857565 0.473305
Si Si8 0.200945 0.092528 0.593416
O O1 0.249560 0.500000 0.601726
O O2 0.254187 0.334528 0.627969
O O3 0.263562 0.383581 0.526345
O O4 0.000000 0.403616 0.584257
O O5 0.740573 0.743907 0.724393
O O6 0.744889 0.830892 0.631189
O O7 0.000000 0.746466 0.662223
O O8 0.500000 0.588658 0.359334
O O9 0.239551 0.500000 0.343177
O O10 0.258047 0.666176 0.316049
O O11 0.246984 0.619828 0.417788
O O12 0.766966 0.830972 0.321454
O O13 0.000000 0.740915 0.282527
O O14 0.500000 0.592493 0.844896
O O15 0.238792 0.500000 0.840901
O O16 0.277943 0.607743 0.919333
O O17 0.500000 0.680759 0.468348
O O18 0.781189 0.757814 0.475091
O O19 0.254068 0.893142 0.530961
O O20 0.000000 0.876872 0.468730
O O21 0.000000 0.094875 0.592879
O O22 0.251209 0.000000 0.611999
#
# Coordination Sequence:
#
# PCOD9358366 Si02
#       8
#     8   8   8   8   8   8   8   8
#     4  10  20  36  59  85 114 149 189 237 289 341
#     4   9  19  36  55  82 115 147 190 241 293 337
#     4  10  22  40  60  82 116 159 194 231 288 353
#     4  11  23  38  61  88 114 150 199 252 294 338
#     4  11  24  41  60  84 119 159 193 234 292 353
#     4  11  21  35  58  86 118 155 189 227 287 351
#     4  11  20  34  60  90 118 149 189 235 286 342
#     4   9  17  31  55  85 116 146 177 223 283 340
#
# _framework density 20.053440999999999
#
# number of rings (size 3 to 8) (size 9 to 14) (size 15 to 20)
#    0.000    1.750    2.500    2.250    0.000    4.000 
#    0.000    3.750    0.000    0.000    0.000    0.000 
#    0.000    0.000    0.000    0.000    0.000    0.000 
#
# Total GULP energy -178780.844036 kJ/mol
# GULP energy per Si atom -5586.901376 kJ/mol
# Density = 2.000780 g / cm^3
# Si number density = 20.053441 Si / 1000 Ang^3
#
#
#
# Elastic Constant Matrix: (Units=GPa)
#
#
# Indices 1 2 3 4 5 6 
#
# 1 9.1806 -0.1563 0.9158 0.0000 0.0000 0.0000
# 2 -0.1563 169.6367 71.4897 0.0000 0.0000 0.0000
# 3 0.9158 71.4897 143.1513 0.0000 0.0000 0.0000
# 4 0.0000 0.0000 0.0000 -1.0313 0.0000 0.0000
# 5 0.0000 0.0000 0.0000 0.0000 575.1047 0.0000
# 6 0.0000 0.0000 0.0000 0.0000 0.0000 0.7054
#
#
#
# Elastic Compliance Matrix: (Units=1/GPa)
#
#
# Indices 1 2 3 4 5 6 
#
# 1 0.109028 0.000500 -0.000947 0.000000 0.000000 0.000000
# 2 0.000500 0.007469 -0.003733 0.000000 0.000000 0.000000
# 3 -0.000947 -0.003733 0.008856 0.000000 0.000000 0.000000
# 4 0.000000 0.000000 0.000000 -0.969653 0.000000 0.000000
# 5 0.000000 0.000000 0.000000 0.000000 0.001739 0.000000
# 6 0.000000 0.000000 0.000000 0.000000 0.000000 1.417675
#
#
# Mechanical properties :
#
#
# Convention : Reuss Voigt Hill
#
# Bulk Modulus (GPa) = 8.54764 51.82966 30.18865
# Shear Modulus (GPa) = 8.03251 131.60372 69.81811
#
# Velocity S-wave (km/s) = 2.00356 8.10981 5.90691
# Velocity P-wave (km/s) = 3.10226 10.65804 7.84914
#
# Compressibility (1/GPa) = 0.11699142
#
# Stress axis : x y z
#
# Youngs Moduli (GPa) = 9.17198 133.89365 112.91848
#
# Poissons Ratio (x) = -0.06688 0.10693
# Poissons Ratio (y) = -0.00458 0.42153
# Poissons Ratio (z) = 0.00869 0.49983
#
# Static dielectric constant tensor:
#      x y z
#    x 1.549100 0.000000 0.000000 
#    y 0.000000 1.726040 0.000000 
#    z 0.000000 0.000000 1.684800 
# 
# From -- ./inp_files/22178.got.cif
#   From: 2010.05.17/outbox.cif.g08.bks.cpg/sg38_12_cif.got.tgz:22178.got - 2010.06.03 18:07:57.
