data_PCOD9358049
_publ_section_title
;
Structure prediction by ZEFSAII (Michael W. Deem and Ramdas Pophale) SiO2 
 PCOD9358049
Probable space group: A M M 2
;
_chemical_formula_sum "Si O2"
_cell_formula_units_Z 48
_cell_length_a 14.370675
_cell_length_b 8.872935
_cell_length_c 21.044759
_cell_angle_alpha 90.000000
_cell_angle_beta 90.000000
_cell_angle_gamma 90.000000
_cell_volume 2683.418592
_symmetry_space_group_name_H-M "A M M 2"
_symmetry_group_IT_number 38
_symmetry_cell_setting 'orthorhombic'
loop_
_space_group_symop_operation_xyz
x,y,z
-x,-y,z
-x,y,z
x,-y,z
x,1/2+y,1/2+z
-x,1/2-y,1/2+z
-x,1/2+y,1/2+z
x,1/2-y,1/2+z
loop_
_atom_site_type_symbol
_atom_site_label
_atom_site_fract_x
_atom_site_fract_y
_atom_site_fract_z
Si Si1 0.106865 0.320083 0.275010
Si Si2 0.710920 0.680607 0.820857
Si Si3 0.894640 0.319555 0.635648
Si Si4 0.389041 0.321906 0.198587
Si Si5 0.295563 0.319641 0.574440
Si Si6 0.608271 0.318187 0.951355
O O1 0.117764 0.500000 0.276914
O O2 0.184092 0.241965 0.318196
O O3 0.121612 0.262710 0.202751
O O4 0.000000 0.282629 0.291960
O O5 0.711044 0.500000 0.815547
O O6 0.658559 0.749660 0.760146
O O7 0.657612 0.723798 0.885255
O O8 0.889358 0.500000 0.647228
O O9 0.812878 0.280614 0.586917
O O10 0.000000 0.284567 0.614398
O O11 0.500000 0.302890 0.202105
O O12 0.367959 0.500000 0.196342
O O13 0.350464 0.243960 0.135279
O O14 0.303954 0.500000 0.572719
O O15 0.337745 0.250684 0.510834
O O16 0.500000 0.271455 0.951599
O O17 0.610540 0.500000 0.956289
#
# Coordination Sequence:
#
# PCOD9358049 Si02
#       6
#     8   8   8   8   8   8
#     4  10  20  34  56  87 119 151 188 233 286 344
#     4  11  22  38  60  85 113 150 195 242 291 344
#     4   9  18  34  56  83 115 150 187 230 284 341
#     4  11  23  37  56  83 115 149 188 239 294 346
#     4  11  22  36  58  87 115 149 192 238 287 342
#     4  10  23  42  60  79 111 155 196 238 291 347
#
# _framework density 17.887630000000001
#
# number of rings (size 3 to 8) (size 9 to 14) (size 15 to 20)
#    0.000    1.667    1.667    3.000    0.000    7.333 
#    0.000    0.833    0.000    3.000    0.000    0.000 
#    0.000    0.000    0.000    0.000    0.000    0.000 
#
# Total GULP energy -134074.619582 kJ/mol
# GULP energy per Si atom -5586.442483 kJ/mol
# Density = 1.784692 g / cm^3
# Si number density = 17.887630 Si / 1000 Ang^3
#
#
#
# Elastic Constant Matrix: (Units=GPa)
#
#
# Indices 1 2 3 4 5 6 
#
# 1 153.8902 56.0571 85.7000 0.0000 0.0000 0.0000
# 2 56.0571 42.1469 46.9016 0.0000 0.0000 0.0000
# 3 85.7000 46.9016 136.6443 0.0000 0.0000 0.0000
# 4 0.0000 0.0000 0.0000 32.8778 0.0000 0.0000
# 5 0.0000 0.0000 0.0000 0.0000 31.7543 0.0000
# 6 0.0000 0.0000 0.0000 0.0000 0.0000 30.7545
#
#
#
# Elastic Compliance Matrix: (Units=1/GPa)
#
#
# Indices 1 2 3 4 5 6 
#
# 1 0.013719 -0.014031 -0.003788 0.000000 0.000000 0.000000
# 2 -0.014031 0.052741 -0.009303 0.000000 0.000000 0.000000
# 3 -0.003788 -0.009303 0.012887 0.000000 0.000000 0.000000
# 4 0.000000 0.000000 0.000000 0.030416 0.000000 0.000000
# 5 0.000000 0.000000 0.000000 0.000000 0.031492 0.000000
# 6 0.000000 0.000000 0.000000 0.000000 0.000000 0.032516
#
#
# Mechanical properties :
#
#
# Convention : Reuss Voigt Hill
#
# Bulk Modulus (GPa) = 39.83618 78.88876 59.36247
# Shear Modulus (GPa) = 21.15233 28.67883 24.91558
#
# Velocity S-wave (km/s) = 3.44250 4.00844 3.73620
# Velocity P-wave (km/s) = 6.17411 8.10072 7.20213
#
# Compressibility (1/GPa) = 0.02510281
#
# Stress axis : x y z
#
# Youngs Moduli (GPa) = 72.89307 18.96073 77.59716
#
# Poissons Ratio (x) = 0.26604 0.29394
# Poissons Ratio (y) = 1.02277 0.72186
# Poissons Ratio (z) = 0.27612 0.17639
#
# Static dielectric constant tensor:
#      x y z
#    x 1.632060 0.000000 0.000000 
#    y 0.000000 1.599660 0.000000 
#    z 0.000000 0.000000 1.563110 
# 
# From -- ./inp_files/18157.got.cif
#   From: 2010.05.17/outbox.cif.g08.bks.cpg/sg38_10_cif.got.tgz:18157.got - 2010.06.03 18:07:57.
