data_PCOD9358410
_publ_section_title
;
Structure prediction by ZEFSAII (Michael W. Deem and Ramdas Pophale) SiO2 
 PCOD9358410
Probable space group: A M M 2
;
_chemical_formula_sum "Si O2"
_cell_formula_units_Z 46
_cell_length_a 7.344634
_cell_length_b 21.988985
_cell_length_c 14.277912
_cell_angle_alpha 90.000000
_cell_angle_beta 90.000000
_cell_angle_gamma 90.000000
_cell_volume 2305.897735
_symmetry_space_group_name_H-M "A M M 2"
_symmetry_group_IT_number 38
_symmetry_cell_setting 'orthorhombic'
loop_
_space_group_symop_operation_xyz
x,y,z
-x,-y,z
-x,y,z
x,-y,z
x,1/2+y,1/2+z
-x,1/2-y,1/2+z
-x,1/2+y,1/2+z
x,1/2-y,1/2+z
loop_
_atom_site_type_symbol
_atom_site_label
_atom_site_fract_x
_atom_site_fract_y
_atom_site_fract_z
Si Si1 0.780689 0.803752 0.804720
Si Si2 0.500000 0.928932 0.491364
Si Si3 0.779649 0.319899 0.704910
Si Si4 0.500000 0.000000 0.801041
Si Si5 0.216320 0.068942 0.330861
Si Si6 0.219459 0.500000 0.466144
Si Si7 0.500000 0.876725 0.688859
Si Si8 0.220829 0.361291 0.505256
O O1 0.727513 0.735400 0.773401
O O2 0.678550 0.843564 0.727562
O O3 0.000000 0.808844 0.800043
O O4 0.723930 0.829160 0.907331
O O5 0.674717 0.919746 0.425718
O O6 0.500000 0.884908 0.578662
O O7 0.500000 0.000000 0.521041
O O8 0.727640 0.382685 0.753845
O O9 0.717202 0.324120 0.597087
O O10 0.000000 0.317442 0.700992
O O11 0.676463 0.000000 0.867620
O O12 0.500000 0.058229 0.736970
O O13 0.000000 0.074299 0.345948
O O14 0.255588 0.000000 0.300408
O O15 0.269828 0.433627 0.509937
O O16 0.000000 0.500000 0.456937
O O17 0.000000 0.360386 0.505350
#
# Coordination Sequence:
#
# PCOD9358410 Si02
#       8
#     8   4   8   2   8   4   4   8
#     4  10  22  40  58  85 123 156 196 243 290 351
#     4  10  22  39  56  82 117 149 192 247 292 343
#     4   9  19  36  61  89 119 158 196 239 295 353
#     4  12  22  38  60  86 114 148 200 248 300 356
#     4   9  19  37  60  86 116 152 195 242 294 349
#     4  10  20  36  60  89 121 155 191 244 302 347
#     4  12  24  39  61  85 114 157 200 244 299 349
#     4   9  18  34  59  88 119 157 196 238 292 349
#
# _framework density 19.948846
#
# number of rings (size 3 to 8) (size 9 to 14) (size 15 to 20)
#    0.000    2.261    2.174    0.000    1.217    2.783 
#    0.000    6.957    0.000    0.000    0.000    0.000 
#    0.000    0.000    0.000    0.000    0.000    0.000 
#
# Total GULP energy -128276.855611 kJ/mol
# GULP energy per Si atom -5577.254592 kJ/mol
# Density = 1.990344 g / cm^3
# Si number density = 19.948846 Si / 1000 Ang^3
#
#
#
# Elastic Constant Matrix: (Units=GPa)
#
#
# Indices 1 2 3 4 5 6 
#
# 1 67.6114 21.7151 19.1125 0.0000 0.0000 0.0000
# 2 21.7151 129.6122 82.5109 0.0000 0.0000 0.0000
# 3 19.1125 82.5109 133.7266 0.0000 0.0000 0.0000
# 4 0.0000 0.0000 0.0000 22.7773 0.0000 0.0000
# 5 0.0000 0.0000 0.0000 0.0000 5.0963 0.0000
# 6 0.0000 0.0000 0.0000 0.0000 0.0000 10.0644
#
#
#
# Elastic Compliance Matrix: (Units=1/GPa)
#
#
# Indices 1 2 3 4 5 6 
#
# 1 0.015716 -0.001981 -0.001024 0.000000 0.000000 0.000000
# 2 -0.001981 0.012956 -0.007711 0.000000 0.000000 0.000000
# 3 -0.001024 -0.007711 0.012382 0.000000 0.000000 0.000000
# 4 0.000000 0.000000 0.000000 0.043903 0.000000 0.000000
# 5 0.000000 0.000000 0.000000 0.000000 0.196222 0.000000
# 6 0.000000 0.000000 0.000000 0.000000 0.000000 0.099360
#
#
# Mechanical properties :
#
#
# Convention : Reuss Voigt Hill
#
# Bulk Modulus (GPa) = 50.96237 64.18078 57.57158
# Shear Modulus (GPa) = 12.23952 21.42836 16.83394
#
# Velocity S-wave (km/s) = 2.47967 3.28100 2.90807
# Velocity P-wave (km/s) = 5.81381 6.82611 6.34020
#
# Compressibility (1/GPa) = 0.01962232
#
# Stress axis : x y z
#
# Youngs Moduli (GPa) = 63.62883 77.18451 80.76314
#
# Poissons Ratio (x) = 0.15294 0.08267
# Poissons Ratio (y) = 0.12608 0.62275
# Poissons Ratio (z) = 0.06513 0.59515
#
# Static dielectric constant tensor:
#      x y z
#    x 1.712500 0.000000 0.000000 
#    y 0.000000 1.785190 0.000000 
#    z 0.000000 0.000000 1.664870 
# 
# From -- ./inp_files/8185.got.cif
#   From: 2010.05.17/outbox.cif.g08.bks.cpg/sg38_5_cif.got.tgz:8185.got - 2010.06.03 18:07:57.
