data_PCOD9358124
_publ_section_title
;
Structure prediction by ZEFSAII (Michael W. Deem and Ramdas Pophale) SiO2 
 PCOD9358124
Probable space group: A M M 2
;
_chemical_formula_sum "Si O2"
_cell_formula_units_Z 48
_cell_length_a 7.541915
_cell_length_b 14.318862
_cell_length_c 19.031498
_cell_angle_alpha 90.000000
_cell_angle_beta 90.000000
_cell_angle_gamma 90.000000
_cell_volume 2055.242683
_symmetry_space_group_name_H-M "A M M 2"
_symmetry_group_IT_number 38
_symmetry_cell_setting 'orthorhombic'
loop_
_space_group_symop_operation_xyz
x,y,z
-x,-y,z
-x,y,z
x,-y,z
x,1/2+y,1/2+z
-x,1/2-y,1/2+z
-x,1/2+y,1/2+z
x,1/2-y,1/2+z
loop_
_atom_site_type_symbol
_atom_site_label
_atom_site_fract_x
_atom_site_fract_y
_atom_site_fract_z
Si Si1 0.788742 0.194687 0.766380
Si Si2 0.713592 0.106458 0.916938
Si Si3 0.707775 0.101863 0.629051
Si Si4 0.301517 0.741891 0.530020
Si Si5 0.787743 0.101107 0.259756
Si Si6 0.788975 0.898110 0.427532
O O1 0.753006 0.166238 0.846849
O O2 0.719744 0.118566 0.712045
O O3 0.717238 0.296321 0.741350
O O4 0.000000 0.198650 0.759934
O O5 0.500000 0.105214 0.923079
O O6 0.775944 0.000000 0.908212
O O7 0.781870 0.154141 0.989197
O O8 0.500000 0.100208 0.609282
O O9 0.785210 0.193502 0.590196
O O10 0.785221 0.000000 0.612000
O O11 0.500000 0.714925 0.553815
O O12 0.309502 0.816645 0.466608
O O13 0.765024 0.101935 0.344137
O O14 0.000000 0.100520 0.245851
O O15 0.718548 0.000000 0.233736
O O16 0.000000 0.887091 0.439858
O O17 0.732799 0.000000 0.453464
#
# Coordination Sequence:
#
# PCOD9358124 Si02
#       6
#     8   8   8   8   8   8
#     4  11  21  35  58  85 112 144 186 229 267 321
#     4  10  21  37  57  81 110 145 182 225 280 332
#     4  10  22  39  56  77 112 152 182 220 279 333
#     4  10  20  35  55  78 105 141 184 226 268 323
#     4   8  15  29  49  75 107 139 169 209 268 322
#     4   9  16  28  49  76 106 137 167 209 268 321
#
# _framework density 23.354906
#
# number of rings (size 3 to 8) (size 9 to 14) (size 15 to 20)
#    0.000    2.333    1.667    2.500    0.000    4.333 
#    0.000    0.833    0.000    3.000    0.000    0.000 
#    0.000    0.000    0.000    0.000    0.000    0.000 
#
# Total GULP energy -133827.572757 kJ/mol
# GULP energy per Si atom -5576.148865 kJ/mol
# Density = 2.330175 g / cm^3
# Si number density = 23.354906 Si / 1000 Ang^3
#
#
#
# Elastic Constant Matrix: (Units=GPa)
#
#
# Indices 1 2 3 4 5 6 
#
# 1 61.7055 1.2789 -1.4550 0.0000 0.0000 0.0000
# 2 1.2789 149.3376 31.3426 0.0000 0.0000 0.0000
# 3 -1.4550 31.3426 74.9760 0.0000 0.0000 0.0000
# 4 0.0000 0.0000 0.0000 325.9419 0.0000 0.0000
# 5 0.0000 0.0000 0.0000 0.0000 21.6486 0.0000
# 6 0.0000 0.0000 0.0000 0.0000 0.0000 6.6652
#
#
#
# Elastic Compliance Matrix: (Units=1/GPa)
#
#
# Indices 1 2 3 4 5 6 
#
# 1 0.016220 -0.000225 0.000409 0.000000 0.000000 0.000000
# 2 -0.000225 0.007343 -0.003074 0.000000 0.000000 0.000000
# 3 0.000409 -0.003074 0.014631 0.000000 0.000000 0.000000
# 4 0.000000 0.000000 0.000000 0.003068 0.000000 0.000000
# 5 0.000000 0.000000 0.000000 0.000000 0.046192 0.000000
# 6 0.000000 0.000000 0.000000 0.000000 0.000000 0.150034
#
#
# Mechanical properties :
#
#
# Convention : Reuss Voigt Hill
#
# Bulk Modulus (GPa) = 30.85083 38.70579 34.77831
# Shear Modulus (GPa) = 19.67933 87.84131 53.76032
#
# Velocity S-wave (km/s) = 2.90594 6.13947 4.80300
# Velocity P-wave (km/s) = 4.94950 8.17719 6.75884
#
# Compressibility (1/GPa) = 0.03241404
#
# Stress axis : x y z
#
# Youngs Moduli (GPa) = 61.65114 136.17755 68.34974
#
# Poissons Ratio (x) = 0.03060 -0.02793
# Poissons Ratio (y) = 0.01385 0.21012
# Poissons Ratio (z) = -0.02520 0.41863
#
# Static dielectric constant tensor:
#      x y z
#    x 1.878070 0.000000 0.000000 
#    y 0.000000 1.344870 0.000000 
#    z 0.000000 0.000000 1.859720 
# 
# From -- ./inp_files/16632.got.cif
#   From: 2010.05.17/outbox.cif.g08.bks.cpg/sg38_9_cif.got.tgz:16632.got - 2010.06.03 18:07:57.
