data_PCOD9358892
_publ_section_title
;
Structure prediction by ZEFSAII (Michael W. Deem and Ramdas Pophale) SiO2 
 PCOD9358892
Probable space group: A M M 2
;
_chemical_formula_sum "Si O2"
_cell_formula_units_Z 52
_cell_length_a 14.065657
_cell_length_b 7.858260
_cell_length_c 26.659192
_cell_angle_alpha 90.000000
_cell_angle_beta 90.000000
_cell_angle_gamma 90.000000
_cell_volume 2946.682874
_symmetry_space_group_name_H-M "A M M 2"
_symmetry_group_IT_number 38
_symmetry_cell_setting 'orthorhombic'
loop_
_space_group_symop_operation_xyz
x,y,z
-x,-y,z
-x,y,z
x,-y,z
x,1/2+y,1/2+z
-x,1/2-y,1/2+z
-x,1/2+y,1/2+z
x,1/2-y,1/2+z
loop_
_atom_site_type_symbol
_atom_site_label
_atom_site_fract_x
_atom_site_fract_y
_atom_site_fract_z
Si Si1 0.271099 0.500000 0.837200
Si Si2 0.243045 0.689987 0.074591
Si Si3 0.886164 0.187449 0.991936
Si Si4 0.391417 0.703586 0.159708
Si Si5 0.114626 0.000000 0.418447
Si Si6 0.610496 0.306978 0.380981
Si Si7 0.393125 0.301708 0.500745
Si Si8 0.609175 0.000000 0.240974
O O1 0.168868 0.500000 0.865101
O O2 0.323247 0.332423 0.857454
O O3 0.301851 0.500000 0.778939
O O4 0.210233 0.500000 0.086818
O O5 0.157414 0.787001 0.047422
O O6 0.307404 0.752498 0.120943
O O7 0.318899 0.689311 0.029477
O O8 0.000000 0.192614 0.995233
O O9 0.855743 0.000000 0.973644
O O10 0.858959 0.335718 0.952747
O O11 0.500000 0.726090 0.139240
O O12 0.381960 0.500000 0.170690
O O13 0.385160 0.830623 0.206634
O O14 0.000000 0.000000 0.411846
O O15 0.500000 0.278337 0.367364
O O16 0.635311 0.500000 0.366630
O O17 0.616328 0.293273 0.441112
O O18 0.500000 0.252237 0.513739
O O19 0.378818 0.500000 0.515286
O O20 0.500000 0.000000 0.263113
#
# Coordination Sequence:
#
# PCOD9358892 Si02
#       8
#     4   8   8   8   4   8   8   4
#     4  12  22  34  58  82  98 140 196 234 282 332
#     4  11  20  30  50  78 104 140 183 221 261 319
#     4  10  21  37  56  80 114 149 179 216 268 332
#     4   9  20  37  53  75 110 146 183 225 271 321
#     4  10  22  40  58  82 116 148 182 231 287 336
#     4   9  19  33  47  73 113 144 172 218 271 332
#     4   9  18  29  42  67 105 143 173 205 254 317
#     4  10  22  38  56  78 104 142 190 239 281 322
#
# _framework density 17.646961999999998
#
# number of rings (size 3 to 8) (size 9 to 14) (size 15 to 20)
#    0.000    2.154    0.769    3.462    3.231    3.385 
#    0.000    1.538    0.000    0.923    0.000    0.000 
#    0.000    0.000    0.000    0.000    0.000    0.000 
#
# Total GULP energy -144883.566122 kJ/mol
# GULP energy per Si atom -5572.444851 kJ/mol
# Density = 1.760680 g / cm^3
# Si number density = 17.646962 Si / 1000 Ang^3
#
#
#
# Elastic Constant Matrix: (Units=GPa)
#
#
# Indices 1 2 3 4 5 6 
#
# 1 58.1466 27.5453 32.4841 0.0000 0.0000 0.0000
# 2 27.5453 73.9434 35.3300 0.0000 0.0000 0.0000
# 3 32.4841 35.3300 64.5348 0.0000 0.0000 0.0000
# 4 0.0000 0.0000 0.0000 33.1270 0.0000 0.0000
# 5 0.0000 0.0000 0.0000 0.0000 22.8223 0.0000
# 6 0.0000 0.0000 0.0000 0.0000 0.0000 25.3803
#
#
#
# Elastic Compliance Matrix: (Units=1/GPa)
#
#
# Indices 1 2 3 4 5 6 
#
# 1 0.024969 -0.004464 -0.010124 0.000000 0.000000 0.000000
# 2 -0.004464 0.019112 -0.008216 0.000000 0.000000 0.000000
# 3 -0.010124 -0.008216 0.025090 0.000000 0.000000 0.000000
# 4 0.000000 0.000000 0.000000 0.030187 0.000000 0.000000
# 5 0.000000 0.000000 0.000000 0.000000 0.043817 0.000000
# 6 0.000000 0.000000 0.000000 0.000000 0.000000 0.039401
#
#
# Mechanical properties :
#
#
# Convention : Reuss Voigt Hill
#
# Bulk Modulus (GPa) = 42.44171 43.03818 42.73994
# Shear Modulus (GPa) = 21.18301 23.01693 22.09997
#
# Velocity S-wave (km/s) = 3.46840 3.61543 3.54268
# Velocity P-wave (km/s) = 6.33580 6.47069 6.40360
#
# Compressibility (1/GPa) = 0.02356173
#
# Stress axis : x y z
#
# Youngs Moduli (GPa) = 40.05035 52.32184 39.85686
#
# Poissons Ratio (x) = 0.23356 0.40352
# Poissons Ratio (y) = 0.17878 0.32748
# Poissons Ratio (z) = 0.40548 0.42989
#
# Static dielectric constant tensor:
#      x y z
#    x 1.628510 0.000000 0.000000 
#    y 0.000000 1.638940 0.000000 
#    z 0.000000 0.000000 1.605390 
# 
# From -- ./inp_files/22742.got.cif
#   From: 2010.05.17/outbox.cif.g08.bks.cpg/sg38_12_cif.got.tgz:22742.got - 2010.06.03 18:07:57.
