data_PCOD9358536
_publ_section_title
;
Structure prediction by ZEFSAII (Michael W. Deem and Ramdas Pophale) SiO2 
 PCOD9358536
Probable space group: A M M 2
;
_chemical_formula_sum "Si O2"
_cell_formula_units_Z 58
_cell_length_a 7.415114
_cell_length_b 20.548013
_cell_length_c 15.109649
_cell_angle_alpha 90.000000
_cell_angle_beta 90.000000
_cell_angle_gamma 90.000000
_cell_volume 2302.194647
_symmetry_space_group_name_H-M "A M M 2"
_symmetry_group_IT_number 38
_symmetry_cell_setting 'orthorhombic'
loop_
_space_group_symop_operation_xyz
x,y,z
-x,-y,z
-x,y,z
x,-y,z
x,1/2+y,1/2+z
-x,1/2-y,1/2+z
-x,1/2+y,1/2+z
x,1/2-y,1/2+z
loop_
_atom_site_type_symbol
_atom_site_label
_atom_site_fract_x
_atom_site_fract_y
_atom_site_fract_z
Si Si1 0.293332 0.879829 0.089160
Si Si2 0.717394 0.750968 0.997520
Si Si3 0.206184 0.927707 0.276888
Si Si4 0.780565 0.345771 0.236594
Si Si5 0.292984 0.605673 0.051862
Si Si6 0.000000 0.500000 0.996179
Si Si7 0.792167 0.714866 0.801935
Si Si8 0.783196 0.571477 0.399943
O O1 0.500000 0.870417 0.117634
O O2 0.215631 0.810120 0.058135
O O3 0.203010 0.916277 0.170817
O O4 0.289111 0.919260 0.998182
O O5 0.500000 0.757581 0.993230
O O6 0.761784 0.680074 0.033230
O O7 0.787681 0.748569 0.897578
O O8 0.286627 0.858295 0.309025
O O9 0.000000 0.931549 0.311362
O O10 0.284701 0.000000 0.294887
O O11 0.719985 0.393263 0.158428
O O12 0.716290 0.270288 0.236204
O O13 0.719363 0.376761 0.328925
O O14 0.000000 0.344496 0.234949
O O15 0.500000 0.595238 0.024514
O O16 0.158019 0.556447 0.006548
O O17 0.000000 0.704079 0.775459
O O18 0.739256 0.500000 0.366537
O O19 0.000000 0.577139 0.406577
#
# Coordination Sequence:
#
# PCOD9358536 Si02
#       8
#     8   8   8   8   8   2   8   8
#     4  11  22  38  61  89 124 165 211 261 320 391
#     4  10  23  42  62  93 129 163 213 271 328 387
#     4  10  22  40  60  89 126 163 210 266 324 388
#     4  10  20  37  62  94 127 168 220 269 323 395
#     4  11  25  44  68  97 130 173 220 273 334 395
#     4  12  26  48  68  94 132 172 222 276 328 402
#     4  10  21  38  65  95 124 166 219 268 323 394
#     4  10  21  35  56  87 126 165 208 264 320 383
#
# _framework density 25.193352000000001
#
# number of rings (size 3 to 8) (size 9 to 14) (size 15 to 20)
#    0.000    1.655    2.069    1.862    1.931    4.414 
#    1.241    0.000    0.000    0.000    0.000    0.000 
#    0.000    0.000    0.000    0.000    0.000    0.000 
#
# Total GULP energy -161925.831105 kJ/mol
# GULP energy per Si atom -5583.649348 kJ/mol
# Density = 2.513601 g / cm^3
# Si number density = 25.193352 Si / 1000 Ang^3
#
#
#
# Elastic Constant Matrix: (Units=GPa)
#
#
# Indices 1 2 3 4 5 6 
#
# 1 103.5882 36.9297 -10.0599 0.0000 0.0000 0.0000
# 2 36.9297 172.1496 4.1155 0.0000 0.0000 0.0000
# 3 -10.0599 4.1155 72.5070 0.0000 0.0000 0.0000
# 4 0.0000 0.0000 0.0000 11.6849 0.0000 0.0000
# 5 0.0000 0.0000 0.0000 0.0000 32.1269 0.0000
# 6 0.0000 0.0000 0.0000 0.0000 0.0000 4.9521
#
#
#
# Elastic Compliance Matrix: (Units=1/GPa)
#
#
# Indices 1 2 3 4 5 6 
#
# 1 0.010637 -0.002320 0.001608 0.000000 0.000000 0.000000
# 2 -0.002320 0.006323 -0.000681 0.000000 0.000000 0.000000
# 3 0.001608 -0.000681 0.014053 0.000000 0.000000 0.000000
# 4 0.000000 0.000000 0.000000 0.085581 0.000000 0.000000
# 5 0.000000 0.000000 0.000000 0.000000 0.031127 0.000000
# 6 0.000000 0.000000 0.000000 0.000000 0.000000 0.201935
#
#
# Mechanical properties :
#
#
# Convention : Reuss Voigt Hill
#
# Bulk Modulus (GPa) = 35.42816 45.57949 40.50383
# Shear Modulus (GPa) = 13.81783 30.90341 22.36062
#
# Velocity S-wave (km/s) = 2.34449 3.50616 2.98243
# Velocity P-wave (km/s) = 4.62838 5.87554 5.28885
#
# Compressibility (1/GPa) = 0.02822613
#
# Stress axis : x y z
#
# Youngs Moduli (GPa) = 94.01223 158.15470 71.15689
#
# Poissons Ratio (x) = 0.36696 -0.11439
# Poissons Ratio (y) = 0.21813 0.04844
# Poissons Ratio (z) = -0.15113 0.10767
#
# Static dielectric constant tensor:
#      x y z
#    x 1.966400 0.000000 0.000000 
#    y 0.000000 1.980370 0.000000 
#    z 0.000000 0.000000 2.038990 
# 
# From -- ./inp_files/16990.got.cif
#   From: 2010.05.17/outbox.cif.g08.bks.cpg/sg38_9_cif.got.tgz:16990.got - 2010.06.03 18:07:57.
