data_PCOD9358238
_publ_section_title
;
Structure prediction by ZEFSAII (Michael W. Deem and Ramdas Pophale) SiO2 
 PCOD9358238
Probable space group: A M M 2
;
_chemical_formula_sum "Si O2"
_cell_formula_units_Z 56
_cell_length_a 20.802594
_cell_length_b 8.822191
_cell_length_c 15.704246
_cell_angle_alpha 90.000000
_cell_angle_beta 90.000000
_cell_angle_gamma 90.000000
_cell_volume 2882.113229
_symmetry_space_group_name_H-M "A M M 2"
_symmetry_group_IT_number 38
_symmetry_cell_setting 'orthorhombic'
loop_
_space_group_symop_operation_xyz
x,y,z
-x,-y,z
-x,y,z
x,-y,z
x,1/2+y,1/2+z
-x,1/2-y,1/2+z
-x,1/2+y,1/2+z
x,1/2-y,1/2+z
loop_
_atom_site_type_symbol
_atom_site_label
_atom_site_fract_x
_atom_site_fract_y
_atom_site_fract_z
Si Si1 0.297333 0.669391 0.781330
Si Si2 0.569617 0.177956 0.044835
Si Si3 0.430002 0.820232 0.729420
Si Si4 0.163661 0.684106 0.980545
Si Si5 0.926237 0.684740 0.136376
Si Si6 0.304395 0.170040 0.483722
Si Si7 0.164665 0.318481 0.291278
O O1 0.293977 0.500000 0.744293
O O2 0.366015 0.742253 0.762854
O O3 0.294023 0.657693 0.883100
O O4 0.234810 0.766071 0.757758
O O5 0.500000 0.202155 0.000496
O O6 0.568670 0.276615 0.130209
O O7 0.573003 0.000000 0.066363
O O8 0.633901 0.226671 0.997566
O O9 0.500000 0.769540 0.764929
O O10 0.425511 0.000000 0.741384
O O11 0.164039 0.500000 0.973835
O O12 0.235048 0.727477 0.014947
O O13 0.153475 0.750529 0.885871
O O14 0.111255 0.730677 0.050473
O O15 0.926077 0.500000 0.136298
O O16 0.887821 0.730928 0.221424
O O17 0.000000 0.735771 0.136920
O O18 0.316622 0.000000 0.518416
O O19 0.163941 0.500000 0.297937
#
# Coordination Sequence:
#
# PCOD9358238 Si02
#       7
#     8   8   8   8   8   8   8
#     4  10  21  37  56  80 109 144 185 231 281 336
#     4  10  21  35  51  75 107 142 182 229 278 328
#     4  10  21  36  54  77 107 144 185 229 279 334
#     4   9  19  37  58  82 115 153 191 235 285 344
#     4   9  19  36  59  87 117 153 193 229 281 352
#     4   9  19  34  53  76 104 139 182 228 276 330
#     4  10  20  35  58  87 117 151 192 241 289 340
#
# _framework density 19.430188000000001
#
# number of rings (size 3 to 8) (size 9 to 14) (size 15 to 20)
#    0.000    2.429    0.000    2.571    2.000    5.714 
#    0.000    4.286    0.000    3.000    0.000    0.000 
#    0.000    0.000    0.000    0.000    0.000    0.000 
#
# Total GULP energy -156078.554321 kJ/mol
# GULP energy per Si atom -5574.234083 kJ/mol
# Density = 1.938596 g / cm^3
# Si number density = 19.430188 Si / 1000 Ang^3
#
#
#
# Elastic Constant Matrix: (Units=GPa)
#
#
# Indices 1 2 3 4 5 6 
#
# 1 194.7920 41.7658 66.0462 0.0000 0.0000 0.0000
# 2 41.7658 43.4723 18.3234 0.0000 0.0000 0.0000
# 3 66.0462 18.3234 65.2673 0.0000 0.0000 0.0000
# 4 0.0000 0.0000 0.0000 31.1034 0.0000 0.0000
# 5 0.0000 0.0000 0.0000 0.0000 48.8723 0.0000
# 6 0.0000 0.0000 0.0000 0.0000 0.0000 19.3896
#
#
#
# Elastic Compliance Matrix: (Units=1/GPa)
#
#
# Indices 1 2 3 4 5 6 
#
# 1 0.008781 -0.005320 -0.007392 0.000000 0.000000 0.000000
# 2 -0.005320 0.029314 -0.002846 0.000000 0.000000 0.000000
# 3 -0.007392 -0.002846 0.023601 0.000000 0.000000 0.000000
# 4 0.000000 0.000000 0.000000 0.032151 0.000000 0.000000
# 5 0.000000 0.000000 0.000000 0.000000 0.020461 0.000000
# 6 0.000000 0.000000 0.000000 0.000000 0.000000 0.051574
#
#
# Mechanical properties :
#
#
# Convention : Reuss Voigt Hill
#
# Bulk Modulus (GPa) = 32.70188 61.75584 47.22886
# Shear Modulus (GPa) = 24.13230 31.69947 27.91588
#
# Velocity S-wave (km/s) = 3.52803 4.04351 3.79453
# Velocity P-wave (km/s) = 5.78472 7.32478 6.59982
#
# Compressibility (1/GPa) = 0.03057928
#
# Stress axis : x y z
#
# Youngs Moduli (GPa) = 113.88599 34.11313 42.37181
#
# Poissons Ratio (x) = 0.18150 0.31320
# Poissons Ratio (y) = 0.60592 0.12059
# Poissons Ratio (z) = 0.84182 0.09708
#
# Static dielectric constant tensor:
#      x y z
#    x 1.718210 0.000000 0.000000 
#    y 0.000000 1.671180 0.000000 
#    z 0.000000 0.000000 1.684480 
# 
# From -- ./inp_files/15458.got.cif
#   From: 2010.05.17/outbox.cif.g08.bks.cpg/sg38_8_cif.got.tgz:15458.got - 2010.06.03 18:07:57.
