data_PCOD9358537
_publ_section_title
;
Structure prediction by ZEFSAII (Michael W. Deem and Ramdas Pophale) SiO2 
 PCOD9358537
Probable space group: A M M 2
;
_chemical_formula_sum "Si O2"
_cell_formula_units_Z 32
_cell_length_a 12.085500
_cell_length_b 13.899428
_cell_length_c 7.490825
_cell_angle_alpha 90.000000
_cell_angle_beta 90.000000
_cell_angle_gamma 90.000000
_cell_volume 1258.320298
_symmetry_space_group_name_H-M "A M M 2"
_symmetry_group_IT_number 38
_symmetry_cell_setting 'orthorhombic'
loop_
_space_group_symop_operation_xyz
x,y,z
-x,-y,z
-x,y,z
x,-y,z
x,1/2+y,1/2+z
-x,1/2-y,1/2+z
-x,1/2+y,1/2+z
x,1/2-y,1/2+z
loop_
_atom_site_type_symbol
_atom_site_label
_atom_site_fract_x
_atom_site_fract_y
_atom_site_fract_z
Si Si1 0.866948 0.605822 0.422270
Si Si2 0.500000 0.382981 0.128988
Si Si3 0.328727 0.385819 0.831110
Si Si4 0.500000 0.617144 0.536588
Si Si5 0.131958 0.683754 0.029801
O O1 0.819817 0.500000 0.469636
O O2 0.841770 0.630756 0.215429
O O3 0.838666 0.703274 0.525598
O O4 0.000000 0.598865 0.435870
O O5 0.500000 0.500000 0.137623
O O6 0.395872 0.353441 0.008026
O O7 0.500000 0.348515 0.332696
O O8 0.340188 0.500000 0.827243
O O9 0.202698 0.362493 0.873121
O O10 0.393884 0.352933 0.654768
O O11 0.500000 0.500000 0.528089
O O12 0.000000 0.675630 0.999358
#
# Coordination Sequence:
#
# PCOD9358537 Si02
#       5
#     8   4   8   4   8
#     4   9  19  38  62  89 129 179 225 271 323 389
#     4   8  15  31  56  87 126 174 227 283 338 391
#     4   9  17  31  57  94 133 174 223 278 337 404
#     4   8  15  31  56  89 128 172 229 285 332 397
#     4  10  20  37  62  94 133 173 218 270 333 412
#
# _framework density 25.430724999999999
#
# number of rings (size 3 to 8) (size 9 to 14) (size 15 to 20)
#    0.000    3.000    0.000    2.250    0.000    1.500 
#    4.500    2.500    0.000   18.000    0.000   10.500 
#    0.000    2.000    0.000    0.000    0.000    0.000 
#
# Total GULP energy -89511.623484 kJ/mol
# GULP energy per Si atom -5594.476468 kJ/mol
# Density = 2.537284 g / cm^3
# Si number density = 25.430725 Si / 1000 Ang^3
#
#
#
# Elastic Constant Matrix: (Units=GPa)
#
#
# Indices 1 2 3 4 5 6 
#
# 1 83.0126 -5.0806 54.5048 0.0000 0.0000 0.0000
# 2 -5.0806 128.9067 11.8251 0.0000 0.0000 0.0000
# 3 54.5048 11.8251 169.2413 0.0000 0.0000 0.0000
# 4 0.0000 0.0000 0.0000 29.2829 0.0000 0.0000
# 5 0.0000 0.0000 0.0000 0.0000 22.6548 0.0000
# 6 0.0000 0.0000 0.0000 0.0000 0.0000 -17.9454
#
#
#
# Elastic Compliance Matrix: (Units=1/GPa)
#
#
# Indices 1 2 3 4 5 6 
#
# 1 0.015422 0.001070 -0.005042 0.000000 0.000000 0.000000
# 2 0.001070 0.007882 -0.000895 0.000000 0.000000 0.000000
# 3 -0.005042 -0.000895 0.007595 0.000000 0.000000 0.000000
# 4 0.000000 0.000000 0.000000 0.034150 0.000000 0.000000
# 5 0.000000 0.000000 0.000000 0.000000 0.044141 0.000000
# 6 0.000000 0.000000 0.000000 0.000000 0.000000 -0.055725
#
#
# Mechanical properties :
#
#
# Convention : Reuss Voigt Hill
#
# Bulk Modulus (GPa) = 47.24645 55.96212 51.60428
# Shear Modulus (GPa) = 71.17136 28.12589 49.64863
#
# Velocity S-wave (km/s) = 5.29595 3.32924 4.42329
# Velocity P-wave (km/s) = 7.48432 6.06893 6.81348
#
# Compressibility (1/GPa) = 0.02116561
#
# Stress axis : x y z
#
# Youngs Moduli (GPa) = 64.84223 126.87342 131.66681
#
# Poissons Ratio (x) = -0.13579 0.66380
# Poissons Ratio (y) = -0.06940 0.11790
# Poissons Ratio (z) = 0.32690 0.11360
#
# Static dielectric constant tensor:
#      x y z
#    x 2.003740 0.000000 0.000000 
#    y 0.000000 2.029270 0.000000 
#    z 0.000000 0.000000 1.992170 
# 
# From -- ./inp_files/4163.got.cif
#   From: 2010.05.17/outbox.cif.g08.bks.cpg/sg38_3_cif.got.tgz:4163.got - 2010.06.03 18:07:57.
