data_PCOD9358349
_publ_section_title
;
Structure prediction by ZEFSAII (Michael W. Deem and Ramdas Pophale) SiO2 
 PCOD9358349
Probable space group: A M M 2
;
_chemical_formula_sum "Si O2"
_cell_formula_units_Z 40
_cell_length_a 7.806309
_cell_length_b 7.914429
_cell_length_c 30.676436
_cell_angle_alpha 90.000000
_cell_angle_beta 90.000000
_cell_angle_gamma 90.000000
_cell_volume 1895.266242
_symmetry_space_group_name_H-M "A M M 2"
_symmetry_group_IT_number 38
_symmetry_cell_setting 'orthorhombic'
loop_
_space_group_symop_operation_xyz
x,y,z
-x,-y,z
-x,y,z
x,-y,z
x,1/2+y,1/2+z
-x,1/2-y,1/2+z
-x,1/2+y,1/2+z
x,1/2-y,1/2+z
loop_
_atom_site_type_symbol
_atom_site_label
_atom_site_fract_x
_atom_site_fract_y
_atom_site_fract_z
Si Si1 0.198939 0.794501 0.360600
Si Si2 0.790604 0.301972 0.954714
Si Si3 0.793914 0.682598 0.548295
Si Si4 0.297607 0.000000 0.607379
Si Si5 0.288339 0.000000 0.706403
Si Si6 0.701468 0.691155 0.764610
O O1 0.269027 0.735801 0.407488
O O2 0.281641 0.748762 0.314760
O O3 0.000000 0.745096 0.357814
O O4 0.206343 0.000000 0.363030
O O5 0.745719 0.500000 0.958737
O O6 0.000000 0.293754 0.953284
O O7 0.731835 0.213272 0.998788
O O8 0.733029 0.500000 0.564209
O O9 0.750292 0.835500 0.579772
O O10 0.000000 0.679385 0.545600
O O11 0.500000 0.000000 0.611753
O O12 0.228261 0.000000 0.656521
O O13 0.229307 0.832529 0.732067
O O14 0.500000 0.000000 0.707379
O O15 0.500000 0.677090 0.755381
O O16 0.775224 0.500000 0.761162
#
# Coordination Sequence:
#
# PCOD9358349 Si02
#       6
#     8   8   8   4   4   8
#     4   8  14  26  47  75 105 137 170 207 255 307
#     4   8  13  26  50  75 103 141 178 211 254 317
#     4  10  20  36  59  83 109 145 187 228 274 334
#     4  11  23  39  59  81 109 145 185 239 288 327
#     4   9  20  37  55  75  99 135 181 217 264 329
#     4   9  17  32  53  73  97 132 172 213 256 310
#
# _framework density 21.105215000000001
#
# number of rings (size 3 to 8) (size 9 to 14) (size 15 to 20)
#    0.000    3.000    1.000    1.500    0.000    1.200 
#    1.800    5.500    0.000    2.400    0.000    0.000 
#    0.000    0.000    0.000    0.000    0.000    0.000 
#
# Total GULP energy -111511.026046 kJ/mol
# GULP energy per Si atom -5575.551302 kJ/mol
# Density = 2.105718 g / cm^3
# Si number density = 21.105215 Si / 1000 Ang^3
#
#
#
# Elastic Constant Matrix: (Units=GPa)
#
#
# Indices 1 2 3 4 5 6 
#
# 1 21.7044 8.0549 8.0312 0.0000 0.0000 0.0000
# 2 8.0549 136.0797 106.5930 0.0000 0.0000 0.0000
# 3 8.0312 106.5930 194.3363 0.0000 0.0000 0.0000
# 4 0.0000 0.0000 0.0000 -7.2557 0.0000 0.0000
# 5 0.0000 0.0000 0.0000 0.0000 24.3394 0.0000
# 6 0.0000 0.0000 0.0000 0.0000 0.0000 -4.7844
#
#
#
# Elastic Compliance Matrix: (Units=1/GPa)
#
#
# Indices 1 2 3 4 5 6 
#
# 1 0.047168 -0.002218 -0.000733 0.000000 0.000000 0.000000
# 2 -0.002218 0.012989 -0.007033 0.000000 0.000000 0.000000
# 3 -0.000733 -0.007033 0.009033 0.000000 0.000000 0.000000
# 4 0.000000 0.000000 0.000000 -0.137822 0.000000 0.000000
# 5 0.000000 0.000000 0.000000 0.000000 0.041086 0.000000
# 6 0.000000 0.000000 0.000000 0.000000 0.000000 -0.209012
#
#
# Mechanical properties :
#
#
# Convention : Reuss Voigt Hill
#
# Bulk Modulus (GPa) = 20.31563 66.38652 43.35107
# Shear Modulus (GPa) = -24.97696 17.75594 -3.61051
#
# Velocity S-wave (km/s) = -3.44386 2.90367 -1.30936
# Velocity P-wave (km/s) = 2.48331 6.53950 4.27775
#
# Compressibility (1/GPa) = 0.04922319
#
# Stress axis : x y z
#
# Youngs Moduli (GPa) = 21.20089 76.99043 110.70094
#
# Poissons Ratio (x) = 0.17077 0.08111
# Poissons Ratio (y) = 0.04703 0.77851
# Poissons Ratio (z) = 0.01553 0.54144
#
# Static dielectric constant tensor:
#      x y z
#    x 1.782170 0.000000 0.000000 
#    y 0.000000 1.769090 0.000000 
#    z 0.000000 0.000000 1.762140 
# 
# From -- ./inp_files/23207.got.cif
#   From: 2010.05.17/outbox.cif.g08.bks.cpg/sg38_12_cif.got.tgz:23207.got - 2010.06.03 18:07:57.
