data_PCOD9358906
_publ_section_title
;
Structure prediction by ZEFSAII (Michael W. Deem and Ramdas Pophale) SiO2 
 PCOD9358906
Probable space group: A M M 2
;
_chemical_formula_sum "Si O2"
_cell_formula_units_Z 48
_cell_length_a 9.012004
_cell_length_b 19.169121
_cell_length_c 15.626728
_cell_angle_alpha 90.000000
_cell_angle_beta 90.000000
_cell_angle_gamma 90.000000
_cell_volume 2699.551565
_symmetry_space_group_name_H-M "A M M 2"
_symmetry_group_IT_number 38
_symmetry_cell_setting 'orthorhombic'
loop_
_space_group_symop_operation_xyz
x,y,z
-x,-y,z
-x,y,z
x,-y,z
x,1/2+y,1/2+z
-x,1/2-y,1/2+z
-x,1/2+y,1/2+z
x,1/2-y,1/2+z
loop_
_atom_site_type_symbol
_atom_site_label
_atom_site_fract_x
_atom_site_fract_y
_atom_site_fract_z
Si Si1 0.322982 0.582164 0.272540
Si Si2 0.822228 0.832642 0.618717
Si Si3 0.677654 0.082052 0.466995
Si Si4 0.678535 0.419335 0.769510
Si Si5 0.177683 0.918393 0.954648
Si Si6 0.178667 0.830052 0.120449
O O1 0.500000 0.591037 0.270859
O O2 0.290565 0.500000 0.256508
O O3 0.247887 0.628685 0.200145
O O4 0.259407 0.599138 0.366357
O O5 0.762533 0.870522 0.534030
O O6 0.780289 0.751150 0.617857
O O7 0.000000 0.837666 0.622490
O O8 0.500000 0.091432 0.476568
O O9 0.717110 0.097108 0.368174
O O10 0.708388 0.000000 0.482810
O O11 0.500000 0.415563 0.762958
O O12 0.721749 0.500000 0.752837
O O13 0.752090 0.368596 0.701682
O O14 0.000000 0.911204 0.942306
O O15 0.207579 0.000000 0.974520
O O16 0.223859 0.870196 0.033742
O O17 0.000000 0.834781 0.125894
#
# Coordination Sequence:
#
# PCOD9358906 Si02
#       6
#     8   8   8   8   8   8
#     4  10  21  37  57  80 105 136 177 223 268 315
#     4  11  23  36  52  78 111 144 178 217 262 314
#     4   9  19  37  58  79 105 137 175 221 269 314
#     4   9  19  36  58  83 109 138 175 220 266 312
#     4   9  18  35  58  80 104 137 176 218 263 310
#     4  10  22  37  53  78 112 146 177 214 262 314
#
# _framework density 17.780730999999999
#
# number of rings (size 3 to 8) (size 9 to 14) (size 15 to 20)
#    0.000    2.333    0.000    3.000    0.000    8.333 
#    0.000    8.333    0.000    0.000    0.000    0.000 
#    0.000    0.000    0.000    0.000    0.000    0.000 
#
# Total GULP energy -134005.133137 kJ/mol
# GULP energy per Si atom -5583.547214 kJ/mol
# Density = 1.774026 g / cm^3
# Si number density = 17.780731 Si / 1000 Ang^3
#
#
#
# Elastic Constant Matrix: (Units=GPa)
#
#
# Indices 1 2 3 4 5 6 
#
# 1 39.5931 65.9377 67.6343 0.0000 0.0000 0.0000
# 2 65.9377 141.1037 137.3907 0.0000 0.0000 0.0000
# 3 67.6343 137.3907 176.2858 0.0000 0.0000 0.0000
# 4 0.0000 0.0000 0.0000 13.4880 0.0000 0.0000
# 5 0.0000 0.0000 0.0000 0.0000 38.3132 0.0000
# 6 0.0000 0.0000 0.0000 0.0000 0.0000 25.8336
#
#
#
# Elastic Compliance Matrix: (Units=1/GPa)
#
#
# Indices 1 2 3 4 5 6 
#
# 1 0.117600 -0.045711 -0.009493 0.000000 0.000000 0.000000
# 2 -0.045711 0.047157 -0.019215 0.000000 0.000000 0.000000
# 3 -0.009493 -0.019215 0.024290 0.000000 0.000000 0.000000
# 4 0.000000 0.000000 0.000000 0.074140 0.000000 0.000000
# 5 0.000000 0.000000 0.000000 0.000000 0.026101 0.000000
# 6 0.000000 0.000000 0.000000 0.000000 0.000000 0.038709
#
#
# Mechanical properties :
#
#
# Convention : Reuss Voigt Hill
#
# Bulk Modulus (GPa) = 24.87003 99.87866 62.37435
# Shear Modulus (GPa) = 10.19914 21.26163 15.73038
#
# Velocity S-wave (km/s) = 2.39761 3.46174 2.97760
# Velocity P-wave (km/s) = 4.65641 8.50133 6.85400
#
# Compressibility (1/GPa) = 0.04020904
#
# Stress axis : x y z
#
# Youngs Moduli (GPa) = 8.50338 21.20589 41.16924
#
# Poissons Ratio (x) = 0.96934 0.39083
# Poissons Ratio (y) = 0.38870 0.79105
# Poissons Ratio (z) = 0.08073 0.40746
#
# Static dielectric constant tensor:
#      x y z
#    x 1.585880 0.000000 0.000000 
#    y 0.000000 1.586040 0.000000 
#    z 0.000000 0.000000 1.579060 
# 
# From -- ./inp_files/12003.got.cif
#   From: 2010.05.17/outbox.cif.g08.bks.cpg/sg38_7_cif.got.tgz:12003.got - 2010.06.03 18:07:57.
