data_PCOD9358178
_publ_section_title
;
Structure prediction by ZEFSAII (Michael W. Deem and Ramdas Pophale) SiO2 
 PCOD9358178
Probable space group: A M M 2
;
_chemical_formula_sum "Si O2"
_cell_formula_units_Z 56
_cell_length_a 21.847968
_cell_length_b 7.423394
_cell_length_c 14.608285
_cell_angle_alpha 90.000000
_cell_angle_beta 90.000000
_cell_angle_gamma 90.000000
_cell_volume 2369.260400
_symmetry_space_group_name_H-M "A M M 2"
_symmetry_group_IT_number 38
_symmetry_cell_setting 'orthorhombic'
loop_
_space_group_symop_operation_xyz
x,y,z
-x,-y,z
-x,y,z
x,-y,z
x,1/2+y,1/2+z
-x,1/2-y,1/2+z
-x,1/2+y,1/2+z
x,1/2-y,1/2+z
loop_
_atom_site_type_symbol
_atom_site_label
_atom_site_fract_x
_atom_site_fract_y
_atom_site_fract_z
Si Si1 0.000000 0.277846 0.363670
Si Si2 0.000000 0.778222 0.083193
Si Si3 0.330355 0.281403 0.615056
Si Si4 0.335896 0.716476 0.823415
Si Si5 0.809202 0.209309 0.574171
Si Si6 0.801326 0.779706 0.370565
Si Si7 0.431397 0.211355 0.975710
Si Si8 0.893830 0.750754 0.223406
O O1 0.942504 0.202957 0.304865
O O2 0.000000 0.500000 0.354348
O O3 0.000000 0.237637 0.473473
O O4 0.057038 0.704382 0.142810
O O5 0.000000 0.000000 0.091899
O O6 0.329591 0.500000 0.612315
O O7 0.339328 0.223546 0.719099
O O8 0.263783 0.221455 0.582130
O O9 0.385031 0.213112 0.551454
O O10 0.335445 0.500000 0.824836
O O11 0.269971 0.772440 0.863500
O O12 0.393885 0.774666 0.881865
O O13 0.825928 0.261226 0.471335
O O14 0.843373 0.322009 0.650627
O O15 0.826259 0.000000 0.590236
O O16 0.841609 0.684871 0.294274
O O17 0.805625 0.000000 0.357508
O O18 0.500000 0.286776 0.972393
O O19 0.437181 0.000000 0.996813
#
# Coordination Sequence:
#
# PCOD9358178 Si02
#       8
#     4   4   8   8   8   8   8   8
#     4  10  22  40  54  78 116 148 192 243 288 347
#     4  10  22  38  60  84 112 152 199 243 286 347
#     4  10  21  38  60  86 117 156 195 241 294 348
#     4  10  20  37  60  87 118 155 194 241 293 347
#     4  11  22  36  57  87 119 154 192 239 297 353
#     4  10  20  35  56  85 119 147 187 242 292 347
#     4  10  22  40  60  86 121 158 198 243 291 347
#     4  11  21  37  59  83 113 154 193 239 299 352
#
# _framework density 23.636068000000002
#
# number of rings (size 3 to 8) (size 9 to 14) (size 15 to 20)
#    0.000    1.714    2.857    1.714    0.000    2.000 
#    0.000    2.857    0.000    6.857    0.000    0.000 
#    0.000    0.000    0.000    0.000    0.000    0.000 
#
# Total GULP energy -155907.601959 kJ/mol
# GULP energy per Si atom -5568.128641 kJ/mol
# Density = 2.358227 g / cm^3
# Si number density = 23.636068 Si / 1000 Ang^3
#
#
#
# Elastic Constant Matrix: (Units=GPa)
#
#
# Indices 1 2 3 4 5 6 
#
# 1 194.7279 17.8741 80.9633 0.0000 0.0000 0.0000
# 2 17.8741 107.5386 27.4607 0.0000 0.0000 0.0000
# 3 80.9633 27.4607 235.1359 0.0000 0.0000 0.0000
# 4 0.0000 0.0000 0.0000 -20.3664 0.0000 0.0000
# 5 0.0000 0.0000 0.0000 0.0000 25.3171 0.0000
# 6 0.0000 0.0000 0.0000 0.0000 0.0000 338.1471
#
#
#
# Elastic Compliance Matrix: (Units=1/GPa)
#
#
# Indices 1 2 3 4 5 6 
#
# 1 0.006018 -0.000486 -0.002015 0.000000 0.000000 0.000000
# 2 -0.000486 0.009624 -0.000957 0.000000 0.000000 0.000000
# 3 -0.002015 -0.000957 0.005059 0.000000 0.000000 0.000000
# 4 0.000000 0.000000 0.000000 -0.049100 0.000000 0.000000
# 5 0.000000 0.000000 0.000000 0.000000 0.039499 0.000000
# 6 0.000000 0.000000 0.000000 0.000000 0.000000 0.002957
#
#
# Mechanical properties :
#
#
# Convention : Reuss Voigt Hill
#
# Bulk Modulus (GPa) = 72.54285 87.77762 80.16024
# Shear Modulus (GPa) = 195.56602 96.02652 145.79627
#
# Velocity S-wave (km/s) = 9.10605 6.38086 7.86242
# Velocity P-wave (km/s) = 11.88774 9.56582 10.78942
#
# Compressibility (1/GPa) = 0.01378496
#
# Stress axis : x y z
#
# Youngs Moduli (GPa) = 166.17090 103.90682 197.68512
#
# Poissons Ratio (x) = 0.05046 0.39842
# Poissons Ratio (y) = 0.08069 0.18914
# Poissons Ratio (z) = 0.33490 0.09941
#
# Static dielectric constant tensor:
#      x y z
#    x 1.847320 0.000000 0.000000 
#    y 0.000000 1.939660 0.000000 
#    z 0.000000 0.000000 1.848420 
# 
# From -- ./inp_files/15559.got.cif
#   From: 2010.05.17/outbox.cif.g08.bks.cpg/sg38_8_cif.got.tgz:15559.got - 2010.06.03 18:07:57.
