data_PCOD9358205
_publ_section_title
;
Structure prediction by ZEFSAII (Michael W. Deem and Ramdas Pophale) SiO2 
 PCOD9358205
Probable space group: A M M 2
;
_chemical_formula_sum "Si O2"
_cell_formula_units_Z 48
_cell_length_a 8.569760
_cell_length_b 9.326293
_cell_length_c 31.724861
_cell_angle_alpha 90.000000
_cell_angle_beta 90.000000
_cell_angle_gamma 90.000000
_cell_volume 2535.580731
_symmetry_space_group_name_H-M "A M M 2"
_symmetry_group_IT_number 38
_symmetry_cell_setting 'orthorhombic'
loop_
_space_group_symop_operation_xyz
x,y,z
-x,-y,z
-x,y,z
x,-y,z
x,1/2+y,1/2+z
-x,1/2-y,1/2+z
-x,1/2+y,1/2+z
x,1/2-y,1/2+z
loop_
_atom_site_type_symbol
_atom_site_label
_atom_site_fract_x
_atom_site_fract_y
_atom_site_fract_z
Si Si1 0.690485 0.335163 0.837930
Si Si2 0.311976 0.667615 0.254584
Si Si3 0.313215 0.165785 0.083172
Si Si4 0.311066 0.165857 0.921528
Si Si5 0.187026 0.834312 0.502498
Si Si6 0.813545 0.167444 0.663086
O O1 0.500000 0.333947 0.837838
O O2 0.740906 0.500000 0.840946
O O3 0.740014 0.261671 0.794272
O O4 0.740127 0.244093 0.878561
O O5 0.500000 0.678109 0.251228
O O6 0.273697 0.500000 0.262097
O O7 0.239260 0.710878 0.209954
O O8 0.500000 0.169235 0.080084
O O9 0.243564 0.255942 0.044674
O O10 0.261542 0.236439 0.127007
O O11 0.261976 0.000000 0.080772
O O12 0.500000 0.167811 0.922333
O O13 0.261121 0.000000 0.922334
O O14 0.250649 0.250739 0.961966
O O15 0.000000 0.832749 0.501594
O O16 0.239929 0.000000 0.502015
O O17 0.000000 0.175113 0.659829
O O18 0.766685 0.000000 0.657404
#
# Coordination Sequence:
#
# PCOD9358205 Si02
#       6
#     8   8   8   8   8   8
#     4   9  17  30  51  79 109 142 183 231 278 321
#     4   9  17  31  52  77 106 142 184 229 276 325
#     4  11  24  40  59  84 111 141 181 226 271 323
#     4  10  20  35  57  84 112 144 185 229 272 322
#     4  11  24  40  58  82 112 145 181 222 271 327
#     4  10  21  37  57  82 112 146 184 225 272 327
#
# _framework density 18.930575000000001
#
# number of rings (size 3 to 8) (size 9 to 14) (size 15 to 20)
#    0.000    2.000    0.000    3.500    0.000   11.333 
#    0.000    2.500    0.000    3.000    0.000    0.000 
#    0.000    0.000    0.000    0.000    0.000    0.000 
#
# Total GULP energy -134094.230649 kJ/mol
# GULP energy per Si atom -5587.259610 kJ/mol
# Density = 1.888749 g / cm^3
# Si number density = 18.930575 Si / 1000 Ang^3
#
#
#
# Elastic Constant Matrix: (Units=GPa)
#
#
# Indices 1 2 3 4 5 6 
#
# 1 16.8140 33.2143 26.1287 0.0000 0.0000 0.0000
# 2 33.2143 177.2047 121.9391 0.0000 0.0000 0.0000
# 3 26.1287 121.9391 175.0905 0.0000 0.0000 0.0000
# 4 0.0000 0.0000 0.0000 42.3444 0.0000 0.0000
# 5 0.0000 0.0000 0.0000 0.0000 -91.2349 0.0000
# 6 0.0000 0.0000 0.0000 0.0000 0.0000 20.0175
#
#
#
# Elastic Compliance Matrix: (Units=1/GPa)
#
#
# Indices 1 2 3 4 5 6 
#
# 1 0.095502 -0.015541 -0.003428 0.000000 0.000000 0.000000
# 2 -0.015541 0.013365 -0.006989 0.000000 0.000000 0.000000
# 3 -0.003428 -0.006989 0.011090 0.000000 0.000000 0.000000
# 4 0.000000 0.000000 0.000000 0.023616 0.000000 0.000000
# 5 0.000000 0.000000 0.000000 0.000000 -0.010961 0.000000
# 6 0.000000 0.000000 0.000000 0.000000 0.000000 0.049956
#
#
# Mechanical properties :
#
#
# Convention : Reuss Voigt Hill
#
# Bulk Modulus (GPa) = 14.69712 81.29705 47.99708
# Shear Modulus (GPa) = 19.44271 6.74723 13.09497
#
# Velocity S-wave (km/s) = 3.20824 1.88996 2.63294
# Velocity P-wave (km/s) = 4.63728 6.91380 5.88664
#
# Compressibility (1/GPa) = 0.06804055
#
# Stress axis : x y z
#
# Youngs Moduli (GPa) = 10.47102 74.81978 90.16936
#
# Poissons Ratio (x) = 1.16280 0.30911
# Poissons Ratio (y) = 0.16273 0.63019
# Poissons Ratio (z) = 0.03590 0.52291
#
# Static dielectric constant tensor:
#      x y z
#    x 1.643340 0.000000 0.000000 
#    y 0.000000 1.645670 0.000000 
#    z 0.000000 0.000000 1.614990 
# 
# From -- ./inp_files/24282.got.cif
#   From: 2010.05.17/outbox.cif.g08.bks.cpg/sg38_13_cif.got.tgz:24282.got - 2010.06.03 18:07:57.
