data_PCOD9358033
_publ_section_title
;
Structure prediction by ZEFSAII (Michael W. Deem and Ramdas Pophale) SiO2 
 PCOD9358033
Probable space group: A M M 2
;
_chemical_formula_sum "Si O2"
_cell_formula_units_Z 64
_cell_length_a 7.641018
_cell_length_b 16.152293
_cell_length_c 24.397976
_cell_angle_alpha 90.000000
_cell_angle_beta 90.000000
_cell_angle_gamma 90.000000
_cell_volume 3011.197260
_symmetry_space_group_name_H-M "A M M 2"
_symmetry_group_IT_number 38
_symmetry_cell_setting 'orthorhombic'
loop_
_space_group_symop_operation_xyz
x,y,z
-x,-y,z
-x,y,z
x,-y,z
x,1/2+y,1/2+z
-x,1/2-y,1/2+z
-x,1/2+y,1/2+z
x,1/2-y,1/2+z
loop_
_atom_site_type_symbol
_atom_site_label
_atom_site_fract_x
_atom_site_fract_y
_atom_site_fract_z
Si Si1 0.290660 0.754080 0.331340
Si Si2 0.293548 0.909525 0.642061
Si Si3 0.211521 0.656750 0.518337
Si Si4 0.284587 0.248127 0.205995
Si Si5 0.291924 0.909275 0.137195
Si Si6 0.290848 0.408651 0.902359
Si Si7 0.789109 0.091850 0.900758
Si Si8 0.790546 0.847317 0.522824
O O1 0.500000 0.763697 0.328929
O O2 0.227415 0.754692 0.268927
O O3 0.220859 0.831001 0.367393
O O4 0.256876 0.666821 0.360719
O O5 0.500000 0.912800 0.654452
O O6 0.222889 0.831414 0.675671
O O7 0.275440 0.891114 0.577545
O O8 0.217731 0.000000 0.654754
O O9 0.265299 0.609890 0.573172
O O10 0.272882 0.614908 0.462077
O O11 0.272556 0.752038 0.521205
O O12 0.000000 0.657715 0.516933
O O13 0.500000 0.248415 0.204691
O O14 0.223851 0.167619 0.172496
O O15 0.500000 0.911944 0.147114
O O16 0.219214 0.000000 0.150666
O O17 0.500000 0.410660 0.894034
O O18 0.221713 0.500000 0.887769
O O19 0.260194 0.391157 0.966445
O O20 0.000000 0.089052 0.902787
O O21 0.726559 0.000000 0.884802
O O22 0.000000 0.846173 0.525904
#
# Coordination Sequence:
#
# PCOD9358033 Si02
#       8
#     8   8   8   8   8   8   8   8
#     4  10  21  37  58  81 107 143 186 229 266 311
#     4  10  20  35  56  79 107 144 178 213 265 324
#     4  10  20  35  56  80 109 144 177 214 268 328
#     4   9  19  36  55  78 108 141 178 222 267 310
#     4  10  20  34  56  84 110 139 177 220 266 318
#     4  10  21  36  55  81 112 145 179 218 270 326
#     4  10  21  38  58  80 110 146 179 218 274 330
#     4  11  21  34  56  83 109 140 178 222 268 317
#
# _framework density 21.254003999999998
#
# number of rings (size 3 to 8) (size 9 to 14) (size 15 to 20)
#    0.000    2.000    2.500    1.125    0.000    5.000 
#    0.000    5.000    0.000    0.000    0.000    1.750 
#    0.000    0.000    0.000    0.000    0.000    0.000 
#
# Total GULP energy -178789.231253 kJ/mol
# GULP energy per Si atom -5587.163477 kJ/mol
# Density = 2.120563 g / cm^3
# Si number density = 21.254004 Si / 1000 Ang^3
#
#
#
# Elastic Constant Matrix: (Units=GPa)
#
#
# Indices 1 2 3 4 5 6 
#
# 1 40.5268 5.7366 -7.5403 0.0000 0.0000 0.0000
# 2 5.7366 213.5862 88.1091 0.0000 0.0000 0.0000
# 3 -7.5403 88.1091 149.1123 0.0000 0.0000 0.0000
# 4 0.0000 0.0000 0.0000 7.6603 0.0000 0.0000
# 5 0.0000 0.0000 0.0000 0.0000 5.0673 0.0000
# 6 0.0000 0.0000 0.0000 0.0000 0.0000 8.9857
#
#
#
# Elastic Compliance Matrix: (Units=1/GPa)
#
#
# Indices 1 2 3 4 5 6 
#
# 1 0.025315 -0.001597 0.002224 0.000000 0.000000 0.000000
# 2 -0.001597 0.006292 -0.003799 0.000000 0.000000 0.000000
# 3 0.002224 -0.003799 0.009063 0.000000 0.000000 0.000000
# 4 0.000000 0.000000 0.000000 0.130544 0.000000 0.000000
# 5 0.000000 0.000000 0.000000 0.000000 0.197343 0.000000
# 6 0.000000 0.000000 0.000000 0.000000 0.000000 0.111289
#
#
# Mechanical properties :
#
#
# Convention : Reuss Voigt Hill
#
# Bulk Modulus (GPa) = 29.13220 63.98179 46.55700
# Shear Modulus (GPa) = 10.04759 25.47064 17.75912
#
# Velocity S-wave (km/s) = 2.17661 3.46554 2.89375
# Velocity P-wave (km/s) = 4.47809 6.79573 5.75479
#
# Compressibility (1/GPa) = 0.03432628
#
# Stress axis : x y z
#
# Youngs Moduli (GPa) = 39.50234 158.93575 110.33435
#
# Poissons Ratio (x) = 0.25388 -0.24538
# Poissons Ratio (y) = 0.06310 0.41911
# Poissons Ratio (z) = -0.08785 0.60373
#
# Static dielectric constant tensor:
#      x y z
#    x 1.786290 0.000000 0.000000 
#    y 0.000000 1.782900 0.000000 
#    z 0.000000 0.000000 1.712830 
# 
# From -- ./inp_files/22124.got.cif
#   From: 2010.05.17/outbox.cif.g08.bks.cpg/sg38_12_cif.got.tgz:22124.got - 2010.06.03 18:07:57.
