data_PCOD9358208
_publ_section_title
;
Structure prediction by ZEFSAII (Michael W. Deem and Ramdas Pophale) SiO2 
 PCOD9358208
Probable space group: A M M 2
;
_chemical_formula_sum "Si O2"
_cell_formula_units_Z 64
_cell_length_a 24.983203
_cell_length_b 8.839202
_cell_length_c 14.590812
_cell_angle_alpha 90.000000
_cell_angle_beta 90.000000
_cell_angle_gamma 90.000000
_cell_volume 3222.112037
_symmetry_space_group_name_H-M "A M M 2"
_symmetry_group_IT_number 38
_symmetry_cell_setting 'orthorhombic'
loop_
_space_group_symop_operation_xyz
x,y,z
-x,-y,z
-x,y,z
x,-y,z
x,1/2+y,1/2+z
-x,1/2-y,1/2+z
-x,1/2+y,1/2+z
x,1/2-y,1/2+z
loop_
_atom_site_type_symbol
_atom_site_label
_atom_site_fract_x
_atom_site_fract_y
_atom_site_fract_z
Si Si1 0.243457 0.325504 0.457390
Si Si2 0.438182 0.680536 0.291603
Si Si3 0.867014 0.180914 0.491389
Si Si4 0.624916 0.817062 0.135407
Si Si5 0.644858 0.181031 0.435161
Si Si6 0.150124 0.818823 0.702648
Si Si7 0.060963 0.817179 0.846450
Si Si8 0.259600 0.173175 0.179472
O O1 0.241814 0.500000 0.427791
O O2 0.186527 0.246260 0.443829
O O3 0.294893 0.241118 0.416841
O O4 0.251861 0.324102 0.568427
O O5 0.500000 0.708913 0.315820
O O6 0.429844 0.500000 0.287902
O O7 0.423952 0.754416 0.193913
O O8 0.397942 0.754414 0.364090
O O9 0.864177 0.225086 0.598283
O O10 0.918180 0.249572 0.441497
O O11 0.866799 0.000000 0.485445
O O12 0.679600 0.772263 0.189719
O O13 0.624651 0.000000 0.128248
O O14 0.628746 0.744470 0.035307
O O15 0.645015 0.000000 0.434334
O O16 0.103959 0.764558 0.770771
O O17 0.210179 0.762388 0.721732
O O18 0.150977 0.000000 0.706447
O O19 0.000000 0.773400 0.825782
O O20 0.063097 0.000000 0.850405
O O21 0.256497 0.000000 0.210401
#
# Coordination Sequence:
#
# PCOD9358208 Si02
#       8
#     8   8   8   8   8   8   8   8
#     4   9  17  33  57  85 117 150 185 226 279 343
#     4  11  25  43  61  84 115 154 202 248 290 344
#     4  10  20  35  57  85 113 141 180 231 284 334
#     4  10  21  39  62  88 119 154 191 236 292 349
#     4  11  22  38  62  90 120 154 193 239 292 348
#     4   9  19  35  56  80 107 142 180 222 273 329
#     4  10  22  39  55  74 105 147 192 231 274 335
#     4   8  16  31  54  84 114 142 175 220 274 334
#
# _framework density 19.862749000000001
#
# number of rings (size 3 to 8) (size 9 to 14) (size 15 to 20)
#    0.000    2.250    0.000    3.375    0.000    7.750 
#    0.000    3.750    0.000    0.000    0.000    0.000 
#    0.000    0.000    0.000    0.000    0.000    0.000 
#
# Total GULP energy -178762.630460 kJ/mol
# GULP energy per Si atom -5586.332202 kJ/mol
# Density = 1.981754 g / cm^3
# Si number density = 19.862749 Si / 1000 Ang^3
#
#
#
# Elastic Constant Matrix: (Units=GPa)
#
#
# Indices 1 2 3 4 5 6 
#
# 1 102.5315 38.3393 26.5644 0.0000 0.0000 0.0000
# 2 38.3393 61.6464 18.9697 0.0000 0.0000 0.0000
# 3 26.5644 18.9697 55.5269 0.0000 0.0000 0.0000
# 4 0.0000 0.0000 0.0000 23.5308 0.0000 0.0000
# 5 0.0000 0.0000 0.0000 0.0000 32.7860 0.0000
# 6 0.0000 0.0000 0.0000 0.0000 0.0000 33.4608
#
#
#
# Elastic Compliance Matrix: (Units=1/GPa)
#
#
# Indices 1 2 3 4 5 6 
#
# 1 0.013459 -0.007140 -0.004000 0.000000 0.000000 0.000000
# 2 -0.007140 0.021915 -0.004071 0.000000 0.000000 0.000000
# 3 -0.004000 -0.004071 0.021314 0.000000 0.000000 0.000000
# 4 0.000000 0.000000 0.000000 0.042497 0.000000 0.000000
# 5 0.000000 0.000000 0.000000 0.000000 0.030501 0.000000
# 6 0.000000 0.000000 0.000000 0.000000 0.000000 0.029886
#
#
# Mechanical properties :
#
#
# Convention : Reuss Voigt Hill
#
# Bulk Modulus (GPa) = 38.07161 43.05017 40.56089
# Shear Modulus (GPa) = 25.15751 27.01095 26.08423
#
# Velocity S-wave (km/s) = 3.56275 3.69166 3.62777
# Velocity P-wave (km/s) = 6.01109 6.31601 6.16543
#
# Compressibility (1/GPa) = 0.02626629
#
# Stress axis : x y z
#
# Youngs Moduli (GPa) = 74.29903 45.63163 46.91839
#
# Poissons Ratio (x) = 0.32580 0.18766
# Poissons Ratio (y) = 0.53047 0.19101
# Poissons Ratio (z) = 0.29718 0.18577
#
# Static dielectric constant tensor:
#      x y z
#    x 1.688370 0.000000 0.000000 
#    y 0.000000 1.663750 0.000000 
#    z 0.000000 0.000000 1.743450 
# 
# From -- ./inp_files/15851.got.cif
#   From: 2010.05.17/outbox.cif.g08.bks.cpg/sg38_8_cif.got.tgz:15851.got - 2010.06.03 18:07:57.
