data_PCOD9358549
_publ_section_title
;
Structure prediction by ZEFSAII (Michael W. Deem and Ramdas Pophale) SiO2 
 PCOD9358549
Probable space group: A M M 2
;
_chemical_formula_sum "Si O2"
_cell_formula_units_Z 64
_cell_length_a 15.844898
_cell_length_b 17.712026
_cell_length_c 11.528119
_cell_angle_alpha 90.000000
_cell_angle_beta 90.000000
_cell_angle_gamma 90.000000
_cell_volume 3235.311785
_symmetry_space_group_name_H-M "A M M 2"
_symmetry_group_IT_number 38
_symmetry_cell_setting 'orthorhombic'
loop_
_space_group_symop_operation_xyz
x,y,z
-x,-y,z
-x,y,z
x,-y,z
x,1/2+y,1/2+z
-x,1/2-y,1/2+z
-x,1/2+y,1/2+z
x,1/2-y,1/2+z
loop_
_atom_site_type_symbol
_atom_site_label
_atom_site_fract_x
_atom_site_fract_y
_atom_site_fract_z
Si Si1 0.593622 0.192062 0.726540
Si Si2 0.812637 0.145847 0.979198
Si Si3 0.251215 0.580661 0.860214
Si Si4 0.903032 0.197064 0.744309
Si Si5 0.904954 0.121751 0.208108
Si Si6 0.366450 0.087085 0.945122
Si Si7 0.756574 0.692461 0.069658
Si Si8 0.592973 0.128548 0.209115
O O1 0.500000 0.175330 0.677395
O O2 0.603778 0.144223 0.844481
O O3 0.672945 0.176428 0.643945
O O4 0.597254 0.282719 0.741970
O O5 0.864140 0.172076 0.866752
O O6 0.735366 0.092092 0.947312
O O7 0.875188 0.113139 0.075556
O O8 0.768382 0.219435 0.037992
O O9 0.257763 0.500000 0.921117
O O10 0.165416 0.584803 0.787603
O O11 0.329322 0.589793 0.772982
O O12 0.250076 0.647546 0.951272
O O13 0.903123 0.288344 0.736461
O O14 0.839283 0.170486 0.643801
O O15 0.000000 0.172002 0.730289
O O16 0.000000 0.094947 0.226151
O O17 0.392568 0.000000 0.926332
O O18 0.397703 0.115136 0.071202
O O19 0.500000 0.100664 0.244147
#
# Coordination Sequence:
#
# PCOD9358549 Si02
#       8
#     8   8   8   8   8   8   8   8
#     4  11  24  42  68  96 125 167 215 263 321 383
#     4  11  19  38  67  91 125 161 209 262 317 375
#     4  12  25  41  60  87 127 172 208 251 315 382
#     4  10  20  37  66  96 121 156 209 270 318 367
#     4  10  21  36  60  93 122 155 204 261 315 372
#     4  12  24  41  68  98 131 169 214 271 332 383
#     4  11  22  40  63  91 128 166 214 262 307 383
#     4  11  24  43  68  95 124 163 217 270 318 381
#
# _framework density 19.781711000000001
#
# number of rings (size 3 to 8) (size 9 to 14) (size 15 to 20)
#    0.000    1.000    5.000    2.625    0.000    4.000 
#    0.000    0.000    0.000    1.875    0.000    0.000 
#    0.000    0.000    0.000    0.000    0.000    0.000 
#
# Total GULP energy -178809.445495 kJ/mol
# GULP energy per Si atom -5587.795172 kJ/mol
# Density = 1.973669 g / cm^3
# Si number density = 19.781711 Si / 1000 Ang^3
#
#
#
# Elastic Constant Matrix: (Units=GPa)
#
#
# Indices 1 2 3 4 5 6 
#
# 1 182.3176 24.1957 45.1876 0.0000 0.0000 0.0000
# 2 24.1957 72.5831 23.1298 0.0000 0.0000 0.0000
# 3 45.1876 23.1298 79.7738 0.0000 0.0000 0.0000
# 4 0.0000 0.0000 0.0000 -10.8588 0.0000 0.0000
# 5 0.0000 0.0000 0.0000 0.0000 9.4418 0.0000
# 6 0.0000 0.0000 0.0000 0.0000 0.0000 -46.3537
#
#
#
# Elastic Compliance Matrix: (Units=1/GPa)
#
#
# Indices 1 2 3 4 5 6 
#
# 1 0.006458 -0.001088 -0.003343 0.000000 0.000000 0.000000
# 2 -0.001088 0.015363 -0.003838 0.000000 0.000000 0.000000
# 3 -0.003343 -0.003838 0.015542 0.000000 0.000000 0.000000
# 4 0.000000 0.000000 0.000000 -0.092091 0.000000 0.000000
# 5 0.000000 0.000000 0.000000 0.000000 0.105912 0.000000
# 6 0.000000 0.000000 0.000000 0.000000 0.000000 -0.021573
#
#
# Mechanical properties :
#
#
# Convention : Reuss Voigt Hill
#
# Bulk Modulus (GPa) = 48.01813 57.74453 52.88133
# Shear Modulus (GPa) = 94.18083 6.58995 50.38539
#
# Velocity S-wave (km/s) = 6.90749 1.82717 5.05232
# Velocity P-wave (km/s) = 9.37788 5.80566 7.79905
#
# Compressibility (1/GPa) = 0.02082547
#
# Stress axis : x y z
#
# Youngs Moduli (GPa) = 154.85303 65.09152 64.34273
#
# Poissons Ratio (x) = 0.07079 0.21507
# Poissons Ratio (y) = 0.16840 0.24697
# Poissons Ratio (z) = 0.51762 0.24984
#
# Static dielectric constant tensor:
#      x y z
#    x 1.704380 0.000000 0.000000 
#    y 0.000000 1.688330 0.000000 
#    z 0.000000 0.000000 1.654680 
# 
# From -- ./inp_files/10241.got.cif
#   From: 2010.05.17/outbox.cif.g08.bks.cpg/sg38_6_cif.got.tgz:10241.got - 2010.06.03 18:07:57.
