data_PCOD9358098
_publ_section_title
;
Structure prediction by ZEFSAII (Michael W. Deem and Ramdas Pophale) SiO2 
 PCOD9358098
Probable space group: A M M 2
;
_chemical_formula_sum "Si O2"
_cell_formula_units_Z 64
_cell_length_a 15.049666
_cell_length_b 22.404695
_cell_length_c 9.550372
_cell_angle_alpha 90.000000
_cell_angle_beta 90.000000
_cell_angle_gamma 90.000000
_cell_volume 3220.224768
_symmetry_space_group_name_H-M "A M M 2"
_symmetry_group_IT_number 38
_symmetry_cell_setting 'orthorhombic'
loop_
_space_group_symop_operation_xyz
x,y,z
-x,-y,z
-x,y,z
x,-y,z
x,1/2+y,1/2+z
-x,1/2-y,1/2+z
-x,1/2+y,1/2+z
x,1/2-y,1/2+z
loop_
_atom_site_type_symbol
_atom_site_label
_atom_site_fract_x
_atom_site_fract_y
_atom_site_fract_z
Si Si1 0.396582 0.929236 0.791000
Si Si2 0.600534 0.393527 0.976694
Si Si3 0.900109 0.804064 0.030357
Si Si4 0.592664 0.316272 0.588208
Si Si5 0.222686 0.934844 0.328818
Si Si6 0.635980 0.735299 0.849286
Si Si7 0.838832 0.802265 0.349299
Si Si8 0.746215 0.394295 0.530060
O O1 0.500000 0.915841 0.834520
O O2 0.379007 0.897042 0.642771
O O3 0.319754 0.917387 0.907774
O O4 0.394278 0.000000 0.762583
O O5 0.500000 0.417299 0.957930
O O6 0.677326 0.427528 0.890713
O O7 0.601681 0.325648 0.920167
O O8 0.880945 0.797419 0.195577
O O9 0.000000 0.826229 0.007428
O O10 0.889970 0.739356 0.958709
O O11 0.826231 0.852026 0.978113
O O12 0.500000 0.348154 0.612093
O O13 0.599278 0.261517 0.693635
O O14 0.603209 0.291530 0.434391
O O15 0.678632 0.353574 0.619904
O O16 0.173541 0.873407 0.376914
O O17 0.188557 0.000000 0.376220
O O18 0.219924 0.934911 0.157905
O O19 0.741461 0.728272 0.849194
#
# Coordination Sequence:
#
# PCOD9358098 Si02
#       8
#     8   8   8   8   8   8   8   8
#     4  10  22  38  56  82 118 164 210 245 287 343
#     4  10  20  35  53  80 115 155 203 247 283 338
#     4  11  22  39  64  90 117 150 189 243 310 368
#     4  12  22  34  52  81 120 161 195 234 289 352
#     4  10  21  37  59  83 113 160 202 242 297 350
#     4  11  21  36  52  79 118 157 195 238 294 356
#     4  10  20  40  60  87 121 150 193 248 294 365
#     4  11  22  38  58  84 122 154 198 251 294 353
#
# _framework density 19.874389000000001
#
# number of rings (size 3 to 8) (size 9 to 14) (size 15 to 20)
#    0.000    1.375    5.000    2.625    1.750    3.250 
#    0.000    0.000    0.000   12.750    0.000    0.000 
#    0.000   26.000    0.000    0.000    0.000    0.000 
#
# Total GULP energy -178342.249950 kJ/mol
# GULP energy per Si atom -5573.195311 kJ/mol
# Density = 1.982915 g / cm^3
# Si number density = 19.874389 Si / 1000 Ang^3
#
#
#
# Elastic Constant Matrix: (Units=GPa)
#
#
# Indices 1 2 3 4 5 6 
#
# 1 108.8157 24.3192 13.2753 0.0000 0.0000 0.0000
# 2 24.3192 73.4310 6.0465 0.0000 0.0000 0.0000
# 3 13.2753 6.0465 64.4682 0.0000 0.0000 0.0000
# 4 0.0000 0.0000 0.0000 22.8190 0.0000 0.0000
# 5 0.0000 0.0000 0.0000 0.0000 0.5002 0.0000
# 6 0.0000 0.0000 0.0000 0.0000 0.0000 12.2605
#
#
#
# Elastic Compliance Matrix: (Units=1/GPa)
#
#
# Indices 1 2 3 4 5 6 
#
# 1 0.010124 -0.003206 -0.001784 0.000000 0.000000 0.000000
# 2 -0.003206 0.014739 -0.000722 0.000000 0.000000 0.000000
# 3 -0.001784 -0.000722 0.015947 0.000000 0.000000 0.000000
# 4 0.000000 0.000000 0.000000 0.043823 0.000000 0.000000
# 5 0.000000 0.000000 0.000000 0.000000 1.999009 0.000000
# 6 0.000000 0.000000 0.000000 0.000000 0.000000 0.081563
#
#
# Mechanical properties :
#
#
# Convention : Reuss Voigt Hill
#
# Bulk Modulus (GPa) = 34.03036 37.11077 35.57057
# Shear Modulus (GPa) = 2.28684 20.65421 11.47052
#
# Velocity S-wave (km/s) = 1.07385 3.22722 2.40500
# Velocity P-wave (km/s) = 4.32405 5.70962 5.06444
#
# Compressibility (1/GPa) = 0.02938552
#
# Stress axis : x y z
#
# Youngs Moduli (GPa) = 98.77503 67.84500 62.70915
#
# Poissons Ratio (x) = 0.21751 0.11188
# Poissons Ratio (y) = 0.31667 0.04529
# Poissons Ratio (z) = 0.17622 0.04900
#
# Static dielectric constant tensor:
#      x y z
#    x 1.705010 0.000000 0.000000 
#    y 0.000000 1.735190 0.000000 
#    z 0.000000 0.000000 1.731180 
# 
# From -- ./inp_files/5909.got.cif
#   From: 2010.05.17/outbox.cif.g08.bks.cpg/sg38_3_cif.got.tgz:5909.got - 2010.06.03 18:07:57.
