data_PCOD9358361
_publ_section_title
;
Structure prediction by ZEFSAII (Michael W. Deem and Ramdas Pophale) SiO2 
 PCOD9358361
Probable space group: A M M 2
;
_chemical_formula_sum "Si O2"
_cell_formula_units_Z 48
_cell_length_a 8.544729
_cell_length_b 15.576329
_cell_length_c 19.503496
_cell_angle_alpha 90.000000
_cell_angle_beta 90.000000
_cell_angle_gamma 90.000000
_cell_volume 2595.827749
_symmetry_space_group_name_H-M "A M M 2"
_symmetry_group_IT_number 38
_symmetry_cell_setting 'orthorhombic'
loop_
_space_group_symop_operation_xyz
x,y,z
-x,-y,z
-x,y,z
x,-y,z
x,1/2+y,1/2+z
-x,1/2-y,1/2+z
-x,1/2+y,1/2+z
x,1/2-y,1/2+z
loop_
_atom_site_type_symbol
_atom_site_label
_atom_site_fract_x
_atom_site_fract_y
_atom_site_fract_z
Si Si1 0.813199 0.653923 0.059460
Si Si2 0.688210 0.155085 0.062455
Si Si3 0.688240 0.000000 0.651286
Si Si4 0.308489 0.000000 0.809442
Si Si5 0.689996 0.153911 0.905584
Si Si6 0.688195 0.650298 0.907111
Si Si7 0.187680 0.000000 0.312066
Si Si8 0.187707 0.000000 0.153440
O O1 0.750852 0.749265 0.076390
O O2 0.750274 0.583784 0.112270
O O3 0.000000 0.654038 0.059100
O O4 0.751801 0.631280 0.983225
O O5 0.500000 0.156711 0.064793
O O6 0.750643 0.083971 0.114167
O O7 0.736067 0.133090 0.983912
O O8 0.739481 0.000000 0.730541
O O9 0.500000 0.000000 0.648949
O O10 0.255407 0.083922 0.851229
O O11 0.500000 0.000000 0.810189
O O12 0.500000 0.152441 0.904623
O O13 0.737148 0.251764 0.890439
O O14 0.500000 0.646875 0.909455
O O15 0.750334 0.582928 0.852424
O O16 0.238549 0.000000 0.232822
O O17 0.000000 0.000000 0.314122
O O18 0.000000 0.000000 0.151532
#
# Coordination Sequence:
#
# PCOD9358361 Si02
#       8
#     8   8   4   4   8   8   4   4
#     4  11  22  38  59  82 113 150 187 233 289 341
#     4  10  20  37  62  87 111 144 191 240 281 333
#     4  11  22  35  54  82 114 149 190 231 272 332
#     4   9  17  31  53  82 113 141 172 217 272 326
#     4   8  16  32  56  85 110 135 174 227 279 323
#     4  10  20  36  59  85 110 140 186 236 278 332
#     4  11  24  39  54  78 114 153 188 229 288 346
#     4  11  24  39  55  82 121 157 188 229 286 348
#
# _framework density 18.491211
#
# number of rings (size 3 to 8) (size 9 to 14) (size 15 to 20)
#    0.000    2.000    0.000    5.250    0.000    4.000 
#    0.000    1.667    0.000   13.000    0.000    0.000 
#    0.000    0.000    0.000    0.000    0.000    0.000 
#
# Total GULP energy -134061.463300 kJ/mol
# GULP energy per Si atom -5585.894304 kJ/mol
# Density = 1.844912 g / cm^3
# Si number density = 18.491211 Si / 1000 Ang^3
#
#
#
# Elastic Constant Matrix: (Units=GPa)
#
#
# Indices 1 2 3 4 5 6 
#
# 1 73.4104 45.9204 52.4297 0.0000 0.0000 0.0000
# 2 45.9204 159.9306 150.2719 0.0000 0.0000 0.0000
# 3 52.4297 150.2719 189.5706 0.0000 0.0000 0.0000
# 4 0.0000 0.0000 0.0000 -16.1718 0.0000 0.0000
# 5 0.0000 0.0000 0.0000 0.0000 20.3259 0.0000
# 6 0.0000 0.0000 0.0000 0.0000 0.0000 23.9930
#
#
#
# Elastic Compliance Matrix: (Units=1/GPa)
#
#
# Indices 1 2 3 4 5 6 
#
# 1 0.017110 -0.001828 -0.003283 0.000000 0.000000 0.000000
# 2 -0.001828 0.024699 -0.019073 0.000000 0.000000 0.000000
# 3 -0.003283 -0.019073 0.021302 0.000000 0.000000 0.000000
# 4 0.000000 0.000000 0.000000 -0.061836 0.000000 0.000000
# 5 0.000000 0.000000 0.000000 0.000000 0.049198 0.000000
# 6 0.000000 0.000000 0.000000 0.000000 0.000000 0.041679
#
#
# Mechanical properties :
#
#
# Convention : Reuss Voigt Hill
#
# Bulk Modulus (GPa) = 67.82899 102.23952 85.03425
# Shear Modulus (GPa) = 34.37964 17.24873 25.81418
#
# Velocity S-wave (km/s) = 4.31657 3.05750 3.74039
# Velocity P-wave (km/s) = 7.84889 8.23865 8.04613
#
# Compressibility (1/GPa) = 0.01474296
#
# Stress axis : x y z
#
# Youngs Moduli (GPa) = 58.44419 40.48799 46.94337
#
# Poissons Ratio (x) = 0.07401 0.15413
# Poissons Ratio (y) = 0.10683 0.89535
# Poissons Ratio (z) = 0.19189 0.77223
#
# Static dielectric constant tensor:
#      x y z
#    x 1.621840 0.000000 0.000000 
#    y 0.000000 1.620220 0.000000 
#    z 0.000000 0.000000 1.613430 
# 
# From -- ./inp_files/16758.got.cif
#   From: 2010.05.17/outbox.cif.g08.bks.cpg/sg38_9_cif.got.tgz:16758.got - 2010.06.03 18:07:57.
