data_PCOD9358925
_publ_section_title
;
Structure prediction by ZEFSAII (Michael W. Deem and Ramdas Pophale) SiO2 
 PCOD9358925
Probable space group: A M M 2
;
_chemical_formula_sum "Si O2"
_cell_formula_units_Z 40
_cell_length_a 7.389470
_cell_length_b 9.121014
_cell_length_c 30.976562
_cell_angle_alpha 90.000000
_cell_angle_beta 90.000000
_cell_angle_gamma 90.000000
_cell_volume 2087.803530
_symmetry_space_group_name_H-M "A M M 2"
_symmetry_group_IT_number 38
_symmetry_cell_setting 'orthorhombic'
loop_
_space_group_symop_operation_xyz
x,y,z
-x,-y,z
-x,y,z
x,-y,z
x,1/2+y,1/2+z
-x,1/2-y,1/2+z
-x,1/2+y,1/2+z
x,1/2-y,1/2+z
loop_
_atom_site_type_symbol
_atom_site_label
_atom_site_fract_x
_atom_site_fract_y
_atom_site_fract_z
Si Si1 0.780200 0.170965 0.275750
Si Si2 0.789916 0.323845 0.188530
Si Si3 0.780036 0.829873 0.371065
Si Si4 0.500000 0.821740 0.619290
Si Si5 0.216422 0.827036 0.958823
Si Si6 0.500000 0.323460 0.019868
O O1 0.720447 0.258326 0.233688
O O2 0.720331 0.221180 0.323427
O O3 0.000000 0.179566 0.275903
O O4 0.731773 0.000000 0.271716
O O5 0.780011 0.500000 0.191382
O O6 0.672611 0.275613 0.147631
O O7 0.000000 0.282389 0.183157
O O8 0.725954 0.733623 0.411825
O O9 0.000000 0.828986 0.370419
O O10 0.725241 0.000000 0.376765
O O11 0.500000 0.774644 0.569810
O O12 0.500000 0.000000 0.618343
O O13 0.000000 0.804334 0.963097
O O14 0.252669 0.000000 0.961824
O O15 0.326586 0.739898 0.994868
O O16 0.500000 0.500000 0.017961
#
# Coordination Sequence:
#
# PCOD9358925 Si02
#       6
#     8   8   8   4   8   4
#     4   8  14  26  46  74 107 139 171 208 249 298
#     4   9  17  31  52  75 100 132 169 209 255 308
#     4   8  14  27  49  76 106 141 179 215 253 306
#     4   9  20  37  54  75 100 127 168 221 268 311
#     4  10  21  37  57  82 113 145 178 222 275 328
#     4  11  23  39  60  81 104 139 184 233 278 325
#
# _framework density 19.15889
#
# number of rings (size 3 to 8) (size 9 to 14) (size 15 to 20)
#    0.000    3.000    0.000    2.100    0.000    2.800 
#    0.000    9.500    0.000    7.200    0.000    0.000 
#    0.000    0.000    0.000    0.000    0.000    0.000 
#
# Total GULP energy -111557.131817 kJ/mol
# GULP energy per Si atom -5577.856591 kJ/mol
# Density = 1.911528 g / cm^3
# Si number density = 19.158890 Si / 1000 Ang^3
#
#
#
# Elastic Constant Matrix: (Units=GPa)
#
#
# Indices 1 2 3 4 5 6 
#
# 1 87.2264 34.7741 67.6401 0.0000 0.0000 0.0000
# 2 34.7741 54.3770 69.7100 0.0000 0.0000 0.0000
# 3 67.6401 69.7100 221.0883 0.0000 0.0000 0.0000
# 4 0.0000 0.0000 0.0000 30.7353 0.0000 0.0000
# 5 0.0000 0.0000 0.0000 0.0000 35.7093 0.0000
# 6 0.0000 0.0000 0.0000 0.0000 0.0000 13.5721
#
#
#
# Elastic Compliance Matrix: (Units=1/GPa)
#
#
# Indices 1 2 3 4 5 6 
#
# 1 0.016407 -0.006810 -0.002872 0.000000 0.000000 0.000000
# 2 -0.006810 0.033693 -0.008540 0.000000 0.000000 0.000000
# 3 -0.002872 -0.008540 0.008095 0.000000 0.000000 0.000000
# 4 0.000000 0.000000 0.000000 0.032536 0.000000 0.000000
# 5 0.000000 0.000000 0.000000 0.000000 0.028004 0.000000
# 6 0.000000 0.000000 0.000000 0.000000 0.000000 0.073681
#
#
# Mechanical properties :
#
#
# Convention : Reuss Voigt Hill
#
# Bulk Modulus (GPa) = 45.97723 78.54890 62.26307
# Shear Modulus (GPa) = 21.17658 28.70782 24.94220
#
# Velocity S-wave (km/s) = 3.32823 3.87513 3.61204
# Velocity P-wave (km/s) = 6.23053 7.81728 7.06857
#
# Compressibility (1/GPa) = 0.02174990
#
# Stress axis : x y z
#
# Youngs Moduli (GPa) = 60.95114 29.67935 123.53889
#
# Poissons Ratio (x) = 0.20211 0.35484
# Poissons Ratio (y) = 0.41507 1.05506
# Poissons Ratio (z) = 0.17507 0.25347
#
# Static dielectric constant tensor:
#      x y z
#    x 1.723440 0.000000 0.000000 
#    y 0.000000 1.634630 0.000000 
#    z 0.000000 0.000000 1.651380 
# 
# From -- ./inp_files/23272.got.cif
#   From: 2010.05.17/outbox.cif.g08.bks.cpg/sg38_12_cif.got.tgz:23272.got - 2010.06.03 18:07:57.
