data_PCOD9358627
_publ_section_title
;
Structure prediction by ZEFSAII (Michael W. Deem and Ramdas Pophale) SiO2 
 PCOD9358627
Probable space group: A M M 2
;
_chemical_formula_sum "Si O2"
_cell_formula_units_Z 34
_cell_length_a 7.824912
_cell_length_b 10.603399
_cell_length_c 19.929909
_cell_angle_alpha 90.000000
_cell_angle_beta 90.000000
_cell_angle_gamma 90.000000
_cell_volume 1653.597785
_symmetry_space_group_name_H-M "A M M 2"
_symmetry_group_IT_number 38
_symmetry_cell_setting 'orthorhombic'
loop_
_space_group_symop_operation_xyz
x,y,z
-x,-y,z
-x,y,z
x,-y,z
x,1/2+y,1/2+z
-x,1/2-y,1/2+z
-x,1/2+y,1/2+z
x,1/2-y,1/2+z
loop_
_atom_site_type_symbol
_atom_site_label
_atom_site_fract_x
_atom_site_fract_y
_atom_site_fract_z
Si Si1 0.298525 0.859759 0.278640
Si Si2 0.500000 0.000000 0.879343
Si Si3 0.795188 0.141498 0.675775
Si Si4 0.296433 0.143314 0.520512
Si Si5 0.189642 0.799843 0.897817
O O1 0.500000 0.864166 0.292632
O O2 0.268872 0.751908 0.223424
O O3 0.206103 0.815580 0.345864
O O4 0.243993 0.000000 0.256785
O O5 0.652644 0.108632 0.882026
O O6 0.740275 0.163533 0.599074
O O7 0.000000 0.140248 0.678882
O O8 0.733508 0.000000 0.695808
O O9 0.500000 0.149968 0.509721
O O10 0.210565 0.244453 0.472432
O O11 0.239590 0.000000 0.504900
O O12 0.000000 0.855182 0.889491
#
# Coordination Sequence:
#
# PCOD9358627 Si02
#       5
#     8   2   8   8   8
#     4  11  24  43  65  95 132 175 220 275 335 391
#     4  12  26  48  62  98 140 168 220 270 336 402
#     4  10  22  39  63  95 130 171 224 276 327 390
#     4  10  20  40  67  96 128 171 220 274 330 389
#     4  12  25  43  70  97 129 174 221 274 331 391
#
# _framework density 20.561228
#
# number of rings (size 3 to 8) (size 9 to 14) (size 15 to 20)
#    0.000    1.176    2.353    3.176    1.647    7.529 
#    2.118    0.000    0.000    0.000    0.000    0.000 
#    0.000    0.000    0.000    0.000    0.000    0.000 
#
# Total GULP energy -94769.170286 kJ/mol
# GULP energy per Si atom -5574.657076 kJ/mol
# Density = 2.051443 g / cm^3
# Si number density = 20.561228 Si / 1000 Ang^3
#
#
#
# Elastic Constant Matrix: (Units=GPa)
#
#
# Indices 1 2 3 4 5 6 
#
# 1 137.0800 37.3431 8.4746 0.0000 0.0000 0.0000
# 2 37.3431 139.4569 57.8476 0.0000 0.0000 0.0000
# 3 8.4746 57.8476 64.3167 0.0000 0.0000 0.0000
# 4 0.0000 0.0000 0.0000 -14.8689 0.0000 0.0000
# 5 0.0000 0.0000 0.0000 0.0000 31.0699 0.0000
# 6 0.0000 0.0000 0.0000 0.0000 0.0000 7.6918
#
#
#
# Elastic Compliance Matrix: (Units=1/GPa)
#
#
# Indices 1 2 3 4 5 6 
#
# 1 0.007945 -0.002701 0.001382 0.000000 0.000000 0.000000
# 2 -0.002701 0.012356 -0.010758 0.000000 0.000000 0.000000
# 3 0.001382 -0.010758 0.025041 0.000000 0.000000 0.000000
# 4 0.000000 0.000000 0.000000 -0.067254 0.000000 0.000000
# 5 0.000000 0.000000 0.000000 0.000000 0.032185 0.000000
# 6 0.000000 0.000000 0.000000 0.000000 0.000000 0.130008
#
#
# Mechanical properties :
#
#
# Convention : Reuss Voigt Hill
#
# Bulk Modulus (GPa) = 47.19032 60.90937 54.04984
# Shear Modulus (GPa) = 29.15481 20.59112 24.87297
#
# Velocity S-wave (km/s) = 3.76965 3.16801 3.48185
# Velocity P-wave (km/s) = 6.47673 6.56273 6.51987
#
# Compressibility (1/GPa) = 0.02119079
#
# Stress axis : x y z
#
# Youngs Moduli (GPa) = 125.85987 80.93090 39.93382
#
# Poissons Ratio (x) = 0.21859 -0.05521
# Poissons Ratio (y) = 0.33995 0.42959
# Poissons Ratio (z) = -0.17399 0.87062
#
# Static dielectric constant tensor:
#      x y z
#    x 1.734160 0.000000 0.000000 
#    y 0.000000 1.742720 0.000000 
#    z 0.000000 0.000000 1.706770 
# 
# From -- ./inp_files/19245.got.cif
#   From: 2010.05.17/outbox.cif.g08.bks.cpg/sg38_10_cif.got.tgz:19245.got - 2010.06.03 18:07:57.
