data_PCOD9358569
_publ_section_title
;
Structure prediction by ZEFSAII (Michael W. Deem and Ramdas Pophale) SiO2 
 PCOD9358569
Probable space group: A M M 2
;
_chemical_formula_sum "Si O2"
_cell_formula_units_Z 30
_cell_length_a 13.481799
_cell_length_b 17.087153
_cell_length_c 4.966904
_cell_angle_alpha 90.000000
_cell_angle_beta 90.000000
_cell_angle_gamma 90.000000
_cell_volume 1144.203632
_symmetry_space_group_name_H-M "A M M 2"
_symmetry_group_IT_number 38
_symmetry_cell_setting 'orthorhombic'
loop_
_space_group_symop_operation_xyz
x,y,z
-x,-y,z
-x,y,z
x,-y,z
x,1/2+y,1/2+z
-x,1/2-y,1/2+z
-x,1/2+y,1/2+z
x,1/2-y,1/2+z
loop_
_atom_site_type_symbol
_atom_site_label
_atom_site_fract_x
_atom_site_fract_y
_atom_site_fract_z
Si Si1 0.500000 0.201785 0.511710
Si Si2 0.000000 0.696060 0.696907
Si Si3 0.171771 0.588025 0.475726
Si Si4 0.282595 0.191669 0.596792
Si Si5 0.651893 0.500000 0.672910
Si Si6 0.500000 0.500000 0.171681
O O1 0.500000 0.219126 0.194463
O O2 0.397744 0.162801 0.599281
O O3 0.905812 0.643345 0.621627
O O4 0.000000 0.728929 0.997914
O O5 0.132129 0.500000 0.432955
O O6 0.206721 0.626589 0.196603
O O7 0.272635 0.573524 0.646539
O O8 0.271728 0.241413 0.327216
O O9 0.585777 0.500000 0.933282
O O10 0.585209 0.500000 0.409404
#
# Coordination Sequence:
#
# PCOD9358569 Si02
#       6
#     4   4   8   8   4   2
#     4   8  16  30  52  80 117 165 220 276 328 396
#     4  12  27  50  79 110 144 194 252 314 377 454
#     4  10  24  47  69 110 144 197 236 316 372 440
#     4  10  20  38  61  90 130 179 235 285 347 421
#     4   9  24  39  72  96 158 185 246 287 370 426
#     4  10  20  46  62 112 140 204 232 294 350 456
#
# _framework density 26.219109
#
# number of rings (size 3 to 8) (size 9 to 14) (size 15 to 20)
#    0.800    1.333    0.000    2.000    0.000    6.400 
#    0.000   12.000    0.000    0.000    0.000    0.000 
#    0.000    0.000    0.000    0.000    0.000    0.000 
#
# Total GULP energy -83848.575643 kJ/mol
# GULP energy per Si atom -5589.905043 kJ/mol
# Density = 2.615943 g / cm^3
# Si number density = 26.219109 Si / 1000 Ang^3
#
#
#
# Elastic Constant Matrix: (Units=GPa)
#
#
# Indices 1 2 3 4 5 6 
#
# 1 175.8453 43.1841 53.8971 0.0000 0.0000 0.0000
# 2 43.1841 126.5455 26.7398 0.0000 0.0000 0.0000
# 3 53.8971 26.7398 165.7127 0.0000 0.0000 0.0000
# 4 0.0000 0.0000 0.0000 27.4839 0.0000 0.0000
# 5 0.0000 0.0000 0.0000 0.0000 169.5714 0.0000
# 6 0.0000 0.0000 0.0000 0.0000 0.0000 -46.4450
#
#
#
# Elastic Compliance Matrix: (Units=1/GPa)
#
#
# Indices 1 2 3 4 5 6 
#
# 1 0.006730 -0.001899 -0.001883 0.000000 0.000000 0.000000
# 2 -0.001899 0.008717 -0.000789 0.000000 0.000000 0.000000
# 3 -0.001883 -0.000789 0.006774 0.000000 0.000000 0.000000
# 4 0.000000 0.000000 0.000000 0.036385 0.000000 0.000000
# 5 0.000000 0.000000 0.000000 0.000000 0.005897 0.000000
# 6 0.000000 0.000000 0.000000 0.000000 0.000000 -0.021531
#
#
# Mechanical properties :
#
#
# Convention : Reuss Voigt Hill
#
# Bulk Modulus (GPa) = 76.44992 79.52729 77.98861
# Shear Modulus (GPa) = 88.53686 53.07422 70.80554
#
# Velocity S-wave (km/s) = 5.81733 4.50406 5.20230
# Velocity P-wave (km/s) = 8.62225 7.57934 8.11756
#
# Compressibility (1/GPa) = 0.01308046
#
# Stress axis : x y z
#
# Youngs Moduli (GPa) = 148.58509 114.71813 147.62024
#
# Poissons Ratio (x) = 0.21784 0.27790
# Poissons Ratio (y) = 0.28215 0.11647
# Poissons Ratio (z) = 0.27972 0.09051
#
# Static dielectric constant tensor:
#      x y z
#    x 2.071330 0.000000 0.000000 
#    y 0.000000 2.155280 0.000000 
#    z 0.000000 0.000000 2.012390 
# 
# From -- ./inp_files/1103.got.cif
#   From: 2010.05.17/outbox.cif.g08.bks.cpg/sg38_1_cif.got.tgz:1103.got - 2010.06.03 18:07:57.
