data_PCOD9358874
_publ_section_title
;
Structure prediction by ZEFSAII (Michael W. Deem and Ramdas Pophale) SiO2 
 PCOD9358874
Probable space group: A M M 2
;
_chemical_formula_sum "Si O2"
_cell_formula_units_Z 30
_cell_length_a 8.167213
_cell_length_b 12.746382
_cell_length_c 13.517444
_cell_angle_alpha 90.000000
_cell_angle_beta 90.000000
_cell_angle_gamma 90.000000
_cell_volume 1407.198589
_symmetry_space_group_name_H-M "A M M 2"
_symmetry_group_IT_number 38
_symmetry_cell_setting 'orthorhombic'
loop_
_space_group_symop_operation_xyz
x,y,z
-x,-y,z
-x,y,z
x,-y,z
x,1/2+y,1/2+z
-x,1/2-y,1/2+z
-x,1/2+y,1/2+z
x,1/2-y,1/2+z
loop_
_atom_site_type_symbol
_atom_site_label
_atom_site_fract_x
_atom_site_fract_y
_atom_site_fract_z
Si Si1 0.500000 0.000000 0.179200
Si Si2 0.809898 0.500000 0.826410
Si Si3 0.172733 0.378818 0.211554
Si Si4 0.183527 0.681788 0.988142
Si Si5 0.500000 0.117939 0.790102
Si Si6 0.500000 0.671736 0.508991
O O1 0.664758 0.000000 0.246122
O O2 0.500000 0.899850 0.105813
O O3 0.792243 0.399165 0.898633
O O4 0.000000 0.500000 0.788692
O O5 0.169596 0.500000 0.246397
O O6 0.334758 0.327248 0.254526
O O7 0.000000 0.328325 0.240847
O O8 0.181239 0.378361 0.093338
O O9 0.334923 0.759791 0.000556
O O10 0.000000 0.729712 0.978166
O O11 0.500000 0.108950 0.906595
O O12 0.500000 0.000000 0.744197
#
# Coordination Sequence:
#
# PCOD9358874 Si02
#       6
#     2   4   8   8   4   4
#     4  12  28  46  60  86 136 188 222 256 314 386
#     4  10  22  44  71  97 127 167 216 270 327 386
#     4   9  17  33  60  91 115 138 178 243 314 366
#     4  10  21  39  67  98 123 153 204 268 325 377
#     4  10  21  37  55  77 113 157 197 236 289 358
#     4  12  26  42  57  85 129 175 217 254 302 375
#
# _framework density 21.318954000000002
#
# number of rings (size 3 to 8) (size 9 to 14) (size 15 to 20)
#    0.000    1.867    2.000    1.600    0.000    6.400 
#    0.000    5.333    0.000    0.000    0.000    0.000 
#    0.000    0.000    0.000    0.000    0.000    0.000 
#
# Total GULP energy -83676.890977 kJ/mol
# GULP energy per Si atom -5578.459398 kJ/mol
# Density = 2.127043 g / cm^3
# Si number density = 21.318954 Si / 1000 Ang^3
#
#
#
# Elastic Constant Matrix: (Units=GPa)
#
#
# Indices 1 2 3 4 5 6 
#
# 1 273.5618 72.5310 92.6118 0.0000 0.0000 0.0000
# 2 72.5310 65.8010 21.1105 0.0000 0.0000 0.0000
# 3 92.6118 21.1105 116.2573 0.0000 0.0000 0.0000
# 4 0.0000 0.0000 0.0000 16.6320 0.0000 0.0000
# 5 0.0000 0.0000 0.0000 0.0000 121.1753 0.0000
# 6 0.0000 0.0000 0.0000 0.0000 0.0000 4.2399
#
#
#
# Elastic Compliance Matrix: (Units=1/GPa)
#
#
# Indices 1 2 3 4 5 6 
#
# 1 0.006680 -0.006006 -0.004231 0.000000 0.000000 0.000000
# 2 -0.006006 0.021537 0.000874 0.000000 0.000000 0.000000
# 3 -0.004231 0.000874 0.011813 0.000000 0.000000 0.000000
# 4 0.000000 0.000000 0.000000 0.060125 0.000000 0.000000
# 5 0.000000 0.000000 0.000000 0.000000 0.008253 0.000000
# 6 0.000000 0.000000 0.000000 0.000000 0.000000 0.235856
#
#
# Mechanical properties :
#
#
# Convention : Reuss Voigt Hill
#
# Bulk Modulus (GPa) = 46.93889 92.01410 69.47650
# Shear Modulus (GPa) = 13.51014 46.36722 29.93868
#
# Velocity S-wave (km/s) = 2.52010 4.66867 3.75149
# Velocity P-wave (km/s) = 5.52568 8.50391 7.17111
#
# Compressibility (1/GPa) = 0.02130430
#
# Stress axis : x y z
#
# Youngs Moduli (GPa) = 149.69448 46.43075 84.64971
#
# Poissons Ratio (x) = 0.27887 0.35815
# Poissons Ratio (y) = 0.89908 -0.07396
# Poissons Ratio (z) = 0.63335 -0.04057
#
# Static dielectric constant tensor:
#      x y z
#    x 1.790960 0.000000 0.000000 
#    y 0.000000 2.179570 0.000000 
#    z 0.000000 0.000000 1.739190 
# 
# From -- ./inp_files/7579.got.cif
#   From: 2010.05.17/outbox.cif.g08.bks.cpg/sg38_4_cif.got.tgz:7579.got - 2010.06.03 18:07:57.
