data_PCOD9358063
_publ_section_title
;
Structure prediction by ZEFSAII (Michael W. Deem and Ramdas Pophale) SiO2 
 PCOD9358063
Probable space group: A M M 2
;
_chemical_formula_sum "Si O2"
_cell_formula_units_Z 64
_cell_length_a 20.276975
_cell_length_b 20.614406
_cell_length_c 8.220677
_cell_angle_alpha 90.000000
_cell_angle_beta 90.000000
_cell_angle_gamma 90.000000
_cell_volume 3436.224860
_symmetry_space_group_name_H-M "A M M 2"
_symmetry_group_IT_number 38
_symmetry_cell_setting 'orthorhombic'
loop_
_space_group_symop_operation_xyz
x,y,z
-x,-y,z
-x,y,z
x,-y,z
x,1/2+y,1/2+z
-x,1/2-y,1/2+z
-x,1/2+y,1/2+z
x,1/2-y,1/2+z
loop_
_atom_site_type_symbol
_atom_site_label
_atom_site_fract_x
_atom_site_fract_y
_atom_site_fract_z
Si Si1 0.424938 0.242009 0.135600
Si Si2 0.691706 0.928367 0.996382
Si Si3 0.573129 0.145881 0.835487
Si Si4 0.717950 0.807012 0.221664
Si Si5 0.797224 0.191063 0.541037
Si Si6 0.180170 0.928283 0.779643
Si Si7 0.924593 0.785230 0.319590
Si Si8 0.925624 0.850271 0.964822
O O1 0.500000 0.226038 0.196815
O O2 0.419180 0.319707 0.160068
O O3 0.357472 0.217001 0.216468
O O4 0.423643 0.207411 0.960171
O O5 0.628506 0.902197 0.898038
O O6 0.750958 0.933331 0.870956
O O7 0.679139 0.000000 0.067389
O O8 0.715352 0.873709 0.122300
O O9 0.500000 0.117364 0.847208
O O10 0.742533 0.818363 0.402687
O O11 0.768111 0.753096 0.142344
O O12 0.808316 0.128393 0.650547
O O13 0.865962 0.198515 0.443015
O O14 0.126506 0.903256 0.910120
O O15 0.162103 0.000000 0.715507
O O16 0.923564 0.706942 0.329017
O O17 0.000000 0.803342 0.370381
O O18 0.913548 0.816618 0.141517
O O19 0.000000 0.876142 0.969741
#
# Coordination Sequence:
#
# PCOD9358063 Si02
#       8
#     8   8   8   8   8   8   8   8
#     4   9  17  30  49  76 107 135 172 224 274 319
#     4  10  21  36  52  74 107 144 182 225 273 327
#     4   9  17  30  50  76 104 136 175 221 272 323
#     4  11  21  34  57  84 109 142 184 228 279 332
#     4  12  22  35  57  83 111 142 183 230 276 332
#     4  11  24  39  54  75 107 146 184 225 275 329
#     4  10  20  34  57  87 113 139 177 230 281 324
#     4  10  20  36  58  83 110 140 177 221 272 328
#
# _framework density 18.625091000000001
#
# number of rings (size 3 to 8) (size 9 to 14) (size 15 to 20)
#    0.000    1.750    0.000    6.750    0.000    2.500 
#    0.000    0.625    0.000    0.750    0.000    0.000 
#    0.000    5.000    0.000    0.000    0.000    0.000 
#
# Total GULP energy -178234.243189 kJ/mol
# GULP energy per Si atom -5569.820100 kJ/mol
# Density = 1.858270 g / cm^3
# Si number density = 18.625091 Si / 1000 Ang^3
#
#
#
# Elastic Constant Matrix: (Units=GPa)
#
#
# Indices 1 2 3 4 5 6 
#
# 1 122.2875 54.4291 49.8952 0.0000 0.0000 0.0000
# 2 54.4291 120.7243 39.5994 0.0000 0.0000 0.0000
# 3 49.8952 39.5994 53.9559 0.0000 0.0000 0.0000
# 4 0.0000 0.0000 0.0000 20.8650 0.0000 0.0000
# 5 0.0000 0.0000 0.0000 0.0000 22.4887 0.0000
# 6 0.0000 0.0000 0.0000 0.0000 0.0000 -28.9341
#
#
#
# Elastic Compliance Matrix: (Units=1/GPa)
#
#
# Indices 1 2 3 4 5 6 
#
# 1 0.013758 -0.002673 -0.010760 0.000000 0.000000 0.000000
# 2 -0.002673 0.011429 -0.005916 0.000000 0.000000 0.000000
# 3 -0.010760 -0.005916 0.032826 0.000000 0.000000 0.000000
# 4 0.000000 0.000000 0.000000 0.047927 0.000000 0.000000
# 5 0.000000 0.000000 0.000000 0.000000 0.044467 0.000000
# 6 0.000000 0.000000 0.000000 0.000000 0.000000 -0.034561
#
#
# Mechanical properties :
#
#
# Convention : Reuss Voigt Hill
#
# Bulk Modulus (GPa) = 51.77681 64.97946 58.37813
# Shear Modulus (GPa) = 31.05924 13.08685 22.07305
#
# Velocity S-wave (km/s) = 4.08806 2.65362 3.44630
# Velocity P-wave (km/s) = 7.08116 6.65979 6.87370
#
# Compressibility (1/GPa) = 0.01931367
#
# Stress axis : x y z
#
# Youngs Moduli (GPa) = 72.68701 87.49596 30.46354
#
# Poissons Ratio (x) = 0.23389 0.32780
# Poissons Ratio (y) = 0.19430 0.18023
# Poissons Ratio (z) = 0.78214 0.51764
#
# Static dielectric constant tensor:
#      x y z
#    x 1.676860 0.000000 0.000000 
#    y 0.000000 1.680950 0.000000 
#    z 0.000000 0.000000 1.698880 
# 
# From -- ./inp_files/6853.got.cif
#   From: 2010.05.17/outbox.cif.g08.bks.cpg/sg38_4_cif.got.tgz:6853.got - 2010.06.03 18:07:57.
