data_PCOD9358092
_publ_section_title
;
Structure prediction by ZEFSAII (Michael W. Deem and Ramdas Pophale) SiO2 
 PCOD9358092
Probable space group: A M M 2
;
_chemical_formula_sum "Si O2"
_cell_formula_units_Z 58
_cell_length_a 26.046875
_cell_length_b 7.929339
_cell_length_c 14.731922
_cell_angle_alpha 90.000000
_cell_angle_beta 90.000000
_cell_angle_gamma 90.000000
_cell_volume 3042.650170
_symmetry_space_group_name_H-M "A M M 2"
_symmetry_group_IT_number 38
_symmetry_cell_setting 'orthorhombic'
loop_
_space_group_symop_operation_xyz
x,y,z
-x,-y,z
-x,y,z
x,-y,z
x,1/2+y,1/2+z
-x,1/2-y,1/2+z
-x,1/2+y,1/2+z
x,1/2-y,1/2+z
loop_
_atom_site_type_symbol
_atom_site_label
_atom_site_fract_x
_atom_site_fract_y
_atom_site_fract_z
Si Si1 0.582741 0.189766 0.433280
Si Si2 0.138464 0.795056 0.933281
Si Si3 0.500000 0.000000 0.933279
Si Si4 0.743536 0.698194 0.933280
Si Si5 0.943187 0.297090 0.578742
Si Si6 0.336543 0.196889 0.078655
Si Si7 0.943187 0.797091 0.787821
Si Si8 0.663457 0.803111 0.787905
O O1 0.544301 0.347921 0.433279
O O2 0.619554 0.207916 0.521494
O O3 0.619555 0.207915 0.345066
O O4 0.560567 0.000000 0.433280
O O5 0.196056 0.730025 0.933280
O O6 0.104308 0.738067 0.847695
O O7 0.141140 0.000000 0.933281
O O8 0.104308 0.738068 0.018867
O O9 0.733004 0.500000 0.933278
O O10 0.715721 0.773416 0.844432
O O11 0.715721 0.773412 0.022128
O O12 0.944179 0.500000 0.570704
O O13 0.936872 0.249997 0.683281
O O14 0.000000 0.235994 0.549284
O O15 0.332737 0.250000 0.183280
O O16 0.349105 0.000000 0.074893
O O17 0.000000 0.735991 0.817277
O O18 0.944179 0.000000 0.795862
O O19 0.650894 0.000000 0.791666
#
# Coordination Sequence:
#
# PCOD9358092 Si02
#       8
#     8   8   2   8   8   8   8   8
#     4  11  22  41  67  95 131 172 210 252 307 357
#     4  10  20  35  53  75 109 144 183 235 294 349
#     4  12  22  44  64  98 136 174 206 260 306 346
#     4  11  23  38  56  87 116 153 198 247 302 358
#     4   9  18  33  53  75 101 139 184 228 285 354
#     4  11  21  40  66  92 121 159 206 249 299 365
#     4   9  18  33  53  75 101 139 184 228 285 354
#     4  11  21  40  66  92 121 159 206 249 299 365
#
# _framework density 19.062329999999999
#
# number of rings (size 3 to 8) (size 9 to 14) (size 15 to 20)
#    0.000    1.655    1.379    6.000    0.000    3.862 
#    0.000    3.448    0.000    4.138    0.000    0.000 
#    0.000    0.000    0.000    0.000    0.000    0.000 
#
# Total GULP energy -161621.668296 kJ/mol
# GULP energy per Si atom -5573.160976 kJ/mol
# Density = 1.901894 g / cm^3
# Si number density = 19.062330 Si / 1000 Ang^3
#
#
#
# Elastic Constant Matrix: (Units=GPa)
#
#
# Indices 1 2 3 4 5 6 
#
# 1 153.6608 27.5129 71.3247 0.0000 0.0000 0.0000
# 2 27.5129 107.6421 23.7840 0.0000 0.0000 0.0000
# 3 71.3247 23.7840 142.6437 0.0000 0.0000 0.0000
# 4 0.0000 0.0000 0.0000 21.0182 0.0000 0.0000
# 5 0.0000 0.0000 0.0000 0.0000 19.0884 0.0000
# 6 0.0000 0.0000 0.0000 0.0000 0.0000 21.9387
#
#
#
# Elastic Compliance Matrix: (Units=1/GPa)
#
#
# Indices 1 2 3 4 5 6 
#
# 1 0.008647 -0.001303 -0.004107 0.000000 0.000000 0.000000
# 2 -0.001303 0.009842 -0.000990 0.000000 0.000000 0.000000
# 3 -0.004107 -0.000990 0.009229 0.000000 0.000000 0.000000
# 4 0.000000 0.000000 0.000000 0.047578 0.000000 0.000000
# 5 0.000000 0.000000 0.000000 0.000000 0.052388 0.000000
# 6 0.000000 0.000000 0.000000 0.000000 0.000000 0.045582
#
#
# Mechanical properties :
#
#
# Convention : Reuss Voigt Hill
#
# Bulk Modulus (GPa) = 67.02457 72.13220 69.57839
# Shear Modulus (GPa) = 26.17306 31.16407 28.66857
#
# Velocity S-wave (km/s) = 3.70946 4.04772 3.88227
# Velocity P-wave (km/s) = 7.32010 7.73095 7.52833
#
# Compressibility (1/GPa) = 0.01491990
#
# Stress axis : x y z
#
# Youngs Moduli (GPa) = 115.64353 101.60861 108.35606
#
# Poissons Ratio (x) = 0.13238 0.44497
# Poissons Ratio (y) = 0.15067 0.10722
# Poissons Ratio (z) = 0.47490 0.10054
#
# Static dielectric constant tensor:
#      x y z
#    x 1.644150 0.000000 0.000000 
#    y 0.000000 1.682150 0.000000 
#    z 0.000000 0.000000 1.663080 
# 
# From -- ./inp_files/15680.got.cif
#   From: 2010.05.17/outbox.cif.g08.bks.cpg/sg38_8_cif.got.tgz:15680.got - 2010.06.03 18:07:57.
