data_PCOD9358705
_publ_section_title
;
Structure prediction by ZEFSAII (Michael W. Deem and Ramdas Pophale) SiO2 
 PCOD9358705
Probable space group: A M M 2
;
_chemical_formula_sum "Si O2"
_cell_formula_units_Z 58
_cell_length_a 7.476434
_cell_length_b 14.962575
_cell_length_c 25.691166
_cell_angle_alpha 90.000000
_cell_angle_beta 90.000000
_cell_angle_gamma 90.000000
_cell_volume 2873.986074
_symmetry_space_group_name_H-M "A M M 2"
_symmetry_group_IT_number 38
_symmetry_cell_setting 'orthorhombic'
loop_
_space_group_symop_operation_xyz
x,y,z
-x,-y,z
-x,y,z
x,-y,z
x,1/2+y,1/2+z
-x,1/2-y,1/2+z
-x,1/2+y,1/2+z
x,1/2-y,1/2+z
loop_
_atom_site_type_symbol
_atom_site_label
_atom_site_fract_x
_atom_site_fract_y
_atom_site_fract_z
Si Si1 0.219098 0.843055 0.601060
Si Si2 0.203118 0.777733 0.188419
Si Si3 0.715152 0.402634 0.371348
Si Si4 0.787970 0.100500 0.279235
Si Si5 0.500000 0.500000 0.126712
Si Si6 0.214207 0.398188 0.987260
Si Si7 0.708298 0.208829 0.383457
Si Si8 0.285048 0.098492 0.747257
O O1 0.271618 0.753115 0.632139
O O2 0.260005 0.844702 0.539532
O O3 0.000000 0.856595 0.606827
O O4 0.341524 0.922070 0.623670
O O5 0.287999 0.847782 0.228715
O O6 0.203402 0.683505 0.219566
O O7 0.000000 0.807284 0.179381
O O8 0.500000 0.405971 0.379621
O O9 0.785020 0.500000 0.388778
O O10 0.785378 0.308316 0.392651
O O11 0.744333 0.396233 0.309119
O O12 0.772271 0.158598 0.331674
O O13 0.000000 0.093352 0.270689
O O14 0.716434 0.000000 0.286179
O O15 0.283644 0.500000 0.991999
O O16 0.271023 0.351877 0.934127
O O17 0.000000 0.403552 0.985517
O O18 0.500000 0.222389 0.373283
O O19 0.500000 0.100522 0.738741
O O20 0.222440 0.000000 0.730504
#
# Coordination Sequence:
#
# PCOD9358705 Si02
#       8
#     8   8   8   8   2   8   8   8
#     4  10  23  39  56  85 120 154 195 240 293 349
#     4  10  21  35  52  75 108 143 184 233 279 340
#     4   8  15  30  47  70 105 142 173 217 274 328
#     4  10  21  38  56  76 107 150 191 230 289 350
#     4  12  22  36  64  86 114 164 190 240 288 356
#     4  10  21  38  56  76 114 154 182 231 288 337
#     4  11  21  32  55  85 110 142 190 236 278 342
#     4   9  17  28  47  71 100 135 172 209 259 327
#
# _framework density 20.181031000000001
#
# number of rings (size 3 to 8) (size 9 to 14) (size 15 to 20)
#    0.000    2.207    2.069    1.862    2.897    2.483 
#    0.000    0.000    0.000    2.483    0.000    1.931 
#    0.000    0.000    0.000    0.000    0.000    0.000 
#
# Total GULP energy -161435.676921 kJ/mol
# GULP energy per Si atom -5566.747480 kJ/mol
# Density = 2.013510 g / cm^3
# Si number density = 20.181031 Si / 1000 Ang^3
#
#
#
# Elastic Constant Matrix: (Units=GPa)
#
#
# Indices 1 2 3 4 5 6 
#
# 1 69.0936 6.3564 6.5153 0.0000 0.0000 0.0000
# 2 6.3564 130.4978 66.9892 0.0000 0.0000 0.0000
# 3 6.5153 66.9892 98.6472 0.0000 0.0000 0.0000
# 4 0.0000 0.0000 0.0000 18.8829 0.0000 0.0000
# 5 0.0000 0.0000 0.0000 0.0000 -53.3545 0.0000
# 6 0.0000 0.0000 0.0000 0.0000 0.0000 20.2044
#
#
#
# Elastic Compliance Matrix: (Units=1/GPa)
#
#
# Indices 1 2 3 4 5 6 
#
# 1 0.014573 -0.000331 -0.000738 0.000000 0.000000 0.000000
# 2 -0.000331 0.011771 -0.007972 0.000000 0.000000 0.000000
# 3 -0.000738 -0.007972 0.015599 0.000000 0.000000 0.000000
# 4 0.000000 0.000000 0.000000 0.052958 0.000000 0.000000
# 5 0.000000 0.000000 0.000000 0.000000 -0.018743 0.000000
# 6 0.000000 0.000000 0.000000 0.000000 0.000000 0.049494
#
#
# Mechanical properties :
#
#
# Convention : Reuss Voigt Hill
#
# Bulk Modulus (GPa) = 41.90654 50.88448 46.39551
# Shear Modulus (GPa) = 32.96227 11.70507 22.33367
#
# Velocity S-wave (km/s) = 4.04583 2.41094 3.33027
# Velocity P-wave (km/s) = 6.52958 5.74621 6.15038
#
# Compressibility (1/GPa) = 0.02386263
#
# Stress axis : x y z
#
# Youngs Moduli (GPa) = 68.61933 84.95252 64.10547
#
# Poissons Ratio (x) = 0.02814 0.04728
# Poissons Ratio (y) = 0.02273 0.51103
# Poissons Ratio (z) = 0.05061 0.67722
#
# Static dielectric constant tensor:
#      x y z
#    x 1.772250 0.000000 0.000000 
#    y 0.000000 1.760790 0.000000 
#    z 0.000000 0.000000 1.734310 
# 
# From -- ./inp_files/23575.got.cif
#   From: 2010.05.17/outbox.cif.g08.bks.cpg/sg38_12_cif.got.tgz:23575.got - 2010.06.03 18:07:57.
