data_PCOD9358603
_publ_section_title
;
Structure prediction by ZEFSAII (Michael W. Deem and Ramdas Pophale) SiO2 
 PCOD9358603
Probable space group: A M M 2
;
_chemical_formula_sum "Si O2"
_cell_formula_units_Z 56
_cell_length_a 21.586584
_cell_length_b 8.727279
_cell_length_c 15.825155
_cell_angle_alpha 90.000000
_cell_angle_beta 90.000000
_cell_angle_gamma 90.000000
_cell_volume 2981.334836
_symmetry_space_group_name_H-M "A M M 2"
_symmetry_group_IT_number 38
_symmetry_cell_setting 'orthorhombic'
loop_
_space_group_symop_operation_xyz
x,y,z
-x,-y,z
-x,y,z
x,-y,z
x,1/2+y,1/2+z
-x,1/2-y,1/2+z
-x,1/2+y,1/2+z
x,1/2-y,1/2+z
loop_
_atom_site_type_symbol
_atom_site_label
_atom_site_fract_x
_atom_site_fract_y
_atom_site_fract_z
Si Si1 0.784886 0.316008 0.833560
Si Si2 0.426836 0.816857 0.171599
Si Si3 0.647197 0.817220 0.830011
Si Si4 0.864257 0.314641 0.486729
Si Si5 0.426845 0.316866 0.988475
Si Si6 0.000000 0.183509 0.732194
Si Si7 0.000000 0.185518 0.928828
Si Si8 0.129892 0.684443 0.675743
O O1 0.780000 0.500000 0.833403
O O2 0.717179 0.243669 0.830596
O O3 0.821447 0.260734 0.916356
O O4 0.824888 0.268151 0.751445
O O5 0.500000 0.783277 0.184554
O O6 0.387765 0.745012 0.247145
O O7 0.419073 0.000000 0.171388
O O8 0.409261 0.750128 0.080012
O O9 0.612121 0.755214 0.912902
O O10 0.646366 0.000000 0.830147
O O11 0.861205 0.500000 0.477426
O O12 0.935768 0.265870 0.471422
O O13 0.846404 0.274282 0.582472
O O14 0.500000 0.283180 0.975590
O O15 0.419173 0.500000 0.988646
O O16 0.937884 0.246551 0.690271
O O17 0.000000 0.232367 0.830768
O O18 0.000000 0.000000 0.729462
O O19 0.000000 0.000000 0.931389
O O20 0.124188 0.500000 0.678303
#
# Coordination Sequence:
#
# PCOD9358603 Si02
#       8
#     8   8   8   8   8   4   4   8
#     4  11  24  41  58  83 117 153 197 251 301 350
#     4  10  21  39  64  94 127 161 199 246 298 355
#     4  12  25  40  61  87 120 165 209 250 300 356
#     4  10  20  39  62  84 113 152 195 235 291 360
#     4  10  21  39  64  94 126 158 196 247 303 358
#     4  11  20  33  59  90 117 147 186 238 291 346
#     4   9  17  31  57  86 113 145 182 234 289 348
#     4  10  22  39  61  85 113 151 192 239 294 353
#
# _framework density 18.783532000000001
#
# number of rings (size 3 to 8) (size 9 to 14) (size 15 to 20)
#    0.000    1.571    1.429    3.643    0.000    6.857 
#    0.000    4.643    0.000    0.000    0.000    0.000 
#    0.000    0.000    0.000    0.000    0.000    0.000 
#
# Total GULP energy -156515.384740 kJ/mol
# GULP energy per Si atom -5589.835169 kJ/mol
# Density = 1.874078 g / cm^3
# Si number density = 18.783532 Si / 1000 Ang^3
#
#
#
# Elastic Constant Matrix: (Units=GPa)
#
#
# Indices 1 2 3 4 5 6 
#
# 1 136.7222 64.2044 112.4028 0.0000 0.0000 0.0000
# 2 64.2044 61.7724 69.8276 0.0000 0.0000 0.0000
# 3 112.4028 69.8276 204.8922 0.0000 0.0000 0.0000
# 4 0.0000 0.0000 0.0000 34.3795 0.0000 0.0000
# 5 0.0000 0.0000 0.0000 0.0000 185.5285 0.0000
# 6 0.0000 0.0000 0.0000 0.0000 0.0000 26.9598
#
#
#
# Elastic Compliance Matrix: (Units=1/GPa)
#
#
# Indices 1 2 3 4 5 6 
#
# 1 0.017422 -0.011881 -0.005509 0.000000 0.000000 0.000000
# 2 -0.011881 0.034436 -0.005218 0.000000 0.000000 0.000000
# 3 -0.005509 -0.005218 0.009681 0.000000 0.000000 0.000000
# 4 0.000000 0.000000 0.000000 0.029087 0.000000 0.000000
# 5 0.000000 0.000000 0.000000 0.000000 0.005390 0.000000
# 6 0.000000 0.000000 0.000000 0.000000 0.000000 0.037092
#
#
# Mechanical properties :
#
#
# Convention : Reuss Voigt Hill
#
# Bulk Modulus (GPa) = 61.26127 99.58407 80.42267
# Shear Modulus (GPa) = 27.20873 59.83702 43.52287
#
# Velocity S-wave (km/s) = 3.81010 5.65024 4.81882
# Velocity P-wave (km/s) = 7.21394 9.78258 8.59476
#
# Compressibility (1/GPa) = 0.01632353
#
# Stress axis : x y z
#
# Youngs Moduli (GPa) = 57.39765 29.03968 103.29692
#
# Poissons Ratio (x) = 0.34503 0.56902
# Poissons Ratio (y) = 0.68196 0.53897
# Poissons Ratio (z) = 0.31618 0.15152
#
# Static dielectric constant tensor:
#      x y z
#    x 1.614430 0.000000 0.000000 
#    y 0.000000 1.629100 0.000000 
#    z 0.000000 0.000000 1.637090 
# 
# From -- ./inp_files/15542.got.cif
#   From: 2010.05.17/outbox.cif.g08.bks.cpg/sg38_8_cif.got.tgz:15542.got - 2010.06.03 18:07:57.
