data_PCOD9358695
_publ_section_title
;
Structure prediction by ZEFSAII (Michael W. Deem and Ramdas Pophale) SiO2 
 PCOD9358695
Probable space group: A M M 2
;
_chemical_formula_sum "Si O2"
_cell_formula_units_Z 64
_cell_length_a 7.466089
_cell_length_b 25.286015
_cell_length_c 14.210946
_cell_angle_alpha 90.000000
_cell_angle_beta 90.000000
_cell_angle_gamma 90.000000
_cell_volume 2682.850935
_symmetry_space_group_name_H-M "A M M 2"
_symmetry_group_IT_number 38
_symmetry_cell_setting 'orthorhombic'
loop_
_space_group_symop_operation_xyz
x,y,z
-x,-y,z
-x,y,z
x,-y,z
x,1/2+y,1/2+z
-x,1/2-y,1/2+z
-x,1/2+y,1/2+z
x,1/2-y,1/2+z
loop_
_atom_site_type_symbol
_atom_site_label
_atom_site_fract_x
_atom_site_fract_y
_atom_site_fract_z
Si Si1 0.292804 0.220893 0.563610
Si Si2 0.711412 0.666698 0.544854
Si Si3 0.793704 0.397016 0.047759
Si Si4 0.779771 0.942730 0.736907
Si Si5 0.780932 0.391202 0.835998
Si Si6 0.784170 0.442546 0.650148
Si Si7 0.217180 0.775419 0.339855
Si Si8 0.794323 0.836741 0.827628
O O1 0.500000 0.216165 0.589216
O O2 0.219918 0.278754 0.594127
O O3 0.209200 0.163797 0.585191
O O4 0.273283 0.223974 0.449614
O O5 0.500000 0.675548 0.532740
O O6 0.735853 0.610819 0.595361
O O7 0.792609 0.662872 0.440786
O O8 0.719862 0.433619 0.129540
O O9 0.000000 0.412590 0.036725
O O10 0.715929 0.399298 0.942704
O O11 0.714404 0.891505 0.792803
O O12 0.000000 0.942433 0.739115
O O13 0.723530 0.000000 0.772885
O O14 0.726654 0.433129 0.758114
O O15 0.724769 0.332367 0.802346
O O16 0.000000 0.390612 0.838873
O O17 0.720356 0.500000 0.615242
O O18 0.000000 0.443966 0.648517
O O19 0.284299 0.720125 0.297433
O O20 0.000000 0.774013 0.338230
O O21 0.000000 0.836259 0.795392
#
# Coordination Sequence:
#
# PCOD9358695 Si02
#       8
#     8   8   8   8   8   8   8   8
#     4   9  17  30  49  74 102 129 162 205 252 302
#     4  10  21  36  53  74 101 133 167 207 257 304
#     4   9  17  31  53  78 104 135 166 200 247 299
#     4   9  18  31  49  77 107 133 168 210 247 289
#     4   8  15  29  49  73  99 126 161 205 248 292
#     4  10  21  35  51  73 100 133 174 213 247 289
#     4   8  14  27  48  73  99 128 164 203 248 302
#     4   9  17  31  52  76 102 132 166 206 250 297
#
# _framework density 23.855219000000002
#
# number of rings (size 3 to 8) (size 9 to 14) (size 15 to 20)
#    0.000    3.000    0.000    1.500    0.000    3.750 
#    0.000    9.375    0.000    7.125    0.000    0.000 
#    0.000    0.000    0.000    0.000    0.000    0.000 
#
# Total GULP energy -178535.798207 kJ/mol
# GULP energy per Si atom -5579.243694 kJ/mol
# Density = 2.380092 g / cm^3
# Si number density = 23.855219 Si / 1000 Ang^3
#
#
#
# Elastic Constant Matrix: (Units=GPa)
#
#
# Indices 1 2 3 4 5 6 
#
# 1 79.5838 -4.5982 -3.3543 0.0000 0.0000 0.0000
# 2 -4.5982 111.1770 13.1180 0.0000 0.0000 0.0000
# 3 -3.3543 13.1180 39.7754 0.0000 0.0000 0.0000
# 4 0.0000 0.0000 0.0000 29.5983 0.0000 0.0000
# 5 0.0000 0.0000 0.0000 0.0000 -176.0913 0.0000
# 6 0.0000 0.0000 0.0000 0.0000 0.0000 -1.9418
#
#
#
# Elastic Compliance Matrix: (Units=1/GPa)
#
#
# Indices 1 2 3 4 5 6 
#
# 1 0.012628 0.000413 0.000929 0.000000 0.000000 0.000000
# 2 0.000413 0.009372 -0.003056 0.000000 0.000000 0.000000
# 3 0.000929 -0.003056 0.026227 0.000000 0.000000 0.000000
# 4 0.000000 0.000000 0.000000 0.033786 0.000000 0.000000
# 5 0.000000 0.000000 0.000000 0.000000 -0.005679 0.000000
# 6 0.000000 0.000000 0.000000 0.000000 0.000000 -0.514986
#
#
# Mechanical properties :
#
#
# Convention : Reuss Voigt Hill
#
# Bulk Modulus (GPa) = 22.32198 26.76300 24.54249
# Shear Modulus (GPa) = -11.89659 -14.66225 -13.27942
#
# Velocity S-wave (km/s) = -2.23558 -2.48187 -2.36194
# Velocity P-wave (km/s) = 1.64737 1.74079 1.69472
#
# Compressibility (1/GPa) = 0.04479889
#
# Stress axis : x y z
#
# Youngs Moduli (GPa) = 79.18678 106.69688 38.12799
#
# Poissons Ratio (x) = -0.04403 -0.03542
# Poissons Ratio (y) = -0.03268 0.11653
# Poissons Ratio (z) = -0.07355 0.32609
#
# Static dielectric constant tensor:
#      x y z
#    x 2.024630 0.000000 0.000000 
#    y 0.000000 1.941640 0.000000 
#    z 0.000000 0.000000 1.908690 
# 
# From -- ./inp_files/12853.got.cif
#   From: 2010.05.17/outbox.cif.g08.bks.cpg/sg38_7_cif.got.tgz:12853.got - 2010.06.03 18:07:57.
