data_PCOD9358031
_publ_section_title
;
Structure prediction by ZEFSAII (Michael W. Deem and Ramdas Pophale) SiO2 
 PCOD9358031
Probable space group: A M M 2
;
_chemical_formula_sum "Si O2"
_cell_formula_units_Z 40
_cell_length_a 7.889633
_cell_length_b 7.505887
_cell_length_c 34.006383
_cell_angle_alpha 90.000000
_cell_angle_beta 90.000000
_cell_angle_gamma 90.000000
_cell_volume 2013.813581
_symmetry_space_group_name_H-M "A M M 2"
_symmetry_group_IT_number 38
_symmetry_cell_setting 'orthorhombic'
loop_
_space_group_symop_operation_xyz
x,y,z
-x,-y,z
-x,y,z
x,-y,z
x,1/2+y,1/2+z
-x,1/2-y,1/2+z
-x,1/2+y,1/2+z
x,1/2-y,1/2+z
loop_
_atom_site_type_symbol
_atom_site_label
_atom_site_fract_x
_atom_site_fract_y
_atom_site_fract_z
Si Si1 0.205269 0.705470 0.305370
Si Si2 0.687464 0.717684 0.218325
Si Si3 0.000000 0.213323 0.075426
Si Si4 0.206749 0.000000 0.366774
Si Si5 0.000000 0.711443 0.167290
Si Si6 0.694211 0.787566 0.019380
Si Si7 0.205008 0.500000 0.956973
O O1 0.255526 0.500000 0.311123
O O2 0.274109 0.769011 0.263300
O O3 0.000000 0.711211 0.302669
O O4 0.259335 0.828864 0.341347
O O5 0.500000 0.774981 0.206647
O O6 0.690106 0.500000 0.218251
O O7 0.832825 0.781857 0.189002
O O8 0.832147 0.270988 0.051797
O O9 0.000000 0.264103 0.120808
O O10 0.000000 0.000000 0.074294
O O11 0.262635 0.000000 0.411786
O O12 0.000000 0.000000 0.367616
O O13 0.000000 0.500000 0.174552
O O14 0.500000 0.757732 0.032102
O O15 0.715341 0.000000 0.012303
O O16 0.730340 0.672386 0.980627
O O17 0.000000 0.500000 0.958050
#
# Coordination Sequence:
#
# PCOD9358031 Si02
#       7
#     8   8   4   4   4   8   4
#     4   9  16  32  55  77 111 156 194 237 287 337
#     4   9  17  32  53  78 110 150 195 235 283 346
#     4  10  22  40  60  86 115 151 194 241 300 366
#     4   9  20  33  53  91 118 149 199 244 287 349
#     4  10  20  34  56  82 111 145 186 242 295 347
#     4  10  22  41  64  88 119 160 200 245 302 364
#     4  11  21  37  63  92 127 159 202 253 303 364
#
# _framework density 19.862812000000002
#
# number of rings (size 3 to 8) (size 9 to 14) (size 15 to 20)
#    0.000    2.400    2.000    0.300    1.400    1.600 
#    1.800    4.500    0.000    2.400    0.000    0.000 
#    0.000    0.000    0.000    0.000    0.000    0.000 
#
# Total GULP energy -111671.548130 kJ/mol
# GULP energy per Si atom -5583.577406 kJ/mol
# Density = 1.981760 g / cm^3
# Si number density = 19.862812 Si / 1000 Ang^3
#
#
#
# Elastic Constant Matrix: (Units=GPa)
#
#
# Indices 1 2 3 4 5 6 
#
# 1 138.2323 40.1867 93.2519 0.0000 0.0000 0.0000
# 2 40.1867 72.0227 49.2415 0.0000 0.0000 0.0000
# 3 93.2519 49.2415 188.8945 0.0000 0.0000 0.0000
# 4 0.0000 0.0000 0.0000 48.5006 0.0000 0.0000
# 5 0.0000 0.0000 0.0000 0.0000 -2.6889 0.0000
# 6 0.0000 0.0000 0.0000 0.0000 0.0000 6.5096
#
#
#
# Elastic Compliance Matrix: (Units=1/GPa)
#
#
# Indices 1 2 3 4 5 6 
#
# 1 0.011372 -0.003051 -0.004819 0.000000 0.000000 0.000000
# 2 -0.003051 0.017714 -0.003112 0.000000 0.000000 0.000000
# 3 -0.004819 -0.003112 0.008484 0.000000 0.000000 0.000000
# 4 0.000000 0.000000 0.000000 0.020618 0.000000 0.000000
# 5 0.000000 0.000000 0.000000 0.000000 -0.371897 0.000000
# 6 0.000000 0.000000 0.000000 0.000000 0.000000 0.153619
#
#
# Mechanical properties :
#
#
# Convention : Reuss Voigt Hill
#
# Bulk Modulus (GPa) = 64.07060 84.94552 74.50806
# Shear Modulus (GPa) = -37.61513 24.89555 -6.35979
#
# Velocity S-wave (km/s) = -4.35644 3.54414 -1.79131
# Velocity P-wave (km/s) = 2.64987 7.72055 5.77186
#
# Compressibility (1/GPa) = 0.01560778
#
# Stress axis : x y z
#
# Youngs Moduli (GPa) = 87.93704 56.45201 117.86909
#
# Poissons Ratio (x) = 0.17221 0.56797
# Poissons Ratio (y) = 0.26826 0.36678
# Poissons Ratio (z) = 0.42374 0.17567
#
# Static dielectric constant tensor:
#      x y z
#    x 1.720670 0.000000 0.000000 
#    y 0.000000 1.717100 0.000000 
#    z 0.000000 0.000000 1.647840 
# 
# From -- ./inp_files/23295.got.cif
#   From: 2010.05.17/outbox.cif.g08.bks.cpg/sg38_12_cif.got.tgz:23295.got - 2010.06.03 18:07:57.
