data_PCOD9358332
_publ_section_title
;
Structure prediction by ZEFSAII (Michael W. Deem and Ramdas Pophale) SiO2 
 PCOD9358332
Probable space group: A M M 2
;
_chemical_formula_sum "Si O2"
_cell_formula_units_Z 48
_cell_length_a 8.131086
_cell_length_b 18.974811
_cell_length_c 15.507092
_cell_angle_alpha 90.000000
_cell_angle_beta 90.000000
_cell_angle_gamma 90.000000
_cell_volume 2392.524406
_symmetry_space_group_name_H-M "A M M 2"
_symmetry_group_IT_number 38
_symmetry_cell_setting 'orthorhombic'
loop_
_space_group_symop_operation_xyz
x,y,z
-x,-y,z
-x,y,z
x,-y,z
x,1/2+y,1/2+z
-x,1/2-y,1/2+z
-x,1/2+y,1/2+z
x,1/2-y,1/2+z
loop_
_atom_site_type_symbol
_atom_site_label
_atom_site_fract_x
_atom_site_fract_y
_atom_site_fract_z
Si Si1 0.198208 0.227583 0.611620
Si Si2 0.693814 0.154064 0.250343
Si Si3 0.800967 0.423460 0.183905
Si Si4 0.298440 0.500000 0.699433
Si Si5 0.808784 0.732158 0.915368
Si Si6 0.695831 0.617824 0.370365
Si Si7 0.300213 0.500000 0.501458
O O1 0.243929 0.288480 0.680128
O O2 0.255133 0.149375 0.640102
O O3 0.257401 0.238352 0.513127
O O4 0.000000 0.227141 0.609843
O O5 0.500000 0.151245 0.235442
O O6 0.726048 0.179957 0.347439
O O7 0.759638 0.074566 0.237854
O O8 0.753077 0.500000 0.145675
O O9 0.734344 0.419868 0.280896
O O10 0.000000 0.421458 0.185871
O O11 0.500000 0.500000 0.704202
O O12 0.248664 0.500000 0.599442
O O13 0.788733 0.808756 0.873422
O O14 0.000000 0.712579 0.920576
O O15 0.500000 0.630358 0.376995
O O16 0.751775 0.568740 0.448919
O O17 0.500000 0.500000 0.499510
#
# Coordination Sequence:
#
# PCOD9358332 Si02
#       7
#     8   8   8   4   8   8   4
#     4  10  22  40  61  86 118 156 197 242 291 350
#     4  11  22  39  64  88 117 155 196 244 295 347
#     4  10  20  36  58  83 117 155 190 235 294 351
#     4   9  20  38  57  82 117 154 190 236 294 346
#     4  11  23  39  58  85 119 156 198 241 290 350
#     4  11  20  33  56  86 116 149 191 238 293 348
#     4   9  18  32  53  84 119 146 182 238 294 352
#
# _framework density 20.062491000000001
#
# number of rings (size 3 to 8) (size 9 to 14) (size 15 to 20)
#    0.000    1.667    2.500    2.500    0.000    2.667 
#    1.500    1.667    0.000    5.000    0.000    0.000 
#    0.000    0.000    0.000    0.000    0.000    0.000 
#
# Total GULP energy -133937.947559 kJ/mol
# GULP energy per Si atom -5580.747815 kJ/mol
# Density = 2.001683 g / cm^3
# Si number density = 20.062491 Si / 1000 Ang^3
#
#
#
# Elastic Constant Matrix: (Units=GPa)
#
#
# Indices 1 2 3 4 5 6 
#
# 1 15.3145 15.4837 8.3002 0.0000 0.0000 0.0000
# 2 15.4837 153.3004 49.0447 0.0000 0.0000 0.0000
# 3 8.3002 49.0447 86.7620 0.0000 0.0000 0.0000
# 4 0.0000 0.0000 0.0000 -1.9190 0.0000 0.0000
# 5 0.0000 0.0000 0.0000 0.0000 22.2060 0.0000
# 6 0.0000 0.0000 0.0000 0.0000 0.0000 6.7414
#
#
#
# Elastic Compliance Matrix: (Units=1/GPa)
#
#
# Indices 1 2 3 4 5 6 
#
# 1 0.073567 -0.006322 -0.003464 0.000000 0.000000 0.000000
# 2 -0.006322 0.008507 -0.004204 0.000000 0.000000 0.000000
# 3 -0.003464 -0.004204 0.014233 0.000000 0.000000 0.000000
# 4 0.000000 0.000000 0.000000 -0.521117 0.000000 0.000000
# 5 0.000000 0.000000 0.000000 0.000000 0.045033 0.000000
# 6 0.000000 0.000000 0.000000 0.000000 0.000000 0.148336
#
#
# Mechanical properties :
#
#
# Convention : Reuss Voigt Hill
#
# Bulk Modulus (GPa) = 14.63550 44.55935 29.59743
# Shear Modulus (GPa) = -27.67259 17.57559 -5.04850
#
# Velocity S-wave (km/s) = -3.71795 2.96301 -1.58803
# Velocity P-wave (km/s) = 3.33468 5.82790 3.37967
#
# Compressibility (1/GPa) = 0.06832701
#
# Stress axis : x y z
#
# Youngs Moduli (GPa) = 13.59303 117.55591 70.25690
#
# Poissons Ratio (x) = 0.74321 0.24338
# Poissons Ratio (y) = 0.08594 0.29534
# Poissons Ratio (z) = 0.04709 0.49418
#
# Static dielectric constant tensor:
#      x y z
#    x 1.711860 0.000000 0.000000 
#    y 0.000000 1.735060 0.000000 
#    z 0.000000 0.000000 1.695270 
# 
# From -- ./inp_files/12112.got.cif
#   From: 2010.05.17/outbox.cif.g08.bks.cpg/sg38_7_cif.got.tgz:12112.got - 2010.06.03 18:07:57.
