data_PCOD9358458
_publ_section_title
;
Structure prediction by ZEFSAII (Michael W. Deem and Ramdas Pophale) SiO2 
 PCOD9358458
Probable space group: A M M 2
;
_chemical_formula_sum "Si O2"
_cell_formula_units_Z 48
_cell_length_a 7.730711
_cell_length_b 17.226231
_cell_length_c 17.656790
_cell_angle_alpha 90.000000
_cell_angle_beta 90.000000
_cell_angle_gamma 90.000000
_cell_volume 2351.372619
_symmetry_space_group_name_H-M "A M M 2"
_symmetry_group_IT_number 38
_symmetry_cell_setting 'orthorhombic'
loop_
_space_group_symop_operation_xyz
x,y,z
-x,-y,z
-x,y,z
x,-y,z
x,1/2+y,1/2+z
-x,1/2-y,1/2+z
-x,1/2+y,1/2+z
x,1/2-y,1/2+z
loop_
_atom_site_type_symbol
_atom_site_label
_atom_site_fract_x
_atom_site_fract_y
_atom_site_fract_z
Si Si1 0.712129 0.589799 0.619910
Si Si2 0.296922 0.672362 0.771168
Si Si3 0.290865 0.178610 0.970261
Si Si4 0.707727 0.149013 0.437795
Si Si5 0.204988 0.652029 0.299535
Si Si6 0.787409 0.500000 0.209486
Si Si7 0.795107 0.500000 0.037008
O O1 0.500000 0.592234 0.619112
O O2 0.762779 0.500000 0.622050
O O3 0.774438 0.634723 0.694849
O O4 0.770956 0.631448 0.542954
O O5 0.500000 0.652355 0.771321
O O6 0.224145 0.642275 0.851541
O O7 0.281688 0.765583 0.773342
O O8 0.500000 0.178950 0.972336
O O9 0.230533 0.268315 0.970403
O O10 0.239421 0.143771 0.889106
O O11 0.500000 0.155074 0.432221
O O12 0.745994 0.076392 0.490250
O O13 0.269033 0.577727 0.253112
O O14 0.000000 0.657948 0.288071
O O15 0.000000 0.500000 0.210672
O O16 0.726126 0.500000 0.122727
O O17 0.000000 0.500000 0.043954
#
# Coordination Sequence:
#
# PCOD9358458 Si02
#       7
#     8   8   8   8   8   4   4
#     4   9  18  32  56  86 112 140 174 217 268 320
#     4   9  19  36  59  83 109 141 179 220 268 322
#     4   9  19  36  57  84 112 138 176 222 268 321
#     4   9  19  35  54  79 111 142 173 220 273 316
#     4  10  20  37  58  77 106 146 184 220 269 322
#     4   9  22  39  53  76 109 144 180 223 271 319
#     4  11  23  37  55  78 105 142 188 225 261 315
#
# _framework density 20.413608
#
# number of rings (size 3 to 8) (size 9 to 14) (size 15 to 20)
#    0.000    2.667    0.000    1.750    4.667    2.667 
#    0.000    4.583    0.000    1.000    0.000    0.000 
#    0.000    0.000    0.000    0.000    0.000    0.000 
#
# Total GULP energy -133953.252248 kJ/mol
# GULP energy per Si atom -5581.385510 kJ/mol
# Density = 2.036715 g / cm^3
# Si number density = 20.413608 Si / 1000 Ang^3
#
#
#
# Elastic Constant Matrix: (Units=GPa)
#
#
# Indices 1 2 3 4 5 6 
#
# 1 24.8713 -9.6828 -1.9526 0.0000 0.0000 0.0000
# 2 -9.6828 136.8612 141.2330 0.0000 0.0000 0.0000
# 3 -1.9526 141.2330 212.4305 0.0000 0.0000 0.0000
# 4 0.0000 0.0000 0.0000 31.5751 0.0000 0.0000
# 5 0.0000 0.0000 0.0000 0.0000 15.6763 0.0000
# 6 0.0000 0.0000 0.0000 0.0000 0.0000 -37.8401
#
#
#
# Elastic Compliance Matrix: (Units=1/GPa)
#
#
# Indices 1 2 3 4 5 6 
#
# 1 0.043072 0.008406 -0.005193 0.000000 0.000000 0.000000
# 2 0.008406 0.024916 -0.016488 0.000000 0.000000 0.000000
# 3 -0.005193 -0.016488 0.015622 0.000000 0.000000 0.000000
# 4 0.000000 0.000000 0.000000 0.031671 0.000000 0.000000
# 5 0.000000 0.000000 0.000000 0.000000 0.063791 0.000000
# 6 0.000000 0.000000 0.000000 0.000000 0.000000 -0.026427
#
#
# Mechanical properties :
#
#
# Convention : Reuss Voigt Hill
#
# Bulk Modulus (GPa) = 17.52545 70.37311 43.94928
# Shear Modulus (GPa) = 25.22534 18.18661 21.70597
#
# Velocity S-wave (km/s) = 3.51908 2.98804 3.26438
# Velocity P-wave (km/s) = 5.01156 6.81564 5.98200
#
# Compressibility (1/GPa) = 0.05705988
#
# Stress axis : x y z
#
# Youngs Moduli (GPa) = 23.21702 40.13473 64.01376
#
# Poissons Ratio (x) = -0.33737 0.33240
# Poissons Ratio (y) = -0.19516 1.05546
# Poissons Ratio (z) = 0.12056 0.66174
#
# Static dielectric constant tensor:
#      x y z
#    x 1.767570 0.000000 0.000000 
#    y 0.000000 1.860080 0.000000 
#    z 0.000000 0.000000 1.719150 
# 
# From -- ./inp_files/12142.got.cif
#   From: 2010.05.17/outbox.cif.g08.bks.cpg/sg38_7_cif.got.tgz:12142.got - 2010.06.03 18:07:57.
