data_PCOD9358995
_publ_section_title
;
Structure prediction by ZEFSAII (Michael W. Deem and Ramdas Pophale) SiO2 
 PCOD9358995
Probable space group: A M M 2
;
_chemical_formula_sum "Si O2"
_cell_formula_units_Z 58
_cell_length_a 19.286859
_cell_length_b 16.924354
_cell_length_c 9.269810
_cell_angle_alpha 90.000000
_cell_angle_beta 90.000000
_cell_angle_gamma 90.000000
_cell_volume 3025.829404
_symmetry_space_group_name_H-M "A M M 2"
_symmetry_group_IT_number 38
_symmetry_cell_setting 'orthorhombic'
loop_
_space_group_symop_operation_xyz
x,y,z
-x,-y,z
-x,y,z
x,-y,z
x,1/2+y,1/2+z
-x,1/2-y,1/2+z
-x,1/2+y,1/2+z
x,1/2-y,1/2+z
loop_
_atom_site_type_symbol
_atom_site_label
_atom_site_fract_x
_atom_site_fract_y
_atom_site_fract_z
Si Si1 0.194012 0.590672 0.412540
Si Si2 0.419270 0.404463 0.434403
Si Si3 0.700622 0.834835 0.101903
Si Si4 0.000000 0.000000 0.404720
Si Si5 0.265848 0.323931 0.930788
Si Si6 0.893529 0.850703 0.390940
Si Si7 0.310456 0.406238 0.195802
Si Si8 0.078548 0.305914 0.559464
O O1 0.172905 0.500000 0.389257
O O2 0.248746 0.595877 0.544940
O O3 0.239077 0.620257 0.275505
O O4 0.129792 0.644057 0.458041
O O5 0.500000 0.384685 0.427689
O O6 0.413519 0.500000 0.451929
O O7 0.376553 0.359755 0.558057
O O8 0.376324 0.381261 0.290573
O O9 0.707566 0.817932 0.269054
O O10 0.729083 0.759927 0.011950
O O11 0.060865 0.070383 0.402292
O O12 0.188191 0.358373 0.922611
O O13 0.311652 0.378836 0.033099
O O14 0.918343 0.783829 0.503767
O O15 0.900855 0.817186 0.226933
O O16 0.308168 0.500000 0.203869
O O17 0.000000 0.335448 0.544862
#
# Coordination Sequence:
#
# PCOD9358995 Si02
#       8
#     8   8   8   2   8   8   8   8
#     4  10  21  37  61  89 123 162 212 268 319 387
#     4   9  19  40  67  94 133 174 204 253 320 384
#     4  11  21  37  62  94 123 168 215 264 318 387
#     4  12  28  48  64  98 126 172 222 278 344 412
#     4  12  23  39  64  91 125 166 216 273 325 377
#     4  12  26  44  69  89 130 171 221 271 342 399
#     4   9  21  39  61  93 126 163 218 262 314 384
#     4  12  24  43  63  89 123 170 212 268 335 403
#
# _framework density 19.168296999999999
#
# number of rings (size 3 to 8) (size 9 to 14) (size 15 to 20)
#    0.000    1.241    4.138    2.897    3.862    1.379 
#    0.000    3.448    0.000    2.483    0.000    0.000 
#    0.000    0.000    0.000    0.000    0.000    0.000 
#
# Total GULP energy -161621.381839 kJ/mol
# GULP energy per Si atom -5573.151098 kJ/mol
# Density = 1.912467 g / cm^3
# Si number density = 19.168297 Si / 1000 Ang^3
#
#
#
# Elastic Constant Matrix: (Units=GPa)
#
#
# Indices 1 2 3 4 5 6 
#
# 1 140.6976 44.2541 46.8145 0.0000 0.0000 0.0000
# 2 44.2541 81.3285 40.0123 0.0000 0.0000 0.0000
# 3 46.8145 40.0123 125.4417 0.0000 0.0000 0.0000
# 4 0.0000 0.0000 0.0000 20.6954 0.0000 0.0000
# 5 0.0000 0.0000 0.0000 0.0000 14.4839 0.0000
# 6 0.0000 0.0000 0.0000 0.0000 0.0000 30.7321
#
#
#
# Elastic Compliance Matrix: (Units=1/GPa)
#
#
# Indices 1 2 3 4 5 6 
#
# 1 0.009034 -0.003864 -0.002139 0.000000 0.000000 0.000000
# 2 -0.003864 0.016237 -0.003737 0.000000 0.000000 0.000000
# 3 -0.002139 -0.003737 0.009962 0.000000 0.000000 0.000000
# 4 0.000000 0.000000 0.000000 0.048320 0.000000 0.000000
# 5 0.000000 0.000000 0.000000 0.000000 0.069042 0.000000
# 6 0.000000 0.000000 0.000000 0.000000 0.000000 0.032539
#
#
# Mechanical properties :
#
#
# Convention : Reuss Voigt Hill
#
# Bulk Modulus (GPa) = 63.47812 67.73665 65.60738
# Shear Modulus (GPa) = 23.82472 27.60807 25.71639
#
# Velocity S-wave (km/s) = 3.52934 3.79924 3.66677
# Velocity P-wave (km/s) = 7.05665 7.39326 7.22692
#
# Compressibility (1/GPa) = 0.01575346
#
# Stress axis : x y z
#
# Youngs Moduli (GPa) = 110.68741 61.58864 100.37876
#
# Poissons Ratio (x) = 0.23795 0.21474
# Poissons Ratio (y) = 0.42764 0.37514
# Poissons Ratio (z) = 0.23679 0.23017
#
# Static dielectric constant tensor:
#      x y z
#    x 1.673900 0.000000 0.000000 
#    y 0.000000 1.736230 0.000000 
#    z 0.000000 0.000000 1.681300 
# 
# From -- ./inp_files/6372.got.cif
#   From: 2010.05.17/outbox.cif.g08.bks.cpg/sg38_4_cif.got.tgz:6372.got - 2010.06.03 18:07:57.
