data_PCOD9358129
_publ_section_title
;
Structure prediction by ZEFSAII (Michael W. Deem and Ramdas Pophale) SiO2 
 PCOD9358129
Probable space group: A M M 2
;
_chemical_formula_sum "Si O2"
_cell_formula_units_Z 56
_cell_length_a 21.179110
_cell_length_b 8.068594
_cell_length_c 15.605518
_cell_angle_alpha 90.000000
_cell_angle_beta 90.000000
_cell_angle_gamma 90.000000
_cell_volume 2666.758929
_symmetry_space_group_name_H-M "A M M 2"
_symmetry_group_IT_number 38
_symmetry_cell_setting 'orthorhombic'
loop_
_space_group_symop_operation_xyz
x,y,z
-x,-y,z
-x,y,z
x,-y,z
x,1/2+y,1/2+z
-x,1/2-y,1/2+z
-x,1/2+y,1/2+z
x,1/2-y,1/2+z
loop_
_atom_site_type_symbol
_atom_site_label
_atom_site_fract_x
_atom_site_fract_y
_atom_site_fract_z
Si Si1 0.432728 0.810017 0.162960
Si Si2 0.432064 0.198169 0.855203
Si Si3 0.705996 0.316982 0.123459
Si Si4 0.831715 0.698187 0.908961
Si Si5 0.299038 0.194843 0.939552
Si Si6 0.071902 0.700317 0.261626
Si Si7 0.159445 0.796746 0.607598
O O1 0.500000 0.731221 0.133450
O O2 0.433322 0.791668 0.265368
O O3 0.363854 0.748893 0.138236
O O4 0.434831 0.000000 0.135650
O O5 0.500000 0.230768 0.899700
O O6 0.367024 0.238671 0.901463
O O7 0.429889 0.000000 0.837941
O O8 0.706207 0.500000 0.161558
O O9 0.773067 0.235060 0.146374
O O10 0.711464 0.311137 0.020889
O O11 0.825734 0.500000 0.909062
O O12 0.763654 0.776428 0.883821
O O13 0.885142 0.747322 0.841666
O O14 0.847131 0.753178 0.007603
O O15 0.301272 0.000000 0.964514
O O16 0.070869 0.500000 0.260213
O O17 0.104603 0.754362 0.172404
O O18 0.000000 0.760146 0.268988
O O19 0.162310 0.000000 0.607357
#
# Coordination Sequence:
#
# PCOD9358129 Si02
#       7
#     8   8   8   8   8   8   8
#     4  10  21  35  51  75 108 144 185 234 285 337
#     4   9  19  35  53  74 103 142 185 229 281 339
#     4  10  20  35  55  79 108 144 189 235 281 338
#     4  10  21  38  59  86 119 154 192 240 290 343
#     4  10  20  35  56  81 110 146 187 232 284 340
#     4  10  21  38  61  88 115 149 192 233 283 351
#     4   8  18  37  58  81 113 152 192 230 278 342
#
# _framework density 20.999272999999999
#
# number of rings (size 3 to 8) (size 9 to 14) (size 15 to 20)
#    0.000    2.429    0.000    2.571    2.000    3.429 
#    0.000    6.429    0.000    0.000    0.000    0.000 
#    0.000    0.000    0.000    0.000    0.000    0.000 
#
# Total GULP energy -155980.222635 kJ/mol
# GULP energy per Si atom -5570.722237 kJ/mol
# Density = 2.095148 g / cm^3
# Si number density = 20.999273 Si / 1000 Ang^3
#
#
#
# Elastic Constant Matrix: (Units=GPa)
#
#
# Indices 1 2 3 4 5 6 
#
# 1 212.2167 18.6295 59.7382 0.0000 0.0000 0.0000
# 2 18.6295 20.2364 1.9405 0.0000 0.0000 0.0000
# 3 59.7382 1.9405 58.6343 0.0000 0.0000 0.0000
# 4 0.0000 0.0000 0.0000 21.2060 0.0000 0.0000
# 5 0.0000 0.0000 0.0000 0.0000 54.1374 0.0000
# 6 0.0000 0.0000 0.0000 0.0000 0.0000 24.8268
#
#
#
# Elastic Compliance Matrix: (Units=1/GPa)
#
#
# Indices 1 2 3 4 5 6 
#
# 1 0.007267 -0.005999 -0.007205 0.000000 0.000000 0.000000
# 2 -0.005999 0.054526 0.004308 0.000000 0.000000 0.000000
# 3 -0.007205 0.004308 0.024253 0.000000 0.000000 0.000000
# 4 0.000000 0.000000 0.000000 0.047156 0.000000 0.000000
# 5 0.000000 0.000000 0.000000 0.000000 0.018472 0.000000
# 6 0.000000 0.000000 0.000000 0.000000 0.000000 0.040279
#
#
# Mechanical properties :
#
#
# Convention : Reuss Voigt Hill
#
# Bulk Modulus (GPa) = 14.65156 50.18931 32.42043
# Shear Modulus (GPa) = 21.50561 34.08599 27.79580
#
# Velocity S-wave (km/s) = 3.20365 4.03326 3.64215
# Velocity P-wave (km/s) = 4.54717 6.75589 5.75842
#
# Compressibility (1/GPa) = 0.06825212
#
# Stress axis : x y z
#
# Youngs Moduli (GPa) = 137.60692 18.34003 41.23147
#
# Poissons Ratio (x) = 0.11002 0.29709
# Poissons Ratio (y) = 0.82552 -0.17761
# Poissons Ratio (z) = 0.99151 -0.07900
#
# Static dielectric constant tensor:
#      x y z
#    x 1.850550 0.000000 0.000000 
#    y 0.000000 1.766980 0.000000 
#    z 0.000000 0.000000 1.751320 
# 
# From -- ./inp_files/15445.got.cif
#   From: 2010.05.17/outbox.cif.g08.bks.cpg/sg38_8_cif.got.tgz:15445.got - 2010.06.03 18:07:57.
