data_PCOD9358878
_publ_section_title
;
Structure prediction by ZEFSAII (Michael W. Deem and Ramdas Pophale) SiO2 
 PCOD9358878
Probable space group: A M M 2
;
_chemical_formula_sum "Si O2"
_cell_formula_units_Z 58
_cell_length_a 26.420015
_cell_length_b 7.756565
_cell_length_c 14.595147
_cell_angle_alpha 90.000000
_cell_angle_beta 90.000000
_cell_angle_gamma 90.000000
_cell_volume 2990.962511
_symmetry_space_group_name_H-M "A M M 2"
_symmetry_group_IT_number 38
_symmetry_cell_setting 'orthorhombic'
loop_
_space_group_symop_operation_xyz
x,y,z
-x,-y,z
-x,y,z
x,-y,z
x,1/2+y,1/2+z
-x,1/2-y,1/2+z
-x,1/2+y,1/2+z
x,1/2-y,1/2+z
loop_
_atom_site_type_symbol
_atom_site_label
_atom_site_fract_x
_atom_site_fract_y
_atom_site_fract_z
Si Si1 0.670747 0.289360 0.707360
Si Si2 0.755004 0.201680 0.067855
Si Si3 0.865574 0.302564 0.533434
Si Si4 0.943806 0.800050 0.381070
Si Si5 0.674846 0.206568 0.418457
Si Si6 0.943023 0.802133 0.677830
Si Si7 0.586712 0.798480 0.562248
Si Si8 0.500000 0.000000 0.065676
O O1 0.668713 0.500000 0.703769
O O2 0.720235 0.229280 0.650616
O O3 0.671945 0.236176 0.813291
O O4 0.622441 0.220844 0.651768
O O5 0.810539 0.278007 0.051705
O O6 0.762571 0.000000 0.089731
O O7 0.720961 0.217064 0.976861
O O8 0.857532 0.500000 0.505206
O O9 0.900280 0.222819 0.454801
O O10 0.899348 0.294982 0.624610
O O11 0.934973 0.701256 0.286628
O O12 0.000000 0.751151 0.417452
O O13 0.945727 0.000000 0.355288
O O14 0.623639 0.239783 0.475656
O O15 0.681931 0.000000 0.418334
O O16 0.000000 0.734215 0.661149
O O17 0.941847 0.000000 0.645213
O O18 0.543887 0.653906 0.565788
O O19 0.569993 0.000000 0.555591
#
# Coordination Sequence:
#
# PCOD9358878 Si02
#       8
#     8   8   8   8   8   8   8   2
#     4   9  17  37  62  83 114 154 191 237 288 338
#     4   9  20  35  54  82 112 149 190 234 288 343
#     4  11  22  35  52  81 117 147 185 235 288 341
#     4  10  21  37  56  77 102 142 190 234 287 350
#     4   9  19  35  61  87 114 150 196 238 282 340
#     4  10  21  37  56  78 105 143 186 232 290 353
#     4  10  21  38  61  90 120 158 201 236 286 344
#     4  12  22  40  64  86 128 166 186 244 298 318
#
# _framework density 19.391749000000001
#
# number of rings (size 3 to 8) (size 9 to 14) (size 15 to 20)
#    0.000    2.207    0.690    1.862    0.966    6.069 
#    0.000    2.069    0.000    0.000    0.000    0.000 
#    0.000    0.000    0.000    0.000    0.000    0.000 
#
# Total GULP energy -161519.816412 kJ/mol
# GULP energy per Si atom -5569.648842 kJ/mol
# Density = 1.934761 g / cm^3
# Si number density = 19.391749 Si / 1000 Ang^3
#
#
#
# Elastic Constant Matrix: (Units=GPa)
#
#
# Indices 1 2 3 4 5 6 
#
# 1 144.0473 34.7952 52.8182 0.0000 0.0000 0.0000
# 2 34.7952 63.2768 8.6590 0.0000 0.0000 0.0000
# 3 52.8182 8.6590 113.6956 0.0000 0.0000 0.0000
# 4 0.0000 0.0000 0.0000 23.4374 0.0000 0.0000
# 5 0.0000 0.0000 0.0000 0.0000 -7.6186 0.0000
# 6 0.0000 0.0000 0.0000 0.0000 0.0000 24.5008
#
#
#
# Elastic Compliance Matrix: (Units=1/GPa)
#
#
# Indices 1 2 3 4 5 6 
#
# 1 0.009580 -0.004708 -0.004092 0.000000 0.000000 0.000000
# 2 -0.004708 0.018284 0.000795 0.000000 0.000000 0.000000
# 3 -0.004092 0.000795 0.010636 0.000000 0.000000 0.000000
# 4 0.000000 0.000000 0.000000 0.042667 0.000000 0.000000
# 5 0.000000 0.000000 0.000000 0.000000 -0.131257 0.000000
# 6 0.000000 0.000000 0.000000 0.000000 0.000000 0.040815
#
#
# Mechanical properties :
#
#
# Convention : Reuss Voigt Hill
#
# Bulk Modulus (GPa) = 44.46608 57.06274 50.76441
# Shear Modulus (GPa) = 351.36750 23.04706 187.20728
#
# Velocity S-wave (km/s) = 13.47545 3.45120 9.83612
# Velocity P-wave (km/s) = 16.28180 6.73582 12.45930
#
# Compressibility (1/GPa) = 0.02248905
#
# Stress axis : x y z
#
# Youngs Moduli (GPa) = 104.38733 54.69367 94.02236
#
# Poissons Ratio (x) = 0.25749 0.38472
# Poissons Ratio (y) = 0.49144 -0.07471
# Poissons Ratio (z) = 0.42713 -0.04346
#
# Static dielectric constant tensor:
#      x y z
#    x 1.673220 0.000000 0.000000 
#    y 0.000000 1.695120 0.000000 
#    z 0.000000 0.000000 1.657060 
# 
# From -- ./inp_files/15641.got.cif
#   From: 2010.05.17/outbox.cif.g08.bks.cpg/sg38_8_cif.got.tgz:15641.got - 2010.06.03 18:07:57.
