data_PCOD9358506
_publ_section_title
;
Structure prediction by ZEFSAII (Michael W. Deem and Ramdas Pophale) SiO2 
 PCOD9358506
Probable space group: A M M 2
;
_chemical_formula_sum "Si O2"
_cell_formula_units_Z 44
_cell_length_a 17.149635
_cell_length_b 7.539564
_cell_length_c 15.250464
_cell_angle_alpha 90.000000
_cell_angle_beta 90.000000
_cell_angle_gamma 90.000000
_cell_volume 1971.896748
_symmetry_space_group_name_H-M "A M M 2"
_symmetry_group_IT_number 38
_symmetry_cell_setting 'orthorhombic'
loop_
_space_group_symop_operation_xyz
x,y,z
-x,-y,z
-x,y,z
x,-y,z
x,1/2+y,1/2+z
-x,1/2-y,1/2+z
-x,1/2+y,1/2+z
x,1/2-y,1/2+z
loop_
_atom_site_type_symbol
_atom_site_label
_atom_site_fract_x
_atom_site_fract_y
_atom_site_fract_z
Si Si1 0.000000 0.742975 0.182950
Si Si2 0.876838 0.783344 0.834796
Si Si3 0.588432 0.286290 0.432835
Si Si4 0.297630 0.283740 0.281291
Si Si5 0.288492 0.290027 0.082815
Si Si6 0.115266 0.205603 0.031164
O O1 0.067397 0.778447 0.257748
O O2 0.067979 0.705232 0.108883
O O3 0.787652 0.731924 0.816351
O O4 0.881982 0.000000 0.833069
O O5 0.899851 0.728218 0.932897
O O6 0.500000 0.219991 0.438249
O O7 0.585183 0.500000 0.427243
O O8 0.635353 0.222190 0.347231
O O9 0.640762 0.242853 0.517001
O O10 0.299164 0.500000 0.282099
O O11 0.306096 0.225332 0.181002
O O12 0.274510 0.500000 0.087989
O O13 0.207848 0.210974 0.047146
O O14 0.089567 0.000000 0.036576
#
# Coordination Sequence:
#
# PCOD9358506 Si02
#       6
#     4   8   8   8   8   8
#     4  12  22  34  58  92 117 148 207 268 301 334
#     4  10  20  37  61  85 117 162 207 248 300 372
#     4  10  21  40  66  92 120 160 208 252 301 373
#     4   9  18  36  61  87 116 159 205 242 296 371
#     4  11  22  38  63  94 124 158 202 256 312 360
#     4  11  23  41  62  87 123 166 209 251 304 370
#
# _framework density 22.31354
#
# number of rings (size 3 to 8) (size 9 to 14) (size 15 to 20)
#    0.000    1.636    3.636    1.636    0.000    3.273 
#    0.000    7.273    0.000    4.364    0.000    0.000 
#    0.000    0.000    0.000    0.000    0.000    0.000 
#
# Total GULP energy -122539.266496 kJ/mol
# GULP energy per Si atom -5569.966659 kJ/mol
# Density = 2.226275 g / cm^3
# Si number density = 22.313540 Si / 1000 Ang^3
#
#
#
# Elastic Constant Matrix: (Units=GPa)
#
#
# Indices 1 2 3 4 5 6 
#
# 1 205.0297 2.4114 104.3407 0.0000 0.0000 0.0000
# 2 2.4114 61.0754 2.8763 0.0000 0.0000 0.0000
# 3 104.3407 2.8763 242.6144 0.0000 0.0000 0.0000
# 4 0.0000 0.0000 0.0000 4.3574 0.0000 0.0000
# 5 0.0000 0.0000 0.0000 0.0000 57.6264 0.0000
# 6 0.0000 0.0000 0.0000 0.0000 0.0000 43.2338
#
#
#
# Elastic Compliance Matrix: (Units=1/GPa)
#
#
# Indices 1 2 3 4 5 6 
#
# 1 0.006245 -0.000120 -0.002684 0.000000 0.000000 0.000000
# 2 -0.000120 0.016385 -0.000143 0.000000 0.000000 0.000000
# 3 -0.002684 -0.000143 0.005278 0.000000 0.000000 0.000000
# 4 0.000000 0.000000 0.000000 0.229495 0.000000 0.000000
# 5 0.000000 0.000000 0.000000 0.000000 0.017353 0.000000
# 6 0.000000 0.000000 0.000000 0.000000 0.000000 0.023130
#
#
# Mechanical properties :
#
#
# Convention : Reuss Voigt Hill
#
# Bulk Modulus (GPa) = 45.42697 80.88626 63.15661
# Shear Modulus (GPa) = 16.07110 47.64958 31.86034
#
# Velocity S-wave (km/s) = 2.68664 4.62611 3.78279
# Velocity P-wave (km/s) = 5.47966 8.05376 6.88803
#
# Compressibility (1/GPa) = 0.02201336
#
# Stress axis : x y z
#
# Youngs Moduli (GPa) = 160.13349 61.03268 189.47033
#
# Poissons Ratio (x) = 0.00733 0.50859
# Poissons Ratio (y) = 0.01924 0.02701
# Poissons Ratio (z) = 0.42984 0.00870
#
# Static dielectric constant tensor:
#      x y z
#    x 1.755060 0.000000 0.000000 
#    y 0.000000 1.923800 0.000000 
#    z 0.000000 0.000000 1.785730 
# 
# From -- ./inp_files/14905.got.cif
#   From: 2010.05.17/outbox.cif.g08.bks.cpg/sg38_8_cif.got.tgz:14905.got - 2010.06.03 18:07:57.
