data_PCOD9358975
_publ_section_title
;
Structure prediction by ZEFSAII (Michael W. Deem and Ramdas Pophale) SiO2 
 PCOD9358975
Probable space group: A M M 2
;
_chemical_formula_sum "Si O2"
_cell_formula_units_Z 64
_cell_length_a 20.340575
_cell_length_b 17.848261
_cell_length_c 9.576542
_cell_angle_alpha 90.000000
_cell_angle_beta 90.000000
_cell_angle_gamma 90.000000
_cell_volume 3476.705075
_symmetry_space_group_name_H-M "A M M 2"
_symmetry_group_IT_number 38
_symmetry_cell_setting 'orthorhombic'
loop_
_space_group_symop_operation_xyz
x,y,z
-x,-y,z
-x,y,z
x,-y,z
x,1/2+y,1/2+z
-x,1/2-y,1/2+z
-x,1/2+y,1/2+z
x,1/2-y,1/2+z
loop_
_atom_site_type_symbol
_atom_site_label
_atom_site_fract_x
_atom_site_fract_y
_atom_site_fract_z
Si Si1 0.184101 0.912920 0.945920
Si Si2 0.691026 0.831547 0.547651
Si Si3 0.327954 0.412406 0.790787
Si Si4 0.923971 0.589053 0.214156
Si Si5 0.807139 0.829865 0.206467
Si Si6 0.575415 0.588978 0.540810
Si Si7 0.317238 0.177299 0.872868
Si Si8 0.166122 0.680834 0.024152
O O1 0.123642 0.894518 0.844701
O O2 0.248673 0.865726 0.903643
O O3 0.200370 0.000000 0.931166
O O4 0.165495 0.894515 0.105736
O O5 0.654167 0.890690 0.449405
O O6 0.673262 0.815211 0.706774
O O7 0.687627 0.754913 0.457820
O O8 0.765739 0.863266 0.550086
O O9 0.308563 0.500000 0.779552
O O10 0.267307 0.359450 0.738705
O O11 0.389361 0.399466 0.689717
O O12 0.918774 0.500000 0.184702
O O13 0.895026 0.637626 0.088055
O O14 0.000000 0.606162 0.242522
O O15 0.818533 0.756681 0.110368
O O16 0.838076 0.812152 0.357076
O O17 0.500000 0.614251 0.539226
O O18 0.576844 0.500000 0.512820
O O19 0.621882 0.631057 0.432531
#
# Coordination Sequence:
#
# PCOD9358975 Si02
#       8
#     8   8   8   8   8   8   8   8
#     4  11  21  36  62  89 119 159 201 251 308 361
#     4  11  22  35  62  89 121 155 199 256 312 352
#     4  10  21  37  58  90 125 156 199 254 308 365
#     4  10  23  42  61  87 125 163 201 250 312 378
#     4  11  21  35  60  90 121 150 200 259 300 356
#     4  10  21  39  62  87 123 167 204 247 310 376
#     4  12  21  38  59  91 124 158 205 261 302 360
#     4  11  20  36  60  85 118 158 195 247 306 360
#
# _framework density 18.408234
#
# number of rings (size 3 to 8) (size 9 to 14) (size 15 to 20)
#    0.000    1.250    3.750    3.750    0.000    3.500 
#    0.000    6.250    0.000    3.000    0.000    0.000 
#    0.000    0.000    0.000    0.000    0.000    0.000 
#
# Total GULP energy -178459.403690 kJ/mol
# GULP energy per Si atom -5576.856365 kJ/mol
# Density = 1.836634 g / cm^3
# Si number density = 18.408234 Si / 1000 Ang^3
#
#
#
# Elastic Constant Matrix: (Units=GPa)
#
#
# Indices 1 2 3 4 5 6 
#
# 1 120.2578 58.6065 58.9604 0.0000 0.0000 0.0000
# 2 58.6065 64.7262 55.4060 0.0000 0.0000 0.0000
# 3 58.9604 55.4060 176.4427 0.0000 0.0000 0.0000
# 4 0.0000 0.0000 0.0000 30.5194 0.0000 0.0000
# 5 0.0000 0.0000 0.0000 0.0000 19.7073 0.0000
# 6 0.0000 0.0000 0.0000 0.0000 0.0000 19.7418
#
#
#
# Elastic Compliance Matrix: (Units=1/GPa)
#
#
# Indices 1 2 3 4 5 6 
#
# 1 0.015017 -0.012721 -0.001023 0.000000 0.000000 0.000000
# 2 -0.012721 0.031905 -0.005768 0.000000 0.000000 0.000000
# 3 -0.001023 -0.005768 0.007821 0.000000 0.000000 0.000000
# 4 0.000000 0.000000 0.000000 0.032766 0.000000 0.000000
# 5 0.000000 0.000000 0.000000 0.000000 0.050743 0.000000
# 6 0.000000 0.000000 0.000000 0.000000 0.000000 0.050654
#
#
# Mechanical properties :
#
#
# Convention : Reuss Voigt Hill
#
# Bulk Modulus (GPa) = 63.62041 78.59694 71.10868
# Shear Modulus (GPa) = 21.44370 26.55728 24.00049
#
# Velocity S-wave (km/s) = 3.41676 3.80239 3.61472
# Velocity P-wave (km/s) = 7.08531 7.87825 7.49228
#
# Compressibility (1/GPa) = 0.01571823
#
# Stress axis : x y z
#
# Youngs Moduli (GPa) = 66.59319 31.34297 127.86423
#
# Poissons Ratio (x) = 0.39870 0.13086
# Poissons Ratio (y) = 0.84711 0.73752
# Poissons Ratio (z) = 0.06815 0.18079
#
# Static dielectric constant tensor:
#      x y z
#    x 1.616920 0.000000 0.000000 
#    y 0.000000 1.676520 0.000000 
#    z 0.000000 0.000000 1.678310 
# 
# From -- ./inp_files/6836.got.cif
#   From: 2010.05.17/outbox.cif.g08.bks.cpg/sg38_4_cif.got.tgz:6836.got - 2010.06.03 18:07:57.
