data_PCOD9358509
_publ_section_title
;
Structure prediction by ZEFSAII (Michael W. Deem and Ramdas Pophale) SiO2 
 PCOD9358509
Probable space group: A M M 2
;
_chemical_formula_sum "Si O2"
_cell_formula_units_Z 48
_cell_length_a 8.696125
_cell_length_b 14.821077
_cell_length_c 20.887848
_cell_angle_alpha 90.000000
_cell_angle_beta 90.000000
_cell_angle_gamma 90.000000
_cell_volume 2692.149887
_symmetry_space_group_name_H-M "A M M 2"
_symmetry_group_IT_number 38
_symmetry_cell_setting 'orthorhombic'
loop_
_space_group_symop_operation_xyz
x,y,z
-x,-y,z
-x,y,z
x,-y,z
x,1/2+y,1/2+z
-x,1/2-y,1/2+z
-x,1/2+y,1/2+z
x,1/2-y,1/2+z
loop_
_atom_site_type_symbol
_atom_site_label
_atom_site_fract_x
_atom_site_fract_y
_atom_site_fract_z
Si Si1 0.685267 0.689325 0.972510
Si Si2 0.184368 0.807025 0.229740
Si Si3 0.186830 0.500000 0.785517
Si Si4 0.816819 0.500000 0.541070
Si Si5 0.314560 0.500000 0.397768
Si Si6 0.685218 0.195453 0.846660
Si Si7 0.315529 0.312908 0.591836
Si Si8 0.815910 0.500000 0.934065
O O1 0.500000 0.682699 0.972640
O O2 0.729438 0.746776 0.909535
O O3 0.755325 0.590439 0.966924
O O4 0.732186 0.743734 0.035854
O O5 0.236039 0.907986 0.250988
O O6 0.237098 0.738669 0.284853
O O7 0.256195 0.784727 0.161299
O O8 0.000000 0.807456 0.225131
O O9 0.237184 0.500000 0.859592
O O10 0.000000 0.500000 0.785550
O O11 0.762483 0.500000 0.467352
O O12 0.751736 0.589335 0.574524
O O13 0.000000 0.500000 0.545071
O O14 0.500000 0.500000 0.407826
O O15 0.274515 0.408571 0.360351
O O16 0.500000 0.201089 0.839889
O O17 0.500000 0.318164 0.591505
O O18 0.000000 0.500000 0.934045
#
# Coordination Sequence:
#
# PCOD9358509 Si02
#       8
#     8   8   4   4   4   8   8   4
#     4  10  21  38  61  86 115 151 200 247 285 339
#     4  11  22  38  58  86 123 155 192 241 297 357
#     4   9  19  34  53  81 118 152 179 225 286 342
#     4  12  23  35  58  92 126 155 190 243 306 360
#     4  10  20  39  62  87 118 154 204 248 287 348
#     4  10  20  37  61  86 114 154 201 246 289 344
#     4  11  23  41  61  85 119 159 201 244 292 351
#     4  11  21  36  59  88 120 151 189 236 295 352
#
# _framework density 17.829616999999999
#
# number of rings (size 3 to 8) (size 9 to 14) (size 15 to 20)
#    0.000    1.500    3.333    2.500    0.000    2.667 
#    0.000    2.083    0.000    2.000    0.000    0.000 
#    0.000    0.000    0.000    0.000    0.000    0.000 
#
# Total GULP energy -134117.754718 kJ/mol
# GULP energy per Si atom -5588.239780 kJ/mol
# Density = 1.778904 g / cm^3
# Si number density = 17.829617 Si / 1000 Ang^3
#
#
#
# Elastic Constant Matrix: (Units=GPa)
#
#
# Indices 1 2 3 4 5 6 
#
# 1 43.6800 43.8433 50.5037 0.0000 0.0000 0.0000
# 2 43.8433 150.3435 82.3468 0.0000 0.0000 0.0000
# 3 50.5037 82.3468 168.1962 0.0000 0.0000 0.0000
# 4 0.0000 0.0000 0.0000 17.3821 0.0000 0.0000
# 5 0.0000 0.0000 0.0000 0.0000 21.7846 0.0000
# 6 0.0000 0.0000 0.0000 0.0000 0.0000 15.8987
#
#
#
# Elastic Compliance Matrix: (Units=1/GPa)
#
#
# Indices 1 2 3 4 5 6 
#
# 1 0.039692 -0.006897 -0.008542 0.000000 0.000000 0.000000
# 2 -0.006897 0.010287 -0.002966 0.000000 0.000000 0.000000
# 3 -0.008542 -0.002966 0.009962 0.000000 0.000000 0.000000
# 4 0.000000 0.000000 0.000000 0.057530 0.000000 0.000000
# 5 0.000000 0.000000 0.000000 0.000000 0.045904 0.000000
# 6 0.000000 0.000000 0.000000 0.000000 0.000000 0.062898
#
#
# Mechanical properties :
#
#
# Convention : Reuss Voigt Hill
#
# Bulk Modulus (GPa) = 43.22724 79.51194 61.36959
# Shear Modulus (GPa) = 18.46431 23.38149 20.92290
#
# Velocity S-wave (km/s) = 3.22156 3.62523 3.42934
# Velocity P-wave (km/s) = 6.17537 7.88767 7.08345
#
# Compressibility (1/GPa) = 0.02313356
#
# Stress axis : x y z
#
# Youngs Moduli (GPa) = 25.19380 97.21083 100.37993
#
# Poissons Ratio (x) = 0.67042 0.85743
# Poissons Ratio (y) = 0.17375 0.29768
# Poissons Ratio (z) = 0.21520 0.28828
#
# Static dielectric constant tensor:
#      x y z
#    x 1.601140 0.000000 0.000000 
#    y 0.000000 1.586480 0.000000 
#    z 0.000000 0.000000 1.588370 
# 
# From -- ./inp_files/16737.got.cif
#   From: 2010.05.17/outbox.cif.g08.bks.cpg/sg38_9_cif.got.tgz:16737.got - 2010.06.03 18:07:57.
