data_PCOD9358661
_publ_section_title
;
Structure prediction by ZEFSAII (Michael W. Deem and Ramdas Pophale) SiO2 
 PCOD9358661
Probable space group: A M M 2
;
_chemical_formula_sum "Si O2"
_cell_formula_units_Z 58
_cell_length_a 9.310337
_cell_length_b 22.040180
_cell_length_c 14.759642
_cell_angle_alpha 90.000000
_cell_angle_beta 90.000000
_cell_angle_gamma 90.000000
_cell_volume 3028.700727
_symmetry_space_group_name_H-M "A M M 2"
_symmetry_group_IT_number 38
_symmetry_cell_setting 'orthorhombic'
loop_
_space_group_symop_operation_xyz
x,y,z
-x,-y,z
-x,y,z
x,-y,z
x,1/2+y,1/2+z
-x,1/2-y,1/2+z
-x,1/2+y,1/2+z
x,1/2-y,1/2+z
loop_
_atom_site_type_symbol
_atom_site_label
_atom_site_fract_x
_atom_site_fract_y
_atom_site_fract_z
Si Si1 0.665774 0.742904 0.567540
Si Si2 0.839182 0.927875 0.158115
Si Si3 0.335316 0.388970 0.484880
Si Si4 0.331185 0.927477 0.337464
Si Si5 0.000000 0.000000 0.734514
Si Si6 0.158536 0.888104 0.808119
Si Si7 0.169621 0.247007 0.747881
Si Si8 0.829299 0.824625 0.430192
O O1 0.500000 0.761220 0.578524
O O2 0.668397 0.682953 0.505168
O O3 0.736551 0.729375 0.664536
O O4 0.759000 0.793179 0.516709
O O5 0.764710 0.916085 0.062811
O O6 0.738283 0.909107 0.241127
O O7 0.000000 0.901164 0.164292
O O8 0.852553 0.000000 0.167533
O O9 0.500000 0.409658 0.493768
O O10 0.270118 0.402541 0.386988
O O11 0.500000 0.913218 0.338789
O O12 0.244933 0.888806 0.410641
O O13 0.314935 0.000000 0.349091
O O14 0.123448 0.054475 0.744887
O O15 0.198298 0.825040 0.760389
O O16 0.000000 0.876081 0.853157
O O17 0.198619 0.281951 0.841954
O O18 0.000000 0.253879 0.727932
O O19 0.000000 0.830626 0.440189
#
# Coordination Sequence:
#
# PCOD9358661 Si02
#       8
#     8   8   8   8   2   8   8   8
#     4  11  24  38  57  86 120 158 196 245 307 364
#     4  10  21  34  52  78 112 154 197 238 283 349
#     4  11  22  34  51  82 119 153 192 241 298 361
#     4  10  21  38  58  82 117 155 192 239 297 357
#     4   8  20  36  66  80 112 156 198 244 308 360
#     4   9  19  37  59  83 111 153 195 244 298 356
#     4  10  21  38  61  87 118 151 198 253 300 352
#     4  11  22  38  63  90 117 156 198 247 295 351
#
# _framework density 19.150127000000001
#
# number of rings (size 3 to 8) (size 9 to 14) (size 15 to 20)
#    0.414    1.379    1.379    2.897    0.966    7.172 
#    0.000    0.000    1.517    0.000    0.000    0.000 
#    0.000    0.000    0.000    0.000    0.000    0.000 
#
# Total GULP energy -161578.622130 kJ/mol
# GULP energy per Si atom -5571.676625 kJ/mol
# Density = 1.910654 g / cm^3
# Si number density = 19.150127 Si / 1000 Ang^3
#
#
#
# Elastic Constant Matrix: (Units=GPa)
#
#
# Indices 1 2 3 4 5 6 
#
# 1 107.3955 19.1478 31.4533 0.0000 0.0000 0.0000
# 2 19.1478 60.0405 -2.0315 0.0000 0.0000 0.0000
# 3 31.4533 -2.0315 34.1789 0.0000 0.0000 0.0000
# 4 0.0000 0.0000 0.0000 30.0978 0.0000 0.0000
# 5 0.0000 0.0000 0.0000 0.0000 74.1289 0.0000
# 6 0.0000 0.0000 0.0000 0.0000 0.0000 54.7884
#
#
#
# Elastic Compliance Matrix: (Units=1/GPa)
#
#
# Indices 1 2 3 4 5 6 
#
# 1 0.014069 -0.004935 -0.013240 0.000000 0.000000 0.000000
# 2 -0.004935 0.018420 0.005636 0.000000 0.000000 0.000000
# 3 -0.013240 0.005636 0.041777 0.000000 0.000000 0.000000
# 4 0.000000 0.000000 0.000000 0.033225 0.000000 0.000000
# 5 0.000000 0.000000 0.000000 0.000000 0.013490 0.000000
# 6 0.000000 0.000000 0.000000 0.000000 0.000000 0.018252
#
#
# Mechanical properties :
#
#
# Convention : Reuss Voigt Hill
#
# Bulk Modulus (GPa) = 20.33014 33.19490 26.76252
# Shear Modulus (GPa) = 27.66907 42.00604 34.83755
#
# Velocity S-wave (km/s) = 3.80524 4.68858 4.26981
# Velocity P-wave (km/s) = 5.47227 6.83242 6.18982
#
# Compressibility (1/GPa) = 0.04918804
#
# Stress axis : x y z
#
# Youngs Moduli (GPa) = 71.07855 54.28911 23.93649
#
# Poissons Ratio (x) = 0.26790 0.31693
# Poissons Ratio (y) = 0.35076 -0.13491
# Poissons Ratio (z) = 0.94110 -0.30598
#
# Static dielectric constant tensor:
#      x y z
#    x 1.655500 0.000000 0.000000 
#    y 0.000000 1.703480 0.000000 
#    z 0.000000 0.000000 1.643220 
# 
# From -- ./inp_files/12628.got.cif
#   From: 2010.05.17/outbox.cif.g08.bks.cpg/sg38_7_cif.got.tgz:12628.got - 2010.06.03 18:07:57.
