data_PCOD9358497
_publ_section_title
;
Structure prediction by ZEFSAII (Michael W. Deem and Ramdas Pophale) SiO2 
 PCOD9358497
Probable space group: A M M 2
;
_chemical_formula_sum "Si O2"
_cell_formula_units_Z 48
_cell_length_a 8.472750
_cell_length_b 20.918099
_cell_length_c 14.791512
_cell_angle_alpha 90.000000
_cell_angle_beta 90.000000
_cell_angle_gamma 90.000000
_cell_volume 2621.556224
_symmetry_space_group_name_H-M "A M M 2"
_symmetry_group_IT_number 38
_symmetry_cell_setting 'orthorhombic'
loop_
_space_group_symop_operation_xyz
x,y,z
-x,-y,z
-x,y,z
x,-y,z
x,1/2+y,1/2+z
-x,1/2-y,1/2+z
-x,1/2+y,1/2+z
x,1/2-y,1/2+z
loop_
_atom_site_type_symbol
_atom_site_label
_atom_site_fract_x
_atom_site_fract_y
_atom_site_fract_z
Si Si1 0.685294 0.764424 0.642610
Si Si2 0.192416 0.571864 0.830809
Si Si3 0.187681 0.121649 0.134385
Si Si4 0.809145 0.188666 0.456607
Si Si5 0.187697 0.690304 0.331074
Si Si6 0.687969 0.572965 0.444612
O O1 0.500000 0.750625 0.639230
O O2 0.777337 0.697087 0.638708
O O3 0.735560 0.804718 0.555164
O O4 0.728499 0.799476 0.735524
O O5 0.243717 0.500000 0.852787
O O6 0.240552 0.590908 0.729176
O O7 0.242619 0.626044 0.901382
O O8 0.000000 0.572823 0.830788
O O9 0.000000 0.111838 0.124973
O O10 0.270359 0.091553 0.047499
O O11 0.766777 0.251382 0.397900
O O12 0.000000 0.187731 0.464667
O O13 0.230946 0.624356 0.379548
O O14 0.000000 0.694556 0.317024
O O15 0.500000 0.577280 0.432538
O O16 0.738322 0.500000 0.427354
#
# Coordination Sequence:
#
# PCOD9358497 Si02
#       6
#     8   8   8   8   8   8
#     4  12  24  37  58  88 121 155 197 245 301 352
#     4   9  18  34  58  87 117 149 188 237 290 341
#     4  11  20  35  59  89 122 155 197 242 292 354
#     4  10  20  37  60  86 116 151 197 245 288 346
#     4  11  22  39  63  87 115 155 203 248 292 349
#     4  11  24  40  58  87 125 159 194 243 305 365
#
# _framework density 18.309735
#
# number of rings (size 3 to 8) (size 9 to 14) (size 15 to 20)
#    0.000    1.333    3.333    3.500    0.000    2.667 
#    0.000    0.833    0.000    5.500    0.000    0.000 
#    0.000    0.000    0.000    0.000    0.000    0.000 
#
# Total GULP energy -134148.073737 kJ/mol
# GULP energy per Si atom -5589.503072 kJ/mol
# Density = 1.826806 g / cm^3
# Si number density = 18.309735 Si / 1000 Ang^3
#
#
#
# Elastic Constant Matrix: (Units=GPa)
#
#
# Indices 1 2 3 4 5 6 
#
# 1 19.6335 -3.0717 8.1517 0.0000 0.0000 0.0000
# 2 -3.0717 117.0166 37.6876 0.0000 0.0000 0.0000
# 3 8.1517 37.6876 106.7895 0.0000 0.0000 0.0000
# 4 0.0000 0.0000 0.0000 13.3024 0.0000 0.0000
# 5 0.0000 0.0000 0.0000 0.0000 -11.2723 0.0000
# 6 0.0000 0.0000 0.0000 0.0000 0.0000 18.2180
#
#
#
# Elastic Compliance Matrix: (Units=1/GPa)
#
#
# Indices 1 2 3 4 5 6 
#
# 1 0.053562 0.003072 -0.005173 0.000000 0.000000 0.000000
# 2 0.003072 0.009818 -0.003699 0.000000 0.000000 0.000000
# 3 -0.005173 -0.003699 0.011065 0.000000 0.000000 0.000000
# 4 0.000000 0.000000 0.000000 0.075174 0.000000 0.000000
# 5 0.000000 0.000000 0.000000 0.000000 -0.088713 0.000000
# 6 0.000000 0.000000 0.000000 0.000000 0.000000 0.054891
#
#
# Mechanical properties :
#
#
# Convention : Reuss Voigt Hill
#
# Bulk Modulus (GPa) = 15.91242 36.55274 26.23258
# Shear Modulus (GPa) = 33.70523 17.42775 25.56649
#
# Velocity S-wave (km/s) = 4.29515 3.08852 3.74081
# Velocity P-wave (km/s) = 5.77125 5.72062 5.74599
#
# Compressibility (1/GPa) = 0.06284401
#
# Stress axis : x y z
#
# Youngs Moduli (GPa) = 18.67005 101.85478 90.37805
#
# Poissons Ratio (x) = -0.31290 0.46750
# Poissons Ratio (y) = -0.05735 0.33434
# Poissons Ratio (z) = 0.09658 0.37680
#
# Static dielectric constant tensor:
#      x y z
#    x 1.626420 0.000000 0.000000 
#    y 0.000000 1.616400 0.000000 
#    z 0.000000 0.000000 1.599290 
# 
# From -- ./inp_files/12027.got.cif
#   From: 2010.05.17/outbox.cif.g08.bks.cpg/sg38_7_cif.got.tgz:12027.got - 2010.06.03 18:07:57.
