data_PCOD9358156
_publ_section_title
;
Structure prediction by ZEFSAII (Michael W. Deem and Ramdas Pophale) SiO2 
 PCOD9358156
Probable space group: A M M 2
;
_chemical_formula_sum "Si O2"
_cell_formula_units_Z 48
_cell_length_a 8.722628
_cell_length_b 16.878101
_cell_length_c 18.806772
_cell_angle_alpha 90.000000
_cell_angle_beta 90.000000
_cell_angle_gamma 90.000000
_cell_volume 2768.759235
_symmetry_space_group_name_H-M "A M M 2"
_symmetry_group_IT_number 38
_symmetry_cell_setting 'orthorhombic'
loop_
_space_group_symop_operation_xyz
x,y,z
-x,-y,z
-x,y,z
x,-y,z
x,1/2+y,1/2+z
-x,1/2-y,1/2+z
-x,1/2+y,1/2+z
x,1/2-y,1/2+z
loop_
_atom_site_type_symbol
_atom_site_label
_atom_site_fract_x
_atom_site_fract_y
_atom_site_fract_z
Si Si1 0.683305 0.834553 0.278010
Si Si2 0.184311 0.839318 0.016348
Si Si3 0.817233 0.000000 0.259256
Si Si4 0.183888 0.408429 0.222318
Si Si5 0.316024 0.175908 0.859443
Si Si6 0.186230 0.000000 0.095800
Si Si7 0.315794 0.237203 0.638466
O O1 0.500000 0.843782 0.276976
O O2 0.721592 0.765130 0.333372
O O3 0.730481 0.799779 0.200707
O O4 0.758457 0.918656 0.292802
O O5 0.233988 0.920861 0.054874
O O6 0.247565 0.768000 0.064768
O O7 0.000000 0.836619 0.014898
O O8 0.248988 0.838223 0.937011
O O9 0.760106 0.000000 0.177174
O O10 0.000000 0.000000 0.258916
O O11 0.223589 0.500000 0.208543
O O12 0.246815 0.381660 0.299397
O O13 0.254548 0.347285 0.165547
O O14 0.000000 0.400607 0.222079
O O15 0.500000 0.167663 0.859325
O O16 0.000000 0.000000 0.097377
O O17 0.500000 0.235356 0.635620
#
# Coordination Sequence:
#
# PCOD9358156 Si02
#       7
#     8   8   4   8   8   4   8
#     4   9  19  35  53  76 108 143 179 220 266 318
#     4  11  21  36  56  80 114 149 182 222 269 326
#     4  11  19  31  55  83 109 136 177 222 263 317
#     4  10  21  37  58  83 109 142 184 229 275 326
#     4  10  22  38  55  80 112 146 183 224 274 328
#     4   9  20  33  49  81 115 142 173 216 267 317
#     4  10  20  35  56  81 109 144 184 225 271 325
#
# _framework density 17.336285
#
# number of rings (size 3 to 8) (size 9 to 14) (size 15 to 20)
#    0.000    2.000    1.667    3.250    1.167    4.667 
#    0.000    1.250    1.833    0.000    0.000    0.000 
#    0.000    0.000    0.000    0.000    0.000    0.000 
#
# Total GULP energy -133977.662230 kJ/mol
# GULP energy per Si atom -5582.402593 kJ/mol
# Density = 1.729683 g / cm^3
# Si number density = 17.336285 Si / 1000 Ang^3
#
#
#
# Elastic Constant Matrix: (Units=GPa)
#
#
# Indices 1 2 3 4 5 6 
#
# 1 44.8109 36.6237 16.6921 0.0000 0.0000 0.0000
# 2 36.6237 124.4834 27.4134 0.0000 0.0000 0.0000
# 3 16.6921 27.4134 67.9614 0.0000 0.0000 0.0000
# 4 0.0000 0.0000 0.0000 15.9118 0.0000 0.0000
# 5 0.0000 0.0000 0.0000 0.0000 30.0109 0.0000
# 6 0.0000 0.0000 0.0000 0.0000 0.0000 27.0495
#
#
#
# Elastic Compliance Matrix: (Units=1/GPa)
#
#
# Indices 1 2 3 4 5 6 
#
# 1 0.030456 -0.008026 -0.004243 0.000000 0.000000 0.000000
# 2 -0.008026 0.010931 -0.002438 0.000000 0.000000 0.000000
# 3 -0.004243 -0.002438 0.016740 0.000000 0.000000 0.000000
# 4 0.000000 0.000000 0.000000 0.062846 0.000000 0.000000
# 5 0.000000 0.000000 0.000000 0.000000 0.033321 0.000000
# 6 0.000000 0.000000 0.000000 0.000000 0.000000 0.036969
#
#
# Mechanical properties :
#
#
# Convention : Reuss Voigt Hill
#
# Bulk Modulus (GPa) = 34.82712 44.30155 39.56434
# Shear Modulus (GPa) = 21.71557 25.02952 23.37255
#
# Velocity S-wave (km/s) = 3.54306 3.80381 3.67575
# Velocity P-wave (km/s) = 6.07211 6.70087 6.39422
#
# Compressibility (1/GPa) = 0.02871325
#
# Stress axis : x y z
#
# Youngs Moduli (GPa) = 32.83413 91.47966 59.73782
#
# Poissons Ratio (x) = 0.73421 0.25347
# Poissons Ratio (y) = 0.26353 0.14565
# Poissons Ratio (z) = 0.13931 0.22304
#
# Static dielectric constant tensor:
#      x y z
#    x 1.581040 0.000000 0.000000 
#    y 0.000000 1.584510 0.000000 
#    z 0.000000 0.000000 1.563090 
# 
# From -- ./inp_files/12108.got.cif
#   From: 2010.05.17/outbox.cif.g08.bks.cpg/sg38_7_cif.got.tgz:12108.got - 2010.06.03 18:07:57.
