data_PCOD9358781
_publ_section_title
;
Structure prediction by ZEFSAII (Michael W. Deem and Ramdas Pophale) SiO2 
 PCOD9358781
Probable space group: A M M 2
;
_chemical_formula_sum "Si O2"
_cell_formula_units_Z 56
_cell_length_a 7.801900
_cell_length_b 24.430909
_cell_length_c 14.333275
_cell_angle_alpha 90.000000
_cell_angle_beta 90.000000
_cell_angle_gamma 90.000000
_cell_volume 2732.029843
_symmetry_space_group_name_H-M "A M M 2"
_symmetry_group_IT_number 38
_symmetry_cell_setting 'orthorhombic'
loop_
_space_group_symop_operation_xyz
x,y,z
-x,-y,z
-x,y,z
x,-y,z
x,1/2+y,1/2+z
-x,1/2-y,1/2+z
-x,1/2+y,1/2+z
x,1/2-y,1/2+z
loop_
_atom_site_type_symbol
_atom_site_label
_atom_site_fract_x
_atom_site_fract_y
_atom_site_fract_z
Si Si1 0.794331 0.060484 0.561940
Si Si2 0.205668 0.938144 0.981625
Si Si3 0.797567 0.163536 0.868131
Si Si4 0.702678 0.769329 0.476502
Si Si5 0.293181 0.379110 0.876973
Si Si6 0.292980 0.562841 0.692744
Si Si7 0.207629 0.828656 0.660459
O O1 0.753189 0.076334 0.455421
O O2 0.732753 0.111538 0.623962
O O3 0.000000 0.059176 0.572053
O O4 0.727645 0.000000 0.585154
O O5 0.240036 0.921330 0.088532
O O6 0.000000 0.940615 0.970464
O O7 0.273125 0.000000 0.968423
O O8 0.274921 0.892447 0.911349
O O9 0.730064 0.179478 0.765898
O O10 0.000000 0.154133 0.854795
O O11 0.777202 0.212760 0.940533
O O12 0.500000 0.766274 0.461962
O O13 0.771187 0.820772 0.415515
O O14 0.734802 0.784640 0.583999
O O15 0.500000 0.375981 0.873803
O O16 0.230908 0.398211 0.775838
O O17 0.500000 0.562702 0.695599
O O18 0.235166 0.500000 0.708470
O O19 0.000000 0.827936 0.658268
#
# Coordination Sequence:
#
# PCOD9358781 Si02
#       7
#     8   8   8   8   8   8   8
#     4   9  17  29  48  76 106 135 169 209 253 300
#     4   9  19  35  53  75 102 130 165 209 253 300
#     4  10  21  37  57  78 101 134 171 207 254 307
#     4  10  21  36  54  77 105 135 171 215 257 301
#     4   9  18  32  49  71 101 137 173 208 251 301
#     4   9  17  30  49  73 102 136 171 207 250 299
#     4   9  19  36  55  76 105 137 170 210 254 304
#
# _framework density 20.497579000000002
#
# number of rings (size 3 to 8) (size 9 to 14) (size 15 to 20)
#    0.000    2.714    0.000    0.857    0.000    4.857 
#    0.000    7.143    0.000    0.000    0.000    4.000 
#    0.000    0.000    0.000    0.000    0.000    0.000 
#
# Total GULP energy -156211.555379 kJ/mol
# GULP energy per Si atom -5578.984121 kJ/mol
# Density = 2.045093 g / cm^3
# Si number density = 20.497579 Si / 1000 Ang^3
#
#
#
# Elastic Constant Matrix: (Units=GPa)
#
#
# Indices 1 2 3 4 5 6 
#
# 1 22.1125 -8.2707 -5.3374 0.0000 0.0000 0.0000
# 2 -8.2707 70.8726 54.3938 0.0000 0.0000 0.0000
# 3 -5.3374 54.3938 124.5751 0.0000 0.0000 0.0000
# 4 0.0000 0.0000 0.0000 17.4589 0.0000 0.0000
# 5 0.0000 0.0000 0.0000 0.0000 63.9570 0.0000
# 6 0.0000 0.0000 0.0000 0.0000 0.0000 10.1644
#
#
#
# Elastic Compliance Matrix: (Units=1/GPa)
#
#
# Indices 1 2 3 4 5 6 
#
# 1 0.047315 0.005964 -0.000577 0.000000 0.000000 0.000000
# 2 0.005964 0.021973 -0.009339 0.000000 0.000000 0.000000
# 3 -0.000577 -0.009339 0.012080 0.000000 0.000000 0.000000
# 4 0.000000 0.000000 0.000000 0.057277 0.000000 0.000000
# 5 0.000000 0.000000 0.000000 0.000000 0.015636 0.000000
# 6 0.000000 0.000000 0.000000 0.000000 0.000000 0.098383
#
#
# Mechanical properties :
#
#
# Convention : Reuss Voigt Hill
#
# Bulk Modulus (GPa) = 13.61185 33.23686 23.42435
# Shear Modulus (GPa) = 17.54048 30.10103 23.82075
#
# Velocity S-wave (km/s) = 2.92847 3.83628 3.41269
# Velocity P-wave (km/s) = 4.25320 5.98940 5.19435
#
# Compressibility (1/GPa) = 0.07346540
#
# Stress axis : x y z
#
# Youngs Moduli (GPa) = 21.13505 45.50996 82.78029
#
# Poissons Ratio (x) = -0.27144 0.04777
# Poissons Ratio (y) = -0.12606 0.77306
# Poissons Ratio (z) = 0.01220 0.42500
#
# Static dielectric constant tensor:
#      x y z
#    x 1.742700 0.000000 0.000000 
#    y 0.000000 1.733600 0.000000 
#    z 0.000000 0.000000 1.714170 
# 
# From -- ./inp_files/12361.got.cif
#   From: 2010.05.17/outbox.cif.g08.bks.cpg/sg38_7_cif.got.tgz:12361.got - 2010.06.03 18:07:57.
