data_PCOD9358621
_publ_section_title
;
Structure prediction by ZEFSAII (Michael W. Deem and Ramdas Pophale) SiO2 
 PCOD9358621
Probable space group: A M M 2
;
_chemical_formula_sum "Si O2"
_cell_formula_units_Z 46
_cell_length_a 11.590415
_cell_length_b 7.506295
_cell_length_c 30.503635
_cell_angle_alpha 90.000000
_cell_angle_beta 90.000000
_cell_angle_gamma 90.000000
_cell_volume 2653.849011
_symmetry_space_group_name_H-M "A M M 2"
_symmetry_group_IT_number 38
_symmetry_cell_setting 'orthorhombic'
loop_
_space_group_symop_operation_xyz
x,y,z
-x,-y,z
-x,y,z
x,-y,z
x,1/2+y,1/2+z
-x,1/2-y,1/2+z
-x,1/2+y,1/2+z
x,1/2-y,1/2+z
loop_
_atom_site_type_symbol
_atom_site_label
_atom_site_fract_x
_atom_site_fract_y
_atom_site_fract_z
Si Si1 0.251660 0.713241 0.588640
Si Si2 0.131048 0.712981 0.273462
Si Si3 0.860675 0.287538 0.370187
Si Si4 0.500000 0.710813 0.549279
Si Si5 0.132258 0.287877 0.677756
Si Si6 0.500000 0.500000 0.972448
Si Si7 0.749703 0.000000 0.432561
Si Si8 0.136201 0.500000 0.027714
O O1 0.232590 0.500000 0.584175
O O2 0.385295 0.747936 0.577484
O O3 0.209731 0.770956 0.636972
O O4 0.179243 0.826890 0.554041
O O5 0.124105 0.500000 0.276653
O O6 0.177426 0.769333 0.320807
O O7 0.183486 0.752341 0.226053
O O8 0.000000 0.784700 0.270618
O O9 0.842094 0.500000 0.375638
O O10 0.000000 0.258410 0.373022
O O11 0.793851 0.170880 0.405428
O O12 0.500000 0.500000 0.538188
O O13 0.500000 0.831148 0.505718
O O14 0.123420 0.500000 0.673921
O O15 0.000000 0.215504 0.675152
O O16 0.614005 0.500000 0.942743
O O17 0.809465 0.000000 0.479826
O O18 0.000000 0.500000 0.024903
#
# Coordination Sequence:
#
# PCOD9358621 Si02
#       8
#     8   8   8   4   8   2   4   4
#     4  10  21  37  56  80 113 149 188 235 275 330
#     4   8  15  28  48  76 111 147 180 218 268 333
#     4   9  19  36  57  85 118 149 183 226 283 344
#     4  10  20  40  64  77 101 151 199 236 278 322
#     4   9  17  28  46  78 114 146 181 222 275 331
#     4  12  24  44  60  82 106 138 206 248 276 332
#     4  12  24  38  60  82 110 146 194 240 283 335
#     4  12  24  36  56  84 114 150 178 226 297 345
#
# _framework density 17.333314999999999
#
# number of rings (size 3 to 8) (size 9 to 14) (size 15 to 20)
#    0.000    2.261    1.739    2.348    2.435    2.435 
#    0.000    0.000    0.000    1.043    0.000    1.217 
#    0.000    0.000    0.000    0.000    0.000    0.000 
#
# Total GULP energy -128190.590211 kJ/mol
# GULP energy per Si atom -5573.503922 kJ/mol
# Density = 1.729386 g / cm^3
# Si number density = 17.333315 Si / 1000 Ang^3
#
#
#
# Elastic Constant Matrix: (Units=GPa)
#
#
# Indices 1 2 3 4 5 6 
#
# 1 108.0867 39.1728 69.7866 0.0000 0.0000 0.0000
# 2 39.1728 68.1714 52.2913 0.0000 0.0000 0.0000
# 3 69.7866 52.2913 184.9223 0.0000 0.0000 0.0000
# 4 0.0000 0.0000 0.0000 34.1439 0.0000 0.0000
# 5 0.0000 0.0000 0.0000 0.0000 -19.2711 0.0000
# 6 0.0000 0.0000 0.0000 0.0000 0.0000 15.6268
#
#
#
# Elastic Compliance Matrix: (Units=1/GPa)
#
#
# Indices 1 2 3 4 5 6 
#
# 1 0.013392 -0.004876 -0.003675 0.000000 0.000000 0.000000
# 2 -0.004876 0.020508 -0.003959 0.000000 0.000000 0.000000
# 3 -0.003675 -0.003959 0.007914 0.000000 0.000000 0.000000
# 4 0.000000 0.000000 0.000000 0.029288 0.000000 0.000000
# 5 0.000000 0.000000 0.000000 0.000000 -0.051891 0.000000
# 6 0.000000 0.000000 0.000000 0.000000 0.000000 0.063993
#
#
# Mechanical properties :
#
#
# Convention : Reuss Voigt Hill
#
# Bulk Modulus (GPa) = 59.54774 75.96466 67.75620
# Shear Modulus (GPa) = 43.92866 19.42854 31.67860
#
# Velocity S-wave (km/s) = 5.03969 3.35158 4.27970
# Velocity P-wave (km/s) = 8.26400 7.67453 7.97472
#
# Compressibility (1/GPa) = 0.01679325
#
# Stress axis : x y z
#
# Youngs Moduli (GPa) = 74.67207 48.76252 126.35865
#
# Poissons Ratio (x) = 0.23778 0.46436
# Poissons Ratio (y) = 0.36413 0.50022
# Poissons Ratio (z) = 0.27442 0.19304
#
# Static dielectric constant tensor:
#      x y z
#    x 1.570850 0.000000 0.000000 
#    y 0.000000 1.613590 0.000000 
#    z 0.000000 0.000000 1.606620 
# 
# From -- ./inp_files/22453.got.cif
#   From: 2010.05.17/outbox.cif.g08.bks.cpg/sg38_12_cif.got.tgz:22453.got - 2010.06.03 18:07:57.
