data_PCOD9358218
_publ_section_title
;
Structure prediction by ZEFSAII (Michael W. Deem and Ramdas Pophale) SiO2 
 PCOD9358218
Probable space group: A M M 2
;
_chemical_formula_sum "Si O2"
_cell_formula_units_Z 48
_cell_length_a 17.050945
_cell_length_b 14.264378
_cell_length_c 8.443603
_cell_angle_alpha 90.000000
_cell_angle_beta 90.000000
_cell_angle_gamma 90.000000
_cell_volume 2053.662618
_symmetry_space_group_name_H-M "A M M 2"
_symmetry_group_IT_number 38
_symmetry_cell_setting 'orthorhombic'
loop_
_space_group_symop_operation_xyz
x,y,z
-x,-y,z
-x,y,z
x,-y,z
x,1/2+y,1/2+z
-x,1/2-y,1/2+z
-x,1/2+y,1/2+z
x,1/2-y,1/2+z
loop_
_atom_site_type_symbol
_atom_site_label
_atom_site_fract_x
_atom_site_fract_y
_atom_site_fract_z
Si Si1 0.739453 0.605506 0.665510
Si Si2 0.410824 0.862044 0.705956
Si Si3 0.584452 0.150784 0.327879
Si Si4 0.887289 0.887786 0.330421
Si Si5 0.914878 0.707488 0.163259
Si Si6 0.233909 0.108526 0.824573
O O1 0.760010 0.500000 0.621404
O O2 0.651654 0.609417 0.720882
O O3 0.793530 0.624082 0.815860
O O4 0.756686 0.654999 0.500044
O O5 0.500000 0.900976 0.740801
O O6 0.404965 0.860961 0.515280
O O7 0.414654 0.759725 0.783351
O O8 0.324417 0.895296 0.762396
O O9 0.500000 0.111354 0.284986
O O10 0.913445 0.820950 0.184364
O O11 0.914689 0.835311 0.487302
O O12 0.906211 0.000000 0.326664
O O13 0.834792 0.667317 0.239682
O O14 0.000000 0.678021 0.234781
O O15 0.206555 0.000000 0.814442
#
# Coordination Sequence:
#
# PCOD9358218 Si02
#       6
#     8   8   8   8   8   8
#     4  10  22  40  62  90 128 176 226 281 347 415
#     4  10  21  37  60  90 125 169 221 279 344 414
#     4  10  20  35  57  86 123 168 221 282 344 412
#     4  11  25  47  74 104 142 186 235 293 355 423
#     4  12  26  45  73 105 138 182 233 288 354 423
#     4  11  24  42  66  97 136 181 230 289 352 419
#
# _framework density 23.372873999999999
#
# number of rings (size 3 to 8) (size 9 to 14) (size 15 to 20)
#    0.000    1.333    0.000    5.000    0.000    7.000 
#    0.000    5.000    0.000   10.000    0.000    0.000 
#    0.000    0.000    0.000    0.000    0.000    0.000 
#
# Total GULP energy -133673.095055 kJ/mol
# GULP energy per Si atom -5569.712294 kJ/mol
# Density = 2.331968 g / cm^3
# Si number density = 23.372874 Si / 1000 Ang^3
#
#
#
# Elastic Constant Matrix: (Units=GPa)
#
#
# Indices 1 2 3 4 5 6 
#
# 1 176.2560 21.0362 61.4168 0.0000 0.0000 0.0000
# 2 21.0362 133.5391 35.0192 0.0000 0.0000 0.0000
# 3 61.4168 35.0192 95.1663 0.0000 0.0000 0.0000
# 4 0.0000 0.0000 0.0000 20.5897 0.0000 0.0000
# 5 0.0000 0.0000 0.0000 0.0000 8.6683 0.0000
# 6 0.0000 0.0000 0.0000 0.0000 0.0000 33.6979
#
#
#
# Elastic Compliance Matrix: (Units=1/GPa)
#
#
# Indices 1 2 3 4 5 6 
#
# 1 0.007321 0.000095 -0.004759 0.000000 0.000000 0.000000
# 2 0.000095 0.008289 -0.003112 0.000000 0.000000 0.000000
# 3 -0.004759 -0.003112 0.014724 0.000000 0.000000 0.000000
# 4 0.000000 0.000000 0.000000 0.048568 0.000000 0.000000
# 5 0.000000 0.000000 0.000000 0.000000 0.115363 0.000000
# 6 0.000000 0.000000 0.000000 0.000000 0.000000 0.029675
#
#
# Mechanical properties :
#
#
# Convention : Reuss Voigt Hill
#
# Bulk Modulus (GPa) = 67.64804 71.10064 69.37434
# Shear Modulus (GPa) = 20.45651 31.75712 26.10682
#
# Velocity S-wave (km/s) = 2.96163 3.69008 3.34574
# Velocity P-wave (km/s) = 6.37972 6.97436 6.68366
#
# Compressibility (1/GPa) = 0.01478239
#
# Stress axis : x y z
#
# Youngs Moduli (GPa) = 136.59964 120.63485 67.91419
#
# Poissons Ratio (x) = -0.01145 0.32323
# Poissons Ratio (y) = -0.01296 0.21132
# Poissons Ratio (z) = 0.65013 0.37537
#
# Static dielectric constant tensor:
#      x y z
#    x 1.933660 0.000000 0.000000 
#    y 0.000000 1.909070 0.000000 
#    z 0.000000 0.000000 1.924690 
# 
# From -- ./inp_files/6196.got.cif
#   From: 2010.05.17/outbox.cif.g08.bks.cpg/sg38_4_cif.got.tgz:6196.got - 2010.06.03 18:07:57.
