data_PCOD9358662
_publ_section_title
;
Structure prediction by ZEFSAII (Michael W. Deem and Ramdas Pophale) SiO2 
 PCOD9358662
Probable space group: A M M 2
;
_chemical_formula_sum "Si O2"
_cell_formula_units_Z 58
_cell_length_a 9.090035
_cell_length_b 21.906268
_cell_length_c 15.007225
_cell_angle_alpha 90.000000
_cell_angle_beta 90.000000
_cell_angle_gamma 90.000000
_cell_volume 2988.369848
_symmetry_space_group_name_H-M "A M M 2"
_symmetry_group_IT_number 38
_symmetry_cell_setting 'orthorhombic'
loop_
_space_group_symop_operation_xyz
x,y,z
-x,-y,z
-x,y,z
x,-y,z
x,1/2+y,1/2+z
-x,1/2-y,1/2+z
-x,1/2+y,1/2+z
x,1/2-y,1/2+z
loop_
_atom_site_type_symbol
_atom_site_label
_atom_site_fract_x
_atom_site_fract_y
_atom_site_fract_z
Si Si1 0.824516 0.762256 0.824630
Si Si2 0.500000 0.000000 0.798686
Si Si3 0.167839 0.755648 0.121295
Si Si4 0.326627 0.182002 0.479611
Si Si5 0.335907 0.614070 0.367637
Si Si6 0.335593 0.427665 0.726117
Si Si7 0.827381 0.927330 0.404799
Si Si8 0.170002 0.608333 0.548992
O O1 0.800254 0.735120 0.725704
O O2 0.751052 0.722087 0.902105
O O3 0.754614 0.830038 0.826299
O O4 0.000000 0.765396 0.840708
O O5 0.626484 0.945090 0.808323
O O6 0.172118 0.819045 0.067625
O O7 0.000000 0.731768 0.114946
O O8 0.279619 0.710760 0.073383
O O9 0.500000 0.183043 0.466892
O O10 0.264370 0.113687 0.472111
O O11 0.500000 0.637684 0.394227
O O12 0.250549 0.594386 0.456866
O O13 0.500000 0.400241 0.730205
O O14 0.350465 0.500000 0.738035
O O15 0.232048 0.408178 0.807283
O O16 0.259363 0.418013 0.631864
O O17 0.000000 0.913932 0.411129
O O18 0.806864 0.000000 0.416418
O O19 0.000000 0.588289 0.548943
#
# Coordination Sequence:
#
# PCOD9358662 Si02
#       8
#     8   2   8   8   8   8   8   8
#     4  11  22  40  66  93 125 162 208 264 314 371
#     4   8  24  40  62  80 124 164 202 264 320 376
#     4  10  23  40  60  88 122 160 203 258 312 366
#     4  12  24  38  63  95 126 162 201 250 312 371
#     4  10  21  39  60  84 116 164 203 252 317 371
#     4  10  21  34  52  80 118 159 199 247 298 361
#     4  10  21  39  61  84 118 162 205 250 303 364
#     4  11  21  34  55  85 120 159 202 248 306 373
#
# _framework density 19.408576
#
# number of rings (size 3 to 8) (size 9 to 14) (size 15 to 20)
#    0.414    1.103    1.379    4.138    0.966    4.414 
#    0.000    1.034    1.517    0.000    0.000    0.000 
#    0.000    0.000    0.000    0.000    0.000    0.000 
#
# Total GULP energy -161619.162175 kJ/mol
# GULP energy per Si atom -5573.074558 kJ/mol
# Density = 1.936440 g / cm^3
# Si number density = 19.408576 Si / 1000 Ang^3
#
#
#
# Elastic Constant Matrix: (Units=GPa)
#
#
# Indices 1 2 3 4 5 6 
#
# 1 136.6044 32.0529 26.3768 0.0000 0.0000 0.0000
# 2 32.0529 53.4515 2.4527 0.0000 0.0000 0.0000
# 3 26.3768 2.4527 31.7249 0.0000 0.0000 0.0000
# 4 0.0000 0.0000 0.0000 28.4075 0.0000 0.0000
# 5 0.0000 0.0000 0.0000 0.0000 54.8416 0.0000
# 6 0.0000 0.0000 0.0000 0.0000 0.0000 48.0262
#
#
#
# Elastic Compliance Matrix: (Units=1/GPa)
#
#
# Indices 1 2 3 4 5 6 
#
# 1 0.010229 -0.005764 -0.008059 0.000000 0.000000 0.000000
# 2 -0.005764 0.022023 0.003090 0.000000 0.000000 0.000000
# 3 -0.008059 0.003090 0.037983 0.000000 0.000000 0.000000
# 4 0.000000 0.000000 0.000000 0.035202 0.000000 0.000000
# 5 0.000000 0.000000 0.000000 0.000000 0.018234 0.000000
# 6 0.000000 0.000000 0.000000 0.000000 0.000000 0.020822
#
#
# Mechanical properties :
#
#
# Convention : Reuss Voigt Hill
#
# Bulk Modulus (GPa) = 20.50518 38.17173 29.33845
# Shear Modulus (GPa) = 27.43997 36.98161 32.21079
#
# Velocity S-wave (km/s) = 3.76414 4.36985 4.07826
# Velocity P-wave (km/s) = 5.42951 6.72094 6.10944
#
# Compressibility (1/GPa) = 0.04876816
#
# Stress axis : x y z
#
# Youngs Moduli (GPa) = 97.76105 45.40638 26.32788
#
# Poissons Ratio (x) = 0.26173 0.21218
# Poissons Ratio (y) = 0.56351 -0.08135
# Poissons Ratio (z) = 0.78786 -0.14030
#
# Static dielectric constant tensor:
#      x y z
#    x 1.664350 0.000000 0.000000 
#    y 0.000000 1.714140 0.000000 
#    z 0.000000 0.000000 1.670250 
# 
# From -- ./inp_files/12667.got.cif
#   From: 2010.05.17/outbox.cif.g08.bks.cpg/sg38_7_cif.got.tgz:12667.got - 2010.06.03 18:07:57.
