data_PCOD9358601
_publ_section_title
;
Structure prediction by ZEFSAII (Michael W. Deem and Ramdas Pophale) SiO2 
 PCOD9358601
Probable space group: A M M 2
;
_chemical_formula_sum "Si O2"
_cell_formula_units_Z 56
_cell_length_a 21.451873
_cell_length_b 7.701314
_cell_length_c 16.061603
_cell_angle_alpha 90.000000
_cell_angle_beta 90.000000
_cell_angle_gamma 90.000000
_cell_volume 2653.499042
_symmetry_space_group_name_H-M "A M M 2"
_symmetry_group_IT_number 38
_symmetry_cell_setting 'orthorhombic'
loop_
_space_group_symop_operation_xyz
x,y,z
-x,-y,z
-x,y,z
x,-y,z
x,1/2+y,1/2+z
-x,1/2-y,1/2+z
-x,1/2+y,1/2+z
x,1/2-y,1/2+z
loop_
_atom_site_type_symbol
_atom_site_label
_atom_site_fract_x
_atom_site_fract_y
_atom_site_fract_z
Si Si1 0.428142 0.788084 0.201940
Si Si2 0.655411 0.204217 0.355871
Si Si3 0.862896 0.796892 0.017117
Si Si4 0.571983 0.790054 0.013810
Si Si5 0.129502 0.296153 0.695629
Si Si6 0.796732 0.799716 0.854306
Si Si7 0.000000 0.209513 0.464945
Si Si8 0.000000 0.287437 0.770730
O O1 0.500000 0.734650 0.216019
O O2 0.383863 0.728560 0.276489
O O3 0.427888 0.000000 0.203124
O O4 0.409925 0.735321 0.107896
O O5 0.615699 0.226914 0.439916
O O6 0.722822 0.289128 0.362901
O O7 0.666165 0.000000 0.342512
O O8 0.847798 0.721129 0.107763
O O9 0.844285 0.000000 0.016977
O O10 0.829715 0.719609 0.935823
O O11 0.937054 0.779484 0.005793
O O12 0.500000 0.735895 0.000047
O O13 0.573198 0.000000 0.012641
O O14 0.118077 0.500000 0.679861
O O15 0.178663 0.283297 0.769639
O O16 0.063066 0.224790 0.726780
O O17 0.816544 0.000000 0.847955
O O18 0.000000 0.261262 0.367740
O O19 0.000000 0.000000 0.470120
O O20 0.000000 0.500000 0.769847
#
# Coordination Sequence:
#
# PCOD9358601 Si02
#       8
#     8   8   8   8   8   8   4   4
#     4   8  16  33  57  83 110 142 181 222 268 327
#     4  11  22  36  57  82 111 150 191 229 272 327
#     4  10  22  39  60  82 109 148 188 227 276 340
#     4   9  18  35  59  85 113 144 179 225 278 327
#     4  10  20  39  62  82 107 144 188 227 274 333
#     4  11  24  40  55  79 113 148 188 235 281 327
#     4  11  20  33  59  90 115 139 174 230 285 328
#     4   9  17  31  57  86 109 133 168 224 279 324
#
# _framework density 21.104209000000001
#
# number of rings (size 3 to 8) (size 9 to 14) (size 15 to 20)
#    0.000    2.143    1.429    2.786    0.000    4.286 
#    0.000    7.500    0.000    1.714    0.000    0.000 
#    0.000    0.000    0.000    0.000    0.000    0.000 
#
# Total GULP energy -156372.590976 kJ/mol
# GULP energy per Si atom -5584.735392 kJ/mol
# Density = 2.105618 g / cm^3
# Si number density = 21.104209 Si / 1000 Ang^3
#
#
#
# Elastic Constant Matrix: (Units=GPa)
#
#
# Indices 1 2 3 4 5 6 
#
# 1 93.4119 -16.3214 68.4650 0.0000 0.0000 0.0000
# 2 -16.3214 34.8097 -5.1203 0.0000 0.0000 0.0000
# 3 68.4650 -5.1203 182.3869 0.0000 0.0000 0.0000
# 4 0.0000 0.0000 0.0000 14.1305 0.0000 0.0000
# 5 0.0000 0.0000 0.0000 0.0000 -9.5418 0.0000
# 6 0.0000 0.0000 0.0000 0.0000 0.0000 22.4078
#
#
#
# Elastic Compliance Matrix: (Units=1/GPa)
#
#
# Indices 1 2 3 4 5 6 
#
# 1 0.016200 0.006729 -0.005892 0.000000 0.000000 0.000000
# 2 0.006729 0.031642 -0.001638 0.000000 0.000000 0.000000
# 3 -0.005892 -0.001638 0.007649 0.000000 0.000000 0.000000
# 4 0.000000 0.000000 0.000000 0.070769 0.000000 0.000000
# 5 0.000000 0.000000 0.000000 0.000000 -0.104803 0.000000
# 6 0.000000 0.000000 0.000000 0.000000 0.000000 0.044627
#
#
# Mechanical properties :
#
#
# Convention : Reuss Voigt Hill
#
# Bulk Modulus (GPa) = 18.55691 44.96166 31.75928
# Shear Modulus (GPa) = 58.37835 22.97165 40.67500
#
# Velocity S-wave (km/s) = 5.26517 3.30280 4.39491
# Velocity P-wave (km/s) = 6.76570 5.99129 6.39024
#
# Compressibility (1/GPa) = 0.05388828
#
# Stress axis : x y z
#
# Youngs Moduli (GPa) = 61.73016 31.60379 130.74144
#
# Poissons Ratio (x) = -0.21266 0.77035
# Poissons Ratio (y) = -0.41537 0.21410
# Poissons Ratio (z) = 0.36372 0.05175
#
# Static dielectric constant tensor:
#      x y z
#    x 1.712010 0.000000 0.000000 
#    y 0.000000 1.794880 0.000000 
#    z 0.000000 0.000000 1.778730 
# 
# From -- ./inp_files/15567.got.cif
#   From: 2010.05.17/outbox.cif.g08.bks.cpg/sg38_8_cif.got.tgz:15567.got - 2010.06.03 18:07:57.
