data_PCOD9358521
_publ_section_title
;
Structure prediction by ZEFSAII (Michael W. Deem and Ramdas Pophale) SiO2 
 PCOD9358521
Probable space group: A M M 2
;
_chemical_formula_sum "Si O2"
_cell_formula_units_Z 56
_cell_length_a 13.669874
_cell_length_b 21.383254
_cell_length_c 9.461355
_cell_angle_alpha 90.000000
_cell_angle_beta 90.000000
_cell_angle_gamma 90.000000
_cell_volume 2765.614505
_symmetry_space_group_name_H-M "A M M 2"
_symmetry_group_IT_number 38
_symmetry_cell_setting 'orthorhombic'
loop_
_space_group_symop_operation_xyz
x,y,z
-x,-y,z
-x,y,z
x,-y,z
x,1/2+y,1/2+z
-x,1/2-y,1/2+z
-x,1/2+y,1/2+z
x,1/2-y,1/2+z
loop_
_atom_site_type_symbol
_atom_site_label
_atom_site_fract_x
_atom_site_fract_y
_atom_site_fract_z
Si Si1 0.677865 0.068218 0.769820
Si Si2 0.162168 0.429685 0.504583
Si Si3 0.888289 0.297547 0.634439
Si Si4 0.640281 0.431136 0.667891
Si Si5 0.602513 0.173890 0.944141
Si Si6 0.234755 0.723122 0.918760
Si Si7 0.384124 0.388117 0.982190
O O1 0.780640 0.077648 0.853704
O O2 0.607572 0.122062 0.823598
O O3 0.669409 0.071951 0.603016
O O4 0.644340 0.000000 0.816318
O O5 0.115492 0.500000 0.502287
O O6 0.112237 0.364337 0.549559
O O7 0.246661 0.433339 0.623174
O O8 0.816231 0.296133 0.771052
O O9 0.848077 0.243152 0.530998
O O10 0.000000 0.285611 0.678721
O O11 0.602300 0.500000 0.626508
O O12 0.606460 0.368868 0.584662
O O13 0.620621 0.421494 0.831203
O O14 0.500000 0.209675 0.941395
O O15 0.696144 0.215803 0.915439
O O16 0.313044 0.671713 0.968627
O O17 0.500000 0.376579 0.012422
#
# Coordination Sequence:
#
# PCOD9358521 Si02
#       7
#     8   8   8   8   8   8   8
#     4  10  21  37  58  87 126 165 205 252 303 364
#     4   9  19  42  67  90 118 158 205 261 322 370
#     4  12  25  44  71  95 119 160 207 264 330 377
#     4  10  20  37  61  90 127 168 212 262 308 353
#     4  11  21  37  62  87 121 173 214 252 303 360
#     4  12  24  44  60  92 131 163 209 263 297 378
#     4  12  24  37  59  92 133 179 209 246 306 364
#
# _framework density 20.248664000000002
#
# number of rings (size 3 to 8) (size 9 to 14) (size 15 to 20)
#    0.000    1.143    4.286    4.286    0.000    3.714 
#    0.000    4.286    0.000    0.000    0.000    0.000 
#    0.000    0.000    0.000    0.000    0.000    0.000 
#
# Total GULP energy -155923.208918 kJ/mol
# GULP energy per Si atom -5568.686033 kJ/mol
# Density = 2.020258 g / cm^3
# Si number density = 20.248664 Si / 1000 Ang^3
#
#
#
# Elastic Constant Matrix: (Units=GPa)
#
#
# Indices 1 2 3 4 5 6 
#
# 1 115.1267 41.4163 30.8564 0.0000 0.0000 0.0000
# 2 41.4163 107.4615 33.7145 0.0000 0.0000 0.0000
# 3 30.8564 33.7145 117.8345 0.0000 0.0000 0.0000
# 4 0.0000 0.0000 0.0000 23.2941 0.0000 0.0000
# 5 0.0000 0.0000 0.0000 0.0000 215.3696 0.0000
# 6 0.0000 0.0000 0.0000 0.0000 0.0000 -48.5948
#
#
#
# Elastic Compliance Matrix: (Units=1/GPa)
#
#
# Indices 1 2 3 4 5 6 
#
# 1 0.010396 -0.003464 -0.001731 0.000000 0.000000 0.000000
# 2 -0.003464 0.011377 -0.002348 0.000000 0.000000 0.000000
# 3 -0.001731 -0.002348 0.009612 0.000000 0.000000 0.000000
# 4 0.000000 0.000000 0.000000 0.042929 0.000000 0.000000
# 5 0.000000 0.000000 0.000000 0.000000 0.004643 0.000000
# 6 0.000000 0.000000 0.000000 0.000000 0.000000 -0.020578
#
#
# Mechanical properties :
#
#
# Convention : Reuss Voigt Hill
#
# Bulk Modulus (GPa) = 61.35430 61.37746 61.36588
# Shear Modulus (GPa) = 63.37250 53.64282 58.50766
#
# Velocity S-wave (km/s) = 5.60045 5.15262 5.38120
# Velocity P-wave (km/s) = 8.49625 8.11031 8.30552
#
# Compressibility (1/GPa) = 0.01629878
#
# Stress axis : x y z
#
# Youngs Moduli (GPa) = 96.18982 87.89462 104.03943
#
# Poissons Ratio (x) = 0.30443 0.18013
# Poissons Ratio (y) = 0.33316 0.24431
# Poissons Ratio (z) = 0.16654 0.20640
#
# Static dielectric constant tensor:
#      x y z
#    x 1.651590 0.000000 0.000000 
#    y 0.000000 1.771590 0.000000 
#    z 0.000000 0.000000 1.747890 
# 
# From -- ./inp_files/5707.got.cif
#   From: 2010.05.17/outbox.cif.g08.bks.cpg/sg38_3_cif.got.tgz:5707.got - 2010.06.03 18:07:57.
