data_PCOD9358966
_publ_section_title
;
Structure prediction by ZEFSAII (Michael W. Deem and Ramdas Pophale) SiO2 
 PCOD9358966
Probable space group: A M M 2
;
_chemical_formula_sum "Si O2"
_cell_formula_units_Z 56
_cell_length_a 24.530732
_cell_length_b 8.626831
_cell_length_c 14.725305
_cell_angle_alpha 90.000000
_cell_angle_beta 90.000000
_cell_angle_gamma 90.000000
_cell_volume 3116.205552
_symmetry_space_group_name_H-M "A M M 2"
_symmetry_group_IT_number 38
_symmetry_cell_setting 'orthorhombic'
loop_
_space_group_symop_operation_xyz
x,y,z
-x,-y,z
-x,y,z
x,-y,z
x,1/2+y,1/2+z
-x,1/2-y,1/2+z
-x,1/2+y,1/2+z
x,1/2-y,1/2+z
loop_
_atom_site_type_symbol
_atom_site_label
_atom_site_fract_x
_atom_site_fract_y
_atom_site_fract_z
Si Si1 0.854878 0.813631 0.405310
Si Si2 0.645382 0.685026 0.253634
Si Si3 0.560205 0.311699 0.106961
Si Si4 0.766693 0.813674 0.257241
Si Si5 0.144999 0.186338 0.109257
Si Si6 0.936401 0.186093 0.757323
Si Si7 0.561371 0.686818 0.895292
O O1 0.801634 0.766437 0.346108
O O2 0.854188 0.749937 0.507274
O O3 0.905499 0.752197 0.345691
O O4 0.856880 0.000000 0.407590
O O5 0.648655 0.500000 0.249175
O O6 0.609968 0.743968 0.167818
O O7 0.706018 0.750051 0.256795
O O8 0.608787 0.734984 0.338716
O O9 0.500000 0.257618 0.137511
O O10 0.559582 0.500000 0.112508
O O11 0.566468 0.273136 0.001430
O O12 0.801780 0.766532 0.168528
O O13 0.764520 0.000000 0.257522
O O14 0.094373 0.248125 0.168750
O O15 0.142892 0.000000 0.107146
O O16 0.000000 0.228117 0.757406
O O17 0.931715 0.000000 0.757427
O O18 0.500000 0.733062 0.865868
O O19 0.565093 0.500000 0.887082
#
# Coordination Sequence:
#
# PCOD9358966 Si02
#       7
#     8   8   8   8   8   8   8
#     4  10  21  38  60  82 108 147 188 228 275 323
#     4  11  21  32  52  79 104 133 170 217 268 314
#     4   8  16  32  51  71  98 132 168 205 252 314
#     4   9  21  39  54  74 106 141 179 221 265 318
#     4  10  21  38  60  83 110 146 184 227 277 325
#     4  10  21  37  58  86 118 149 184 226 268 317
#     4   9  18  34  54  73  98 135 173 210 259 320
#
# _framework density 17.970573999999999
#
# number of rings (size 3 to 8) (size 9 to 14) (size 15 to 20)
#    0.000    2.429    0.000    3.857    0.000    7.143 
#    0.000    5.714    0.000    1.714    0.000    0.000 
#    0.000    0.000    0.000    0.000    0.000    0.000 
#
# Total GULP energy -156223.368720 kJ/mol
# GULP energy per Si atom -5579.406026 kJ/mol
# Density = 1.792967 g / cm^3
# Si number density = 17.970574 Si / 1000 Ang^3
#
#
#
# Elastic Constant Matrix: (Units=GPa)
#
#
# Indices 1 2 3 4 5 6 
#
# 1 201.4260 48.2627 105.0408 0.0000 0.0000 0.0000
# 2 48.2627 35.9952 40.0053 0.0000 0.0000 0.0000
# 3 105.0408 40.0053 163.0531 0.0000 0.0000 0.0000
# 4 0.0000 0.0000 0.0000 27.9570 0.0000 0.0000
# 5 0.0000 0.0000 0.0000 0.0000 14.2098 0.0000
# 6 0.0000 0.0000 0.0000 0.0000 0.0000 25.6590
#
#
#
# Elastic Compliance Matrix: (Units=1/GPa)
#
#
# Indices 1 2 3 4 5 6 
#
# 1 0.008739 -0.007507 -0.003788 0.000000 0.000000 0.000000
# 2 -0.007507 0.044647 -0.006118 0.000000 0.000000 0.000000
# 3 -0.003788 -0.006118 0.010074 0.000000 0.000000 0.000000
# 4 0.000000 0.000000 0.000000 0.035769 0.000000 0.000000
# 5 0.000000 0.000000 0.000000 0.000000 0.070374 0.000000
# 6 0.000000 0.000000 0.000000 0.000000 0.000000 0.038973
#
#
# Mechanical properties :
#
#
# Convention : Reuss Voigt Hill
#
# Bulk Modulus (GPa) = 34.92368 87.45466 61.18917
# Shear Modulus (GPa) = 19.76715 27.37618 23.57167
#
# Velocity S-wave (km/s) = 3.32018 3.90730 3.62564
# Velocity P-wave (km/s) = 5.84587 8.31427 7.18684
#
# Compressibility (1/GPa) = 0.02863386
#
# Stress axis : x y z
#
# Youngs Moduli (GPa) = 114.43589 22.39814 99.26540
#
# Poissons Ratio (x) = 0.16815 0.37598
# Poissons Ratio (y) = 0.85909 0.60729
# Poissons Ratio (z) = 0.43343 0.13703
#
# Static dielectric constant tensor:
#      x y z
#    x 1.600470 0.000000 0.000000 
#    y 0.000000 1.609140 0.000000 
#    z 0.000000 0.000000 1.604430 
# 
# From -- ./inp_files/15479.got.cif
#   From: 2010.05.17/outbox.cif.g08.bks.cpg/sg38_8_cif.got.tgz:15479.got - 2010.06.03 18:07:57.
