data_PCOD9358526
_publ_section_title
;
Structure prediction by ZEFSAII (Michael W. Deem and Ramdas Pophale) SiO2 
 PCOD9358526
Probable space group: A M M 2
;
_chemical_formula_sum "Si O2"
_cell_formula_units_Z 64
_cell_length_a 19.082616
_cell_length_b 9.104522
_cell_length_c 19.980374
_cell_angle_alpha 90.000000
_cell_angle_beta 90.000000
_cell_angle_gamma 90.000000
_cell_volume 3471.352160
_symmetry_space_group_name_H-M "A M M 2"
_symmetry_group_IT_number 38
_symmetry_cell_setting 'orthorhombic'
loop_
_space_group_symop_operation_xyz
x,y,z
-x,-y,z
-x,y,z
x,-y,z
x,1/2+y,1/2+z
-x,1/2-y,1/2+z
-x,1/2+y,1/2+z
x,1/2-y,1/2+z
loop_
_atom_site_type_symbol
_atom_site_label
_atom_site_fract_x
_atom_site_fract_y
_atom_site_fract_z
Si Si1 0.843922 0.172592 0.292640
Si Si2 0.688572 0.324424 0.836645
Si Si3 0.158060 0.671511 0.547800
Si Si4 0.917081 0.833022 0.908732
Si Si5 0.918585 0.675527 0.168936
Si Si6 0.307921 0.676452 0.482776
Si Si7 0.416708 0.825455 0.735911
Si Si8 0.582993 0.824222 0.581617
O O1 0.761791 0.208293 0.298940
O O2 0.877706 0.217010 0.363183
O O3 0.884776 0.261653 0.236298
O O4 0.851356 0.000000 0.279693
O O5 0.683453 0.500000 0.845238
O O6 0.626759 0.263711 0.790177
O O7 0.689449 0.248241 0.909305
O O8 0.161247 0.500000 0.568293
O O9 0.105405 0.683779 0.485294
O O10 0.128204 0.765973 0.608043
O O11 0.234481 0.713519 0.519629
O O12 0.000000 0.819289 0.900910
O O13 0.896412 0.000000 0.888411
O O14 0.917704 0.500000 0.170553
O O15 0.000000 0.723427 0.162311
O O16 0.311239 0.500000 0.476444
O O17 0.370246 0.737383 0.528926
O O18 0.500000 0.802359 0.743794
O O19 0.398662 0.786350 0.658814
O O20 0.403494 0.000000 0.743969
O O21 0.500000 0.795712 0.572631
O O22 0.593408 0.000000 0.573760
#
# Coordination Sequence:
#
# PCOD9358526 Si02
#       8
#     8   8   8   8   8   8   8   8
#     4  11  24  40  59  86 120 156 197 245 295 351
#     4  11  24  40  60  88 122 159 200 244 295 351
#     4  10  22  40  61  87 120 156 195 243 298 353
#     4  10  20  37  62  87 114 152 196 242 295 351
#     4  11  25  42  61  87 118 155 200 247 297 356
#     4  11  23  39  62  90 121 158 201 245 293 350
#     4   9  20  40  65  92 121 156 198 242 292 350
#     4   9  20  40  64  91 124 160 197 240 293 350
#
# _framework density 18.436619
#
# number of rings (size 3 to 8) (size 9 to 14) (size 15 to 20)
#    0.000    1.750    1.250    3.000    1.750    7.750 
#    0.000    1.250    0.000    0.000    0.000    0.000 
#    0.000    0.000    0.000    0.000    0.000    0.000 
#
# Total GULP energy -178773.884568 kJ/mol
# GULP energy per Si atom -5586.683893 kJ/mol
# Density = 1.839466 g / cm^3
# Si number density = 18.436619 Si / 1000 Ang^3
#
#
#
# Elastic Constant Matrix: (Units=GPa)
#
#
# Indices 1 2 3 4 5 6 
#
# 1 65.4510 41.7443 37.6884 0.0000 0.0000 0.0000
# 2 41.7443 49.5033 42.1525 0.0000 0.0000 0.0000
# 3 37.6884 42.1525 72.9256 0.0000 0.0000 0.0000
# 4 0.0000 0.0000 0.0000 36.4271 0.0000 0.0000
# 5 0.0000 0.0000 0.0000 0.0000 35.6004 0.0000
# 6 0.0000 0.0000 0.0000 0.0000 0.0000 28.2886
#
#
#
# Elastic Compliance Matrix: (Units=1/GPa)
#
#
# Indices 1 2 3 4 5 6 
#
# 1 0.033194 -0.026356 -0.001921 0.000000 0.000000 0.000000
# 2 -0.026356 0.060707 -0.021469 0.000000 0.000000 0.000000
# 3 -0.001921 -0.021469 0.027115 0.000000 0.000000 0.000000
# 4 0.000000 0.000000 0.000000 0.027452 0.000000 0.000000
# 5 0.000000 0.000000 0.000000 0.000000 0.028090 0.000000
# 6 0.000000 0.000000 0.000000 0.000000 0.000000 0.035350
#
#
# Mechanical properties :
#
#
# Convention : Reuss Voigt Hill
#
# Bulk Modulus (GPa) = 46.45845 47.89448 47.17647
# Shear Modulus (GPa) = 15.69497 24.48285 20.08891
#
# Velocity S-wave (km/s) = 2.92086 3.64805 3.30452
# Velocity P-wave (km/s) = 6.05218 6.61655 6.34065
#
# Compressibility (1/GPa) = 0.02152461
#
# Stress axis : x y z
#
# Youngs Moduli (GPa) = 30.12548 16.47265 36.88059
#
# Poissons Ratio (x) = 0.43416 0.07084
# Poissons Ratio (y) = 0.79399 0.79178
# Poissons Ratio (z) = 0.05786 0.35365
#
# Static dielectric constant tensor:
#      x y z
#    x 1.618800 0.000000 0.000000 
#    y 0.000000 1.620860 0.000000 
#    z 0.000000 0.000000 1.608800 
# 
# From -- ./inp_files/21423.got.cif
#   From: 2010.05.17/outbox.cif.g08.bks.cpg/sg38_11_cif.got.tgz:21423.got - 2010.06.03 18:07:57.
