data_PCOD9358735
_publ_section_title
;
Structure prediction by ZEFSAII (Michael W. Deem and Ramdas Pophale) SiO2 
 PCOD9358735
Probable space group: A M M 2
;
_chemical_formula_sum "Si O2"
_cell_formula_units_Z 48
_cell_length_a 7.688836
_cell_length_b 17.737726
_cell_length_c 17.061427
_cell_angle_alpha 90.000000
_cell_angle_beta 90.000000
_cell_angle_gamma 90.000000
_cell_volume 2326.879492
_symmetry_space_group_name_H-M "A M M 2"
_symmetry_group_IT_number 38
_symmetry_cell_setting 'orthorhombic'
loop_
_space_group_symop_operation_xyz
x,y,z
-x,-y,z
-x,y,z
x,-y,z
x,1/2+y,1/2+z
-x,1/2-y,1/2+z
-x,1/2+y,1/2+z
x,1/2-y,1/2+z
loop_
_atom_site_type_symbol
_atom_site_label
_atom_site_fract_x
_atom_site_fract_y
_atom_site_fract_z
Si Si1 0.786432 0.679019 0.065770
Si Si2 0.200505 0.654339 0.541846
Si Si3 0.790514 0.914248 0.716311
Si Si4 0.297942 0.683444 0.367936
Si Si5 0.787245 0.000000 0.296902
Si Si6 0.790302 0.852668 0.389710
Si Si7 0.213592 0.000000 0.115114
O O1 0.724661 0.765774 0.070780
O O2 0.728297 0.628766 0.138420
O O3 0.000000 0.680018 0.065632
O O4 0.732839 0.647919 0.980598
O O5 0.203078 0.658319 0.447540
O O6 0.276569 0.576558 0.573619
O O7 0.000000 0.654978 0.568390
O O8 0.747483 0.866630 0.793362
O O9 0.000000 0.917388 0.710937
O O10 0.725560 0.000000 0.721014
O O11 0.500000 0.675337 0.385333
O O12 0.259105 0.771692 0.354169
O O13 0.727847 0.075389 0.341391
O O14 0.737626 0.000000 0.206147
O O15 0.000000 0.000000 0.298849
O O16 0.000000 0.855545 0.390331
O O17 0.000000 0.000000 0.110002
#
# Coordination Sequence:
#
# PCOD9358735 Si02
#       7
#     8   8   8   8   4   8   4
#     4   8  16  31  54  82 109 139 174 220 270 321
#     4   9  18  35  57  81 109 140 179 225 275 327
#     4  10  21  35  56  83 111 142 181 227 276 324
#     4  11  23  38  55  77 109 148 190 227 271 323
#     4   9  18  30  57  94 117 136 172 225 273 321
#     4   9  18  35  60  87 114 142 177 221 274 326
#     4   9  18  30  53  88 113 134 172 223 277 327
#
# _framework density 20.628485000000001
#
# number of rings (size 3 to 8) (size 9 to 14) (size 15 to 20)
#    0.000    2.667    0.000    2.500    4.667    0.333 
#    0.000    3.750    0.000    1.000    0.000    0.000 
#    0.000    0.000    0.000    0.000    0.000    0.000 
#
# Total GULP energy -133962.514028 kJ/mol
# GULP energy per Si atom -5581.771418 kJ/mol
# Density = 2.058153 g / cm^3
# Si number density = 20.628485 Si / 1000 Ang^3
#
#
#
# Elastic Constant Matrix: (Units=GPa)
#
#
# Indices 1 2 3 4 5 6 
#
# 1 37.3400 -0.1875 -7.8077 0.0000 0.0000 0.0000
# 2 -0.1875 217.8799 131.1553 0.0000 0.0000 0.0000
# 3 -7.8077 131.1553 116.5717 0.0000 0.0000 0.0000
# 4 0.0000 0.0000 0.0000 29.3789 0.0000 0.0000
# 5 0.0000 0.0000 0.0000 0.0000 -22.3411 0.0000
# 6 0.0000 0.0000 0.0000 0.0000 0.0000 -20.7541
#
#
#
# Elastic Compliance Matrix: (Units=1/GPa)
#
#
# Indices 1 2 3 4 5 6 
#
# 1 0.027960 -0.003418 0.005719 0.000000 0.000000 0.000000
# 2 -0.003418 0.014639 -0.016700 0.000000 0.000000 0.000000
# 3 0.005719 -0.016700 0.027750 0.000000 0.000000 0.000000
# 4 0.000000 0.000000 0.000000 0.034038 0.000000 0.000000
# 5 0.000000 0.000000 0.000000 0.000000 -0.044761 0.000000
# 6 0.000000 0.000000 0.000000 0.000000 0.000000 -0.048183
#
#
# Mechanical properties :
#
#
# Convention : Reuss Voigt Hill
#
# Bulk Modulus (GPa) = 24.06711 68.67908 46.37309
# Shear Modulus (GPa) = 92.43401 13.83217 53.13309
#
# Velocity S-wave (km/s) = 6.70121 2.59228 5.08066
# Velocity P-wave (km/s) = 8.45974 6.50581 7.54628
#
# Compressibility (1/GPa) = 0.04155048
#
# Stress axis : x y z
#
# Youngs Moduli (GPa) = 35.76593 68.30900 36.03551
#
# Poissons Ratio (x) = 0.23351 -0.20608
# Poissons Ratio (y) = 0.12226 0.60178
# Poissons Ratio (z) = -0.20454 1.14074
#
# Static dielectric constant tensor:
#      x y z
#    x 1.754350 0.000000 0.000000 
#    y 0.000000 1.725940 0.000000 
#    z 0.000000 0.000000 1.694260 
# 
# From -- ./inp_files/12111.got.cif
#   From: 2010.05.17/outbox.cif.g08.bks.cpg/sg38_7_cif.got.tgz:12111.got - 2010.06.03 18:07:57.
