data_PCOD9358765
_publ_section_title
;
Structure prediction by ZEFSAII (Michael W. Deem and Ramdas Pophale) SiO2 
 PCOD9358765
Probable space group: A M M 2
;
_chemical_formula_sum "Si O2"
_cell_formula_units_Z 56
_cell_length_a 14.544407
_cell_length_b 7.833094
_cell_length_c 22.067619
_cell_angle_alpha 90.000000
_cell_angle_beta 90.000000
_cell_angle_gamma 90.000000
_cell_volume 2514.113236
_symmetry_space_group_name_H-M "A M M 2"
_symmetry_group_IT_number 38
_symmetry_cell_setting 'orthorhombic'
loop_
_space_group_symop_operation_xyz
x,y,z
-x,-y,z
-x,y,z
x,-y,z
x,1/2+y,1/2+z
-x,1/2-y,1/2+z
-x,1/2+y,1/2+z
x,1/2-y,1/2+z
loop_
_atom_site_type_symbol
_atom_site_label
_atom_site_fract_x
_atom_site_fract_y
_atom_site_fract_z
Si Si1 0.705438 0.801626 0.723140
Si Si2 0.606252 0.294252 0.342453
Si Si3 0.102824 0.202988 0.535193
Si Si4 0.605098 0.204958 0.473969
Si Si5 0.895131 0.198127 0.267491
Si Si6 0.715018 0.289517 0.091901
Si Si7 0.888531 0.193423 0.901369
O O1 0.659341 0.726818 0.783505
O O2 0.815400 0.791398 0.731157
O O3 0.680632 0.729500 0.657326
O O4 0.677929 0.000000 0.721904
O O5 0.500000 0.235301 0.340542
O O6 0.606491 0.500000 0.340437
O O7 0.646475 0.246940 0.408118
O O8 0.180302 0.267827 0.580318
O O9 0.137539 0.231006 0.466239
O O10 0.000000 0.275804 0.542109
O O11 0.096284 0.000000 0.543559
O O12 0.500000 0.269932 0.474091
O O13 0.657475 0.266789 0.533503
O O14 0.602453 0.000000 0.477929
O O15 0.868768 0.212476 0.338744
O O16 0.000000 0.264522 0.260477
O O17 0.894888 0.000000 0.250494
O O18 0.714332 0.500000 0.092472
O O19 0.000000 0.190139 0.903915
O O20 0.854064 0.000000 0.895991
#
# Coordination Sequence:
#
# PCOD9358765 Si02
#       7
#     8   8   8   8   8   8   8
#     4  10  21  36  55  81 111 145 186 228 272 323
#     4   9  19  36  57  82 111 142 177 222 277 330
#     4   9  17  30  48  71 102 140 178 216 264 318
#     4   9  18  34  57  82 106 137 179 225 270 320
#     4  10  21  36  53  75 107 146 184 224 273 326
#     4   9  19  34  52  78 108 140 180 222 266 318
#     4   9  17  30  49  74 101 131 174 225 270 312
#
# _framework density 22.274253999999999
#
# number of rings (size 3 to 8) (size 9 to 14) (size 15 to 20)
#    0.000    2.714    0.000    0.857    2.000    4.286 
#    0.000    5.714    0.000    1.714    0.000    4.000 
#    0.000    0.000    0.000    0.000    0.000    0.000 
#
# Total GULP energy -156254.559279 kJ/mol
# GULP energy per Si atom -5580.519974 kJ/mol
# Density = 2.222356 g / cm^3
# Si number density = 22.274254 Si / 1000 Ang^3
#
#
#
# Elastic Constant Matrix: (Units=GPa)
#
#
# Indices 1 2 3 4 5 6 
#
# 1 73.6416 -0.9327 70.5337 0.0000 0.0000 0.0000
# 2 -0.9327 27.0756 -0.4446 0.0000 0.0000 0.0000
# 3 70.5337 -0.4446 190.8632 0.0000 0.0000 0.0000
# 4 0.0000 0.0000 0.0000 10.9760 0.0000 0.0000
# 5 0.0000 0.0000 0.0000 0.0000 16.9279 0.0000
# 6 0.0000 0.0000 0.0000 0.0000 0.0000 10.0025
#
#
#
# Elastic Compliance Matrix: (Units=1/GPa)
#
#
# Indices 1 2 3 4 5 6 
#
# 1 0.021029 0.000597 -0.007770 0.000000 0.000000 0.000000
# 2 0.000597 0.036952 -0.000134 0.000000 0.000000 0.000000
# 3 -0.007770 -0.000134 0.008110 0.000000 0.000000 0.000000
# 4 0.000000 0.000000 0.000000 0.091108 0.000000 0.000000
# 5 0.000000 0.000000 0.000000 0.000000 0.059074 0.000000
# 6 0.000000 0.000000 0.000000 0.000000 0.000000 0.099975
#
#
# Mechanical properties :
#
#
# Convention : Reuss Voigt Hill
#
# Bulk Modulus (GPa) = 19.42647 47.76590 33.59618
# Shear Modulus (GPa) = 14.36691 22.40955 18.38823
#
# Velocity S-wave (km/s) = 2.54244 3.17531 2.87633
# Velocity P-wave (km/s) = 4.16643 5.91054 5.11339
#
# Compressibility (1/GPa) = 0.05147617
#
# Stress axis : x y z
#
# Youngs Moduli (GPa) = 47.55406 27.06215 123.29893
#
# Poissons Ratio (x) = -0.01615 0.95801
# Poissons Ratio (y) = -0.02838 0.01658
# Poissons Ratio (z) = 0.36948 0.00364
#
# Static dielectric constant tensor:
#      x y z
#    x 1.853810 0.000000 0.000000 
#    y 0.000000 1.815100 0.000000 
#    z 0.000000 0.000000 1.828110 
# 
# From -- ./inp_files/21068.got.cif
#   From: 2010.05.17/outbox.cif.g08.bks.cpg/sg38_11_cif.got.tgz:21068.got - 2010.06.03 18:07:57.
