data_PCOD9358851
_publ_section_title
;
Structure prediction by ZEFSAII (Michael W. Deem and Ramdas Pophale) SiO2 
 PCOD9358851
Probable space group: A M M 2
;
_chemical_formula_sum "Si O2"
_cell_formula_units_Z 48
_cell_length_a 8.056662
_cell_length_b 21.288380
_cell_length_c 13.631536
_cell_angle_alpha 90.000000
_cell_angle_beta 90.000000
_cell_angle_gamma 90.000000
_cell_volume 2337.989481
_symmetry_space_group_name_H-M "A M M 2"
_symmetry_group_IT_number 38
_symmetry_cell_setting 'orthorhombic'
loop_
_space_group_symop_operation_xyz
x,y,z
-x,-y,z
-x,y,z
x,-y,z
x,1/2+y,1/2+z
-x,1/2-y,1/2+z
-x,1/2+y,1/2+z
x,1/2-y,1/2+z
loop_
_atom_site_type_symbol
_atom_site_label
_atom_site_fract_x
_atom_site_fract_y
_atom_site_fract_z
Si Si1 0.500000 0.429310 0.788511
Si Si2 0.689876 0.184162 0.350204
Si Si3 0.800771 0.621067 0.433067
Si Si4 0.500000 0.574004 0.554745
Si Si5 0.803277 0.500000 0.300656
Si Si6 0.192192 0.796803 0.750944
Si Si7 0.304176 0.859394 0.549439
Si Si8 0.198596 0.500000 0.082979
O O1 0.500000 0.500000 0.826260
O O2 0.500000 0.428681 0.671522
O O3 0.342300 0.388548 0.822861
O O4 0.500000 0.210388 0.351861
O O5 0.781285 0.222832 0.265912
O O6 0.767204 0.182062 0.459138
O O7 0.665614 0.610170 0.517642
O O8 0.769997 0.561049 0.363397
O O9 0.758031 0.677305 0.358568
O O10 0.000000 0.623129 0.459130
O O11 0.500000 0.500000 0.521150
O O12 0.726356 0.500000 0.193608
O O13 0.000000 0.500000 0.283744
O O14 0.272935 0.828908 0.656181
O O15 0.000000 0.813295 0.740745
O O16 0.500000 0.859245 0.532721
O O17 0.248512 0.931788 0.542654
O O18 0.000000 0.500000 0.082790
#
# Coordination Sequence:
#
# PCOD9358851 Si02
#       8
#     4   8   8   4   4   8   8   4
#     4   9  22  45  67  87 119 158 215 274 317 367
#     4   9  23  43  65  86 117 164 208 259 316 379
#     4  10  21  36  57  90 132 170 210 266 321 381
#     4  11  22  35  61  93 117 167 220 259 314 385
#     4   9  16  32  52  78 124 168 201 257 323 368
#     4  11  23  40  61  92 133 166 202 259 325 389
#     4  11  23  38  64  94 124 167 221 264 316 381
#     4  11  21  35  59  93 130 170 213 268 324 375
#
# _framework density 20.530460000000001
#
# number of rings (size 3 to 8) (size 9 to 14) (size 15 to 20)
#    0.500    1.333    2.500    1.250    3.500    2.667 
#    1.500    2.500    0.000    1.000    0.000    0.000 
#    0.000    0.000    0.000    0.000    0.000    0.000 
#
# Total GULP energy -133657.937332 kJ/mol
# GULP energy per Si atom -5569.080722 kJ/mol
# Density = 2.048373 g / cm^3
# Si number density = 20.530460 Si / 1000 Ang^3
#
#
#
# Elastic Constant Matrix: (Units=GPa)
#
#
# Indices 1 2 3 4 5 6 
#
# 1 52.7458 7.2223 26.0796 0.0000 0.0000 0.0000
# 2 7.2223 89.1429 22.7543 0.0000 0.0000 0.0000
# 3 26.0796 22.7543 82.3071 0.0000 0.0000 0.0000
# 4 0.0000 0.0000 0.0000 20.2725 0.0000 0.0000
# 5 0.0000 0.0000 0.0000 0.0000 -15.3733 0.0000
# 6 0.0000 0.0000 0.0000 0.0000 0.0000 -5.4109
#
#
#
# Elastic Compliance Matrix: (Units=1/GPa)
#
#
# Indices 1 2 3 4 5 6 
#
# 1 0.022481 -0.000003 -0.007122 0.000000 0.000000 0.000000
# 2 -0.000003 0.012070 -0.003336 0.000000 0.000000 0.000000
# 3 -0.007122 -0.003336 0.015329 0.000000 0.000000 0.000000
# 4 0.000000 0.000000 0.000000 0.049328 0.000000 0.000000
# 5 0.000000 0.000000 0.000000 0.000000 -0.065048 0.000000
# 6 0.000000 0.000000 0.000000 0.000000 0.000000 -0.184812
#
#
# Mechanical properties :
#
#
# Convention : Reuss Voigt Hill
#
# Bulk Modulus (GPa) = 34.53470 37.36759 35.95115
# Shear Modulus (GPa) = -41.63972 11.10696 -15.26638
#
# Velocity S-wave (km/s) = -4.50843 2.32846 -2.72986
# Velocity P-wave (km/s) = 3.20055 5.04674 2.75917
#
# Compressibility (1/GPa) = 0.02895638
#
# Stress axis : x y z
#
# Youngs Moduli (GPa) = 44.48234 82.85233 65.23786
#
# Poissons Ratio (x) = 0.00028 0.46464
# Poissons Ratio (y) = 0.00015 0.21761
# Poissons Ratio (z) = 0.31682 0.27637
#
# Static dielectric constant tensor:
#      x y z
#    x 1.720700 0.000000 0.000000 
#    y 0.000000 1.821090 0.000000 
#    z 0.000000 0.000000 1.760010 
# 
# From -- ./inp_files/12186.got.cif
#   From: 2010.05.17/outbox.cif.g08.bks.cpg/sg38_7_cif.got.tgz:12186.got - 2010.06.03 18:07:57.
