data_PCOD9358884
_publ_section_title
;
Structure prediction by ZEFSAII (Michael W. Deem and Ramdas Pophale) SiO2 
 PCOD9358884
Probable space group: A M M 2
;
_chemical_formula_sum "Si O2"
_cell_formula_units_Z 58
_cell_length_a 21.706482
_cell_length_b 8.236589
_cell_length_c 16.476934
_cell_angle_alpha 90.000000
_cell_angle_beta 90.000000
_cell_angle_gamma 90.000000
_cell_volume 2945.867710
_symmetry_space_group_name_H-M "A M M 2"
_symmetry_group_IT_number 38
_symmetry_cell_setting 'orthorhombic'
loop_
_space_group_symop_operation_xyz
x,y,z
-x,-y,z
-x,y,z
x,-y,z
x,1/2+y,1/2+z
-x,1/2-y,1/2+z
-x,1/2+y,1/2+z
x,1/2-y,1/2+z
loop_
_atom_site_type_symbol
_atom_site_label
_atom_site_fract_x
_atom_site_fract_y
_atom_site_fract_z
Si Si1 0.307966 0.808769 0.400030
Si Si2 0.808719 0.806833 0.813413
Si Si3 0.568349 0.808040 0.629359
Si Si4 0.180048 0.811395 0.637403
Si Si5 0.301228 0.185036 0.075252
Si Si6 0.000000 0.000000 0.473657
Si Si7 0.568121 0.804261 0.314149
Si Si8 0.127171 0.180885 0.470948
O O1 0.256499 0.776506 0.332623
O O2 0.288608 0.714682 0.480588
O O3 0.374857 0.753922 0.369241
O O4 0.311648 0.000000 0.418938
O O5 0.834640 0.745758 0.726883
O O6 0.798766 0.000000 0.806510
O O7 0.852325 0.771811 0.890034
O O8 0.500000 0.749610 0.603444
O O9 0.627581 0.726432 0.589992
O O10 0.572526 0.775483 0.725716
O O11 0.571397 0.000000 0.613354
O O12 0.253455 0.794817 0.624894
O O13 0.149267 0.740899 0.555815
O O14 0.160801 0.000000 0.637692
O O15 0.289195 0.000000 0.098323
O O16 0.944801 0.861137 0.473549
O O17 0.500000 0.768418 0.348004
O O18 0.572428 0.000000 0.303197
O O19 0.158652 0.000000 0.465436
#
# Coordination Sequence:
#
# PCOD9358884 Si02
#       8
#     8   8   8   8   8   2   8   8
#     4  11  22  36  55  82 116 161 204 254 315 375
#     4  11  22  36  60  96 127 158 205 261 308 355
#     4  10  21  37  56  77 108 152 200 253 315 381
#     4  10  21  38  62  92 124 165 202 251 304 368
#     4  12  24  36  55  85 116 155 205 262 314 364
#     4   8  20  40  74  92 124 170 220 236 292 360
#     4   9  19  36  56  78 108 148 199 256 314 376
#     4   9  19  40  66  90 122 167 205 239 295 363
#
# _framework density 19.688594999999999
#
# number of rings (size 3 to 8) (size 9 to 14) (size 15 to 20)
#    0.414    1.379    1.379    3.310    0.000    5.793 
#    0.000    2.414    0.000    0.000    0.000    0.000 
#    0.000    0.000    0.000    0.000    0.000    0.000 
#
# Total GULP energy -161515.870733 kJ/mol
# GULP energy per Si atom -5569.512784 kJ/mol
# Density = 1.964378 g / cm^3
# Si number density = 19.688595 Si / 1000 Ang^3
#
#
#
# Elastic Constant Matrix: (Units=GPa)
#
#
# Indices 1 2 3 4 5 6 
#
# 1 107.5202 -2.2576 38.3637 0.0000 0.0000 0.0000
# 2 -2.2576 20.0485 0.3976 0.0000 0.0000 0.0000
# 3 38.3637 0.3976 115.1086 0.0000 0.0000 0.0000
# 4 0.0000 0.0000 0.0000 15.5436 0.0000 0.0000
# 5 0.0000 0.0000 0.0000 0.0000 4.3029 0.0000
# 6 0.0000 0.0000 0.0000 0.0000 0.0000 20.6129
#
#
#
# Elastic Compliance Matrix: (Units=1/GPa)
#
#
# Indices 1 2 3 4 5 6 
#
# 1 0.010588 0.001262 -0.003533 0.000000 0.000000 0.000000
# 2 0.001262 0.050033 -0.000594 0.000000 0.000000 0.000000
# 3 -0.003533 -0.000594 0.009867 0.000000 0.000000 0.000000
# 4 0.000000 0.000000 0.000000 0.064335 0.000000 0.000000
# 5 0.000000 0.000000 0.000000 0.000000 0.232401 0.000000
# 6 0.000000 0.000000 0.000000 0.000000 0.000000 0.048513
#
#
# Mechanical properties :
#
#
# Convention : Reuss Voigt Hill
#
# Bulk Modulus (GPa) = 15.44187 35.07608 25.25897
# Shear Modulus (GPa) = 11.28535 21.83678 16.56106
#
# Velocity S-wave (km/s) = 2.39674 3.33394 2.90340
# Velocity P-wave (km/s) = 3.93945 5.71614 4.90885
#
# Compressibility (1/GPa) = 0.06475900
#
# Stress axis : x y z
#
# Youngs Moduli (GPa) = 94.44933 19.98687 101.34789
#
# Poissons Ratio (x) = -0.02523 0.35807
# Poissons Ratio (y) = -0.11922 0.06015
# Poissons Ratio (z) = 0.33369 0.01186
#
# Static dielectric constant tensor:
#      x y z
#    x 1.673390 0.000000 0.000000 
#    y 0.000000 1.715860 0.000000 
#    z 0.000000 0.000000 1.724450 
# 
# From -- ./inp_files/15710.got.cif
#   From: 2010.05.17/outbox.cif.g08.bks.cpg/sg38_8_cif.got.tgz:15710.got - 2010.06.03 18:07:57.
