data_PCOD9358104
_publ_section_title
;
Structure prediction by ZEFSAII (Michael W. Deem and Ramdas Pophale) SiO2 
 PCOD9358104
Probable space group: A M M 2
;
_chemical_formula_sum "Si O2"
_cell_formula_units_Z 64
_cell_length_a 16.514668
_cell_length_b 9.075965
_cell_length_c 23.718929
_cell_angle_alpha 90.000000
_cell_angle_beta 90.000000
_cell_angle_gamma 90.000000
_cell_volume 3555.148408
_symmetry_space_group_name_H-M "A M M 2"
_symmetry_group_IT_number 38
_symmetry_cell_setting 'orthorhombic'
loop_
_space_group_symop_operation_xyz
x,y,z
-x,-y,z
-x,y,z
x,-y,z
x,1/2+y,1/2+z
-x,1/2-y,1/2+z
-x,1/2+y,1/2+z
x,1/2-y,1/2+z
loop_
_atom_site_type_symbol
_atom_site_label
_atom_site_fract_x
_atom_site_fract_y
_atom_site_fract_z
Si Si1 0.193631 0.825747 0.853000
Si Si2 0.648081 0.826775 0.779750
Si Si3 0.267219 0.173556 0.458497
Si Si4 0.257443 0.321573 0.580178
Si Si5 0.906286 0.179397 0.144725
Si Si6 0.405778 0.322337 0.663936
Si Si7 0.409520 0.667742 0.401777
Si Si8 0.904364 0.164628 0.269306
O O1 0.265275 0.787934 0.807915
O O2 0.207894 0.744906 0.911938
O O3 0.115936 0.767789 0.820976
O O4 0.194435 0.000000 0.861340
O O5 0.620819 0.737349 0.725326
O O6 0.591324 0.808162 0.834546
O O7 0.649156 0.000000 0.764887
O O8 0.262770 0.250420 0.518841
O O9 0.354192 0.214891 0.432208
O O10 0.254917 0.000000 0.462728
O O11 0.259076 0.500000 0.576253
O O12 0.169287 0.278553 0.605596
O O13 0.335110 0.278248 0.619191
O O14 0.880745 0.225424 0.207998
O O15 0.000000 0.227085 0.132092
O O16 0.909046 0.000000 0.145600
O O17 0.500000 0.276617 0.651785
O O18 0.405490 0.500000 0.665220
O O19 0.500000 0.671732 0.423559
O O20 0.376722 0.500000 0.410276
O O21 0.000000 0.149362 0.264785
O O22 0.868825 0.000000 0.277493
#
# Coordination Sequence:
#
# PCOD9358104 Si02
#       8
#     8   8   8   8   8   8   8   8
#     4  10  20  35  54  76 104 139 178 215 259 318
#     4   9  18  32  51  76 104 134 169 212 262 312
#     4  11  23  37  53  74 101 134 177 225 269 313
#     4  10  20  36  55  73 101 141 181 221 264 312
#     4   8  15  30  55  84 108 134 172 215 262 319
#     4  10  21  34  50  76 107 140 177 213 256 316
#     4   9  18  34  55  77 103 136 172 213 265 321
#     4   9  17  31  54  85 116 139 163 204 259 315
#
# _framework density 18.002063
#
# number of rings (size 3 to 8) (size 9 to 14) (size 15 to 20)
#    0.000    2.500    0.000    4.125    0.000    5.750 
#    0.000    2.500    0.000    3.375    0.000    0.000 
#    0.000    0.000    0.000    0.000    0.000    0.000 
#
# Total GULP energy -178225.718401 kJ/mol
# GULP energy per Si atom -5569.553700 kJ/mol
# Density = 1.796109 g / cm^3
# Si number density = 18.002063 Si / 1000 Ang^3
#
#
#
# Elastic Constant Matrix: (Units=GPa)
#
#
# Indices 1 2 3 4 5 6 
#
# 1 50.5951 23.8231 58.7236 0.0000 0.0000 0.0000
# 2 23.8231 39.9338 42.1476 0.0000 0.0000 0.0000
# 3 58.7236 42.1476 129.8616 0.0000 0.0000 0.0000
# 4 0.0000 0.0000 0.0000 29.1148 0.0000 0.0000
# 5 0.0000 0.0000 0.0000 0.0000 0.4417 0.0000
# 6 0.0000 0.0000 0.0000 0.0000 0.0000 18.2804
#
#
#
# Elastic Compliance Matrix: (Units=1/GPa)
#
#
# Indices 1 2 3 4 5 6 
#
# 1 0.043148 -0.007829 -0.016971 0.000000 0.000000 0.000000
# 2 -0.007829 0.039509 -0.009283 0.000000 0.000000 0.000000
# 3 -0.016971 -0.009283 0.018387 0.000000 0.000000 0.000000
# 4 0.000000 0.000000 0.000000 0.034347 0.000000 0.000000
# 5 0.000000 0.000000 0.000000 0.000000 2.264108 0.000000
# 6 0.000000 0.000000 0.000000 0.000000 0.000000 0.054703
#
#
# Mechanical properties :
#
#
# Convention : Reuss Voigt Hill
#
# Bulk Modulus (GPa) = 30.41369 52.19767 41.30568
# Shear Modulus (GPa) = 1.97369 15.94713 8.96041
#
# Velocity S-wave (km/s) = 1.04821 2.97955 2.23344
# Velocity P-wave (km/s) = 4.28908 6.39494 5.44479
#
# Compressibility (1/GPa) = 0.03287993
#
# Stress axis : x y z
#
# Youngs Moduli (GPa) = 23.17579 25.31045 54.38488
#
# Poissons Ratio (x) = 0.19816 0.92295
# Poissons Ratio (y) = 0.18145 0.50484
# Poissons Ratio (z) = 0.39331 0.23495
#
# Static dielectric constant tensor:
#      x y z
#    x 1.683520 0.000000 0.000000 
#    y 0.000000 1.614500 0.000000 
#    z 0.000000 0.000000 1.596650 
# 
# From -- ./inp_files/21384.got.cif
#   From: 2010.05.17/outbox.cif.g08.bks.cpg/sg38_11_cif.got.tgz:21384.got - 2010.06.03 18:07:57.
