data_PCOD9358834
_publ_section_title
;
Structure prediction by ZEFSAII (Michael W. Deem and Ramdas Pophale) SiO2 
 PCOD9358834
Probable space group: A M M 2
;
_chemical_formula_sum "Si O2"
_cell_formula_units_Z 56
_cell_length_a 20.195775
_cell_length_b 15.338658
_cell_length_c 9.514592
_cell_angle_alpha 90.000000
_cell_angle_beta 90.000000
_cell_angle_gamma 90.000000
_cell_volume 2947.393067
_symmetry_space_group_name_H-M "A M M 2"
_symmetry_group_IT_number 38
_symmetry_cell_setting 'orthorhombic'
loop_
_space_group_symop_operation_xyz
x,y,z
-x,-y,z
-x,y,z
x,-y,z
x,1/2+y,1/2+z
-x,1/2-y,1/2+z
-x,1/2+y,1/2+z
x,1/2-y,1/2+z
loop_
_atom_site_type_symbol
_atom_site_label
_atom_site_fract_x
_atom_site_fract_y
_atom_site_fract_z
Si Si1 0.072925 0.341795 0.216120
Si Si2 0.396965 0.247489 0.935460
Si Si3 0.500000 0.895508 0.825265
Si Si4 0.218039 0.596749 0.222368
Si Si5 0.305615 0.257184 0.685066
Si Si6 0.072115 0.659625 0.552115
Si Si7 0.500000 0.396649 0.984280
Si Si8 0.214730 0.403877 0.560738
O O1 0.140632 0.392197 0.182911
O O2 0.074745 0.325481 0.384010
O O3 0.075780 0.251218 0.132611
O O4 0.000000 0.382108 0.186393
O O5 0.438292 0.162863 0.882747
O O6 0.331062 0.256728 0.843477
O O7 0.438777 0.337113 0.930727
O O8 0.371982 0.234757 0.093475
O O9 0.500000 0.893115 0.655150
O O10 0.500000 0.000000 0.864246
O O11 0.240569 0.500000 0.186585
O O12 0.265220 0.668830 0.156663
O O13 0.221757 0.607494 0.392105
O O14 0.256189 0.333722 0.644713
O O15 0.136718 0.605597 0.591168
O O16 0.000000 0.619585 0.583202
O O17 0.500000 0.500000 0.945100
O O18 0.238375 0.500000 0.596383
#
# Coordination Sequence:
#
# PCOD9358834 Si02
#       8
#     8   8   4   8   8   8   4   8
#     4   9  17  31  54  80 108 146 195 251 302 344
#     4  11  24  40  65  94 121 155 187 237 284 333
#     4  10  22  43  70  95 118 153 195 228 276 348
#     4  10  21  36  57  84 115 157 203 244 292 352
#     4  12  22  39  60  87 125 156 195 232 286 345
#     4   9  17  31  54  79 107 147 197 250 301 346
#     4  10  22  43  68  95 122 149 191 236 280 338
#     4  10  21  36  56  84 117 155 201 248 294 347
#
# _framework density 18.999842000000001
#
# number of rings (size 3 to 8) (size 9 to 14) (size 15 to 20)
#    0.000    1.857    4.286    0.000    0.000    2.857 
#    0.000    3.571    0.000    0.000    0.000    4.000 
#    0.000    0.000    0.000    0.000    0.000    0.000 
#
# Total GULP energy -156067.241410 kJ/mol
# GULP energy per Si atom -5573.830050 kJ/mol
# Density = 1.895660 g / cm^3
# Si number density = 18.999842 Si / 1000 Ang^3
#
#
#
# Elastic Constant Matrix: (Units=GPa)
#
#
# Indices 1 2 3 4 5 6 
#
# 1 83.9351 59.5528 5.0904 0.0000 0.0000 0.0000
# 2 59.5528 148.0251 19.4218 0.0000 0.0000 0.0000
# 3 5.0904 19.4218 10.7878 0.0000 0.0000 0.0000
# 4 0.0000 0.0000 0.0000 24.2003 0.0000 0.0000
# 5 0.0000 0.0000 0.0000 0.0000 25.1810 0.0000
# 6 0.0000 0.0000 0.0000 0.0000 0.0000 -50.6965
#
#
#
# Elastic Compliance Matrix: (Units=1/GPa)
#
#
# Indices 1 2 3 4 5 6 
#
# 1 0.016927 -0.007544 0.005595 0.000000 0.000000 0.000000
# 2 -0.007544 0.012207 -0.018417 0.000000 0.000000 0.000000
# 3 0.005595 -0.018417 0.123214 0.000000 0.000000 0.000000
# 4 0.000000 0.000000 0.000000 0.041322 0.000000 0.000000
# 5 0.000000 0.000000 0.000000 0.000000 0.039713 0.000000
# 6 0.000000 0.000000 0.000000 0.000000 0.000000 -0.019725
#
#
# Mechanical properties :
#
#
# Convention : Reuss Voigt Hill
#
# Bulk Modulus (GPa) = 8.95935 45.65312 27.30623
# Shear Modulus (GPa) = 17.14696 10.31584 13.73140
#
# Velocity S-wave (km/s) = 3.00739 2.33264 2.69125
# Velocity P-wave (km/s) = 4.09694 5.59779 4.90511
#
# Compressibility (1/GPa) = 0.11161529
#
# Stress axis : x y z
#
# Youngs Moduli (GPa) = 59.07607 81.91873 8.11593
#
# Poissons Ratio (x) = 0.61801 -0.04541
# Poissons Ratio (y) = 0.44568 0.14947
# Poissons Ratio (z) = -0.33051 1.50872
#
# Static dielectric constant tensor:
#      x y z
#    x 1.692010 0.000000 0.000000 
#    y 0.000000 1.637230 0.000000 
#    z 0.000000 0.000000 1.625690 
# 
# From -- ./inp_files/6772.got.cif
#   From: 2010.05.17/outbox.cif.g08.bks.cpg/sg38_4_cif.got.tgz:6772.got - 2010.06.03 18:07:57.
