data_PCOD9358293
_publ_section_title
;
Structure prediction by ZEFSAII (Michael W. Deem and Ramdas Pophale) SiO2 
 PCOD9358293
Probable space group: A M M 2
;
_chemical_formula_sum "Si O2"
_cell_formula_units_Z 58
_cell_length_a 23.805411
_cell_length_b 7.860564
_cell_length_c 14.865369
_cell_angle_alpha 90.000000
_cell_angle_beta 90.000000
_cell_angle_gamma 90.000000
_cell_volume 2781.666665
_symmetry_space_group_name_H-M "A M M 2"
_symmetry_group_IT_number 38
_symmetry_cell_setting 'orthorhombic'
loop_
_space_group_symop_operation_xyz
x,y,z
-x,-y,z
-x,y,z
x,-y,z
x,1/2+y,1/2+z
-x,1/2-y,1/2+z
-x,1/2+y,1/2+z
x,1/2-y,1/2+z
loop_
_atom_site_type_symbol
_atom_site_label
_atom_site_fract_x
_atom_site_fract_y
_atom_site_fract_z
Si Si1 0.563346 0.207626 0.710090
Si Si2 0.938444 0.697848 0.332804
Si Si3 0.356122 0.201253 0.861872
Si Si4 0.342442 0.294251 0.067987
Si Si5 0.220681 0.697456 0.138378
Si Si6 0.000000 0.000000 0.249662
Si Si7 0.234187 0.188053 0.329461
Si Si8 0.155729 0.808742 0.971440
O O1 0.500000 0.268806 0.695933
O O2 0.589159 0.256850 0.806678
O O3 0.608712 0.262564 0.635749
O O4 0.561698 0.000000 0.706740
O O5 0.925052 0.500000 0.303481
O O6 0.951243 0.845432 0.259859
O O7 0.893381 0.756698 0.406264
O O8 0.000000 0.687743 0.378820
O O9 0.300457 0.284579 0.820509
O O10 0.350196 0.000000 0.848186
O O11 0.356262 0.239619 0.967072
O O12 0.340749 0.500000 0.069101
O O13 0.280316 0.236620 0.098918
O O14 0.228580 0.500000 0.161483
O O15 0.207233 0.787435 0.232071
O O16 0.174193 0.715030 0.061439
O O17 0.209211 0.309694 0.404746
O O18 0.223455 0.000000 0.365229
O O19 0.140096 0.000000 0.997085
#
# Coordination Sequence:
#
# PCOD9358293 Si02
#       8
#     8   8   8   8   8   2   8   8
#     4   9  19  37  59  78 105 146 186 226 278 341
#     4   8  17  31  52  83 114 153 198 241 287 344
#     4  11  21  36  57  81 110 143 183 230 284 340
#     4  10  20  36  56  81 108 142 182 226 281 341
#     4  11  22  36  56  84 116 149 187 233 289 347
#     4   8  14  28  56  78 116 152 202 234 294 330
#     4  12  24  36  55  83 116 152 191 233 286 346
#     4  11  22  37  59  86 118 151 194 240 287 341
#
# _framework density 20.850809000000002
#
# number of rings (size 3 to 8) (size 9 to 14) (size 15 to 20)
#    0.414    1.379    2.759    2.483    1.931    1.103 
#    0.000    0.000    0.000    3.724    0.000    0.000 
#    0.000    0.000    0.000    0.000    0.000    0.000 
#
# Total GULP energy -161451.200624 kJ/mol
# GULP energy per Si atom -5567.282780 kJ/mol
# Density = 2.080335 g / cm^3
# Si number density = 20.850809 Si / 1000 Ang^3
#
#
#
# Elastic Constant Matrix: (Units=GPa)
#
#
# Indices 1 2 3 4 5 6 
#
# 1 26.1082 -5.9314 -23.1856 0.0000 0.0000 0.0000
# 2 -5.9314 61.8964 -1.3695 0.0000 0.0000 0.0000
# 3 -23.1856 -1.3695 60.8287 0.0000 0.0000 0.0000
# 4 0.0000 0.0000 0.0000 19.9416 0.0000 0.0000
# 5 0.0000 0.0000 0.0000 0.0000 -14.7935 0.0000
# 6 0.0000 0.0000 0.0000 0.0000 0.0000 17.5421
#
#
#
# Elastic Compliance Matrix: (Units=1/GPa)
#
#
# Indices 1 2 3 4 5 6 
#
# 1 0.060250 0.006285 0.023106 0.000000 0.000000 0.000000
# 2 0.006285 0.016820 0.002774 0.000000 0.000000 0.000000
# 3 0.023106 0.002774 0.025309 0.000000 0.000000 0.000000
# 4 0.000000 0.000000 0.000000 0.050146 0.000000 0.000000
# 5 0.000000 0.000000 0.000000 0.000000 -0.067597 0.000000
# 6 0.000000 0.000000 0.000000 0.000000 0.000000 0.057006
#
#
# Mechanical properties :
#
#
# Convention : Reuss Voigt Hill
#
# Bulk Modulus (GPa) = 5.99844 9.76227 7.88036
# Shear Modulus (GPa) = 37.54516 16.49268 27.01892
#
# Velocity S-wave (km/s) = 4.24802 2.81550 3.60366
# Velocity P-wave (km/s) = 5.19076 3.90660 4.59377
#
# Compressibility (1/GPa) = 0.16670989
#
# Stress axis : x y z
#
# Youngs Moduli (GPa) = 16.59755 59.45419 39.51105
#
# Poissons Ratio (x) = -0.37366 -0.91296
# Poissons Ratio (y) = -0.10431 -0.10961
# Poissons Ratio (z) = -0.38351 -0.16494
#
# Static dielectric constant tensor:
#      x y z
#    x 1.780650 0.000000 0.000000 
#    y 0.000000 1.772430 0.000000 
#    z 0.000000 0.000000 1.719200 
# 
# From -- ./inp_files/15667.got.cif
#   From: 2010.05.17/outbox.cif.g08.bks.cpg/sg38_8_cif.got.tgz:15667.got - 2010.06.03 18:07:57.
