data_PCOD9358923
_publ_section_title
;
Structure prediction by ZEFSAII (Michael W. Deem and Ramdas Pophale) SiO2 
 PCOD9358923
Probable space group: A M M 2
;
_chemical_formula_sum "Si O2"
_cell_formula_units_Z 64
_cell_length_a 14.851734
_cell_length_b 8.961088
_cell_length_c 25.340683
_cell_angle_alpha 90.000000
_cell_angle_beta 90.000000
_cell_angle_gamma 90.000000
_cell_volume 3372.533098
_symmetry_space_group_name_H-M "A M M 2"
_symmetry_group_IT_number 38
_symmetry_cell_setting 'orthorhombic'
loop_
_space_group_symop_operation_xyz
x,y,z
-x,-y,z
-x,y,z
x,-y,z
x,1/2+y,1/2+z
-x,1/2-y,1/2+z
-x,1/2+y,1/2+z
x,1/2-y,1/2+z
loop_
_atom_site_type_symbol
_atom_site_label
_atom_site_fract_x
_atom_site_fract_y
_atom_site_fract_z
Si Si1 0.103715 0.679192 0.648420
Si Si2 0.106641 0.320634 0.373639
Si Si3 0.752689 0.820961 0.450503
Si Si4 0.890297 0.671976 0.256701
Si Si5 0.396858 0.681752 0.866859
Si Si6 0.390283 0.328506 0.750762
Si Si7 0.254548 0.321305 0.565579
Si Si8 0.392067 0.674275 0.142534
O O1 0.103801 0.500000 0.650003
O O2 0.136942 0.737608 0.705135
O O3 0.168841 0.726394 0.601199
O O4 0.000000 0.729118 0.640716
O O5 0.119945 0.500000 0.376695
O O6 0.161179 0.238149 0.418715
O O7 0.136702 0.271515 0.314674
O O8 0.000000 0.293431 0.378577
O O9 0.667742 0.773849 0.414242
O O10 0.747822 0.751871 0.508327
O O11 0.753534 0.000000 0.453771
O O12 0.861950 0.500000 0.251282
O O13 0.000000 0.673253 0.257642
O O14 0.500000 0.730853 0.874639
O O15 0.397772 0.500000 0.864655
O O16 0.363620 0.729515 0.808649
O O17 0.500000 0.331844 0.752335
O O18 0.359814 0.500000 0.743577
O O19 0.364214 0.231200 0.700614
O O20 0.253343 0.500000 0.560809
O O21 0.341121 0.268376 0.598432
O O22 0.500000 0.692601 0.138385
O O23 0.370764 0.500000 0.136414
#
# Coordination Sequence:
#
# PCOD9358923 Si02
#       8
#     8   8   8   8   8   8   8   8
#     4   9  19  36  57  80 106 138 176 220 271 324
#     4   9  19  37  58  79 109 148 181 213 264 327
#     4  11  23  37  55  81 109 139 184 235 275 315
#     4   8  15  30  54  83 111 139 173 214 265 325
#     4   8  16  33  56  80 108 142 175 212 266 328
#     4   8  14  29  55  83 109 139 175 212 258 325
#     4  11  24  40  56  76 106 146 190 228 267 324
#     4  10  21  37  57  82 112 143 176 222 276 320
#
# _framework density 18.976835000000001
#
# number of rings (size 3 to 8) (size 9 to 14) (size 15 to 20)
#    0.000    2.750    0.000    2.625    0.000    4.500 
#    0.000    8.750    0.000    2.625    0.000    0.000 
#    0.000    0.000    0.000    0.000    0.000    0.000 
#
# Total GULP energy -178563.499817 kJ/mol
# GULP energy per Si atom -5580.109369 kJ/mol
# Density = 1.893364 g / cm^3
# Si number density = 18.976835 Si / 1000 Ang^3
#
#
#
# Elastic Constant Matrix: (Units=GPa)
#
#
# Indices 1 2 3 4 5 6 
#
# 1 65.5462 33.4806 59.3285 0.0000 0.0000 0.0000
# 2 33.4806 39.4387 55.7403 0.0000 0.0000 0.0000
# 3 59.3285 55.7403 193.7241 0.0000 0.0000 0.0000
# 4 0.0000 0.0000 0.0000 108.9060 0.0000 0.0000
# 5 0.0000 0.0000 0.0000 0.0000 31.8712 0.0000
# 6 0.0000 0.0000 0.0000 0.0000 0.0000 20.0393
#
#
#
# Elastic Compliance Matrix: (Units=1/GPa)
#
#
# Indices 1 2 3 4 5 6 
#
# 1 0.027879 -0.019551 -0.002913 0.000000 0.000000 0.000000
# 2 -0.019551 0.056445 -0.010253 0.000000 0.000000 0.000000
# 3 -0.002913 -0.010253 0.009004 0.000000 0.000000 0.000000
# 4 0.000000 0.000000 0.000000 0.009182 0.000000 0.000000
# 5 0.000000 0.000000 0.000000 0.000000 0.031376 0.000000
# 6 0.000000 0.000000 0.000000 0.000000 0.000000 0.049902
#
#
# Mechanical properties :
#
#
# Convention : Reuss Voigt Hill
#
# Bulk Modulus (GPa) = 35.84969 66.20088 51.02528
# Shear Modulus (GPa) = 19.34083 42.17395 30.75739
#
# Velocity S-wave (km/s) = 3.19592 4.71934 4.03027
# Velocity P-wave (km/s) = 5.70534 8.04096 6.97165
#
# Compressibility (1/GPa) = 0.02789425
#
# Stress axis : x y z
#
# Youngs Moduli (GPa) = 35.86886 17.71649 111.05925
#
# Poissons Ratio (x) = 0.34637 0.32349
# Poissons Ratio (y) = 0.70127 1.13872
# Poissons Ratio (z) = 0.10448 0.18165
#
# Static dielectric constant tensor:
#      x y z
#    x 1.687460 0.000000 0.000000 
#    y 0.000000 1.629170 0.000000 
#    z 0.000000 0.000000 1.639180 
# 
# From -- ./inp_files/22907.got.cif
#   From: 2010.05.17/outbox.cif.g08.bks.cpg/sg38_12_cif.got.tgz:22907.got - 2010.06.03 18:07:57.
