data_PCOD9358534
_publ_section_title
;
Structure prediction by ZEFSAII (Michael W. Deem and Ramdas Pophale) SiO2 
 PCOD9358534
Probable space group: A M M 2
;
_chemical_formula_sum "Si O2"
_cell_formula_units_Z 56
_cell_length_a 14.795224
_cell_length_b 14.249989
_cell_length_c 12.392468
_cell_angle_alpha 90.000000
_cell_angle_beta 90.000000
_cell_angle_gamma 90.000000
_cell_volume 2612.726078
_symmetry_space_group_name_H-M "A M M 2"
_symmetry_group_IT_number 38
_symmetry_cell_setting 'orthorhombic'
loop_
_space_group_symop_operation_xyz
x,y,z
-x,-y,z
-x,y,z
x,-y,z
x,1/2+y,1/2+z
-x,1/2-y,1/2+z
-x,1/2+y,1/2+z
x,1/2-y,1/2+z
loop_
_atom_site_type_symbol
_atom_site_label
_atom_site_fract_x
_atom_site_fract_y
_atom_site_fract_z
Si Si1 0.402395 0.887255 0.587010
Si Si2 0.218972 0.889211 0.308830
Si Si3 0.696389 0.393219 0.402580
Si Si4 0.101604 0.197503 0.502409
Si Si5 0.786415 0.610897 0.188750
Si Si6 0.843225 0.393873 0.569779
Si Si7 0.399896 0.706449 0.852459
O O1 0.500000 0.860136 0.635095
O O2 0.312468 0.856489 0.647721
O O3 0.398980 0.847326 0.467059
O O4 0.399688 0.000000 0.583454
O O5 0.168340 0.840711 0.409511
O O6 0.162650 0.881240 0.198383
O O7 0.315546 0.839458 0.291134
O O8 0.231589 0.000000 0.332324
O O9 0.664102 0.500000 0.383109
O O10 0.778279 0.376482 0.316804
O O11 0.741971 0.386919 0.519432
O O12 0.623044 0.314293 0.380098
O O13 0.139072 0.161310 0.617599
O O14 0.104053 0.309616 0.514371
O O15 0.000000 0.164273 0.481823
O O16 0.795260 0.500000 0.167738
O O17 0.874943 0.500000 0.546483
O O18 0.500000 0.694745 0.805278
#
# Coordination Sequence:
#
# PCOD9358534 Si02
#       7
#     8   8   8   8   8   8   8
#     4   9  17  31  55  86 118 156 203 256 318 383
#     4  11  23  43  70  98 133 172 216 273 331 387
#     4  10  21  40  63  87 126 176 220 262 316 386
#     4  12  25  41  68  99 129 164 215 274 332 391
#     4  10  20  37  62  91 128 165 205 266 327 381
#     4  10  23  45  69  92 129 177 219 264 325 394
#     4  11  21  35  61  94 129 169 216 268 322 383
#
# _framework density 21.433551999999999
#
# number of rings (size 3 to 8) (size 9 to 14) (size 15 to 20)
#    0.000    1.571    2.857    1.714    0.000    3.714 
#    0.000    5.000    0.000    5.143    0.000    0.000 
#    0.000    0.000    0.000    0.000    0.000    0.000 
#
# Total GULP energy -156406.307632 kJ/mol
# GULP energy per Si atom -5585.939558 kJ/mol
# Density = 2.138477 g / cm^3
# Si number density = 21.433552 Si / 1000 Ang^3
#
#
#
# Elastic Constant Matrix: (Units=GPa)
#
#
# Indices 1 2 3 4 5 6 
#
# 1 95.2651 36.7816 4.1438 0.0000 0.0000 0.0000
# 2 36.7816 96.6583 23.4604 0.0000 0.0000 0.0000
# 3 4.1438 23.4604 63.5289 0.0000 0.0000 0.0000
# 4 0.0000 0.0000 0.0000 33.4585 0.0000 0.0000
# 5 0.0000 0.0000 0.0000 0.0000 -4.6372 0.0000
# 6 0.0000 0.0000 0.0000 0.0000 0.0000 10.9544
#
#
#
# Elastic Compliance Matrix: (Units=1/GPa)
#
#
# Indices 1 2 3 4 5 6 
#
# 1 0.012365 -0.004954 0.001023 0.000000 0.000000 0.000000
# 2 -0.004954 0.013349 -0.004606 0.000000 0.000000 0.000000
# 3 0.001023 -0.004606 0.017375 0.000000 0.000000 0.000000
# 4 0.000000 0.000000 0.000000 0.029888 0.000000 0.000000
# 5 0.000000 0.000000 0.000000 0.000000 -0.215649 0.000000
# 6 0.000000 0.000000 0.000000 0.000000 0.000000 0.091287
#
#
# Mechanical properties :
#
#
# Convention : Reuss Voigt Hill
#
# Bulk Modulus (GPa) = 38.43987 42.69153 40.56570
# Shear Modulus (GPa) = -195.01498 20.69292 -87.16103
#
# Velocity S-wave (km/s) = -9.54900 3.11053 -6.38388
# Velocity P-wave (km/s) = 10.17863 5.73253 5.94738
#
# Compressibility (1/GPa) = 0.02601466
#
# Stress axis : x y z
#
# Youngs Moduli (GPa) = 80.87292 74.91342 57.55313
#
# Poissons Ratio (x) = 0.37109 -0.05886
# Poissons Ratio (y) = 0.40061 0.26511
# Poissons Ratio (z) = -0.08271 0.34508
#
# Static dielectric constant tensor:
#      x y z
#    x 1.776120 0.000000 0.000000 
#    y 0.000000 1.802130 0.000000 
#    z 0.000000 0.000000 1.784610 
# 
# From -- ./inp_files/10089.got.cif
#   From: 2010.05.17/outbox.cif.g08.bks.cpg/sg38_6_cif.got.tgz:10089.got - 2010.06.03 18:07:57.
