data_PCOD9358109
_publ_section_title
;
Structure prediction by ZEFSAII (Michael W. Deem and Ramdas Pophale) SiO2 
 PCOD9358109
Probable space group: A M M 2
;
_chemical_formula_sum "Si O2"
_cell_formula_units_Z 56
_cell_length_a 15.908223
_cell_length_b 7.452937
_cell_length_c 21.176654
_cell_angle_alpha 90.000000
_cell_angle_beta 90.000000
_cell_angle_gamma 90.000000
_cell_volume 2510.767285
_symmetry_space_group_name_H-M "A M M 2"
_symmetry_group_IT_number 38
_symmetry_cell_setting 'orthorhombic'
loop_
_space_group_symop_operation_xyz
x,y,z
-x,-y,z
-x,y,z
x,-y,z
x,1/2+y,1/2+z
-x,1/2-y,1/2+z
-x,1/2+y,1/2+z
x,1/2-y,1/2+z
loop_
_atom_site_type_symbol
_atom_site_label
_atom_site_fract_x
_atom_site_fract_y
_atom_site_fract_z
Si Si1 0.231963 0.286282 0.842770
Si Si2 0.360275 0.783212 0.534939
Si Si3 0.220831 0.208789 0.207491
Si Si4 0.591288 0.280843 0.895227
Si Si5 0.907577 0.216400 0.947502
Si Si6 0.828009 0.791445 0.072325
Si Si7 0.409770 0.716818 0.173829
O O1 0.241823 0.500000 0.834590
O O2 0.199387 0.213078 0.775788
O O3 0.324832 0.216788 0.860244
O O4 0.166324 0.261588 0.899073
O O5 0.399572 0.726984 0.468791
O O6 0.265106 0.717238 0.542189
O O7 0.405719 0.731318 0.599707
O O8 0.358185 0.000000 0.534088
O O9 0.182733 0.287870 0.142711
O O10 0.322633 0.216458 0.202738
O O11 0.196192 0.000000 0.207094
O O12 0.500000 0.222835 0.870738
O O13 0.592311 0.500000 0.893858
O O14 0.000000 0.276742 0.926622
O O15 0.908343 0.000000 0.951048
O O16 0.887345 0.285742 0.018066
O O17 0.851504 0.000000 0.080047
O O18 0.500000 0.776688 0.200450
O O19 0.407067 0.500000 0.177132
#
# Coordination Sequence:
#
# PCOD9358109 Si02
#       7
#     8   8   8   8   8   8   8
#     4  10  20  35  54  79 109 139 174 215 258 307
#     4   9  15  26  46  70  97 131 172 218 259 296
#     4   9  19  33  50  73 103 139 172 209 260 312
#     4   9  16  26  44  71 102 136 173 212 253 297
#     4  10  21  37  58  80 102 133 171 213 265 321
#     4   9  17  32  52  74 101 131 166 208 256 310
#     4   9  17  28  44  69 100 136 180 222 258 302
#
# _framework density 22.303940000000001
#
# number of rings (size 3 to 8) (size 9 to 14) (size 15 to 20)
#    0.000    2.714    1.429    0.429    0.000    3.429 
#    0.000    2.143    0.000    5.143    0.000    0.000 
#    0.000    0.000    0.000    0.000    0.000    0.000 
#
# Total GULP energy -156211.104671 kJ/mol
# GULP energy per Si atom -5578.968024 kJ/mol
# Density = 2.225318 g / cm^3
# Si number density = 22.303940 Si / 1000 Ang^3
#
#
#
# Elastic Constant Matrix: (Units=GPa)
#
#
# Indices 1 2 3 4 5 6 
#
# 1 83.8178 -1.6224 52.8605 0.0000 0.0000 0.0000
# 2 -1.6224 64.9747 5.5511 0.0000 0.0000 0.0000
# 3 52.8605 5.5511 153.5316 0.0000 0.0000 0.0000
# 4 0.0000 0.0000 0.0000 3.5185 0.0000 0.0000
# 5 0.0000 0.0000 0.0000 0.0000 -5.3241 0.0000
# 6 0.0000 0.0000 0.0000 0.0000 0.0000 13.6482
#
#
#
# Elastic Compliance Matrix: (Units=1/GPa)
#
#
# Indices 1 2 3 4 5 6 
#
# 1 0.015285 0.000834 -0.005293 0.000000 0.000000 0.000000
# 2 0.000834 0.015484 -0.000847 0.000000 0.000000 0.000000
# 3 -0.005293 -0.000847 0.008366 0.000000 0.000000 0.000000
# 4 0.000000 0.000000 0.000000 0.284213 0.000000 0.000000
# 5 0.000000 0.000000 0.000000 0.000000 -0.187826 0.000000
# 6 0.000000 0.000000 0.000000 0.000000 0.000000 0.073269
#
#
# Mechanical properties :
#
#
# Convention : Reuss Voigt Hill
#
# Bulk Modulus (GPa) = 35.05920 46.21139 40.63529
# Shear Modulus (GPa) = 21.84266 18.73753 20.29010
#
# Velocity S-wave (km/s) = 3.13280 2.90159 3.01941
# Velocity P-wave (km/s) = 5.37018 5.65593 5.51491
#
# Compressibility (1/GPa) = 0.02852318
#
# Stress axis : x y z
#
# Youngs Moduli (GPa) = 65.42530 64.58372 119.52911
#
# Poissons Ratio (x) = -0.05385 0.63262
# Poissons Ratio (y) = -0.05455 0.10123
# Poissons Ratio (z) = 0.34627 0.05470
#
# Static dielectric constant tensor:
#      x y z
#    x 1.795110 0.000000 0.000000 
#    y 0.000000 1.864470 0.000000 
#    z 0.000000 0.000000 1.844180 
# 
# From -- ./inp_files/21028.got.cif
#   From: 2010.05.17/outbox.cif.g08.bks.cpg/sg38_11_cif.got.tgz:21028.got - 2010.06.03 18:07:57.
