data_PCOD9358877
_publ_section_title
;
Structure prediction by ZEFSAII (Michael W. Deem and Ramdas Pophale) SiO2 
 PCOD9358877
Probable space group: A M M 2
;
_chemical_formula_sum "Si O2"
_cell_formula_units_Z 64
_cell_length_a 8.858849
_cell_length_b 14.879064
_cell_length_c 28.625843
_cell_angle_alpha 90.000000
_cell_angle_beta 90.000000
_cell_angle_gamma 90.000000
_cell_volume 3773.211905
_symmetry_space_group_name_H-M "A M M 2"
_symmetry_group_IT_number 38
_symmetry_cell_setting 'orthorhombic'
loop_
_space_group_symop_operation_xyz
x,y,z
-x,-y,z
-x,y,z
x,-y,z
x,1/2+y,1/2+z
-x,1/2-y,1/2+z
-x,1/2+y,1/2+z
x,1/2-y,1/2+z
loop_
_atom_site_type_symbol
_atom_site_label
_atom_site_fract_x
_atom_site_fract_y
_atom_site_fract_z
Si Si1 0.180095 0.287046 0.169460
Si Si2 0.682945 0.098696 0.140300
Si Si3 0.680045 0.605801 0.254743
Si Si4 0.328847 0.148863 0.576261
Si Si5 0.818264 0.596845 0.981743
Si Si6 0.818900 0.605359 0.355241
Si Si7 0.181712 0.791648 0.947764
Si Si8 0.329739 0.353913 0.539326
O O1 0.243443 0.185367 0.164110
O O2 0.239001 0.333275 0.216413
O O3 0.244745 0.343845 0.125494
O O4 0.000000 0.285543 0.167542
O O5 0.500000 0.110361 0.140307
O O6 0.731219 0.098382 0.085656
O O7 0.717190 0.000000 0.160507
O O8 0.500000 0.617101 0.251541
O O9 0.715050 0.500000 0.246599
O O10 0.737407 0.627670 0.306798
O O11 0.500000 0.115500 0.582131
O O12 0.241301 0.100066 0.534802
O O13 0.337343 0.251016 0.557227
O O14 0.772372 0.500000 0.961025
O O15 0.766537 0.688323 0.956122
O O16 0.000000 0.600166 0.982604
O O17 0.790479 0.500000 0.365656
O O18 0.768810 0.665900 0.398841
O O19 0.000000 0.615761 0.349246
O O20 0.000000 0.791865 0.948204
O O21 0.237221 0.850631 0.991710
O O22 0.500000 0.385724 0.529932
#
# Coordination Sequence:
#
# PCOD9358877 Si02
#       8
#     8   8   8   8   8   8   8   8
#     4  11  21  33  52  76 102 131 164 204 250 300
#     4   9  18  33  51  72 103 141 175 207 243 283
#     4  10  21  37  56  76  96 121 158 203 252 307
#     4   9  17  30  46  65  93 128 165 202 239 280
#     4   9  17  29  45  67  97 132 167 200 236 282
#     4   9  18  33  51  71  95 121 152 195 248 299
#     4   9  17  29  46  68  95 127 160 196 242 292
#     4   8  15  27  43  65  93 126 163 199 234 272
#
# _framework density 16.961676000000001
#
# number of rings (size 3 to 8) (size 9 to 14) (size 15 to 20)
#    0.000    2.750    0.000    2.625    0.000    5.750 
#    0.000    0.000    0.000    0.750    0.000    1.750 
#    0.000    0.000    0.000    0.000    0.000    0.000 
#
# Total GULP energy -178276.964057 kJ/mol
# GULP energy per Si atom -5571.155127 kJ/mol
# Density = 1.692307 g / cm^3
# Si number density = 16.961676 Si / 1000 Ang^3
#
#
#
# Elastic Constant Matrix: (Units=GPa)
#
#
# Indices 1 2 3 4 5 6 
#
# 1 43.9779 32.1030 44.7943 0.0000 0.0000 0.0000
# 2 32.1030 90.0690 63.9899 0.0000 0.0000 0.0000
# 3 44.7943 63.9899 124.7866 0.0000 0.0000 0.0000
# 4 0.0000 0.0000 0.0000 23.6843 0.0000 0.0000
# 5 0.0000 0.0000 0.0000 0.0000 19.2019 0.0000
# 6 0.0000 0.0000 0.0000 0.0000 0.0000 14.4928
#
#
#
# Elastic Compliance Matrix: (Units=1/GPa)
#
#
# Indices 1 2 3 4 5 6 
#
# 1 0.037819 -0.006032 -0.010483 0.000000 0.000000 0.000000
# 2 -0.006032 0.018428 -0.007284 0.000000 0.000000 0.000000
# 3 -0.010483 -0.007284 0.015512 0.000000 0.000000 0.000000
# 4 0.000000 0.000000 0.000000 0.042222 0.000000 0.000000
# 5 0.000000 0.000000 0.000000 0.000000 0.052078 0.000000
# 6 0.000000 0.000000 0.000000 0.000000 0.000000 0.069000
#
#
# Mechanical properties :
#
#
# Convention : Reuss Voigt Hill
#
# Bulk Modulus (GPa) = 41.38957 60.06755 50.72856
# Shear Modulus (GPa) = 17.19919 19.33888 18.26903
#
# Velocity S-wave (km/s) = 3.18780 3.38028 3.28545
# Velocity P-wave (km/s) = 6.16475 7.12219 6.66070
#
# Compressibility (1/GPa) = 0.02416067
#
# Stress axis : x y z
#
# Youngs Moduli (GPa) = 26.44144 54.26567 64.46669
#
# Poissons Ratio (x) = 0.32736 0.67577
# Poissons Ratio (y) = 0.15951 0.46959
# Poissons Ratio (z) = 0.27717 0.39528
#
# Static dielectric constant tensor:
#      x y z
#    x 1.574590 0.000000 0.000000 
#    y 0.000000 1.613850 0.000000 
#    z 0.000000 0.000000 1.546110 
# 
# From -- ./inp_files/22261.got.cif
#   From: 2010.05.17/outbox.cif.g08.bks.cpg/sg38_12_cif.got.tgz:22261.got - 2010.06.03 18:07:57.
