data_PCOD9358317
_publ_section_title
;
Structure prediction by ZEFSAII (Michael W. Deem and Ramdas Pophale) SiO2 
 PCOD9358317
Probable space group: A M M 2
;
_chemical_formula_sum "Si O2"
_cell_formula_units_Z 64
_cell_length_a 9.396001
_cell_length_b 29.191811
_cell_length_c 12.939390
_cell_angle_alpha 90.000000
_cell_angle_beta 90.000000
_cell_angle_gamma 90.000000
_cell_volume 3549.097218
_symmetry_space_group_name_H-M "A M M 2"
_symmetry_group_IT_number 38
_symmetry_cell_setting 'orthorhombic'
loop_
_space_group_symop_operation_xyz
x,y,z
-x,-y,z
-x,y,z
x,-y,z
x,1/2+y,1/2+z
-x,1/2-y,1/2+z
-x,1/2+y,1/2+z
x,1/2-y,1/2+z
loop_
_atom_site_type_symbol
_atom_site_label
_atom_site_fract_x
_atom_site_fract_y
_atom_site_fract_z
Si Si1 0.671668 0.875321 0.809510
Si Si2 0.332853 0.555191 0.715797
Si Si3 0.326959 0.552594 0.483823
Si Si4 0.664611 0.749413 0.052121
Si Si5 0.160539 0.784780 0.867359
Si Si6 0.332917 0.642192 0.079287
Si Si7 0.830952 0.880452 0.369405
Si Si8 0.840765 0.797017 0.212283
O O1 0.500000 0.870719 0.813895
O O2 0.715293 0.915347 0.888624
O O3 0.744768 0.828922 0.847176
O O4 0.708504 0.881072 0.688212
O O5 0.500000 0.567526 0.727566
O O6 0.323508 0.500000 0.720185
O O7 0.284534 0.568849 0.599208
O O8 0.241472 0.578861 0.804534
O O9 0.500000 0.551963 0.485904
O O10 0.279692 0.500000 0.470041
O O11 0.500000 0.756326 0.024961
O O12 0.678691 0.697405 0.093297
O O13 0.718754 0.789131 0.128734
O O14 0.766424 0.754396 0.954834
O O15 0.153417 0.751895 0.768866
O O16 0.000000 0.797814 0.896014
O O17 0.500000 0.632548 0.059158
O O18 0.241852 0.627192 0.980467
O O19 0.809799 0.835684 0.296857
O O20 0.000000 0.887095 0.381428
O O21 0.000000 0.806167 0.169044
#
# Coordination Sequence:
#
# PCOD9358317 Si02
#       8
#     8   8   8   8   8   8   8   8
#     4  10  20  36  57  85 114 144 191 236 277 331
#     4   9  19  38  62  87 114 143 180 229 287 343
#     4   8  16  34  61  88 112 139 173 223 284 338
#     4  11  22  35  53  76 108 148 190 236 278 326
#     4  11  22  36  53  76 112 151 189 227 274 335
#     4  10  21  36  54  79 114 150 189 235 278 327
#     4  11  23  38  57  82 113 150 193 232 278 341
#     4  10  22  37  52  75 109 149 188 229 275 330
#
# _framework density 18.032755999999999
#
# number of rings (size 3 to 8) (size 9 to 14) (size 15 to 20)
#    0.000    2.000    2.500    1.875    1.750    2.750 
#    0.000    0.625    0.000    3.375    0.000    0.000 
#    0.000    0.000    0.000    0.000    0.000    0.000 
#
# Total GULP energy -178432.767547 kJ/mol
# GULP energy per Si atom -5576.023986 kJ/mol
# Density = 1.799171 g / cm^3
# Si number density = 18.032756 Si / 1000 Ang^3
#
#
#
# Elastic Constant Matrix: (Units=GPa)
#
#
# Indices 1 2 3 4 5 6 
#
# 1 53.1816 20.3400 43.5636 0.0000 0.0000 0.0000
# 2 20.3400 43.6793 21.8544 0.0000 0.0000 0.0000
# 3 43.5636 21.8544 76.7884 0.0000 0.0000 0.0000
# 4 0.0000 0.0000 0.0000 34.2872 0.0000 0.0000
# 5 0.0000 0.0000 0.0000 0.0000 21.8682 0.0000
# 6 0.0000 0.0000 0.0000 0.0000 0.0000 -10.5436
#
#
#
# Elastic Compliance Matrix: (Units=1/GPa)
#
#
# Indices 1 2 3 4 5 6 
#
# 1 0.037336 -0.007916 -0.018929 0.000000 0.000000 0.000000
# 2 -0.007916 0.028374 -0.003585 0.000000 0.000000 0.000000
# 3 -0.018929 -0.003585 0.024782 0.000000 0.000000 0.000000
# 4 0.000000 0.000000 0.000000 0.029165 0.000000 0.000000
# 5 0.000000 0.000000 0.000000 0.000000 0.045728 0.000000
# 6 0.000000 0.000000 0.000000 0.000000 0.000000 -0.094844
#
#
# Mechanical properties :
#
#
# Convention : Reuss Voigt Hill
#
# Bulk Modulus (GPa) = 33.74538 38.35171 36.04854
# Shear Modulus (GPa) = 35.39122 14.98177 25.18650
#
# Velocity S-wave (km/s) = 4.43494 2.88550 3.74131
# Velocity P-wave (km/s) = 6.70663 5.69346 6.22071
#
# Compressibility (1/GPa) = 0.02963369
#
# Stress axis : x y z
#
# Youngs Moduli (GPa) = 26.78346 35.24395 40.35228
#
# Poissons Ratio (x) = 0.27897 0.76382
# Poissons Ratio (y) = 0.21201 0.14465
# Poissons Ratio (z) = 0.50698 0.12634
#
# Static dielectric constant tensor:
#      x y z
#    x 1.608480 0.000000 0.000000 
#    y 0.000000 1.606790 0.000000 
#    z 0.000000 0.000000 1.642900 
# 
# From -- ./inp_files/8560.got.cif
#   From: 2010.05.17/outbox.cif.g08.bks.cpg/sg38_5_cif.got.tgz:8560.got - 2010.06.03 18:07:57.
