data_PCOD9358933
_publ_section_title
;
Structure prediction by ZEFSAII (Michael W. Deem and Ramdas Pophale) SiO2 
 PCOD9358933
Probable space group: A M M 2
;
_chemical_formula_sum "Si O2"
_cell_formula_units_Z 40
_cell_length_a 12.907910
_cell_length_b 8.853225
_cell_length_c 18.641008
_cell_angle_alpha 90.000000
_cell_angle_beta 90.000000
_cell_angle_gamma 90.000000
_cell_volume 2130.231602
_symmetry_space_group_name_H-M "A M M 2"
_symmetry_group_IT_number 38
_symmetry_cell_setting 'orthorhombic'
loop_
_space_group_symop_operation_xyz
x,y,z
-x,-y,z
-x,y,z
x,-y,z
x,1/2+y,1/2+z
-x,1/2-y,1/2+z
-x,1/2+y,1/2+z
x,1/2-y,1/2+z
loop_
_atom_site_type_symbol
_atom_site_label
_atom_site_fract_x
_atom_site_fract_y
_atom_site_fract_z
Si Si1 0.307447 0.820452 0.148920
Si Si2 0.880104 0.180390 0.389039
Si Si3 0.878910 0.319977 0.234129
Si Si4 0.304997 0.319296 0.992882
Si Si5 0.500000 0.179804 0.734281
Si Si6 0.500000 0.679589 0.890587
O O1 0.198702 0.762248 0.180606
O O2 0.398955 0.746485 0.195393
O O3 0.314023 0.000000 0.154452
O O4 0.317757 0.767222 0.067025
O O5 0.855731 0.265771 0.315174
O O6 0.801113 0.220771 0.451943
O O7 0.000000 0.210629 0.407730
O O8 0.869401 0.000000 0.376007
O O9 0.865590 0.500000 0.228659
O O10 0.000000 0.284159 0.220300
O O11 0.304587 0.500000 0.007395
O O12 0.399182 0.288476 0.938589
O O13 0.500000 0.229773 0.816985
O O14 0.500000 0.000000 0.727997
O O15 0.500000 0.500000 0.873693
#
# Coordination Sequence:
#
# PCOD9358933 Si02
#       6
#     8   8   8   8   4   4
#     4  12  25  40  60  87 121 157 196 243 293 347
#     4   9  18  34  57  84 115 152 193 238 289 345
#     4  10  21  38  61  88 119 156 199 245 291 344
#     4  10  21  37  57  83 117 154 190 233 289 349
#     4  12  25  42  65  89 117 153 195 242 291 348
#     4  10  21  38  61  87 115 149 189 234 287 348
#
# _framework density 18.777301000000001
#
# number of rings (size 3 to 8) (size 9 to 14) (size 15 to 20)
#    0.000    1.600    0.000    5.100    0.000    6.000 
#    0.000    2.000    0.000    0.000    0.000    0.000 
#    0.000    0.000    0.000    0.000    0.000    0.000 
#
# Total GULP energy -111829.104762 kJ/mol
# GULP energy per Si atom -5591.455238 kJ/mol
# Density = 1.873456 g / cm^3
# Si number density = 18.777301 Si / 1000 Ang^3
#
#
#
# Elastic Constant Matrix: (Units=GPa)
#
#
# Indices 1 2 3 4 5 6 
#
# 1 95.6814 71.1222 77.0567 0.0000 0.0000 0.0000
# 2 71.1222 111.4751 89.4348 0.0000 0.0000 0.0000
# 3 77.0567 89.4348 134.3983 0.0000 0.0000 0.0000
# 4 0.0000 0.0000 0.0000 15.3186 0.0000 0.0000
# 5 0.0000 0.0000 0.0000 0.0000 -195.6404 0.0000
# 6 0.0000 0.0000 0.0000 0.0000 0.0000 16.5778
#
#
#
# Elastic Compliance Matrix: (Units=1/GPa)
#
#
# Indices 1 2 3 4 5 6 
#
# 1 0.022768 -0.008695 -0.007267 0.000000 0.000000 0.000000
# 2 -0.008695 0.022566 -0.010031 0.000000 0.000000 0.000000
# 3 -0.007267 -0.010031 0.018282 0.000000 0.000000 0.000000
# 4 0.000000 0.000000 0.000000 0.065280 0.000000 0.000000
# 5 0.000000 0.000000 0.000000 0.000000 -0.005111 0.000000
# 6 0.000000 0.000000 0.000000 0.000000 0.000000 0.060321
#
#
# Mechanical properties :
#
#
# Convention : Reuss Voigt Hill
#
# Bulk Modulus (GPa) = 85.99608 90.75355 88.37481
# Shear Modulus (GPa) = 20.83591 -25.81939 -2.49174
#
# Velocity S-wave (km/s) = 3.33473 -3.71217 -1.15320
# Velocity P-wave (km/s) = 7.79259 5.48296 6.73749
#
# Compressibility (1/GPa) = 0.01162844
#
# Stress axis : x y z
#
# Youngs Moduli (GPa) = 43.92202 44.31413 54.69744
#
# Poissons Ratio (x) = 0.38533 0.39751
# Poissons Ratio (y) = 0.38192 0.54867
# Poissons Ratio (z) = 0.31920 0.44452
#
# Static dielectric constant tensor:
#      x y z
#    x 1.645790 0.000000 0.000000 
#    y 0.000000 1.632220 0.000000 
#    z 0.000000 0.000000 1.603880 
# 
# From -- ./inp_files/14293.got.cif
#   From: 2010.05.17/outbox.cif.g08.bks.cpg/sg38_8_cif.got.tgz:14293.got - 2010.06.03 18:07:57.
