data_PCOD9358572
_publ_section_title
;
Structure prediction by ZEFSAII (Michael W. Deem and Ramdas Pophale) SiO2 
 PCOD9358572
Probable space group: A M M 2
;
_chemical_formula_sum "Si O2"
_cell_formula_units_Z 48
_cell_length_a 17.292217
_cell_length_b 8.561496
_cell_length_c 16.255830
_cell_angle_alpha 90.000000
_cell_angle_beta 90.000000
_cell_angle_gamma 90.000000
_cell_volume 2406.630874
_symmetry_space_group_name_H-M "A M M 2"
_symmetry_group_IT_number 38
_symmetry_cell_setting 'orthorhombic'
loop_
_space_group_symop_operation_xyz
x,y,z
-x,-y,z
-x,y,z
x,-y,z
x,1/2+y,1/2+z
-x,1/2-y,1/2+z
-x,1/2+y,1/2+z
x,1/2-y,1/2+z
loop_
_atom_site_type_symbol
_atom_site_label
_atom_site_fract_x
_atom_site_fract_y
_atom_site_fract_z
Si Si1 0.500000 0.317086 0.108030
Si Si2 0.500000 0.318957 0.429454
Si Si3 0.820793 0.685011 0.107480
Si Si4 0.182712 0.809294 0.425466
Si Si5 0.346365 0.315707 0.858240
Si Si6 0.663182 0.682455 0.664398
Si Si7 0.911203 0.688519 0.764809
O O1 0.500000 0.500000 0.126639
O O2 0.577649 0.240065 0.143073
O O3 0.500000 0.286392 0.010709
O O4 0.500000 0.500000 0.453776
O O5 0.576894 0.278778 0.378909
O O6 0.832950 0.500000 0.111433
O O7 0.730075 0.722103 0.119315
O O8 0.866362 0.761168 0.182886
O O9 0.844058 0.740883 0.016015
O O10 0.271798 0.763632 0.409841
O O11 0.131733 0.756473 0.347988
O O12 0.181950 0.000000 0.424751
O O13 0.360978 0.500000 0.874675
O O14 0.325504 0.301653 0.762321
O O15 0.670920 0.500000 0.642981
O O16 0.910604 0.500000 0.767322
O O17 0.000000 0.741781 0.762874
#
# Coordination Sequence:
#
# PCOD9358572 Si02
#       7
#     4   4   8   8   8   8   8
#     4  12  25  40  57  83 123 165 209 257 310 363
#     4  12  25  38  55  85 121 157 209 261 308 361
#     4  11  22  37  63  95 127 161 203 256 313 371
#     4   9  19  38  62  89 118 160 206 245 300 372
#     4  10  20  38  62  84 116 160 205 250 306 369
#     4  11  22  39  63  89 120 162 210 254 306 369
#     4  10  21  41  66  89 119 161 206 253 310 379
#
# _framework density 19.944894000000001
#
# number of rings (size 3 to 8) (size 9 to 14) (size 15 to 20)
#    0.000    1.500    1.667    4.000    0.000    5.667 
#    0.000    4.167    0.000    0.000    0.000    0.000 
#    0.000    0.000    0.000    0.000    0.000    0.000 
#
# Total GULP energy -134143.547427 kJ/mol
# GULP energy per Si atom -5589.314476 kJ/mol
# Density = 1.989950 g / cm^3
# Si number density = 19.944894 Si / 1000 Ang^3
#
#
#
# Elastic Constant Matrix: (Units=GPa)
#
#
# Indices 1 2 3 4 5 6 
#
# 1 120.0657 2.1116 57.3808 0.0000 0.0000 0.0000
# 2 2.1116 14.2120 13.0475 0.0000 0.0000 0.0000
# 3 57.3808 13.0475 127.4084 0.0000 0.0000 0.0000
# 4 0.0000 0.0000 0.0000 28.2639 0.0000 0.0000
# 5 0.0000 0.0000 0.0000 0.0000 4.5227 0.0000
# 6 0.0000 0.0000 0.0000 0.0000 0.0000 18.4744
#
#
#
# Elastic Compliance Matrix: (Units=1/GPa)
#
#
# Indices 1 2 3 4 5 6 
#
# 1 0.010739 0.003140 -0.005158 0.000000 0.000000 0.000000
# 2 0.003140 0.078583 -0.009461 0.000000 0.000000 0.000000
# 3 -0.005158 -0.009461 0.011141 0.000000 0.000000 0.000000
# 4 0.000000 0.000000 0.000000 0.035381 0.000000 0.000000
# 5 0.000000 0.000000 0.000000 0.000000 0.221105 0.000000
# 6 0.000000 0.000000 0.000000 0.000000 0.000000 0.054129
#
#
# Mechanical properties :
#
#
# Convention : Reuss Voigt Hill
#
# Bulk Modulus (GPa) = 12.90281 45.19622 29.04951
# Shear Modulus (GPa) = 10.87264 22.86195 16.86730
#
# Velocity S-wave (km/s) = 2.33734 3.38931 2.91124
# Velocity P-wave (km/s) = 3.71046 6.16655 5.08890
#
# Compressibility (1/GPa) = 0.07750251
#
# Stress axis : x y z
#
# Youngs Moduli (GPa) = 93.12245 12.72548 89.76154
#
# Poissons Ratio (x) = -0.03995 0.46298
# Poissons Ratio (y) = -0.29237 0.84927
# Poissons Ratio (z) = 0.48031 0.12040
#
# Static dielectric constant tensor:
#      x y z
#    x 1.695760 0.000000 0.000000 
#    y 0.000000 1.678670 0.000000 
#    z 0.000000 0.000000 1.707540 
# 
# From -- ./inp_files/15000.got.cif
#   From: 2010.05.17/outbox.cif.g08.bks.cpg/sg38_8_cif.got.tgz:15000.got - 2010.06.03 18:07:57.
