data_PCOD9358072
_publ_section_title
;
Structure prediction by ZEFSAII (Michael W. Deem and Ramdas Pophale) SiO2 
 PCOD9358072
Probable space group: A M M 2
;
_chemical_formula_sum "Si O2"
_cell_formula_units_Z 48
_cell_length_a 7.832625
_cell_length_b 9.725030
_cell_length_c 35.307109
_cell_angle_alpha 90.000000
_cell_angle_beta 90.000000
_cell_angle_gamma 90.000000
_cell_volume 2689.431223
_symmetry_space_group_name_H-M "A M M 2"
_symmetry_group_IT_number 38
_symmetry_cell_setting 'orthorhombic'
loop_
_space_group_symop_operation_xyz
x,y,z
-x,-y,z
-x,y,z
x,-y,z
x,1/2+y,1/2+z
-x,1/2-y,1/2+z
-x,1/2+y,1/2+z
x,1/2-y,1/2+z
loop_
_atom_site_type_symbol
_atom_site_label
_atom_site_fract_x
_atom_site_fract_y
_atom_site_fract_z
Si Si1 0.705422 0.656246 0.939950
Si Si2 0.500000 0.335160 0.227693
Si Si3 0.196325 0.332866 0.593826
Si Si4 0.705891 0.162216 0.355687
Si Si5 0.795149 0.655429 0.510455
Si Si6 0.807936 0.661742 0.284188
Si Si7 0.500000 0.833563 0.150433
O O1 0.500000 0.650743 0.937976
O O2 0.767615 0.500000 0.945855
O O3 0.763004 0.703649 0.898111
O O4 0.752007 0.751931 0.974771
O O5 0.500000 0.500000 0.220038
O O6 0.334510 0.302431 0.253282
O O7 0.500000 0.247018 0.189703
O O8 0.192362 0.500000 0.592064
O O9 0.257908 0.289154 0.551814
O O10 0.332134 0.296213 0.625863
O O11 0.000000 0.287418 0.600621
O O12 0.500000 0.177029 0.353589
O O13 0.783533 0.250468 0.322091
O O14 0.744319 0.000000 0.351373
O O15 0.727960 0.500000 0.505397
O O16 0.000000 0.647120 0.513010
O O17 0.785394 0.500000 0.293268
O O18 0.000000 0.681528 0.269494
O O19 0.500000 0.000000 0.155826
#
# Coordination Sequence:
#
# PCOD9358072 Si02
#       7
#     8   4   8   8   8   8   4
#     4   9  19  33  48  72 106 142 177 215 259 306
#     4  10  22  40  56  77 112 139 161 210 269 314
#     4   8  16  32  52  77 108 135 168 218 263 301
#     4   9  18  34  54  75 105 142 179 221 265 308
#     4   9  18  32  50  73 102 137 177 220 260 301
#     4  10  21  37  58  81 105 139 178 213 258 316
#     4  10  20  34  58  83 100 133 175 208 257 318
#
# _framework density 17.847639000000001
#
# number of rings (size 3 to 8) (size 9 to 14) (size 15 to 20)
#    0.000    2.833    0.833    2.000    1.167    3.667 
#    0.000    5.833    0.000    1.000    0.000    0.000 
#    0.000    0.000    0.000    0.000    0.000    0.000 
#
# Total GULP energy -133779.628177 kJ/mol
# GULP energy per Si atom -5574.151174 kJ/mol
# Density = 1.780702 g / cm^3
# Si number density = 17.847639 Si / 1000 Ang^3
#
#
#
# Elastic Constant Matrix: (Units=GPa)
#
#
# Indices 1 2 3 4 5 6 
#
# 1 85.1080 35.5624 74.4114 0.0000 0.0000 0.0000
# 2 35.5624 42.7032 71.9098 0.0000 0.0000 0.0000
# 3 74.4114 71.9098 183.0337 0.0000 0.0000 0.0000
# 4 0.0000 0.0000 0.0000 36.6778 0.0000 0.0000
# 5 0.0000 0.0000 0.0000 0.0000 -39.0284 0.0000
# 6 0.0000 0.0000 0.0000 0.0000 0.0000 15.9826
#
#
#
# Elastic Compliance Matrix: (Units=1/GPa)
#
#
# Indices 1 2 3 4 5 6 
#
# 1 0.019199 -0.008407 -0.004503 0.000000 0.000000 0.000000
# 2 -0.008407 0.072878 -0.025214 0.000000 0.000000 0.000000
# 3 -0.004503 -0.025214 0.017200 0.000000 0.000000 0.000000
# 4 0.000000 0.000000 0.000000 0.027264 0.000000 0.000000
# 5 0.000000 0.000000 0.000000 0.000000 -0.025622 0.000000
# 6 0.000000 0.000000 0.000000 0.000000 0.000000 0.062568
#
#
# Mechanical properties :
#
#
# Convention : Reuss Voigt Hill
#
# Bulk Modulus (GPa) = 30.27544 74.95691 52.61618
# Shear Modulus (GPa) = 19.17585 11.32382 15.24983
#
# Velocity S-wave (km/s) = 3.28139 2.52160 2.92626
# Velocity P-wave (km/s) = 5.59971 7.11107 6.40016
#
# Compressibility (1/GPa) = 0.03303007
#
# Stress axis : x y z
#
# Youngs Moduli (GPa) = 52.08570 13.72155 58.13899
#
# Poissons Ratio (x) = 0.11535 0.26177
# Poissons Ratio (y) = 0.43787 1.46594
# Poissons Ratio (z) = 0.23452 0.34598
#
# Static dielectric constant tensor:
#      x y z
#    x 1.649350 0.000000 0.000000 
#    y 0.000000 1.596770 0.000000 
#    z 0.000000 0.000000 1.598680 
# 
# From -- ./inp_files/24342.got.cif
#   From: 2010.05.17/outbox.cif.g08.bks.cpg/sg38_13_cif.got.tgz:24342.got - 2010.06.03 18:07:57.
