data_PCOD9358931
_publ_section_title
;
Structure prediction by ZEFSAII (Michael W. Deem and Ramdas Pophale) SiO2 
 PCOD9358931
Probable space group: A M M 2
;
_chemical_formula_sum "Si O2"
_cell_formula_units_Z 56
_cell_length_a 9.284240
_cell_length_b 20.338976
_cell_length_c 15.610155
_cell_angle_alpha 90.000000
_cell_angle_beta 90.000000
_cell_angle_gamma 90.000000
_cell_volume 2947.695767
_symmetry_space_group_name_H-M "A M M 2"
_symmetry_group_IT_number 38
_symmetry_cell_setting 'orthorhombic'
loop_
_space_group_symop_operation_xyz
x,y,z
-x,-y,z
-x,y,z
x,-y,z
x,1/2+y,1/2+z
-x,1/2-y,1/2+z
-x,1/2+y,1/2+z
x,1/2-y,1/2+z
loop_
_atom_site_type_symbol
_atom_site_label
_atom_site_fract_x
_atom_site_fract_y
_atom_site_fract_z
Si Si1 0.326251 0.421893 0.103970
Si Si2 0.169558 0.683688 0.769854
Si Si3 0.166738 0.190656 0.938372
Si Si4 0.342276 0.926699 0.994860
Si Si5 0.170195 0.675900 0.233036
Si Si6 0.343039 0.573348 0.698616
Si Si7 0.327381 0.680286 0.952513
O O1 0.500000 0.420413 0.112420
O O2 0.284299 0.500000 0.100831
O O3 0.256415 0.379986 0.182077
O O4 0.290079 0.379038 0.018112
O O5 0.212662 0.748082 0.714245
O O6 0.210904 0.619016 0.719677
O O7 0.254620 0.674695 0.859056
O O8 0.000000 0.690355 0.787684
O O9 0.214753 0.121912 0.975910
O O10 0.189766 0.179271 0.836170
O O11 0.263421 0.248583 0.978617
O O12 0.000000 0.206511 0.952148
O O13 0.500000 0.902421 0.963506
O O14 0.320394 0.000000 0.959708
O O15 0.351557 0.931490 0.096808
O O16 0.000000 0.666666 0.215262
O O17 0.500000 0.599733 0.728695
O O18 0.327041 0.500000 0.734504
O O19 0.500000 0.682964 0.946303
#
# Coordination Sequence:
#
# PCOD9358931 Si02
#       7
#     8   8   8   8   8   8   8
#     4  10  23  41  60  85 114 146 190 240 287 339
#     4  10  21  37  57  85 116 147 187 234 284 340
#     4  10  21  37  57  83 115 149 189 236 284 338
#     4   9  19  35  54  80 113 148 188 229 274 333
#     4   9  21  39  56  80 113 147 185 229 280 338
#     4   9  19  35  54  79 112 149 188 228 273 330
#     4  10  21  38  59  83 111 147 189 235 285 338
#
# _framework density 18.997889000000001
#
# number of rings (size 3 to 8) (size 9 to 14) (size 15 to 20)
#    0.000    2.429    0.000    3.000    2.000    7.143 
#    0.000    5.714    0.000    0.000    0.000    0.000 
#    0.000    0.000    0.000    0.000    0.000    0.000 
#
# Total GULP energy -155876.242241 kJ/mol
# GULP energy per Si atom -5567.008651 kJ/mol
# Density = 1.895465 g / cm^3
# Si number density = 18.997889 Si / 1000 Ang^3
#
#
#
# Elastic Constant Matrix: (Units=GPa)
#
#
# Indices 1 2 3 4 5 6 
#
# 1 71.2312 59.7068 32.4044 0.0000 0.0000 0.0000
# 2 59.7068 130.3071 44.9044 0.0000 0.0000 0.0000
# 3 32.4044 44.9044 40.5345 0.0000 0.0000 0.0000
# 4 0.0000 0.0000 0.0000 37.8071 0.0000 0.0000
# 5 0.0000 0.0000 0.0000 0.0000 24.4011 0.0000
# 6 0.0000 0.0000 0.0000 0.0000 0.0000 24.8164
#
#
#
# Elastic Compliance Matrix: (Units=1/GPa)
#
#
# Indices 1 2 3 4 5 6 
#
# 1 0.026117 -0.007718 -0.012328 0.000000 0.000000 0.000000
# 2 -0.007718 0.014694 -0.010108 0.000000 0.000000 0.000000
# 3 -0.012328 -0.010108 0.045723 0.000000 0.000000 0.000000
# 4 0.000000 0.000000 0.000000 0.026450 0.000000 0.000000
# 5 0.000000 0.000000 0.000000 0.000000 0.040982 0.000000
# 6 0.000000 0.000000 0.000000 0.000000 0.000000 0.040296
#
#
# Mechanical properties :
#
#
# Convention : Reuss Voigt Hill
#
# Bulk Modulus (GPa) = 38.13074 57.34489 47.73782
# Shear Modulus (GPa) = 18.98897 24.40873 21.69885
#
# Velocity S-wave (km/s) = 3.16496 3.58832 3.38327
# Velocity P-wave (km/s) = 5.78538 6.88610 6.35960
#
# Compressibility (1/GPa) = 0.02622556
#
# Stress axis : x y z
#
# Youngs Moduli (GPa) = 38.28986 68.05526 21.87090
#
# Poissons Ratio (x) = 0.52528 0.26962
# Poissons Ratio (y) = 0.29554 0.22106
# Poissons Ratio (z) = 0.47203 0.68788
#
# Static dielectric constant tensor:
#      x y z
#    x 1.665790 0.000000 0.000000 
#    y 0.000000 1.721090 0.000000 
#    z 0.000000 0.000000 1.694260 
# 
# From -- ./inp_files/12384.got.cif
#   From: 2010.05.17/outbox.cif.g08.bks.cpg/sg38_7_cif.got.tgz:12384.got - 2010.06.03 18:07:57.
