data_PCOD9358485
_publ_section_title
;
Structure prediction by ZEFSAII (Michael W. Deem and Ramdas Pophale) SiO2 
 PCOD9358485
Probable space group: A M M 2
;
_chemical_formula_sum "Si O2"
_cell_formula_units_Z 64
_cell_length_a 8.672233
_cell_length_b 28.774959
_cell_length_c 12.811247
_cell_angle_alpha 90.000000
_cell_angle_beta 90.000000
_cell_angle_gamma 90.000000
_cell_volume 3196.958919
_symmetry_space_group_name_H-M "A M M 2"
_symmetry_group_IT_number 38
_symmetry_cell_setting 'orthorhombic'
loop_
_space_group_symop_operation_xyz
x,y,z
-x,-y,z
-x,y,z
x,-y,z
x,1/2+y,1/2+z
-x,1/2-y,1/2+z
-x,1/2+y,1/2+z
x,1/2-y,1/2+z
loop_
_atom_site_type_symbol
_atom_site_label
_atom_site_fract_x
_atom_site_fract_y
_atom_site_fract_z
Si Si1 0.182368 0.292682 0.663060
Si Si2 0.818342 0.380806 0.785312
Si Si3 0.314123 0.947139 0.462260
Si Si4 0.678254 0.302185 0.226400
Si Si5 0.676708 0.331954 0.455158
Si Si6 0.821752 0.572105 0.407663
Si Si7 0.685773 0.910010 0.689639
Si Si8 0.319312 0.551169 0.622004
O O1 0.229025 0.327974 0.756959
O O2 0.217943 0.239243 0.685544
O O3 0.276396 0.307296 0.560811
O O4 0.000000 0.299792 0.645518
O O5 0.739775 0.408595 0.879592
O O6 0.778737 0.410392 0.681560
O O7 0.000000 0.381004 0.804613
O O8 0.500000 0.947815 0.459372
O O9 0.268315 0.932287 0.579636
O O10 0.260268 0.000000 0.439429
O O11 0.500000 0.295357 0.192982
O O12 0.681824 0.300633 0.352207
O O13 0.723578 0.354733 0.193666
O O14 0.500000 0.350312 0.461731
O O15 0.794211 0.373508 0.432202
O O16 0.760261 0.565666 0.290483
O O17 0.723819 0.549798 0.500503
O O18 0.000000 0.559249 0.416108
O O19 0.500000 0.913095 0.700548
O O20 0.500000 0.561363 0.635526
O O21 0.289002 0.500000 0.667534
#
# Coordination Sequence:
#
# PCOD9358485 Si02
#       8
#     8   8   8   8   8   8   8   8
#     4  11  23  37  57  87 120 157 200 250 310 369
#     4  11  24  40  58  85 121 158 199 251 310 369
#     4  10  22  41  65  90 119 161 210 258 308 368
#     4   9  20  37  58  86 116 155 203 250 302 360
#     4  10  20  37  60  82 112 154 196 243 297 357
#     4  11  21  35  58  88 119 151 189 240 304 362
#     4   9  20  40  62  86 120 160 206 253 301 363
#     4  11  23  38  59  86 115 152 197 242 292 355
#
# _framework density 20.019024000000002
#
# number of rings (size 3 to 8) (size 9 to 14) (size 15 to 20)
#    0.000    1.750    1.250    3.750    0.000    8.750 
#    0.000    5.000    0.000    0.000    0.000    0.000 
#    0.000    0.000    0.000    0.000    0.000    0.000 
#
# Total GULP energy -178663.019357 kJ/mol
# GULP energy per Si atom -5583.219355 kJ/mol
# Density = 1.997346 g / cm^3
# Si number density = 20.019024 Si / 1000 Ang^3
#
#
#
# Elastic Constant Matrix: (Units=GPa)
#
#
# Indices 1 2 3 4 5 6 
#
# 1 30.0377 8.1620 9.4561 0.0000 0.0000 0.0000
# 2 8.1620 43.0709 10.3510 0.0000 0.0000 0.0000
# 3 9.4561 10.3510 88.0499 0.0000 0.0000 0.0000
# 4 0.0000 0.0000 0.0000 14.4168 0.0000 0.0000
# 5 0.0000 0.0000 0.0000 0.0000 4.3412 0.0000
# 6 0.0000 0.0000 0.0000 0.0000 0.0000 59.7808
#
#
#
# Elastic Compliance Matrix: (Units=1/GPa)
#
#
# Indices 1 2 3 4 5 6 
#
# 1 0.035927 -0.006052 -0.003147 0.000000 0.000000 0.000000
# 2 -0.006052 0.024912 -0.002279 0.000000 0.000000 0.000000
# 3 -0.003147 -0.002279 0.011963 0.000000 0.000000 0.000000
# 4 0.000000 0.000000 0.000000 0.069364 0.000000 0.000000
# 5 0.000000 0.000000 0.000000 0.000000 0.230349 0.000000
# 6 0.000000 0.000000 0.000000 0.000000 0.000000 0.016728
#
#
# Mechanical properties :
#
#
# Convention : Reuss Voigt Hill
#
# Bulk Modulus (GPa) = 20.06148 24.12186 22.09167
# Shear Modulus (GPa) = 11.66011 24.58705 18.12358
#
# Velocity S-wave (km/s) = 2.41602 3.50835 3.01211
# Velocity P-wave (km/s) = 4.22207 5.33732 4.81211
#
# Compressibility (1/GPa) = 0.04984677
#
# Stress axis : x y z
#
# Youngs Moduli (GPa) = 27.83454 40.14133 83.59087
#
# Poissons Ratio (x) = 0.24293 0.26305
# Poissons Ratio (y) = 0.16845 0.19048
# Poissons Ratio (z) = 0.08759 0.09147
#
# Static dielectric constant tensor:
#      x y z
#    x 1.675850 0.000000 0.000000 
#    y 0.000000 1.737100 0.000000 
#    z 0.000000 0.000000 1.702010 
# 
# From -- ./inp_files/8524.got.cif
#   From: 2010.05.17/outbox.cif.g08.bks.cpg/sg38_5_cif.got.tgz:8524.got - 2010.06.03 18:07:57.
