data_PCOD9358759
_publ_section_title
;
Structure prediction by ZEFSAII (Michael W. Deem and Ramdas Pophale) SiO2 
 PCOD9358759
Probable space group: A M M 2
;
_chemical_formula_sum "Si O2"
_cell_formula_units_Z 64
_cell_length_a 21.253886
_cell_length_b 18.067820
_cell_length_c 8.258985
_cell_angle_alpha 90.000000
_cell_angle_beta 90.000000
_cell_angle_gamma 90.000000
_cell_volume 3171.544281
_symmetry_space_group_name_H-M "A M M 2"
_symmetry_group_IT_number 38
_symmetry_cell_setting 'orthorhombic'
loop_
_space_group_symop_operation_xyz
x,y,z
-x,-y,z
-x,y,z
x,-y,z
x,1/2+y,1/2+z
-x,1/2-y,1/2+z
-x,1/2+y,1/2+z
x,1/2-y,1/2+z
loop_
_atom_site_type_symbol
_atom_site_label
_atom_site_fract_x
_atom_site_fract_y
_atom_site_fract_z
Si Si1 0.931426 0.195102 0.122610
Si Si2 0.802934 0.192567 0.947364
Si Si3 0.068374 0.358463 0.994000
Si Si4 0.800024 0.644116 0.078290
Si Si5 0.429486 0.306443 0.892040
Si Si6 0.673540 0.081663 0.459783
Si Si7 0.300122 0.918726 0.075065
Si Si8 0.570800 0.354944 0.514653
O O1 0.869357 0.170178 0.028756
O O2 0.931287 0.284177 0.104270
O O3 0.928513 0.170414 0.308717
O O4 0.000000 0.170361 0.056978
O O5 0.794844 0.280738 0.971014
O O6 0.746237 0.146993 0.026686
O O7 0.803900 0.172521 0.760464
O O8 0.134705 0.396283 0.031975
O O9 0.000000 0.395476 0.015870
O O10 0.737725 0.597093 0.053353
O O11 0.500000 0.321302 0.954762
O O12 0.377700 0.354544 0.984194
O O13 0.418608 0.219351 0.911641
O O14 0.428221 0.329195 0.703445
O O15 0.690794 0.083141 0.268820
O O16 0.648139 0.000000 0.496923
O O17 0.369166 0.907294 0.997435
O O18 0.274990 0.000000 0.029916
O O19 0.500000 0.383943 0.482389
#
# Coordination Sequence:
#
# PCOD9358759 Si02
#       8
#     8   8   8   8   8   8   8   8
#     4   9  16  27  46  73 103 132 165 208 257 306
#     4  11  21  33  52  76 104 137 174 215 257 305
#     4   9  16  27  46  73 103 132 165 208 257 306
#     4  11  21  33  52  76 104 137 174 215 257 305
#     4   9  18  33  54  79 104 132 168 209 254 304
#     4  10  21  36  53  74 103 138 174 214 259 306
#     4  10  21  36  53  74 103 138 174 214 259 306
#     4   9  18  33  54  79 104 132 168 209 254 304
#
# _framework density 20.179444
#
# number of rings (size 3 to 8) (size 9 to 14) (size 15 to 20)
#    0.000    2.250    0.000    5.250    0.000    5.500 
#    0.000    2.500    0.000    0.750    0.000   10.500 
#    0.000    0.000    0.000    0.000    0.000    0.000 
#
# Total GULP energy -178548.824354 kJ/mol
# GULP energy per Si atom -5579.650761 kJ/mol
# Density = 2.013351 g / cm^3
# Si number density = 20.179444 Si / 1000 Ang^3
#
#
#
# Elastic Constant Matrix: (Units=GPa)
#
#
# Indices 1 2 3 4 5 6 
#
# 1 80.9135 19.1463 1.7463 0.0000 0.0000 0.0000
# 2 19.1463 28.3290 -2.1346 0.0000 0.0000 0.0000
# 3 1.7463 -2.1346 26.2396 0.0000 0.0000 0.0000
# 4 0.0000 0.0000 0.0000 9.5867 0.0000 0.0000
# 5 0.0000 0.0000 0.0000 0.0000 19.0679 0.0000
# 6 0.0000 0.0000 0.0000 0.0000 0.0000 -4.2563
#
#
#
# Elastic Compliance Matrix: (Units=1/GPa)
#
#
# Indices 1 2 3 4 5 6 
#
# 1 0.014797 -0.010137 -0.001809 0.000000 0.000000 0.000000
# 2 -0.010137 0.042461 0.004129 0.000000 0.000000 0.000000
# 3 -0.001809 0.004129 0.038567 0.000000 0.000000 0.000000
# 4 0.000000 0.000000 0.000000 0.104311 0.000000 0.000000
# 5 0.000000 0.000000 0.000000 0.000000 0.052444 0.000000
# 6 0.000000 0.000000 0.000000 0.000000 0.000000 -0.234945
#
#
# Mechanical properties :
#
#
# Convention : Reuss Voigt Hill
#
# Bulk Modulus (GPa) = 12.47031 19.22201 15.84616
# Shear Modulus (GPa) = 83.33335 12.66126 47.99730
#
# Velocity S-wave (km/s) = 6.43318 2.50758 4.88230
# Velocity P-wave (km/s) = 7.83417 4.23440 6.29700
#
# Compressibility (1/GPa) = 0.08019047
#
# Stress axis : x y z
#
# Youngs Moduli (GPa) = 67.58348 23.55075 25.92916
#
# Poissons Ratio (x) = 0.23872 0.04692
# Poissons Ratio (y) = 0.68507 -0.10706
# Poissons Ratio (z) = 0.12228 -0.09724
#
# Static dielectric constant tensor:
#      x y z
#    x 1.766460 0.000000 0.000000 
#    y 0.000000 1.699000 0.000000 
#    z 0.000000 0.000000 1.714780 
# 
# From -- ./inp_files/6875.got.cif
#   From: 2010.05.17/outbox.cif.g08.bks.cpg/sg38_4_cif.got.tgz:6875.got - 2010.06.03 18:07:57.
