data_PCOD9358139
_publ_section_title
;
Structure prediction by ZEFSAII (Michael W. Deem and Ramdas Pophale) SiO2 
 PCOD9358139
Probable space group: A M M 2
;
_chemical_formula_sum "Si O2"
_cell_formula_units_Z 58
_cell_length_a 23.844098
_cell_length_b 14.583309
_cell_length_c 6.801382
_cell_angle_alpha 90.000000
_cell_angle_beta 90.000000
_cell_angle_gamma 90.000000
_cell_volume 2365.016330
_symmetry_space_group_name_H-M "A M M 2"
_symmetry_group_IT_number 38
_symmetry_cell_setting 'orthorhombic'
loop_
_space_group_symop_operation_xyz
x,y,z
-x,-y,z
-x,y,z
x,-y,z
x,1/2+y,1/2+z
-x,1/2-y,1/2+z
-x,1/2+y,1/2+z
x,1/2-y,1/2+z
loop_
_atom_site_type_symbol
_atom_site_label
_atom_site_fract_x
_atom_site_fract_y
_atom_site_fract_z
Si Si1 0.627302 0.754976 0.228000
Si Si2 0.000000 0.000000 0.703039
Si Si3 0.716063 0.759611 0.478242
Si Si4 0.803793 0.397291 0.977551
Si Si5 0.566998 0.893272 0.969583
Si Si6 0.078514 0.152778 0.522800
Si Si7 0.938076 0.635057 0.565790
Si Si8 0.810035 0.102616 0.009250
O O1 0.699316 0.767535 0.224653
O O2 0.592928 0.662264 0.284510
O O3 0.644128 0.731260 0.979611
O O4 0.590974 0.843947 0.166432
O O5 0.048350 0.919140 0.660602
O O6 0.744132 0.856907 0.522640
O O7 0.766295 0.682389 0.447962
O O8 0.812765 0.500000 0.041819
O O9 0.855174 0.339774 0.060928
O O10 0.808002 0.394037 0.744475
O O11 0.500000 0.885729 0.966410
O O12 0.583321 0.000000 0.964875
O O13 0.057469 0.256030 0.538488
O O14 0.068133 0.118055 0.300074
O O15 0.877388 0.610068 0.474839
O O16 0.000000 0.593420 0.511149
O O17 0.790751 0.000000 0.951148
#
# Coordination Sequence:
#
# PCOD9358139 Si02
#       8
#     8   2   8   8   8   8   8   8
#     4  10  23  38  66  99 134 172 217 263 306 373
#     4  12  20  36  60  86  98 140 204 246 298 392
#     4  11  20  38  59  88 126 164 208 260 308 365
#     4  10  20  35  55  82 111 155 201 247 305 375
#     4  10  22  44  72 102 140 179 216 260 312 367
#     4  11  22  35  59  79 107 140 189 245 310 375
#     4  11  21  36  59  82 108 145 192 255 321 380
#     4  10  22  36  59  82 115 158 209 259 321 384
#
# _framework density 24.524145000000001
#
# number of rings (size 3 to 8) (size 9 to 14) (size 15 to 20)
#    0.000    1.517    4.828    0.414    0.966    3.586 
#    0.000    2.069    1.517    8.276    0.000    0.000 
#    0.000    0.000    0.000    0.000    0.000    0.000 
#
# Total GULP energy -161562.820316 kJ/mol
# GULP energy per Si atom -5571.131735 kJ/mol
# Density = 2.446833 g / cm^3
# Si number density = 24.524145 Si / 1000 Ang^3
#
#
#
# Elastic Constant Matrix: (Units=GPa)
#
#
# Indices 1 2 3 4 5 6 
#
# 1 157.2308 75.6147 45.8118 0.0000 0.0000 0.0000
# 2 75.6147 155.9333 -6.9038 0.0000 0.0000 0.0000
# 3 45.8118 -6.9038 167.7524 0.0000 0.0000 0.0000
# 4 0.0000 0.0000 0.0000 -8.6467 0.0000 0.0000
# 5 0.0000 0.0000 0.0000 0.0000 41.0220 0.0000
# 6 0.0000 0.0000 0.0000 0.0000 0.0000 -32.9354
#
#
#
# Elastic Compliance Matrix: (Units=1/GPa)
#
#
# Indices 1 2 3 4 5 6 
#
# 1 0.009422 -0.004691 -0.002766 0.000000 0.000000 0.000000
# 2 -0.004691 0.008761 0.001642 0.000000 0.000000 0.000000
# 3 -0.002766 0.001642 0.006784 0.000000 0.000000 0.000000
# 4 0.000000 0.000000 0.000000 -0.115650 0.000000 0.000000
# 5 0.000000 0.000000 0.000000 0.000000 0.024377 0.000000
# 6 0.000000 0.000000 0.000000 0.000000 0.000000 -0.030362
#
#
# Mechanical properties :
#
#
# Convention : Reuss Voigt Hill
#
# Bulk Modulus (GPa) = 74.98961 78.88465 76.93713
# Shear Modulus (GPa) = -62.04114 24.31422 -18.86346
#
# Velocity S-wave (km/s) = -5.03517 3.15213 -2.77642
# Velocity P-wave (km/s) = 1.77753 6.74417 4.60023
#
# Compressibility (1/GPa) = 0.01333518
#
# Stress axis : x y z
#
# Youngs Moduli (GPa) = 106.13151 114.14654 147.40204
#
# Poissons Ratio (x) = 0.53552 0.40775
# Poissons Ratio (y) = 0.49791 -0.24200
# Poissons Ratio (z) = 0.29358 -0.18740
#
# Static dielectric constant tensor:
#      x y z
#    x 1.901990 0.000000 0.000000 
#    y 0.000000 1.848490 0.000000 
#    z 0.000000 0.000000 2.223660 
# 
# From -- ./inp_files/6959.got.cif
#   From: 2010.05.17/outbox.cif.g08.bks.cpg/sg38_4_cif.got.tgz:6959.got - 2010.06.03 18:07:57.
