data_PCOD9358559
_publ_section_title
;
Structure prediction by ZEFSAII (Michael W. Deem and Ramdas Pophale) SiO2 
 PCOD9358559
Probable space group: A M M 2
;
_chemical_formula_sum "Si O2"
_cell_formula_units_Z 56
_cell_length_a 24.316345
_cell_length_b 7.883441
_cell_length_c 15.008668
_cell_angle_alpha 90.000000
_cell_angle_beta 90.000000
_cell_angle_gamma 90.000000
_cell_volume 2877.108692
_symmetry_space_group_name_H-M "A M M 2"
_symmetry_group_IT_number 38
_symmetry_cell_setting 'orthorhombic'
loop_
_space_group_symop_operation_xyz
x,y,z
-x,-y,z
-x,y,z
x,-y,z
x,1/2+y,1/2+z
-x,1/2-y,1/2+z
-x,1/2+y,1/2+z
x,1/2-y,1/2+z
loop_
_atom_site_type_symbol
_atom_site_label
_atom_site_fract_x
_atom_site_fract_y
_atom_site_fract_z
Si Si1 0.937658 0.000000 0.913180
Si Si2 0.438722 0.295830 0.706363
Si Si3 0.140198 0.310217 0.701118
Si Si4 0.772508 0.301336 0.064409
Si Si5 0.645737 0.205618 0.058849
Si Si6 0.062685 0.000000 0.696223
Si Si7 0.438709 0.795883 0.911553
Si Si8 0.857236 0.697523 0.912108
O O1 0.903971 0.168262 0.938855
O O2 0.939638 0.000000 0.804671
O O3 0.000000 0.000000 0.946330
O O4 0.500000 0.234382 0.679979
O O5 0.439887 0.500000 0.698999
O O6 0.389731 0.235121 0.643771
O O7 0.430105 0.249635 0.808912
O O8 0.117152 0.500000 0.691953
O O9 0.194807 0.294604 0.642110
O O10 0.097276 0.166645 0.670834
O O11 0.152759 0.282627 0.806104
O O12 0.779662 0.500000 0.083137
O O13 0.708351 0.262629 0.059622
O O14 0.803671 0.265199 0.971416
O O15 0.646371 0.000000 0.058746
O O16 0.610389 0.265215 0.973884
O O17 0.000000 0.000000 0.663363
O O18 0.500000 0.734188 0.937807
O O19 0.439927 0.000000 0.919318
O O20 0.872874 0.500000 0.927107
#
# Coordination Sequence:
#
# PCOD9358559 Si02
#       8
#     4   8   8   8   8   4   8   8
#     4   9  18  34  62  90 113 147 190 233 281 339
#     4   9  18  34  55  78 108 143 180 227 282 339
#     4  10  20  38  61  84 114 155 192 232 290 344
#     4  11  23  39  57  79 114 150 191 244 286 336
#     4  10  21  35  53  79 105 145 189 228 279 341
#     4   9  18  36  60  90 119 147 190 239 283 337
#     4   9  18  34  55  79 109 142 181 230 281 337
#     4   9  21  38  58  83 115 152 188 233 287 338
#
# _framework density 19.463984
#
# number of rings (size 3 to 8) (size 9 to 14) (size 15 to 20)
#    0.000    2.429    0.714    0.857    2.000    4.571 
#    0.000    7.857    0.000    4.286    0.000    0.000 
#    0.000    0.000    0.000    0.000    0.000    0.000 
#
# Total GULP energy -156268.022745 kJ/mol
# GULP energy per Si atom -5581.000812 kJ/mol
# Density = 1.941968 g / cm^3
# Si number density = 19.463984 Si / 1000 Ang^3
#
#
#
# Elastic Constant Matrix: (Units=GPa)
#
#
# Indices 1 2 3 4 5 6 
#
# 1 188.5941 61.1621 73.7394 0.0000 0.0000 0.0000
# 2 61.1621 70.2286 39.8362 0.0000 0.0000 0.0000
# 3 73.7394 39.8362 69.5234 0.0000 0.0000 0.0000
# 4 0.0000 0.0000 0.0000 20.4502 0.0000 0.0000
# 5 0.0000 0.0000 0.0000 0.0000 26.9282 0.0000
# 6 0.0000 0.0000 0.0000 0.0000 0.0000 21.1625
#
#
#
# Elastic Compliance Matrix: (Units=1/GPa)
#
#
# Indices 1 2 3 4 5 6 
#
# 1 0.009724 -0.003879 -0.008091 0.000000 0.000000 0.000000
# 2 -0.003879 0.022643 -0.008860 0.000000 0.000000 0.000000
# 3 -0.008091 -0.008860 0.028042 0.000000 0.000000 0.000000
# 4 0.000000 0.000000 0.000000 0.048899 0.000000 0.000000
# 5 0.000000 0.000000 0.000000 0.000000 0.037136 0.000000
# 6 0.000000 0.000000 0.000000 0.000000 0.000000 0.047253
#
#
# Mechanical properties :
#
#
# Convention : Reuss Voigt Hill
#
# Bulk Modulus (GPa) = 53.33613 75.31349 64.32481
# Shear Modulus (GPa) = 20.69476 23.94874 22.32175
#
# Velocity S-wave (km/s) = 3.26426 3.51153 3.39015
# Velocity P-wave (km/s) = 6.45517 7.43094 6.96018
#
# Compressibility (1/GPa) = 0.01874902
#
# Stress axis : x y z
#
# Youngs Moduli (GPa) = 102.83930 44.16328 35.66099
#
# Poissons Ratio (x) = 0.17131 0.28853
# Poissons Ratio (y) = 0.39893 0.31596
# Poissons Ratio (z) = 0.83206 0.39129
#
# Static dielectric constant tensor:
#      x y z
#    x 1.647090 0.000000 0.000000 
#    y 0.000000 1.706920 0.000000 
#    z 0.000000 0.000000 1.680230 
# 
# From -- ./inp_files/15555.got.cif
#   From: 2010.05.17/outbox.cif.g08.bks.cpg/sg38_8_cif.got.tgz:15555.got - 2010.06.03 18:07:57.
