data_PCOD9358599
_publ_section_title
;
Structure prediction by ZEFSAII (Michael W. Deem and Ramdas Pophale) SiO2 
 PCOD9358599
Probable space group: A M M 2
;
_chemical_formula_sum "Si O2"
_cell_formula_units_Z 48
_cell_length_a 7.561610
_cell_length_b 10.192507
_cell_length_c 29.012484
_cell_angle_alpha 90.000000
_cell_angle_beta 90.000000
_cell_angle_gamma 90.000000
_cell_volume 2236.043287
_symmetry_space_group_name_H-M "A M M 2"
_symmetry_group_IT_number 38
_symmetry_cell_setting 'orthorhombic'
loop_
_space_group_symop_operation_xyz
x,y,z
-x,-y,z
-x,y,z
x,-y,z
x,1/2+y,1/2+z
-x,1/2-y,1/2+z
-x,1/2+y,1/2+z
x,1/2-y,1/2+z
loop_
_atom_site_type_symbol
_atom_site_label
_atom_site_fract_x
_atom_site_fract_y
_atom_site_fract_z
Si Si1 0.211201 0.651657 0.366650
Si Si2 0.286457 0.349194 0.949591
Si Si3 0.289766 0.268857 0.050807
Si Si4 0.285905 0.000000 0.720826
Si Si5 0.210030 0.000000 0.101507
Si Si6 0.204178 0.264655 0.772266
Si Si7 0.283581 0.500000 0.115442
Si Si8 0.782668 0.000000 0.207863
O O1 0.277468 0.500000 0.369921
O O2 0.239305 0.741847 0.411224
O O3 0.283857 0.731270 0.322310
O O4 0.000000 0.640467 0.359707
O O5 0.500000 0.354175 0.950651
O O6 0.225892 0.500000 0.940937
O O7 0.221385 0.299192 0.999611
O O8 0.500000 0.289947 0.047638
O O9 0.261752 0.126608 0.072010
O O10 0.221414 0.373690 0.087549
O O11 0.214680 0.127961 0.745727
O O12 0.500000 0.000000 0.723431
O O13 0.228516 0.000000 0.667989
O O14 0.278926 0.000000 0.154504
O O15 0.000000 0.000000 0.105346
O O16 0.277354 0.374658 0.737798
O O17 0.000000 0.304046 0.780170
O O18 0.500000 0.500000 0.116133
O O19 0.000000 0.000000 0.205775
#
# Coordination Sequence:
#
# PCOD9358599 Si02
#       8
#     8   8   8   4   4   8   4   4
#     4  10  22  39  60  87 115 148 190 235 284 338
#     4  10  22  40  62  87 113 146 190 237 285 339
#     4  10  20  39  62  82 110 153 194 229 277 344
#     4  11  21  33  56  89 116 144 183 235 290 331
#     4  11  23  37  54  87 124 150 185 239 286 327
#     4  10  20  39  61  81 111 154 195 230 275 342
#     4   9  18  35  60  85 111 144 188 237 280 333
#     4   9  20  37  60  85 113 152 196 235 278 331
#
# _framework density 21.466491000000001
#
# number of rings (size 3 to 8) (size 9 to 14) (size 15 to 20)
#    0.000    2.000    1.667    1.500    2.333    2.000 
#    0.000    2.500    0.000    0.000    0.000    0.000 
#    0.000    0.000    0.000    0.000    0.000    0.000 
#
# Total GULP energy -134001.620440 kJ/mol
# GULP energy per Si atom -5583.400852 kJ/mol
# Density = 2.141763 g / cm^3
# Si number density = 21.466491 Si / 1000 Ang^3
#
#
#
# Elastic Constant Matrix: (Units=GPa)
#
#
# Indices 1 2 3 4 5 6 
#
# 1 50.3726 -21.9541 -10.6859 0.0000 0.0000 0.0000
# 2 -21.9541 127.2249 49.9591 0.0000 0.0000 0.0000
# 3 -10.6859 49.9591 167.1673 0.0000 0.0000 0.0000
# 4 0.0000 0.0000 0.0000 34.5638 0.0000 0.0000
# 5 0.0000 0.0000 0.0000 0.0000 12.6673 0.0000
# 6 0.0000 0.0000 0.0000 0.0000 0.0000 1285.0595
#
#
#
# Elastic Compliance Matrix: (Units=1/GPa)
#
#
# Indices 1 2 3 4 5 6 
#
# 1 0.021480 0.003589 0.000301 0.000000 0.000000 0.000000
# 2 0.003589 0.009505 -0.002611 0.000000 0.000000 0.000000
# 3 0.000301 -0.002611 0.006782 0.000000 0.000000 0.000000
# 4 0.000000 0.000000 0.000000 0.028932 0.000000 0.000000
# 5 0.000000 0.000000 0.000000 0.000000 0.078943 0.000000
# 6 0.000000 0.000000 0.000000 0.000000 0.000000 0.000778
#
#
# Mechanical properties :
#
#
# Convention : Reuss Voigt Hill
#
# Bulk Modulus (GPa) = 24.80024 42.15586 33.47805
# Shear Modulus (GPa) = 31.78551 288.28782 160.03667
#
# Velocity S-wave (km/s) = 3.85217 11.60122 8.64371
# Velocity P-wave (km/s) = 5.60033 14.11140 10.73534
#
# Compressibility (1/GPa) = 0.04032219
#
# Stress axis : x y z
#
# Youngs Moduli (GPa) = 46.55522 105.21115 147.45766
#
# Poissons Ratio (x) = -0.37756 -0.04433
# Poissons Ratio (y) = -0.16707 0.38503
# Poissons Ratio (z) = -0.01399 0.27472
#
# Static dielectric constant tensor:
#      x y z
#    x 1.829190 0.000000 0.000000 
#    y 0.000000 1.745760 0.000000 
#    z 0.000000 0.000000 1.765260 
# 
# From -- ./inp_files/24454.got.cif
#   From: 2010.05.17/outbox.cif.g08.bks.cpg/sg38_13_cif.got.tgz:24454.got - 2010.06.03 18:07:57.
