data_PCOD9358212
_publ_section_title
;
Structure prediction by ZEFSAII (Michael W. Deem and Ramdas Pophale) SiO2 
 PCOD9358212
Probable space group: A M M 2
;
_chemical_formula_sum "Si O2"
_cell_formula_units_Z 64
_cell_length_a 24.576001
_cell_length_b 8.031412
_cell_length_c 15.639649
_cell_angle_alpha 90.000000
_cell_angle_beta 90.000000
_cell_angle_gamma 90.000000
_cell_volume 3086.953753
_symmetry_space_group_name_H-M "A M M 2"
_symmetry_group_IT_number 38
_symmetry_cell_setting 'orthorhombic'
loop_
_space_group_symop_operation_xyz
x,y,z
-x,-y,z
-x,y,z
x,-y,z
x,1/2+y,1/2+z
-x,1/2-y,1/2+z
-x,1/2+y,1/2+z
x,1/2-y,1/2+z
loop_
_atom_site_type_symbol
_atom_site_label
_atom_site_fract_x
_atom_site_fract_y
_atom_site_fract_z
Si Si1 0.628764 0.307626 0.594670
Si Si2 0.878637 0.798630 0.843356
Si Si3 0.357101 0.703641 0.399586
Si Si4 0.236329 0.701617 0.419897
Si Si5 0.438745 0.698007 0.253865
Si Si6 0.745678 0.690600 0.113155
Si Si7 0.858957 0.695111 0.662830
Si Si8 0.061426 0.296410 0.514050
O O1 0.613113 0.500000 0.589904
O O2 0.629459 0.241577 0.496873
O O3 0.589003 0.223799 0.662074
O O4 0.690929 0.293810 0.628009
O O5 0.817720 0.746052 0.871122
O O6 0.890138 0.724205 0.751082
O O7 0.918678 0.748796 0.919655
O O8 0.879509 0.000000 0.837054
O O9 0.357936 0.500000 0.400451
O O10 0.294487 0.750647 0.380297
O O11 0.399235 0.764431 0.328609
O O12 0.235074 0.500000 0.426071
O O13 0.236261 0.770518 0.516056
O O14 0.500000 0.766534 0.256957
O O15 0.442125 0.500000 0.268101
O O16 0.729256 0.500000 0.122808
O O17 0.799364 0.723870 0.167990
O O18 0.849647 0.500000 0.647864
O O19 0.895029 0.761123 0.584352
O O20 0.061858 0.500000 0.516950
O O21 0.000000 0.241355 0.531486
#
# Coordination Sequence:
#
# PCOD9358212 Si02
#       8
#     8   8   8   8   8   8   8   8
#     4  10  21  38  59  85 115 151 193 239 292 346
#     4  10  20  35  57  86 116 151 193 237 288 347
#     4   8  17  34  56  79 109 148 187 224 276 344
#     4   9  17  34  57  82 114 151 190 235 289 348
#     4  10  21  37  57  83 114 152 197 240 284 344
#     4  11  21  35  58  86 118 153 192 238 296 352
#     4  11  22  37  57  86 119 153 195 240 291 348
#     4   9  19  38  61  81 112 159 200 238 291 352
#
# _framework density 20.732413000000001
#
# number of rings (size 3 to 8) (size 9 to 14) (size 15 to 20)
#    0.000    2.250    1.250    2.625    1.750    1.750 
#    0.000    4.375    0.000    2.625    0.000    0.000 
#    0.000    0.000    0.000    0.000    0.000    0.000 
#
# Total GULP energy -178660.210390 kJ/mol
# GULP energy per Si atom -5583.131575 kJ/mol
# Density = 2.068522 g / cm^3
# Si number density = 20.732413 Si / 1000 Ang^3
#
#
#
# Elastic Constant Matrix: (Units=GPa)
#
#
# Indices 1 2 3 4 5 6 
#
# 1 83.9071 -2.0754 12.0925 0.0000 0.0000 0.0000
# 2 -2.0754 14.8566 -6.0040 0.0000 0.0000 0.0000
# 3 12.0925 -6.0040 41.3534 0.0000 0.0000 0.0000
# 4 0.0000 0.0000 0.0000 24.4078 0.0000 0.0000
# 5 0.0000 0.0000 0.0000 0.0000 21.5294 0.0000
# 6 0.0000 0.0000 0.0000 0.0000 0.0000 11.2303
#
#
#
# Elastic Compliance Matrix: (Units=1/GPa)
#
#
# Indices 1 2 3 4 5 6 
#
# 1 0.012443 0.000284 -0.003597 0.000000 0.000000 0.000000
# 2 0.000284 0.071512 0.010300 0.000000 0.000000 0.000000
# 3 -0.003597 0.010300 0.026729 0.000000 0.000000 0.000000
# 4 0.000000 0.000000 0.000000 0.040970 0.000000 0.000000
# 5 0.000000 0.000000 0.000000 0.000000 0.046448 0.000000
# 6 0.000000 0.000000 0.000000 0.000000 0.000000 0.089044
#
#
# Mechanical properties :
#
#
# Convention : Reuss Voigt Hill
#
# Bulk Modulus (GPa) = 8.02196 16.46036 12.24116
# Shear Modulus (GPa) = 15.88678 20.50711 18.19695
#
# Velocity S-wave (km/s) = 2.77117 3.14846 2.96582
# Velocity P-wave (km/s) = 3.75725 4.60149 4.20063
#
# Compressibility (1/GPa) = 0.12465785
#
# Stress axis : x y z
#
# Youngs Moduli (GPa) = 80.36367 13.98366 37.41236
#
# Poissons Ratio (x) = -0.00398 0.13459
# Poissons Ratio (y) = -0.02286 -0.38533
# Poissons Ratio (z) = 0.28910 -0.14402
#
# Static dielectric constant tensor:
#      x y z
#    x 1.736430 0.000000 0.000000 
#    y 0.000000 1.751480 0.000000 
#    z 0.000000 0.000000 1.742920 
# 
# From -- ./inp_files/15843.got.cif
#   From: 2010.05.17/outbox.cif.g08.bks.cpg/sg38_8_cif.got.tgz:15843.got - 2010.06.03 18:07:57.
