data_PCOD9358860
_publ_section_title
;
Structure prediction by ZEFSAII (Michael W. Deem and Ramdas Pophale) SiO2 
 PCOD9358860
Probable space group: A M M 2
;
_chemical_formula_sum "Si O2"
_cell_formula_units_Z 48
_cell_length_a 8.572767
_cell_length_b 17.286342
_cell_length_c 17.394929
_cell_angle_alpha 90.000000
_cell_angle_beta 90.000000
_cell_angle_gamma 90.000000
_cell_volume 2577.785531
_symmetry_space_group_name_H-M "A M M 2"
_symmetry_group_IT_number 38
_symmetry_cell_setting 'orthorhombic'
loop_
_space_group_symop_operation_xyz
x,y,z
-x,-y,z
-x,y,z
x,-y,z
x,1/2+y,1/2+z
-x,1/2-y,1/2+z
-x,1/2+y,1/2+z
x,1/2-y,1/2+z
loop_
_atom_site_type_symbol
_atom_site_label
_atom_site_fract_x
_atom_site_fract_y
_atom_site_fract_z
Si Si1 0.189368 0.178182 0.316080
Si Si2 0.685400 0.500000 0.551791
Si Si3 0.189115 0.589946 0.968910
Si Si4 0.811209 0.000000 0.879091
Si Si5 0.685728 0.183838 0.614049
Si Si6 0.187495 0.646766 0.643703
Si Si7 0.811254 0.851371 0.779850
O O1 0.242875 0.131254 0.390230
O O2 0.237205 0.143618 0.233533
O O3 0.235293 0.268526 0.315967
O O4 0.000000 0.176411 0.316991
O O5 0.500000 0.500000 0.552869
O O6 0.744809 0.500000 0.464427
O O7 0.747540 0.424199 0.595464
O O8 0.234207 0.500000 0.969668
O O9 0.000000 0.593627 0.971233
O O10 0.254347 0.634773 0.042224
O O11 0.763767 0.923549 0.831919
O O12 0.000000 0.000000 0.883910
O O13 0.500000 0.188156 0.613704
O O14 0.755310 0.270526 0.612442
O O15 0.743291 0.146508 0.694156
O O16 0.000000 0.645342 0.641190
O O17 0.000000 0.851808 0.773636
#
# Coordination Sequence:
#
# PCOD9358860 Si02
#       7
#     8   4   8   4   8   8   8
#     4   8  17  35  61  88 111 144 196 253 297 340
#     4  12  26  40  58  93 132 159 192 243 306 363
#     4  10  21  36  59  88 118 154 200 251 296 352
#     4  10  22  38  62  91 116 155 208 251 292 355
#     4  11  23  39  59  87 123 159 196 244 310 366
#     4  10  21  41  67  89 115 157 206 249 293 353
#     4   9  19  38  61  87 115 151 202 249 294 355
#
# _framework density 18.620633000000002
#
# number of rings (size 3 to 8) (size 9 to 14) (size 15 to 20)
#    0.000    2.167    0.000    3.750    4.667    1.000 
#    0.000    4.167    0.000    0.000    0.000    0.000 
#    0.000    0.000    0.000    0.000    0.000    0.000 
#
# Total GULP energy -134038.759040 kJ/mol
# GULP energy per Si atom -5584.948293 kJ/mol
# Density = 1.857825 g / cm^3
# Si number density = 18.620633 Si / 1000 Ang^3
#
#
#
# Elastic Constant Matrix: (Units=GPa)
#
#
# Indices 1 2 3 4 5 6 
#
# 1 47.9832 52.7593 49.9063 0.0000 0.0000 0.0000
# 2 52.7593 172.7473 157.4905 0.0000 0.0000 0.0000
# 3 49.9063 157.4905 196.7096 0.0000 0.0000 0.0000
# 4 0.0000 0.0000 0.0000 30.7923 0.0000 0.0000
# 5 0.0000 0.0000 0.0000 0.0000 -4.7559 0.0000
# 6 0.0000 0.0000 0.0000 0.0000 0.0000 14.7408
#
#
#
# Elastic Compliance Matrix: (Units=1/GPa)
#
#
# Indices 1 2 3 4 5 6 
#
# 1 0.031438 -0.008627 -0.001069 0.000000 0.000000 0.000000
# 2 -0.008627 0.023801 -0.016867 0.000000 0.000000 0.000000
# 3 -0.001069 -0.016867 0.018859 0.000000 0.000000 0.000000
# 4 0.000000 0.000000 0.000000 0.032476 0.000000 0.000000
# 5 0.000000 0.000000 0.000000 0.000000 -0.210265 0.000000
# 6 0.000000 0.000000 0.000000 0.000000 0.000000 0.067839
#
#
# Mechanical properties :
#
#
# Convention : Reuss Voigt Hill
#
# Bulk Modulus (GPa) = 47.68223 104.19470 75.93847
# Shear Modulus (GPa) = 206.07075 18.64103 112.35589
#
# Velocity S-wave (km/s) = 10.53130 3.16744 7.77627
# Velocity P-wave (km/s) = 13.17347 8.33397 11.02260
#
# Compressibility (1/GPa) = 0.02097217
#
# Stress axis : x y z
#
# Youngs Moduli (GPa) = 31.80832 42.01578 53.02606
#
# Poissons Ratio (x) = 0.36247 0.05669
# Poissons Ratio (y) = 0.27441 0.89437
# Poissons Ratio (z) = 0.03400 0.70866
#
# Static dielectric constant tensor:
#      x y z
#    x 1.622580 0.000000 0.000000 
#    y 0.000000 1.622490 0.000000 
#    z 0.000000 0.000000 1.616930 
# 
# From -- ./inp_files/12132.got.cif
#   From: 2010.05.17/outbox.cif.g08.bks.cpg/sg38_7_cif.got.tgz:12132.got - 2010.06.03 18:07:57.
