data_PCOD9358639
_publ_section_title
;
Structure prediction by ZEFSAII (Michael W. Deem and Ramdas Pophale) SiO2 
 PCOD9358639
Probable space group: A M M 2
;
_chemical_formula_sum "Si O2"
_cell_formula_units_Z 56
_cell_length_a 14.107910
_cell_length_b 7.358553
_cell_length_c 22.425409
_cell_angle_alpha 90.000000
_cell_angle_beta 90.000000
_cell_angle_gamma 90.000000
_cell_volume 2328.067002
_symmetry_space_group_name_H-M "A M M 2"
_symmetry_group_IT_number 38
_symmetry_cell_setting 'orthorhombic'
loop_
_space_group_symop_operation_xyz
x,y,z
-x,-y,z
-x,y,z
x,-y,z
x,1/2+y,1/2+z
-x,1/2-y,1/2+z
-x,1/2+y,1/2+z
x,1/2-y,1/2+z
loop_
_atom_site_type_symbol
_atom_site_label
_atom_site_fract_x
_atom_site_fract_y
_atom_site_fract_z
Si Si1 0.608887 0.220667 0.975010
Si Si2 0.391784 0.722955 0.213854
Si Si3 0.109883 0.281347 0.770934
Si Si4 0.804708 0.708139 0.023061
Si Si5 0.784495 0.713377 0.148179
Si Si6 0.112561 0.780702 0.400359
Si Si7 0.384617 0.210188 0.843687
O O1 0.500000 0.275939 0.987089
O O2 0.690393 0.285953 0.018827
O O3 0.638568 0.287846 0.908427
O O4 0.609264 0.000000 0.974038
O O5 0.500000 0.777545 0.204221
O O6 0.390683 0.500000 0.215872
O O7 0.319213 0.786906 0.164211
O O8 0.357256 0.787135 0.279441
O O9 0.112052 0.500000 0.772203
O O10 0.158706 0.226116 0.709724
O O11 0.149362 0.217188 0.835384
O O12 0.000000 0.224838 0.768739
O O13 0.839802 0.500000 0.021727
O O14 0.841771 0.791461 0.961202
O O15 0.829709 0.789179 0.087602
O O16 0.772758 0.500000 0.135661
O O17 0.000000 0.744828 0.402108
O O18 0.124665 0.000000 0.399780
O O19 0.500000 0.212048 0.842220
O O20 0.355479 0.000000 0.844600
#
# Coordination Sequence:
#
# PCOD9358639 Si02
#       7
#     8   8   8   8   8   8   8
#     4   9  18  32  50  73 102 140 183 220 257 303
#     4   8  14  26  44  67  99 137 172 206 249 303
#     4   9  19  37  59  78  98 132 176 217 260 313
#     4  10  21  34  50  78 111 141 173 210 259 315
#     4  10  21  33  50  81 112 137 170 213 262 310
#     4   8  16  34  57  76  98 135 178 213 254 316
#     4   7  11  22  41  64  88 119 164 211 250 289
#
# _framework density 24.054292
#
# number of rings (size 3 to 8) (size 9 to 14) (size 15 to 20)
#    0.000    3.286    0.000    2.571    2.000    2.286 
#    0.000    2.857    0.000    1.714    0.000    0.000 
#    0.000    0.000    0.000    0.000    0.000    0.000 
#
# Total GULP energy -156247.061940 kJ/mol
# GULP energy per Si atom -5580.252212 kJ/mol
# Density = 2.399954 g / cm^3
# Si number density = 24.054292 Si / 1000 Ang^3
#
#
#
# Elastic Constant Matrix: (Units=GPa)
#
#
# Indices 1 2 3 4 5 6 
#
# 1 59.3712 -4.6065 61.7635 0.0000 0.0000 0.0000
# 2 -4.6065 92.1687 5.5893 0.0000 0.0000 0.0000
# 3 61.7635 5.5893 220.6379 0.0000 0.0000 0.0000
# 4 0.0000 0.0000 0.0000 -1.6746 0.0000 0.0000
# 5 0.0000 0.0000 0.0000 0.0000 19.1467 0.0000
# 6 0.0000 0.0000 0.0000 0.0000 0.0000 10.2549
#
#
#
# Elastic Compliance Matrix: (Units=1/GPa)
#
#
# Indices 1 2 3 4 5 6 
#
# 1 0.023999 0.001609 -0.006759 0.000000 0.000000 0.000000
# 2 0.001609 0.010974 -0.000729 0.000000 0.000000 0.000000
# 3 -0.006759 -0.000729 0.006443 0.000000 0.000000 0.000000
# 4 0.000000 0.000000 0.000000 -0.597149 0.000000 0.000000
# 5 0.000000 0.000000 0.000000 0.000000 0.052228 0.000000
# 6 0.000000 0.000000 0.000000 0.000000 0.000000 0.097515
#
#
# Mechanical properties :
#
#
# Convention : Reuss Voigt Hill
#
# Bulk Modulus (GPa) = 33.71522 55.29673 44.50597
# Shear Modulus (GPa) = -13.00908 26.17416 6.58254
#
# Velocity S-wave (km/s) = -2.32808 3.30226 1.65604
# Velocity P-wave (km/s) = 2.61154 6.13010 4.71159
#
# Compressibility (1/GPa) = 0.02966020
#
# Stress axis : x y z
#
# Youngs Moduli (GPa) = 41.66786 91.12213 155.21187
#
# Poissons Ratio (x) = -0.14665 1.04907
# Poissons Ratio (y) = -0.06706 0.11307
# Poissons Ratio (z) = 0.28163 0.06638
#
# Static dielectric constant tensor:
#      x y z
#    x 1.907520 0.000000 0.000000 
#    y 0.000000 1.917040 0.000000 
#    z 0.000000 0.000000 1.979070 
# 
# From -- ./inp_files/21067.got.cif
#   From: 2010.05.17/outbox.cif.g08.bks.cpg/sg38_11_cif.got.tgz:21067.got - 2010.06.03 18:07:57.
