data_PCOD9358803
_publ_section_title
;
Structure prediction by ZEFSAII (Michael W. Deem and Ramdas Pophale) SiO2 
 PCOD9358803
Probable space group: A M M 2
;
_chemical_formula_sum "Si O2"
_cell_formula_units_Z 34
_cell_length_a 7.641035
_cell_length_b 14.015839
_cell_length_c 12.593218
_cell_angle_alpha 90.000000
_cell_angle_beta 90.000000
_cell_angle_gamma 90.000000
_cell_volume 1348.677184
_symmetry_space_group_name_H-M "A M M 2"
_symmetry_group_IT_number 38
_symmetry_cell_setting 'orthorhombic'
loop_
_space_group_symop_operation_xyz
x,y,z
-x,-y,z
-x,y,z
x,-y,z
x,1/2+y,1/2+z
-x,1/2-y,1/2+z
-x,1/2+y,1/2+z
x,1/2-y,1/2+z
loop_
_atom_site_type_symbol
_atom_site_label
_atom_site_fract_x
_atom_site_fract_y
_atom_site_fract_z
Si Si1 0.702476 0.359148 0.712200
Si Si2 0.708404 0.177107 0.987525
Si Si3 0.798528 0.102741 0.446802
Si Si4 0.703459 0.634242 0.253505
Si Si5 0.000000 0.000000 0.665960
O O1 0.500000 0.391610 0.716079
O O2 0.779018 0.371529 0.594487
O O3 0.792415 0.395418 0.818306
O O4 0.700593 0.245197 0.724990
O O5 0.500000 0.163976 0.991630
O O6 0.733326 0.292658 0.981805
O O7 0.765570 0.131117 0.876667
O O8 0.000000 0.095526 0.480859
O O9 0.714257 0.000000 0.477178
O O10 0.500000 0.602948 0.245406
O O11 0.843526 0.581025 0.183249
#
# Coordination Sequence:
#
# PCOD9358803 Si02
#       5
#     8   8   8   8   2
#     4   9  19  38  61  81 107 148 190 232 289 342
#     4   9  19  38  61  81 107 148 190 232 289 342
#     4  10  21  36  54  86 119 145 183 237 282 336
#     4   9  20  38  57  83 116 146 190 239 278 343
#     4  12  22  36  56  82 110 162 190 224 292 330
#
# _framework density 25.209886999999998
#
# number of rings (size 3 to 8) (size 9 to 14) (size 15 to 20)
#    0.000    2.588    0.000    2.471    6.588    2.824 
#    4.235    0.000    0.000    0.000    0.000    0.000 
#    0.000    0.000    0.000    0.000    0.000    0.000 
#
# Total GULP energy -94736.498420 kJ/mol
# GULP energy per Si atom -5572.735201 kJ/mol
# Density = 2.515251 g / cm^3
# Si number density = 25.209887 Si / 1000 Ang^3
#
#
#
# Elastic Constant Matrix: (Units=GPa)
#
#
# Indices 1 2 3 4 5 6 
#
# 1 92.4796 13.9701 14.4473 0.0000 0.0000 0.0000
# 2 13.9701 113.7110 1.9636 0.0000 0.0000 0.0000
# 3 14.4473 1.9636 173.1311 0.0000 0.0000 0.0000
# 4 0.0000 0.0000 0.0000 -54.4737 0.0000 0.0000
# 5 0.0000 0.0000 0.0000 0.0000 35.1067 0.0000
# 6 0.0000 0.0000 0.0000 0.0000 0.0000 -16.6312
#
#
#
# Elastic Compliance Matrix: (Units=1/GPa)
#
#
# Indices 1 2 3 4 5 6 
#
# 1 0.011161 -0.001355 -0.000916 0.000000 0.000000 0.000000
# 2 -0.001355 0.008961 0.000011 0.000000 0.000000 0.000000
# 3 -0.000916 0.000011 0.005852 0.000000 0.000000 0.000000
# 4 0.000000 0.000000 0.000000 -0.018357 0.000000 0.000000
# 5 0.000000 0.000000 0.000000 0.000000 0.028485 0.000000
# 6 0.000000 0.000000 0.000000 0.000000 0.000000 -0.060128
#
#
# Mechanical properties :
#
#
# Convention : Reuss Voigt Hill
#
# Bulk Modulus (GPa) = 46.61120 48.89818 47.75469
# Shear Modulus (GPa) = -404.66187 16.06309 -194.29939
#
# Velocity S-wave (km/s) = -12.68328 2.52697 -8.78863
# Velocity P-wave (km/s) = 13.99850 5.28703 9.16530
#
# Compressibility (1/GPa) = 0.02145407
#
# Stress axis : x y z
#
# Youngs Moduli (GPa) = 89.59746 111.60037 170.87370
#
# Poissons Ratio (x) = 0.15126 0.15652
# Poissons Ratio (y) = 0.12144 -0.00196
# Poissons Ratio (z) = 0.08207 -0.00128
#
# Static dielectric constant tensor:
#      x y z
#    x 1.909130 0.000000 0.000000 
#    y 0.000000 2.017100 0.000000 
#    z 0.000000 0.000000 2.167170 
# 
# From -- ./inp_files/11482.got.cif
#   From: 2010.05.17/outbox.cif.g08.bks.cpg/sg38_6_cif.got.tgz:11482.got - 2010.06.03 18:07:57.
