data_PCOD9358382
_publ_section_title
;
Structure prediction by ZEFSAII (Michael W. Deem and Ramdas Pophale) SiO2 
 PCOD9358382
Probable space group: A M M 2
;
_chemical_formula_sum "Si O2"
_cell_formula_units_Z 52
_cell_length_a 13.708451
_cell_length_b 21.795058
_cell_length_c 9.416117
_cell_angle_alpha 90.000000
_cell_angle_beta 90.000000
_cell_angle_gamma 90.000000
_cell_volume 2813.314336
_symmetry_space_group_name_H-M "A M M 2"
_symmetry_group_IT_number 38
_symmetry_cell_setting 'orthorhombic'
loop_
_space_group_symop_operation_xyz
x,y,z
-x,-y,z
-x,y,z
x,-y,z
x,1/2+y,1/2+z
-x,1/2-y,1/2+z
-x,1/2+y,1/2+z
x,1/2-y,1/2+z
loop_
_atom_site_type_symbol
_atom_site_label
_atom_site_fract_x
_atom_site_fract_y
_atom_site_fract_z
Si Si1 0.250001 0.500000 0.009501
Si Si2 0.384936 0.786293 0.367731
Si Si3 0.614759 0.609326 0.098319
Si Si4 0.228432 0.841140 0.161664
Si Si5 0.884936 0.713707 0.151270
Si Si6 0.271568 0.841139 0.857338
Si Si7 0.885241 0.109326 0.420683
O O1 0.334187 0.446002 0.017270
O O2 0.165814 0.446002 0.001731
O O3 0.500000 0.780486 0.338274
O O4 0.372135 0.827802 0.508374
O O5 0.326965 0.820046 0.241360
O O6 0.335257 0.720232 0.384867
O O7 0.500000 0.599629 0.116363
O O8 0.668524 0.617280 0.248453
O O9 0.164743 0.779768 0.134134
O O10 0.168523 0.882720 0.270548
O O11 0.250000 0.870199 0.009501
O O12 0.826966 0.679954 0.277643
O O13 0.000000 0.719515 0.180727
O O14 0.872135 0.672198 0.010628
O O15 0.000000 0.099628 0.402641
#
# Coordination Sequence:
#
# PCOD9358382 Si02
#       7
#     4   8   8   8   8   8   8
#     4  12  22  44  66  86 110 164 218 246 274 356
#     4  10  20  36  59  88 123 163 203 246 303 367
#     4  11  23  41  65  90 120 162 208 250 297 357
#     4  11  21  35  58  92 128 153 194 254 317 367
#     4  10  20  36  59  88 123 163 203 246 303 367
#     4  11  21  35  58  92 128 153 194 254 317 367
#     4  11  23  41  65  90 120 162 208 250 297 357
#
# _framework density 18.483537999999999
#
# number of rings (size 3 to 8) (size 9 to 14) (size 15 to 20)
#    0.000    1.231    3.077    5.077    0.000    4.923 
#    0.000    0.769    0.000    0.000    0.000    0.000 
#    0.000    0.000    0.000    0.000    0.000    0.000 
#
# Total GULP energy -144786.578113 kJ/mol
# GULP energy per Si atom -5568.714543 kJ/mol
# Density = 1.844147 g / cm^3
# Si number density = 18.483538 Si / 1000 Ang^3
#
#
#
# Elastic Constant Matrix: (Units=GPa)
#
#
# Indices 1 2 3 4 5 6 
#
# 1 146.9392 10.4699 34.1510 0.0000 0.0000 0.0000
# 2 10.4699 43.7927 -12.9901 0.0000 0.0000 0.0000
# 3 34.1510 -12.9901 75.8905 0.0000 0.0000 0.0000
# 4 0.0000 0.0000 0.0000 -13.9136 0.0000 0.0000
# 5 0.0000 0.0000 0.0000 0.0000 20.3530 0.0000
# 6 0.0000 0.0000 0.0000 0.0000 0.0000 63.7759
#
#
#
# Elastic Compliance Matrix: (Units=1/GPa)
#
#
# Indices 1 2 3 4 5 6 
#
# 1 0.007989 -0.003136 -0.004132 0.000000 0.000000 0.000000
# 2 -0.003136 0.025287 0.005739 0.000000 0.000000 0.000000
# 3 -0.004132 0.005739 0.016019 0.000000 0.000000 0.000000
# 4 0.000000 0.000000 0.000000 -0.071872 0.000000 0.000000
# 5 0.000000 0.000000 0.000000 0.000000 0.049133 0.000000
# 6 0.000000 0.000000 0.000000 0.000000 0.000000 0.015680
#
#
# Mechanical properties :
#
#
# Convention : Reuss Voigt Hill
#
# Bulk Modulus (GPa) = 21.62698 36.65376 29.14037
# Shear Modulus (GPa) = 82.36594 29.70918 56.03756
#
# Velocity S-wave (km/s) = 6.68270 4.01350 5.51211
# Velocity P-wave (km/s) = 8.44220 6.43049 7.50406
#
# Compressibility (1/GPa) = 0.04623855
#
# Stress axis : x y z
#
# Youngs Moduli (GPa) = 125.16744 39.54602 62.42707
#
# Poissons Ratio (x) = 0.12400 0.25795
# Poissons Ratio (y) = 0.39249 -0.35830
# Poissons Ratio (z) = 0.51719 -0.22697
#
# Static dielectric constant tensor:
#      x y z
#    x 1.634880 0.000000 0.000000 
#    y 0.000000 1.489660 0.000000 
#    z 0.000000 0.000000 1.672810 
# 
# From -- ./inp_files/5645.got.cif
#   From: 2010.05.17/outbox.cif.g08.bks.cpg/sg38_3_cif.got.tgz:5645.got - 2010.06.03 18:07:57.
