data_PCOD9358239
_publ_section_title
;
Structure prediction by ZEFSAII (Michael W. Deem and Ramdas Pophale) SiO2 
 PCOD9358239
Probable space group: A M M 2
;
_chemical_formula_sum "Si O2"
_cell_formula_units_Z 64
_cell_length_a 16.162442
_cell_length_b 7.838440
_cell_length_c 24.250019
_cell_angle_alpha 90.000000
_cell_angle_beta 90.000000
_cell_angle_gamma 90.000000
_cell_volume 3072.194455
_symmetry_space_group_name_H-M "A M M 2"
_symmetry_group_IT_number 38
_symmetry_cell_setting 'orthorhombic'
loop_
_space_group_symop_operation_xyz
x,y,z
-x,-y,z
-x,y,z
x,-y,z
x,1/2+y,1/2+z
-x,1/2-y,1/2+z
-x,1/2+y,1/2+z
x,1/2-y,1/2+z
loop_
_atom_site_type_symbol
_atom_site_label
_atom_site_fract_x
_atom_site_fract_y
_atom_site_fract_z
Si Si1 0.908314 0.704828 0.067460
Si Si2 0.247769 0.702936 0.996750
Si Si3 0.749818 0.297254 0.370012
Si Si4 0.909669 0.797346 0.807268
Si Si5 0.344443 0.293488 0.687062
Si Si6 0.592220 0.206289 0.067895
Si Si7 0.847376 0.795592 0.188197
Si Si8 0.590729 0.703395 0.306170
O O1 0.909463 0.500000 0.061336
O O2 0.890112 0.743083 0.131371
O O3 0.000000 0.769729 0.052268
O O4 0.831290 0.770899 0.031270
O O5 0.239110 0.500000 0.992915
O O6 0.249764 0.773299 0.935146
O O7 0.332855 0.740501 0.028675
O O8 0.749686 0.500000 0.358231
O O9 0.832527 0.225077 0.341574
O O10 0.666874 0.225615 0.341768
O O11 0.891161 0.773679 0.742644
O O12 0.000000 0.724584 0.820838
O O13 0.912922 0.000000 0.818240
O O14 0.345817 0.500000 0.687834
O O15 0.386895 0.237035 0.630272
O O16 0.248504 0.237926 0.687527
O O17 0.389014 0.231081 0.741970
O O18 0.500000 0.264557 0.051729
O O19 0.591489 0.000000 0.068167
O O20 0.848052 0.000000 0.191425
O O21 0.500000 0.774644 0.319345
O O22 0.587439 0.500000 0.316008
#
# Coordination Sequence:
#
# PCOD9358239 Si02
#       8
#     8   8   8   8   8   8   8   8
#     4  10  22  40  60  83 115 155 192 230 285 349
#     4  11  24  40  60  85 114 148 194 246 291 334
#     4  10  22  40  59  80 112 151 194 238 282 335
#     4  10  21  38  60  85 115 153 192 230 280 342
#     4  10  20  35  58  87 119 151 184 226 283 341
#     4  10  21  39  62  86 116 155 192 229 283 347
#     4  11  21  34  58  90 120 149 186 234 285 337
#     4  10  21  37  59  86 113 147 190 231 277 335
#
# _framework density 20.832014999999998
#
# number of rings (size 3 to 8) (size 9 to 14) (size 15 to 20)
#    0.000    1.750    2.500    1.500    0.000    6.500 
#    0.000    1.250    0.000    0.000    0.000    0.000 
#    0.000    0.000    0.000    0.000    0.000    0.000 
#
# Total GULP energy -178808.130360 kJ/mol
# GULP energy per Si atom -5587.754074 kJ/mol
# Density = 2.078460 g / cm^3
# Si number density = 20.832015 Si / 1000 Ang^3
#
#
#
# Elastic Constant Matrix: (Units=GPa)
#
#
# Indices 1 2 3 4 5 6 
#
# 1 223.3516 8.6308 80.3645 0.0000 0.0000 0.0000
# 2 8.6308 20.8005 -18.1335 0.0000 0.0000 0.0000
# 3 80.3645 -18.1335 118.1878 0.0000 0.0000 0.0000
# 4 0.0000 0.0000 0.0000 -0.1990 0.0000 0.0000
# 5 0.0000 0.0000 0.0000 0.0000 144.7593 0.0000
# 6 0.0000 0.0000 0.0000 0.0000 0.0000 8.9838
#
#
#
# Elastic Compliance Matrix: (Units=1/GPa)
#
#
# Indices 1 2 3 4 5 6 
#
# 1 0.006929 -0.008061 -0.005948 0.000000 0.000000 0.000000
# 2 -0.008061 0.064876 0.015435 0.000000 0.000000 0.000000
# 3 -0.005948 0.015435 0.014874 0.000000 0.000000 0.000000
# 4 0.000000 0.000000 0.000000 -5.024694 0.000000 0.000000
# 5 0.000000 0.000000 0.000000 0.000000 0.006908 0.000000
# 6 0.000000 0.000000 0.000000 0.000000 0.000000 0.111311
#
#
# Mechanical properties :
#
#
# Convention : Reuss Voigt Hill
#
# Bulk Modulus (GPa) = 11.16926 56.00708 33.58817
# Shear Modulus (GPa) = -1.04323 50.14069 24.54873
#
# Velocity S-wave (km/s) = -0.70843 4.91134 3.43653
# Velocity P-wave (km/s) = 2.16888 7.68799 5.64842
#
# Compressibility (1/GPa) = 0.08953148
#
# Stress axis : x y z
#
# Youngs Moduli (GPa) = 144.32125 15.41392 67.23159
#
# Poissons Ratio (x) = 0.12425 0.39991
# Poissons Ratio (y) = 1.16333 -1.03772
# Poissons Ratio (z) = 0.85846 -0.23791
#
# Static dielectric constant tensor:
#      x y z
#    x 1.779870 0.000000 0.000000 
#    y 0.000000 1.755440 0.000000 
#    z 0.000000 0.000000 1.682640 
# 
# From -- ./inp_files/22883.got.cif
#   From: 2010.05.17/outbox.cif.g08.bks.cpg/sg38_12_cif.got.tgz:22883.got - 2010.06.03 18:07:57.
