data_PCOD9358426
_publ_section_title
;
Structure prediction by ZEFSAII (Michael W. Deem and Ramdas Pophale) SiO2 
 PCOD9358426
Probable space group: A M M 2
;
_chemical_formula_sum "Si O2"
_cell_formula_units_Z 64
_cell_length_a 8.372622
_cell_length_b 31.928470
_cell_length_c 12.295855
_cell_angle_alpha 90.000000
_cell_angle_beta 90.000000
_cell_angle_gamma 90.000000
_cell_volume 3286.989565
_symmetry_space_group_name_H-M "A M M 2"
_symmetry_group_IT_number 38
_symmetry_cell_setting 'orthorhombic'
loop_
_space_group_symop_operation_xyz
x,y,z
-x,-y,z
-x,y,z
x,-y,z
x,1/2+y,1/2+z
-x,1/2-y,1/2+z
-x,1/2+y,1/2+z
x,1/2-y,1/2+z
loop_
_atom_site_type_symbol
_atom_site_label
_atom_site_fract_x
_atom_site_fract_y
_atom_site_fract_z
Si Si1 0.693678 0.570461 0.142970
Si Si2 0.190945 0.126406 0.017096
Si Si3 0.695203 0.546123 0.903009
Si Si4 0.309143 0.373678 0.763941
Si Si5 0.809849 0.797546 0.410038
Si Si6 0.693400 0.046197 0.882844
Si Si7 0.806614 0.296918 0.366281
Si Si8 0.691212 0.668391 0.137745
O O1 0.500000 0.566796 0.142910
O O2 0.747862 0.551270 0.257250
O O3 0.734971 0.619428 0.142658
O O4 0.747901 0.551291 0.028582
O O5 0.248042 0.126406 0.141028
O O6 0.000000 0.127293 0.016064
O O7 0.246722 0.084819 0.954053
O O8 0.248902 0.167735 0.951926
O O9 0.500000 0.547425 0.903516
O O10 0.742552 0.500000 0.862492
O O11 0.749817 0.585431 0.830999
O O12 0.500000 0.375972 0.761989
O O13 0.260794 0.331681 0.827586
O O14 0.751525 0.750130 0.391704
O O15 0.767025 0.811385 0.531513
O O16 0.000000 0.797807 0.395627
O O17 0.500000 0.047902 0.883029
O O18 0.741523 0.000000 0.922928
O O19 0.748911 0.309999 0.247437
O O20 0.000000 0.297006 0.368116
O O21 0.500000 0.670885 0.129040
#
# Coordination Sequence:
#
# PCOD9358426 Si02
#       8
#     8   8   8   8   8   8   8   8
#     4   9  16  31  56  89 123 148 184 240 298 350
#     4  11  24  42  61  84 118 162 205 250 307 367
#     4   9  17  32  57  87 118 151 188 236 295 355
#     4  11  23  40  61  90 121 154 203 257 304 354
#     4  11  24  42  63  87 122 164 203 241 297 368
#     4  10  20  36  61  91 121 157 201 248 301 360
#     4  10  24  43  62  85 117 161 205 243 295 367
#     4  11  21  37  64  95 123 151 195 253 304 349
#
# _framework density 19.470704000000001
#
# number of rings (size 3 to 8) (size 9 to 14) (size 15 to 20)
#    0.000    1.750    2.500    1.875    1.750    3.750 
#    0.000    1.250    0.000    1.125    0.000    0.000 
#    0.000    0.000    0.000    0.000    0.000    0.000 
#
# Total GULP energy -178745.081173 kJ/mol
# GULP energy per Si atom -5585.783787 kJ/mol
# Density = 1.942639 g / cm^3
# Si number density = 19.470704 Si / 1000 Ang^3
#
#
#
# Elastic Constant Matrix: (Units=GPa)
#
#
# Indices 1 2 3 4 5 6 
#
# 1 15.4748 25.8915 16.2812 0.0000 0.0000 0.0000
# 2 25.8915 183.9423 88.6994 0.0000 0.0000 0.0000
# 3 16.2812 88.6994 157.9528 0.0000 0.0000 0.0000
# 4 0.0000 0.0000 0.0000 49.1560 0.0000 0.0000
# 5 0.0000 0.0000 0.0000 0.0000 28.2839 0.0000
# 6 0.0000 0.0000 0.0000 0.0000 0.0000 28.2847
#
#
#
# Elastic Compliance Matrix: (Units=1/GPa)
#
#
# Indices 1 2 3 4 5 6 
#
# 1 0.085431 -0.010668 -0.002816 0.000000 0.000000 0.000000
# 2 -0.010668 0.008787 -0.003835 0.000000 0.000000 0.000000
# 3 -0.002816 -0.003835 0.008775 0.000000 0.000000 0.000000
# 4 0.000000 0.000000 0.000000 0.020343 0.000000 0.000000
# 5 0.000000 0.000000 0.000000 0.000000 0.035356 0.000000
# 6 0.000000 0.000000 0.000000 0.000000 0.000000 0.035355
#
#
# Mechanical properties :
#
#
# Convention : Reuss Voigt Hill
#
# Bulk Modulus (GPa) = 14.62899 68.79044 41.70971
# Shear Modulus (GPa) = 19.88313 36.24479 28.06396
#
# Velocity S-wave (km/s) = 3.19906 4.31920 3.80062
# Velocity P-wave (km/s) = 4.60163 7.76407 6.38184
#
# Compressibility (1/GPa) = 0.06835743
#
# Stress axis : x y z
#
# Youngs Moduli (GPa) = 11.70529 113.80036 113.96278
#
# Poissons Ratio (x) = 1.21397 0.32087
# Poissons Ratio (y) = 0.12487 0.43705
# Poissons Ratio (z) = 0.03296 0.43643
#
# Static dielectric constant tensor:
#      x y z
#    x 1.681200 0.000000 0.000000 
#    y 0.000000 1.684140 0.000000 
#    z 0.000000 0.000000 1.648080 
# 
# From -- ./inp_files/8627.got.cif
#   From: 2010.05.17/outbox.cif.g08.bks.cpg/sg38_5_cif.got.tgz:8627.got - 2010.06.03 18:07:57.
