data_PCOD9358472
_publ_section_title
;
Structure prediction by ZEFSAII (Michael W. Deem and Ramdas Pophale) SiO2 
 PCOD9358472
Probable space group: A M M 2
;
_chemical_formula_sum "Si O2"
_cell_formula_units_Z 48
_cell_length_a 18.037300
_cell_length_b 8.539077
_cell_length_c 15.743266
_cell_angle_alpha 90.000000
_cell_angle_beta 90.000000
_cell_angle_gamma 90.000000
_cell_volume 2424.807640
_symmetry_space_group_name_H-M "A M M 2"
_symmetry_group_IT_number 38
_symmetry_cell_setting 'orthorhombic'
loop_
_space_group_symop_operation_xyz
x,y,z
-x,-y,z
-x,y,z
x,-y,z
x,1/2+y,1/2+z
-x,1/2-y,1/2+z
-x,1/2+y,1/2+z
x,1/2-y,1/2+z
loop_
_atom_site_type_symbol
_atom_site_label
_atom_site_fract_x
_atom_site_fract_y
_atom_site_fract_z
Si Si1 0.845118 0.680019 0.623180
Si Si2 0.315201 0.190781 0.790165
Si Si3 0.000000 0.672319 0.857935
Si Si4 0.694651 0.188072 0.592081
Si Si5 0.000000 0.675451 0.525990
Si Si6 0.846139 0.679087 0.302174
Si Si7 0.414046 0.310281 0.447547
O O1 0.834815 0.500000 0.653117
O O2 0.773183 0.729799 0.569630
O O3 0.846416 0.800609 0.700741
O O4 0.924348 0.685603 0.578322
O O5 0.323593 0.235500 0.690680
O O6 0.234739 0.247055 0.824801
O O7 0.377600 0.238042 0.857308
O O8 0.312669 0.000000 0.789524
O O9 0.077515 0.747467 0.831716
O O10 0.000000 0.500000 0.821500
O O11 0.000000 0.687003 0.958692
O O12 0.632889 0.241344 0.525472
O O13 0.702437 0.000000 0.590041
O O14 0.000000 0.500000 0.485009
O O15 0.847004 0.500000 0.329710
O O16 0.500000 0.264365 0.451997
O O17 0.409918 0.500000 0.451896
#
# Coordination Sequence:
#
# PCOD9358472 Si02
#       7
#     8   8   4   8   4   8   8
#     4  10  20  37  60  84 113 151 195 240 292 348
#     4   8  18  37  60  84 113 154 196 234 286 357
#     4  12  25  36  51  81 117 151 195 244 291 340
#     4  10  21  38  60  88 120 156 197 242 297 355
#     4  10  23  38  53  77 111 153 193 236 289 346
#     4  10  20  37  59  81 111 152 197 240 289 348
#     4  10  21  38  61  88 116 151 195 243 297 360
#
# _framework density 19.795386000000001
#
# number of rings (size 3 to 8) (size 9 to 14) (size 15 to 20)
#    0.000    2.167    0.000    3.750    2.333    3.000 
#    0.000    5.833    0.000    0.000    0.000    0.000 
#    0.000    0.000    0.000    0.000    0.000    0.000 
#
# Total GULP energy -133816.291029 kJ/mol
# GULP energy per Si atom -5575.678793 kJ/mol
# Density = 1.975033 g / cm^3
# Si number density = 19.795386 Si / 1000 Ang^3
#
#
#
# Elastic Constant Matrix: (Units=GPa)
#
#
# Indices 1 2 3 4 5 6 
#
# 1 185.3424 33.8803 66.4459 0.0000 0.0000 0.0000
# 2 33.8803 28.3024 6.7987 0.0000 0.0000 0.0000
# 3 66.4459 6.7987 65.7620 0.0000 0.0000 0.0000
# 4 0.0000 0.0000 0.0000 24.8939 0.0000 0.0000
# 5 0.0000 0.0000 0.0000 0.0000 39.9503 0.0000
# 6 0.0000 0.0000 0.0000 0.0000 0.0000 23.7118
#
#
#
# Elastic Compliance Matrix: (Units=1/GPa)
#
#
# Indices 1 2 3 4 5 6 
#
# 1 0.010897 -0.010664 -0.009908 0.000000 0.000000 0.000000
# 2 -0.010664 0.046669 0.005950 0.000000 0.000000 0.000000
# 3 -0.009908 0.005950 0.024602 0.000000 0.000000 0.000000
# 4 0.000000 0.000000 0.000000 0.040170 0.000000 0.000000
# 5 0.000000 0.000000 0.000000 0.000000 0.025031 0.000000
# 6 0.000000 0.000000 0.000000 0.000000 0.000000 0.042173
#
#
# Mechanical properties :
#
#
# Convention : Reuss Voigt Hill
#
# Bulk Modulus (GPa) = 18.89468 54.85074 36.87271
# Shear Modulus (GPa) = 21.14817 29.19668 25.17242
#
# Velocity S-wave (km/s) = 3.27209 3.84464 3.56986
# Velocity P-wave (km/s) = 4.88274 6.89038 5.97154
#
# Compressibility (1/GPa) = 0.05292494
#
# Stress axis : x y z
#
# Youngs Moduli (GPa) = 91.77062 21.42729 40.64749
#
# Poissons Ratio (x) = 0.22851 0.40272
# Poissons Ratio (y) = 0.97867 -0.24187
# Poissons Ratio (z) = 0.90922 -0.12750
#
# Static dielectric constant tensor:
#      x y z
#    x 1.759230 0.000000 0.000000 
#    y 0.000000 1.655670 0.000000 
#    z 0.000000 0.000000 1.704680 
# 
# From -- ./inp_files/15064.got.cif
#   From: 2010.05.17/outbox.cif.g08.bks.cpg/sg38_8_cif.got.tgz:15064.got - 2010.06.03 18:07:57.
