data_PCOD9358096
_publ_section_title
;
Structure prediction by ZEFSAII (Michael W. Deem and Ramdas Pophale) SiO2 
 PCOD9358096
Probable space group: A M M 2
;
_chemical_formula_sum "Si O2"
_cell_formula_units_Z 56
_cell_length_a 7.585964
_cell_length_b 21.706265
_cell_length_c 14.972148
_cell_angle_alpha 90.000000
_cell_angle_beta 90.000000
_cell_angle_gamma 90.000000
_cell_volume 2465.357981
_symmetry_space_group_name_H-M "A M M 2"
_symmetry_group_IT_number 38
_symmetry_cell_setting 'orthorhombic'
loop_
_space_group_symop_operation_xyz
x,y,z
-x,-y,z
-x,y,z
x,-y,z
x,1/2+y,1/2+z
-x,1/2-y,1/2+z
-x,1/2+y,1/2+z
x,1/2-y,1/2+z
loop_
_atom_site_type_symbol
_atom_site_label
_atom_site_fract_x
_atom_site_fract_y
_atom_site_fract_z
Si Si1 0.792973 0.294517 0.549580
Si Si2 0.708068 0.358231 0.737217
Si Si3 0.202019 0.374739 0.394153
Si Si4 0.787843 0.070489 0.720882
Si Si5 0.709987 0.567897 0.021211
Si Si6 0.713326 0.000000 0.198958
Si Si7 0.286926 0.184324 0.423600
Si Si8 0.287476 0.500000 0.487346
O O1 0.725476 0.320350 0.644102
O O2 0.708884 0.332615 0.467544
O O3 0.776000 0.226875 0.506087
O O4 0.000000 0.308650 0.555529
O O5 0.500000 0.366097 0.753205
O O6 0.774620 0.430591 0.731594
O O7 0.772229 0.314476 0.819614
O O8 0.282061 0.384370 0.296843
O O9 0.206029 0.441370 0.439236
O O10 0.000000 0.352794 0.382242
O O11 0.743756 0.090021 0.621511
O O12 0.000000 0.068358 0.730240
O O13 0.722734 0.000000 0.732856
O O14 0.500000 0.563706 0.010081
O O15 0.787025 0.500000 0.012675
O O16 0.773014 0.616059 0.950321
O O17 0.500000 0.000000 0.211706
O O18 0.749127 0.000000 0.092618
O O19 0.500000 0.190200 0.425642
O O20 0.500000 0.500000 0.475843
#
# Coordination Sequence:
#
# PCOD9358096 Si02
#       8
#     8   8   8   8   8   4   8   4
#     4  11  24  40  60  85 120 161 203 250 297 356
#     4  10  21  40  65  93 125 160 203 251 306 367
#     4  10  20  35  53  78 115 158 196 238 294 353
#     4   9  17  31  52  77 109 150 189 226 278 341
#     4   9  19  36  57  84 113 142 187 244 300 355
#     4   9  18  33  59  94 125 154 194 253 311 361
#     4  10  23  41  63  87 117 158 198 246 303 364
#     4  11  19  29  53  88 117 148 190 245 301 355
#
# _framework density 22.714753999999999
#
# number of rings (size 3 to 8) (size 9 to 14) (size 15 to 20)
#    0.000    2.143    2.143    0.643    1.000    3.429 
#    0.000    3.214    0.000    0.000    0.000    0.000 
#    0.000    0.000    0.000    0.000    0.000    0.000 
#
# Total GULP energy -155957.732309 kJ/mol
# GULP energy per Si atom -5569.919011 kJ/mol
# Density = 2.266305 g / cm^3
# Si number density = 22.714754 Si / 1000 Ang^3
#
#
#
# Elastic Constant Matrix: (Units=GPa)
#
#
# Indices 1 2 3 4 5 6 
#
# 1 48.7245 -4.5583 -10.8411 0.0000 0.0000 0.0000
# 2 -4.5583 57.2648 48.4072 0.0000 0.0000 0.0000
# 3 -10.8411 48.4072 94.5360 0.0000 0.0000 0.0000
# 4 0.0000 0.0000 0.0000 16.8695 0.0000 0.0000
# 5 0.0000 0.0000 0.0000 0.0000 14.4559 0.0000
# 6 0.0000 0.0000 0.0000 0.0000 0.0000 4.7312
#
#
#
# Elastic Compliance Matrix: (Units=1/GPa)
#
#
# Indices 1 2 3 4 5 6 
#
# 1 0.021074 -0.000644 0.002747 0.000000 0.000000 0.000000
# 2 -0.000644 0.030810 -0.015850 0.000000 0.000000 0.000000
# 3 0.002747 -0.015850 0.019009 0.000000 0.000000 0.000000
# 4 0.000000 0.000000 0.000000 0.059279 0.000000 0.000000
# 5 0.000000 0.000000 0.000000 0.000000 0.069176 0.000000
# 6 0.000000 0.000000 0.000000 0.000000 0.000000 0.211362
#
#
# Mechanical properties :
#
#
# Convention : Reuss Voigt Hill
#
# Bulk Modulus (GPa) = 23.04258 29.61562 26.32910
# Shear Modulus (GPa) = 11.04555 18.37917 14.71236
#
# Velocity S-wave (km/s) = 2.20755 2.84761 2.54776
# Velocity P-wave (km/s) = 4.08216 4.88653 4.50234
#
# Compressibility (1/GPa) = 0.04339792
#
# Stress axis : x y z
#
# Youngs Moduli (GPa) = 47.45089 32.45710 52.60664
#
# Poissons Ratio (x) = 0.02091 -0.14449
# Poissons Ratio (y) = 0.03057 0.83382
# Poissons Ratio (z) = -0.13033 0.51445
#
# Static dielectric constant tensor:
#      x y z
#    x 1.855980 0.000000 0.000000 
#    y 0.000000 2.450570 0.000000 
#    z 0.000000 0.000000 1.846720 
# 
# From -- ./inp_files/12462.got.cif
#   From: 2010.05.17/outbox.cif.g08.bks.cpg/sg38_7_cif.got.tgz:12462.got - 2010.06.03 18:07:57.
