data_PCOD9358318
_publ_section_title
;
Structure prediction by ZEFSAII (Michael W. Deem and Ramdas Pophale) SiO2 
 PCOD9358318
Probable space group: A M M 2
;
_chemical_formula_sum "Si O2"
_cell_formula_units_Z 36
_cell_length_a 9.672778
_cell_length_b 34.361139
_cell_length_c 5.103093
_cell_angle_alpha 90.000000
_cell_angle_beta 90.000000
_cell_angle_gamma 90.000000
_cell_volume 1696.103127
_symmetry_space_group_name_H-M "A M M 2"
_symmetry_group_IT_number 38
_symmetry_cell_setting 'orthorhombic'
loop_
_space_group_symop_operation_xyz
x,y,z
-x,-y,z
-x,y,z
x,-y,z
x,1/2+y,1/2+z
-x,1/2-y,1/2+z
-x,1/2+y,1/2+z
x,1/2-y,1/2+z
loop_
_atom_site_type_symbol
_atom_site_label
_atom_site_fract_x
_atom_site_fract_y
_atom_site_fract_z
Si Si1 0.843416 0.722060 0.677720
Si Si2 0.165017 0.592918 0.186435
Si Si3 0.500000 0.723436 0.075847
Si Si4 0.344182 0.164135 0.892515
Si Si5 0.165729 0.956353 0.197442
O O1 0.829197 0.752965 0.440420
O O2 0.739417 0.687199 0.614332
O O3 0.000000 0.706213 0.671682
O O4 0.253240 0.629586 0.278658
O O5 0.213556 0.575135 0.910329
O O6 0.000000 0.602244 0.175896
O O7 0.185113 0.559642 0.406009
O O8 0.500000 0.759035 0.286651
O O9 0.375040 0.695682 0.163984
O O10 0.500000 0.152157 0.978869
O O11 0.000000 0.958568 0.239567
O O12 0.221536 0.000000 0.232905
#
# Coordination Sequence:
#
# PCOD9358318 Si02
#       5
#     8   8   4   8   8
#     4  10  21  37  57  80 107 141 185 234 284 333
#     4  10  20  36  57  86 117 145 184 231 284 331
#     4  10  22  38  56  76 101 144 191 230 266 318
#     4  10  23  38  57  81 113 151 185 239 272 343
#     4   9  18  34  60  88 114 146 185 228 274 336
#
# _framework density 21.225125999999999
#
# number of rings (size 3 to 8) (size 9 to 14) (size 15 to 20)
#    0.667    1.556    0.000    2.667    0.000    6.222 
#    0.000    6.667    0.000    4.000    0.000    0.000 
#    0.000    0.000    0.000    0.000    0.000    0.000 
#
# Total GULP energy -100541.395405 kJ/mol
# GULP energy per Si atom -5585.633078 kJ/mol
# Density = 2.117682 g / cm^3
# Si number density = 21.225126 Si / 1000 Ang^3
#
#
#
# Elastic Constant Matrix: (Units=GPa)
#
#
# Indices 1 2 3 4 5 6 
#
# 1 84.8194 30.3565 -0.9297 0.0000 0.0000 0.0000
# 2 30.3565 66.7530 -19.0862 0.0000 0.0000 0.0000
# 3 -0.9297 -19.0862 63.0935 0.0000 0.0000 0.0000
# 4 0.0000 0.0000 0.0000 9.6538 0.0000 0.0000
# 5 0.0000 0.0000 0.0000 0.0000 15.5310 0.0000
# 6 0.0000 0.0000 0.0000 0.0000 0.0000 20.6758
#
#
#
# Elastic Compliance Matrix: (Units=1/GPa)
#
#
# Indices 1 2 3 4 5 6 
#
# 1 0.014291 -0.007049 -0.001922 0.000000 0.000000 0.000000
# 2 -0.007049 0.019875 0.005909 0.000000 0.000000 0.000000
# 3 -0.001922 0.005909 0.017609 0.000000 0.000000 0.000000
# 4 0.000000 0.000000 0.000000 0.103586 0.000000 0.000000
# 5 0.000000 0.000000 0.000000 0.000000 0.064387 0.000000
# 6 0.000000 0.000000 0.000000 0.000000 0.000000 0.048366
#
#
# Mechanical properties :
#
#
# Convention : Reuss Voigt Hill
#
# Bulk Modulus (GPa) = 21.90482 26.14968 24.02725
# Shear Modulus (GPa) = 17.27384 22.79381 20.03382
#
# Velocity S-wave (km/s) = 2.85588 3.28061 3.07558
# Velocity P-wave (km/s) = 4.60623 5.16689 4.89460
#
# Compressibility (1/GPa) = 0.04565205
#
# Stress axis : x y z
#
# Youngs Moduli (GPa) = 69.97235 50.31341 56.79052
#
# Poissons Ratio (x) = 0.35464 0.10913
# Poissons Ratio (y) = 0.49321 -0.33555
# Poissons Ratio (z) = 0.13446 -0.29728
#
# Static dielectric constant tensor:
#      x y z
#    x 1.830790 0.000000 0.000000 
#    y 0.000000 1.743020 0.000000 
#    z 0.000000 0.000000 1.782160 
# 
# From -- ./inp_files/953.got.cif
#   From: 2010.05.17/outbox.cif.g08.bks.cpg/sg38_1_cif.got.tgz:953.got - 2010.06.03 18:07:57.
