data_PCOD9358454
_publ_section_title
;
Structure prediction by ZEFSAII (Michael W. Deem and Ramdas Pophale) SiO2 
 PCOD9358454
Probable space group: A M M 2
;
_chemical_formula_sum "Si O2"
_cell_formula_units_Z 40
_cell_length_a 7.566991
_cell_length_b 12.042803
_cell_length_c 22.652117
_cell_angle_alpha 90.000000
_cell_angle_beta 90.000000
_cell_angle_gamma 90.000000
_cell_volume 2064.237178
_symmetry_space_group_name_H-M "A M M 2"
_symmetry_group_IT_number 38
_symmetry_cell_setting 'orthorhombic'
loop_
_space_group_symop_operation_xyz
x,y,z
-x,-y,z
-x,y,z
x,-y,z
x,1/2+y,1/2+z
-x,1/2-y,1/2+z
-x,1/2+y,1/2+z
x,1/2-y,1/2+z
loop_
_atom_site_type_symbol
_atom_site_label
_atom_site_fract_x
_atom_site_fract_y
_atom_site_fract_z
Si Si1 0.796301 0.752787 0.934760
Si Si2 0.500000 0.872137 0.220490
Si Si3 0.785798 0.625074 0.050797
Si Si4 0.212489 0.500000 0.268143
Si Si5 0.500000 0.869919 0.361838
Si Si6 0.786865 0.297201 0.181923
Si Si7 0.296915 0.500000 0.405088
O O1 0.669611 0.693591 0.887852
O O2 0.000000 0.718599 0.925932
O O3 0.785282 0.885294 0.927866
O O4 0.735857 0.709730 0.999131
O O5 0.500000 0.864372 0.291386
O O6 0.326344 0.810182 0.196925
O O7 0.500000 0.000000 0.203038
O O8 0.723427 0.500000 0.037867
O O9 0.735779 0.660633 0.116658
O O10 0.000000 0.622154 0.051281
O O11 0.259335 0.608059 0.229838
O O12 0.287308 0.500000 0.333796
O O13 0.000000 0.500000 0.274245
O O14 0.500000 0.000000 0.379372
O O15 0.000000 0.280842 0.183582
O O16 0.500000 0.500000 0.423544
#
# Coordination Sequence:
#
# PCOD9358454 Si02
#       7
#     8   4   8   4   4   8   4
#     4  11  23  41  64  92 126 166 207 251 309 375
#     4  11  26  42  57  87 124 167 211 249 294 373
#     4   9  18  38  65  93 123 154 201 260 314 367
#     4  10  20  36  66  98 124 155 203 259 313 371
#     4  11  24  42  63  91 126 159 211 261 308 365
#     4  10  21  40  65  94 124 156 201 261 317 362
#     4  12  24  40  60  89 133 172 207 254 302 369
#
# _framework density 19.377618999999999
#
# number of rings (size 3 to 8) (size 9 to 14) (size 15 to 20)
#    0.000    1.600    2.000    2.700    1.400    4.800 
#    1.800    3.000    0.000    0.000    0.000    0.000 
#    0.000    0.000    0.000    0.000    0.000    0.000 
#
# Total GULP energy -111771.871522 kJ/mol
# GULP energy per Si atom -5588.593576 kJ/mol
# Density = 1.933352 g / cm^3
# Si number density = 19.377619 Si / 1000 Ang^3
#
#
#
# Elastic Constant Matrix: (Units=GPa)
#
#
# Indices 1 2 3 4 5 6 
#
# 1 80.8317 41.1734 18.0849 0.0000 0.0000 0.0000
# 2 41.1734 174.9504 72.5530 0.0000 0.0000 0.0000
# 3 18.0849 72.5530 110.5210 0.0000 0.0000 0.0000
# 4 0.0000 0.0000 0.0000 34.3278 0.0000 0.0000
# 5 0.0000 0.0000 0.0000 0.0000 -42.5156 0.0000
# 6 0.0000 0.0000 0.0000 0.0000 0.0000 -11.7955
#
#
#
# Elastic Compliance Matrix: (Units=1/GPa)
#
#
# Indices 1 2 3 4 5 6 
#
# 1 0.014059 -0.003235 -0.000177 0.000000 0.000000 0.000000
# 2 -0.003235 0.008599 -0.005115 0.000000 0.000000 0.000000
# 3 -0.000177 -0.005115 0.012435 0.000000 0.000000 0.000000
# 4 0.000000 0.000000 0.000000 0.029131 0.000000 0.000000
# 5 0.000000 0.000000 0.000000 0.000000 -0.023521 0.000000
# 6 0.000000 0.000000 0.000000 0.000000 0.000000 -0.084778
#
#
# Mechanical properties :
#
#
# Convention : Reuss Voigt Hill
#
# Bulk Modulus (GPa) = 55.43862 69.99173 62.71518
# Shear Modulus (GPa) = -238.00311 11.63613 -113.18349
#
# Velocity S-wave (km/s) = -11.09461 2.45315 -7.65089
# Velocity P-wave (km/s) = 11.63824 6.64998 6.75376
#
# Compressibility (1/GPa) = 0.01803797
#
# Stress axis : x y z
#
# Youngs Moduli (GPa) = 71.12911 116.29675 80.41854
#
# Poissons Ratio (x) = 0.37627 0.01420
# Poissons Ratio (y) = 0.23014 0.41136
# Poissons Ratio (z) = 0.01256 0.59489
#
# Static dielectric constant tensor:
#      x y z
#    x 1.718010 0.000000 0.000000 
#    y 0.000000 1.655100 0.000000 
#    z 0.000000 0.000000 1.656900 
# 
# From -- ./inp_files/19536.got.cif
#   From: 2010.05.17/outbox.cif.g08.bks.cpg/sg38_10_cif.got.tgz:19536.got - 2010.06.03 18:07:57.
