data_PCOD9358017
_publ_section_title
;
Structure prediction by ZEFSAII (Michael W. Deem and Ramdas Pophale) SiO2 
 PCOD9358017
Probable space group: A M M 2
;
_chemical_formula_sum "Si O2"
_cell_formula_units_Z 64
_cell_length_a 19.397914
_cell_length_b 7.945254
_cell_length_c 20.324161
_cell_angle_alpha 90.000000
_cell_angle_beta 90.000000
_cell_angle_gamma 90.000000
_cell_volume 3132.387208
_symmetry_space_group_name_H-M "A M M 2"
_symmetry_group_IT_number 38
_symmetry_cell_setting 'orthorhombic'
loop_
_space_group_symop_operation_xyz
x,y,z
-x,-y,z
-x,y,z
x,-y,z
x,1/2+y,1/2+z
-x,1/2-y,1/2+z
-x,1/2+y,1/2+z
x,1/2-y,1/2+z
loop_
_atom_site_type_symbol
_atom_site_label
_atom_site_fract_x
_atom_site_fract_y
_atom_site_fract_z
Si Si1 0.579226 0.705882 0.873110
Si Si2 0.420525 0.294680 0.022506
Si Si3 0.824804 0.309987 0.581102
Si Si4 0.298448 0.800119 0.279747
Si Si5 0.078093 0.698488 0.192619
Si Si6 0.315237 0.306994 0.130080
Si Si7 0.852479 0.204665 0.324324
Si Si8 0.079345 0.703225 0.960998
O O1 0.500000 0.758775 0.859883
O O2 0.578514 0.500000 0.871989
O O3 0.635888 0.765591 0.820790
O O4 0.598228 0.756717 0.947930
O O5 0.500000 0.248598 0.033459
O O6 0.416425 0.500000 0.022804
O O7 0.372059 0.231581 0.080920
O O8 0.801406 0.500000 0.570377
O O9 0.868064 0.296401 0.648108
O O10 0.756909 0.200369 0.591219
O O11 0.875954 0.256402 0.523439
O O12 0.305951 0.773327 0.201740
O O13 0.224825 0.735314 0.306509
O O14 0.296853 0.000000 0.291207
O O15 0.084529 0.500000 0.177498
O O16 0.096839 0.729896 0.267969
O O17 0.000000 0.750763 0.178462
O O18 0.334045 0.500000 0.143087
O O19 0.881160 0.258171 0.395008
O O20 0.852909 0.000000 0.322404
O O21 0.076924 0.500000 0.960211
O O22 0.000000 0.763495 0.963565
#
# Coordination Sequence:
#
# PCOD9358017 Si02
#       8
#     8   8   8   8   8   8   8   8
#     4   8  15  30  54  84 115 148 189 233 276 328
#     4   8  16  32  56  86 114 145 190 236 278 331
#     4  12  25  40  58  83 115 152 194 240 287 343
#     4  10  20  34  55  84 117 151 190 233 277 334
#     4  11  23  39  61  86 113 147 189 237 288 342
#     4  11  22  36  58  84 116 154 190 236 288 338
#     4  10  21  37  59  86 117 152 191 234 282 343
#     4  10  22  40  61  86 115 148 190 237 289 350
#
# _framework density 20.431699999999999
#
# number of rings (size 3 to 8) (size 9 to 14) (size 15 to 20)
#    0.000    2.000    1.250    3.375    1.750    4.250 
#    0.000    0.000    0.000    1.125    0.000    3.500 
#    0.000    0.000    0.000    0.000    0.000    0.000 
#
# Total GULP energy -178693.325400 kJ/mol
# GULP energy per Si atom -5584.166419 kJ/mol
# Density = 2.038520 g / cm^3
# Si number density = 20.431700 Si / 1000 Ang^3
#
#
#
# Elastic Constant Matrix: (Units=GPa)
#
#
# Indices 1 2 3 4 5 6 
#
# 1 101.7935 0.5922 49.6826 0.0000 0.0000 0.0000
# 2 0.5922 17.7033 -3.3474 0.0000 0.0000 0.0000
# 3 49.6826 -3.3474 107.3531 0.0000 0.0000 0.0000
# 4 0.0000 0.0000 0.0000 23.3500 0.0000 0.0000
# 5 0.0000 0.0000 0.0000 0.0000 43.1429 0.0000
# 6 0.0000 0.0000 0.0000 0.0000 0.0000 6.2722
#
#
#
# Elastic Compliance Matrix: (Units=1/GPa)
#
#
# Indices 1 2 3 4 5 6 
#
# 1 0.012732 -0.001549 -0.005941 0.000000 0.000000 0.000000
# 2 -0.001549 0.057010 0.002495 0.000000 0.000000 0.000000
# 3 -0.005941 0.002495 0.012142 0.000000 0.000000 0.000000
# 4 0.000000 0.000000 0.000000 0.042827 0.000000 0.000000
# 5 0.000000 0.000000 0.000000 0.000000 0.023179 0.000000
# 6 0.000000 0.000000 0.000000 0.000000 0.000000 0.159434
#
#
# Mechanical properties :
#
#
# Convention : Reuss Voigt Hill
#
# Bulk Modulus (GPa) = 13.90938 35.63385 24.77161
# Shear Modulus (GPa) = 14.65073 26.54786 20.59930
#
# Velocity S-wave (km/s) = 2.68070 3.60856 3.17867
# Velocity P-wave (km/s) = 4.05019 5.90259 5.06185
#
# Compressibility (1/GPa) = 0.07189395
#
# Stress axis : x y z
#
# Youngs Moduli (GPa) = 78.54012 17.54073 82.35737
#
# Poissons Ratio (x) = 0.02717 0.48927
# Poissons Ratio (y) = 0.12167 -0.20545
# Poissons Ratio (z) = 0.46659 -0.04376
#
# Static dielectric constant tensor:
#      x y z
#    x 1.731800 0.000000 0.000000 
#    y 0.000000 1.755130 0.000000 
#    z 0.000000 0.000000 1.692080 
# 
# From -- ./inp_files/18959.got.cif
#   From: 2010.05.17/outbox.cif.g08.bks.cpg/sg38_10_cif.got.tgz:18959.got - 2010.06.03 18:07:57.
