data_PCOD9358261
_publ_section_title
;
Structure prediction by ZEFSAII (Michael W. Deem and Ramdas Pophale) SiO2 
 PCOD9358261
Probable space group: A M M 2
;
_chemical_formula_sum "Si O2"
_cell_formula_units_Z 64
_cell_length_a 24.592915
_cell_length_b 8.231088
_cell_length_c 15.632948
_cell_angle_alpha 90.000000
_cell_angle_beta 90.000000
_cell_angle_gamma 90.000000
_cell_volume 3164.522128
_symmetry_space_group_name_H-M "A M M 2"
_symmetry_group_IT_number 38
_symmetry_cell_setting 'orthorhombic'
loop_
_space_group_symop_operation_xyz
x,y,z
-x,-y,z
-x,y,z
x,-y,z
x,1/2+y,1/2+z
-x,1/2-y,1/2+z
-x,1/2+y,1/2+z
x,1/2-y,1/2+z
loop_
_atom_site_type_symbol
_atom_site_label
_atom_site_fract_x
_atom_site_fract_y
_atom_site_fract_z
Si Si1 0.739006 0.190216 0.262860
Si Si2 0.138382 0.194841 0.239806
Si Si3 0.937995 0.301687 0.587960
Si Si4 0.560304 0.696364 0.344465
Si Si5 0.327327 0.308978 0.423682
Si Si6 0.324094 0.685323 0.103545
Si Si7 0.560490 0.307377 0.648588
Si Si8 0.937628 0.803699 0.892317
O O1 0.799947 0.254563 0.247978
O O2 0.708597 0.279766 0.339873
O O3 0.705101 0.208671 0.175624
O O4 0.741545 0.000000 0.285817
O O5 0.105032 0.257485 0.157596
O O6 0.103893 0.234537 0.323953
O O7 0.141654 0.000000 0.230432
O O8 0.937843 0.500000 0.589266
O O9 0.925846 0.253582 0.490245
O O10 0.000000 0.251410 0.608858
O O11 0.500000 0.734083 0.379000
O O12 0.563787 0.500000 0.334519
O O13 0.611535 0.748248 0.400478
O O14 0.564645 0.773315 0.250283
O O15 0.329998 0.500000 0.443215
O O16 0.305129 0.221457 0.507642
O O17 0.314346 0.500000 0.127370
O O18 0.388423 0.721846 0.106136
O O19 0.500000 0.252417 0.621805
O O20 0.564299 0.500000 0.632878
O O21 0.000000 0.755114 0.872574
O O22 0.935446 0.000000 0.889325
#
# Coordination Sequence:
#
# PCOD9358261 Si02
#       8
#     8   8   8   8   8   8   8   8
#     4  11  24  42  60  84 119 155 201 256 301 351
#     4  10  21  36  58  85 112 149 195 241 289 341
#     4   8  15  31  55  82 114 151 188 226 274 335
#     4   9  18  34  58  87 117 148 187 237 293 355
#     4  11  23  40  63  88 115 155 198 243 302 360
#     4  12  25  41  62  87 117 157 199 245 300 357
#     4  10  20  35  59  89 120 153 190 237 293 353
#     4   9  18  33  55  85 119 153 190 234 284 340
#
# _framework density 20.224224
#
# number of rings (size 3 to 8) (size 9 to 14) (size 15 to 20)
#    0.000    2.000    1.250    3.375    0.000    4.500 
#    0.000    3.125    0.000    0.750    0.000    0.000 
#    0.000    0.000    0.000    0.000    0.000    0.000 
#
# Total GULP energy -178746.742572 kJ/mol
# GULP energy per Si atom -5585.835705 kJ/mol
# Density = 2.017819 g / cm^3
# Si number density = 20.224224 Si / 1000 Ang^3
#
#
#
# Elastic Constant Matrix: (Units=GPa)
#
#
# Indices 1 2 3 4 5 6 
#
# 1 111.6232 -2.9057 50.0373 0.0000 0.0000 0.0000
# 2 -2.9057 11.6336 -12.0069 0.0000 0.0000 0.0000
# 3 50.0373 -12.0069 83.9742 0.0000 0.0000 0.0000
# 4 0.0000 0.0000 0.0000 27.5579 0.0000 0.0000
# 5 0.0000 0.0000 0.0000 0.0000 -7.8242 0.0000
# 6 0.0000 0.0000 0.0000 0.0000 0.0000 18.8479
#
#
#
# Elastic Compliance Matrix: (Units=1/GPa)
#
#
# Indices 1 2 3 4 5 6 
#
# 1 0.012502 -0.005356 -0.008215 0.000000 0.000000 0.000000
# 2 -0.005356 0.103134 0.017938 0.000000 0.000000 0.000000
# 3 -0.008215 0.017938 0.019369 0.000000 0.000000 0.000000
# 4 0.000000 0.000000 0.000000 0.036287 0.000000 0.000000
# 5 0.000000 0.000000 0.000000 0.000000 -0.127808 0.000000
# 6 0.000000 0.000000 0.000000 0.000000 0.000000 0.053056
#
#
# Mechanical properties :
#
#
# Convention : Reuss Voigt Hill
#
# Bulk Modulus (GPa) = 6.95713 30.83115 18.89414
# Shear Modulus (GPa) = 36.84048 19.19006 28.01527
#
# Velocity S-wave (km/s) = 4.27265 3.08371 3.72591
# Velocity P-wave (km/s) = 5.27145 5.28742 5.27944
#
# Compressibility (1/GPa) = 0.14373748
#
# Stress axis : x y z
#
# Youngs Moduli (GPa) = 79.98740 9.69610 51.63017
#
# Poissons Ratio (x) = 0.05194 0.42416
# Poissons Ratio (y) = 0.42845 -0.92615
# Poissons Ratio (z) = 0.65713 -0.17393
#
# Static dielectric constant tensor:
#      x y z
#    x 1.716490 0.000000 0.000000 
#    y 0.000000 1.704150 0.000000 
#    z 0.000000 0.000000 1.698890 
# 
# From -- ./inp_files/15793.got.cif
#   From: 2010.05.17/outbox.cif.g08.bks.cpg/sg38_8_cif.got.tgz:15793.got - 2010.06.03 18:07:57.
