data_PCOD9358301
_publ_section_title
;
Structure prediction by ZEFSAII (Michael W. Deem and Ramdas Pophale) SiO2 
 PCOD9358301
Probable space group: A M M 2
;
_chemical_formula_sum "Si O2"
_cell_formula_units_Z 64
_cell_length_a 8.377119
_cell_length_b 29.299510
_cell_length_c 14.609486
_cell_angle_alpha 90.000000
_cell_angle_beta 90.000000
_cell_angle_gamma 90.000000
_cell_volume 3585.832332
_symmetry_space_group_name_H-M "A M M 2"
_symmetry_group_IT_number 38
_symmetry_cell_setting 'orthorhombic'
loop_
_space_group_symop_operation_xyz
x,y,z
-x,-y,z
-x,y,z
x,-y,z
x,1/2+y,1/2+z
-x,1/2-y,1/2+z
-x,1/2+y,1/2+z
x,1/2-y,1/2+z
loop_
_atom_site_type_symbol
_atom_site_label
_atom_site_fract_x
_atom_site_fract_y
_atom_site_fract_z
Si Si1 0.808548 0.447509 0.998100
Si Si2 0.189212 0.625592 0.646260
Si Si3 0.306628 0.122908 0.646376
Si Si4 0.308750 0.875206 0.352924
Si Si5 0.694670 0.375595 0.355483
Si Si6 0.692956 0.552000 0.505150
Si Si7 0.307064 0.801965 0.002636
Si Si8 0.694546 0.302031 0.001595
O O1 0.754284 0.500000 0.998018
O O2 0.744128 0.419150 0.911455
O O3 0.000000 0.446784 0.995138
O O4 0.751948 0.420260 0.088027
O O5 0.241786 0.625299 0.751199
O O6 0.253030 0.581231 0.592361
O O7 0.255591 0.669276 0.591141
O O8 0.000000 0.626028 0.640224
O O9 0.500000 0.121876 0.646267
O O10 0.250429 0.123463 0.750994
O O11 0.257131 0.168003 0.589637
O O12 0.500000 0.874676 0.348668
O O13 0.256339 0.831167 0.412652
O O14 0.500000 0.375319 0.353646
O O15 0.744035 0.419457 0.415407
O O16 0.744830 0.331237 0.413889
O O17 0.500000 0.551466 0.504991
O O18 0.750289 0.500000 0.505781
O O19 0.500000 0.801167 0.001570
O O20 0.248899 0.749968 0.002474
O O21 0.500000 0.300975 0.001433
#
# Coordination Sequence:
#
# PCOD9358301 Si02
#       8
#     8   8   8   8   8   8   8   8
#     4  10  21  36  52  73 103 136 168 205 253 309
#     4  11  22  35  51  75 107 139 169 204 253 310
#     4   9  17  31  51  76 103 131 169 213 256 302
#     4  10  20  36  57  79 101 130 171 215 258 301
#     4   8  15  28  49  75 100 128 164 209 253 292
#     4   9  18  34  54  74  97 130 174 219 260 302
#     4   9  17  33  54  75 102 135 172 213 252 292
#     4   8  16  30  52  79 101 126 165 211 251 291
#
# _framework density 17.848016999999999
#
# number of rings (size 3 to 8) (size 9 to 14) (size 15 to 20)
#    0.000    2.750    0.000    3.375    0.000    3.250 
#    0.000   10.625    0.000    0.000    0.000    0.000 
#    0.000    0.000    0.000    0.000    0.000    0.000 
#
# Total GULP energy -178444.476746 kJ/mol
# GULP energy per Si atom -5576.389898 kJ/mol
# Density = 1.780739 g / cm^3
# Si number density = 17.848017 Si / 1000 Ang^3
#
#
#
# Elastic Constant Matrix: (Units=GPa)
#
#
# Indices 1 2 3 4 5 6 
#
# 1 17.3034 18.8585 11.0480 0.0000 0.0000 0.0000
# 2 18.8585 198.4704 98.1423 0.0000 0.0000 0.0000
# 3 11.0480 98.1423 178.6203 0.0000 0.0000 0.0000
# 4 0.0000 0.0000 0.0000 5.0958 0.0000 0.0000
# 5 0.0000 0.0000 0.0000 0.0000 0.8881 0.0000
# 6 0.0000 0.0000 0.0000 0.0000 0.0000 0.5262
#
#
#
# Elastic Compliance Matrix: (Units=1/GPa)
#
#
# Indices 1 2 3 4 5 6 
#
# 1 0.064563 -0.005712 -0.000855 0.000000 0.000000 0.000000
# 2 -0.005712 0.007424 -0.003726 0.000000 0.000000 0.000000
# 3 -0.000855 -0.003726 0.007698 0.000000 0.000000 0.000000
# 4 0.000000 0.000000 0.000000 0.196240 0.000000 0.000000
# 5 0.000000 0.000000 0.000000 0.000000 1.126005 0.000000
# 6 0.000000 0.000000 0.000000 0.000000 0.000000 1.900354
#
#
# Mechanical properties :
#
#
# Convention : Reuss Voigt Hill
#
# Bulk Modulus (GPa) = 16.92044 72.27684 44.59864
# Shear Modulus (GPa) = 1.49586 19.05839 10.27712
#
# Velocity S-wave (km/s) = 0.91648 3.27129 2.40221
# Velocity P-wave (km/s) = 3.25895 7.40622 5.72158
#
# Compressibility (1/GPa) = 0.05910013
#
# Stress axis : x y z
#
# Youngs Moduli (GPa) = 15.48872 134.70674 129.89834
#
# Poissons Ratio (x) = 0.76944 0.11105
# Poissons Ratio (y) = 0.08847 0.48394
# Poissons Ratio (z) = 0.01324 0.50185
#
# Static dielectric constant tensor:
#      x y z
#    x 1.605750 0.000000 0.000000 
#    y 0.000000 1.605070 0.000000 
#    z 0.000000 0.000000 1.588500 
# 
# From -- ./inp_files/13125.got.cif
#   From: 2010.05.17/outbox.cif.g08.bks.cpg/sg38_7_cif.got.tgz:13125.got - 2010.06.03 18:07:57.
