data_PCOD9358728
_publ_section_title
;
Structure prediction by ZEFSAII (Michael W. Deem and Ramdas Pophale) SiO2 
 PCOD9358728
Probable space group: A M M 2
;
_chemical_formula_sum "Si O2"
_cell_formula_units_Z 58
_cell_length_a 7.414442
_cell_length_b 15.389095
_cell_length_c 24.593227
_cell_angle_alpha 90.000000
_cell_angle_beta 90.000000
_cell_angle_gamma 90.000000
_cell_volume 2806.125377
_symmetry_space_group_name_H-M "A M M 2"
_symmetry_group_IT_number 38
_symmetry_cell_setting 'orthorhombic'
loop_
_space_group_symop_operation_xyz
x,y,z
-x,-y,z
-x,y,z
x,-y,z
x,1/2+y,1/2+z
-x,1/2-y,1/2+z
-x,1/2+y,1/2+z
x,1/2-y,1/2+z
loop_
_atom_site_type_symbol
_atom_site_label
_atom_site_fract_x
_atom_site_fract_y
_atom_site_fract_z
Si Si1 0.218217 0.900374 0.401660
Si Si2 0.279780 0.900489 0.887719
Si Si3 0.780031 0.599018 0.025478
Si Si4 0.707114 0.745810 0.814700
Si Si5 0.000000 0.500000 0.692507
Si Si6 0.718081 0.099600 0.011643
Si Si7 0.706595 0.846244 0.206687
Si Si8 0.792152 0.745786 0.599061
O O1 0.274957 0.880059 0.463488
O O2 0.287452 0.831308 0.358856
O O3 0.000000 0.897716 0.399821
O O4 0.271364 0.000000 0.389291
O O5 0.500000 0.898112 0.888003
O O6 0.213292 0.830219 0.844449
O O7 0.227262 0.000000 0.876411
O O8 0.225170 0.878998 0.949819
O O9 0.726396 0.500000 0.037380
O O10 0.716634 0.670013 0.068247
O O11 0.000000 0.601194 0.025255
O O12 0.500000 0.768502 0.802355
O O13 0.779472 0.707196 0.758718
O O14 0.158392 0.575688 0.694183
O O15 0.500000 0.101711 0.013173
O O16 0.786058 0.167372 0.055524
O O17 0.773191 0.000000 0.023534
O O18 0.500000 0.875510 0.218627
O O19 0.700689 0.785150 0.153908
O O20 0.000000 0.763686 0.612681
#
# Coordination Sequence:
#
# PCOD9358728 Si02
#       8
#     8   8   8   8   2   8   8   8
#     4   9  18  31  53  81 111 149 193 238 291 353
#     4   8  15  32  56  81 110 148 192 239 298 357
#     4   8  16  33  55  82 113 151 197 248 300 352
#     4  10  21  35  54  81 113 149 190 244 298 347
#     4  12  26  48  68  86 114 168 202 240 296 356
#     4   9  18  31  52  81 112 149 192 241 297 355
#     4  11  26  43  62  91 123 153 200 250 292 351
#     4  11  21  35  56  82 115 157 201 244 299 359
#
# _framework density 20.669070000000001
#
# number of rings (size 3 to 8) (size 9 to 14) (size 15 to 20)
#    0.000    2.483    0.690    3.103    2.897    0.552 
#    0.000    1.379    0.000    5.379    0.000    0.000 
#    0.000    0.000    0.000    0.000    0.000    0.000 
#
# Total GULP energy -161688.650578 kJ/mol
# GULP energy per Si atom -5575.470710 kJ/mol
# Density = 2.062203 g / cm^3
# Si number density = 20.669070 Si / 1000 Ang^3
#
#
#
# Elastic Constant Matrix: (Units=GPa)
#
#
# Indices 1 2 3 4 5 6 
#
# 1 84.0116 3.2579 7.5478 0.0000 0.0000 0.0000
# 2 3.2579 110.5376 96.6357 0.0000 0.0000 0.0000
# 3 7.5478 96.6357 126.1058 0.0000 0.0000 0.0000
# 4 0.0000 0.0000 0.0000 -17.5307 0.0000 0.0000
# 5 0.0000 0.0000 0.0000 0.0000 11.6397 0.0000
# 6 0.0000 0.0000 0.0000 0.0000 0.0000 15.4772
#
#
#
# Elastic Compliance Matrix: (Units=1/GPa)
#
#
# Indices 1 2 3 4 5 6 
#
# 1 0.011993 0.000830 -0.001354 0.000000 0.000000 0.000000
# 2 0.000830 0.027466 -0.021097 0.000000 0.000000 0.000000
# 3 -0.001354 -0.021097 0.024178 0.000000 0.000000 0.000000
# 4 0.000000 0.000000 0.000000 -0.057043 0.000000 0.000000
# 5 0.000000 0.000000 0.000000 0.000000 0.085913 0.000000
# 6 0.000000 0.000000 0.000000 0.000000 0.000000 0.064611
#
#
# Mechanical properties :
#
#
# Convention : Reuss Voigt Hill
#
# Bulk Modulus (GPa) = 49.03252 59.50422 54.26837
# Shear Modulus (GPa) = 24.13627 16.13149 20.13388
#
# Velocity S-wave (km/s) = 3.42094 2.79671 3.12445
# Velocity P-wave (km/s) = 6.27518 6.26740 6.27129
#
# Compressibility (1/GPa) = 0.02039463
#
# Stress axis : x y z
#
# Youngs Moduli (GPa) = 83.38497 36.40871 41.36045
#
# Poissons Ratio (x) = -0.03023 0.05600
# Poissons Ratio (y) = -0.06923 0.87258
# Poissons Ratio (z) = 0.11291 0.76812
#
# Static dielectric constant tensor:
#      x y z
#    x 1.766780 0.000000 0.000000 
#    y 0.000000 1.716030 0.000000 
#    z 0.000000 0.000000 1.715390 
# 
# From -- ./inp_files/22109.got.cif
#   From: 2010.05.17/outbox.cif.g08.bks.cpg/sg38_12_cif.got.tgz:22109.got - 2010.06.03 18:07:57.
