data_PCOD9358305
_publ_section_title
;
Structure prediction by ZEFSAII (Michael W. Deem and Ramdas Pophale) SiO2 
 PCOD9358305
Probable space group: A M M 2
;
_chemical_formula_sum "Si O2"
_cell_formula_units_Z 40
_cell_length_a 8.908232
_cell_length_b 18.890272
_cell_length_c 13.706809
_cell_angle_alpha 90.000000
_cell_angle_beta 90.000000
_cell_angle_gamma 90.000000
_cell_volume 2306.567091
_symmetry_space_group_name_H-M "A M M 2"
_symmetry_group_IT_number 38
_symmetry_cell_setting 'orthorhombic'
loop_
_space_group_symop_operation_xyz
x,y,z
-x,-y,z
-x,y,z
x,-y,z
x,1/2+y,1/2+z
-x,1/2-y,1/2+z
-x,1/2+y,1/2+z
x,1/2-y,1/2+z
loop_
_atom_site_type_symbol
_atom_site_label
_atom_site_fract_x
_atom_site_fract_y
_atom_site_fract_z
Si Si1 0.179295 0.649535 0.014360
Si Si2 0.821712 0.286927 0.221030
Si Si3 0.179428 0.500000 0.917349
Si Si4 0.321088 0.500000 0.704243
Si Si5 0.820551 0.859905 0.112401
Si Si6 0.678049 0.787968 0.926984
O O1 0.212303 0.663333 0.128234
O O2 0.000000 0.662620 0.001755
O O3 0.212756 0.571014 0.977758
O O4 0.266586 0.708608 0.953004
O O5 0.789663 0.207062 0.183555
O O6 0.731151 0.304287 0.317780
O O7 0.000000 0.291205 0.241473
O O8 0.266877 0.500000 0.816069
O O9 0.000000 0.500000 0.896431
O O10 0.500000 0.500000 0.698541
O O11 0.254919 0.569791 0.653103
O O12 0.000000 0.868268 0.107457
O O13 0.756861 0.837780 0.007107
O O14 0.500000 0.792936 0.936439
#
# Coordination Sequence:
#
# PCOD9358305 Si02
#       6
#     8   8   4   4   8   8
#     4   9  19  35  55  78 105 140 183 225 260 310
#     4   9  18  34  55  77 103 138 181 223 261 309
#     4  10  20  36  57  80 107 142 183 220 260 314
#     4  12  24  36  53  82 115 140 169 216 274 324
#     4  10  21  38  58  78 104 142 185 222 258 312
#     4  11  21  33  53  80 109 139 173 220 274 322
#
# _framework density 17.341788999999999
#
# number of rings (size 3 to 8) (size 9 to 14) (size 15 to 20)
#    0.000    2.000    0.000    5.700    0.000    9.600 
#    0.000    1.000    0.000    2.400    0.000    0.000 
#    0.000    0.000    0.000    0.000    0.000    0.000 
#
# Total GULP energy -111706.351157 kJ/mol
# GULP energy per Si atom -5585.317558 kJ/mol
# Density = 1.730232 g / cm^3
# Si number density = 17.341789 Si / 1000 Ang^3
#
#
#
# Elastic Constant Matrix: (Units=GPa)
#
#
# Indices 1 2 3 4 5 6 
#
# 1 85.8486 69.5116 73.0392 0.0000 0.0000 0.0000
# 2 69.5116 130.7726 74.4633 0.0000 0.0000 0.0000
# 3 73.0392 74.4633 128.4420 0.0000 0.0000 0.0000
# 4 0.0000 0.0000 0.0000 10.7593 0.0000 0.0000
# 5 0.0000 0.0000 0.0000 0.0000 -52.9597 0.0000
# 6 0.0000 0.0000 0.0000 0.0000 0.0000 14.7858
#
#
#
# Elastic Compliance Matrix: (Units=1/GPa)
#
#
# Indices 1 2 3 4 5 6 
#
# 1 0.027864 -0.008641 -0.010835 0.000000 0.000000 0.000000
# 2 -0.008641 0.014095 -0.003258 0.000000 0.000000 0.000000
# 3 -0.010835 -0.003258 0.015836 0.000000 0.000000 0.000000
# 4 0.000000 0.000000 0.000000 0.092943 0.000000 0.000000
# 5 0.000000 0.000000 0.000000 0.000000 -0.018882 0.000000
# 6 0.000000 0.000000 0.000000 0.000000 0.000000 0.067632
#
#
# Mechanical properties :
#
#
# Convention : Reuss Voigt Hill
#
# Bulk Modulus (GPa) = 81.12664 86.56572 83.84618
# Shear Modulus (GPa) = 20.07514 3.05366 11.56440
#
# Velocity S-wave (km/s) = 3.40607 1.32842 2.58515
# Velocity P-wave (km/s) = 7.89626 7.23731 7.57396
#
# Compressibility (1/GPa) = 0.01232641
#
# Stress axis : x y z
#
# Youngs Moduli (GPa) = 35.88909 70.94752 63.14858
#
# Poissons Ratio (x) = 0.61307 0.68423
# Poissons Ratio (y) = 0.31012 0.20571
# Poissons Ratio (z) = 0.38886 0.23112
#
# Static dielectric constant tensor:
#      x y z
#    x 1.578450 0.000000 0.000000 
#    y 0.000000 1.567330 0.000000 
#    z 0.000000 0.000000 1.574260 
# 
# From -- ./inp_files/7969.got.cif
#   From: 2010.05.17/outbox.cif.g08.bks.cpg/sg38_4_cif.got.tgz:7969.got - 2010.06.03 18:07:57.
