data_PCOD9358513
_publ_section_title
;
Structure prediction by ZEFSAII (Michael W. Deem and Ramdas Pophale) SiO2 
 PCOD9358513
Probable space group: A M M 2
;
_chemical_formula_sum "Si O2"
_cell_formula_units_Z 48
_cell_length_a 17.106268
_cell_length_b 7.628832
_cell_length_c 16.614662
_cell_angle_alpha 90.000000
_cell_angle_beta 90.000000
_cell_angle_gamma 90.000000
_cell_volume 2168.227426
_symmetry_space_group_name_H-M "A M M 2"
_symmetry_group_IT_number 38
_symmetry_cell_setting 'orthorhombic'
loop_
_space_group_symop_operation_xyz
x,y,z
-x,-y,z
-x,y,z
x,-y,z
x,1/2+y,1/2+z
-x,1/2-y,1/2+z
-x,1/2+y,1/2+z
x,1/2-y,1/2+z
loop_
_atom_site_type_symbol
_atom_site_label
_atom_site_fract_x
_atom_site_fract_y
_atom_site_fract_z
Si Si1 0.170932 0.206113 0.564810
Si Si2 0.835250 0.214634 0.383003
Si Si3 0.670248 0.201685 0.129378
Si Si4 0.000000 0.709883 0.628342
Si Si5 0.410084 0.711665 0.466781
Si Si6 0.320196 0.209289 0.302641
Si Si7 0.000000 0.214138 0.313136
O O1 0.182190 0.271617 0.473770
O O2 0.235528 0.294198 0.621044
O O3 0.080658 0.231158 0.587917
O O4 0.187928 0.000000 0.567149
O O5 0.766514 0.275437 0.324550
O O6 0.920859 0.272134 0.356069
O O7 0.835396 0.000000 0.383295
O O8 0.650169 0.280253 0.216773
O O9 0.642965 0.000000 0.130090
O O10 0.635347 0.278228 0.046526
O O11 0.000000 0.500000 0.627447
O O12 0.000000 0.770087 0.720694
O O13 0.500000 0.768275 0.470279
O O14 0.407621 0.500000 0.468073
O O15 0.371778 0.763133 0.381972
O O16 0.313432 0.000000 0.291724
O O17 0.000000 0.000000 0.314356
#
# Coordination Sequence:
#
# PCOD9358513 Si02
#       7
#     8   8   8   4   8   8   4
#     4  11  21  35  57  83 115 152 196 246 294 343
#     4   9  17  31  53  80 109 144 190 237 282 331
#     4  10  21  38  62  88 118 154 195 241 293 352
#     4  11  22  35  53  79 114 155 202 247 290 342
#     4  10  22  40  60  86 121 154 186 238 305 358
#     4  10  20  37  61  88 115 154 203 240 279 348
#     4   9  17  31  51  75 106 145 190 237 278 326
#
# _framework density 22.137900999999999
#
# number of rings (size 3 to 8) (size 9 to 14) (size 15 to 20)
#    0.000    2.000    1.667    2.250    0.000    5.667 
#    0.000    1.667    0.000    7.000    0.000    0.000 
#    0.000    0.000    0.000    0.000    0.000    0.000 
#
# Total GULP energy -134069.188387 kJ/mol
# GULP energy per Si atom -5586.216183 kJ/mol
# Density = 2.208751 g / cm^3
# Si number density = 22.137901 Si / 1000 Ang^3
#
#
#
# Elastic Constant Matrix: (Units=GPa)
#
#
# Indices 1 2 3 4 5 6 
#
# 1 111.4420 -8.1595 59.4626 0.0000 0.0000 0.0000
# 2 -8.1595 49.0596 4.5006 0.0000 0.0000 0.0000
# 3 59.4626 4.5006 194.7533 0.0000 0.0000 0.0000
# 4 0.0000 0.0000 0.0000 13.4742 0.0000 0.0000
# 5 0.0000 0.0000 0.0000 0.0000 7.0022 0.0000
# 6 0.0000 0.0000 0.0000 0.0000 0.0000 14.4951
#
#
#
# Elastic Compliance Matrix: (Units=1/GPa)
#
#
# Indices 1 2 3 4 5 6 
#
# 1 0.010937 0.002130 -0.003389 0.000000 0.000000 0.000000
# 2 0.002130 0.020841 -0.001132 0.000000 0.000000 0.000000
# 3 -0.003389 -0.001132 0.006195 0.000000 0.000000 0.000000
# 4 0.000000 0.000000 0.000000 0.074216 0.000000 0.000000
# 5 0.000000 0.000000 0.000000 0.000000 0.142812 0.000000
# 6 0.000000 0.000000 0.000000 0.000000 0.000000 0.068989
#
#
# Mechanical properties :
#
#
# Convention : Reuss Voigt Hill
#
# Bulk Modulus (GPa) = 30.12688 51.87360 41.00024
# Shear Modulus (GPa) = 14.71295 26.95771 20.83533
#
# Velocity S-wave (km/s) = 2.58079 3.49337 3.07116
# Velocity P-wave (km/s) = 4.74541 6.30511 5.58002
#
# Compressibility (1/GPa) = 0.03319295
#
# Stress axis : x y z
#
# Youngs Moduli (GPa) = 91.43018 47.98129 161.40793
#
# Poissons Ratio (x) = -0.10220 0.54695
# Poissons Ratio (y) = -0.19474 0.18270
# Poissons Ratio (z) = 0.30982 0.05431
#
# Static dielectric constant tensor:
#      x y z
#    x 1.791170 0.000000 0.000000 
#    y 0.000000 1.832710 0.000000 
#    z 0.000000 0.000000 1.826760 
# 
# From -- ./inp_files/14993.got.cif
#   From: 2010.05.17/outbox.cif.g08.bks.cpg/sg38_8_cif.got.tgz:14993.got - 2010.06.03 18:07:57.
