data_PCOD9358502
_publ_section_title
;
Structure prediction by ZEFSAII (Michael W. Deem and Ramdas Pophale) SiO2 
 PCOD9358502
Probable space group: A M M 2
;
_chemical_formula_sum "Si O2"
_cell_formula_units_Z 48
_cell_length_a 13.229354
_cell_length_b 22.308856
_cell_length_c 7.870243
_cell_angle_alpha 90.000000
_cell_angle_beta 90.000000
_cell_angle_gamma 90.000000
_cell_volume 2322.758616
_symmetry_space_group_name_H-M "A M M 2"
_symmetry_group_IT_number 38
_symmetry_cell_setting 'orthorhombic'
loop_
_space_group_symop_operation_xyz
x,y,z
-x,-y,z
-x,y,z
x,-y,z
x,1/2+y,1/2+z
-x,1/2-y,1/2+z
-x,1/2+y,1/2+z
x,1/2-y,1/2+z
loop_
_atom_site_type_symbol
_atom_site_label
_atom_site_fract_x
_atom_site_fract_y
_atom_site_fract_z
Si Si1 0.180437 0.067964 0.505310
Si Si2 0.888827 0.811109 0.526231
Si Si3 0.760670 0.232014 0.236545
Si Si4 0.119807 0.069465 0.105025
Si Si5 0.388825 0.429751 0.190902
Si Si6 0.289628 0.153239 0.946956
O O1 0.120876 0.121735 0.598015
O O2 0.153483 0.071429 0.304488
O O3 0.297509 0.077863 0.556780
O O4 0.153540 0.000000 0.559152
O O5 0.798317 0.807005 0.392217
O O6 0.862778 0.754468 0.642560
O O7 0.000000 0.804668 0.453813
O O8 0.690382 0.193050 0.114906
O O9 0.720195 0.294960 0.304904
O O10 0.189212 0.115631 0.999720
O O11 0.000000 0.082969 0.095551
O O12 0.135265 0.000000 0.049395
O O13 0.500000 0.412995 0.124517
O O14 0.389275 0.500000 0.231983
O O15 0.365126 0.393480 0.362709
#
# Coordination Sequence:
#
# PCOD9358502 Si02
#       6
#     8   8   8   8   8   8
#     4  10  20  37  60  88 122 157 198 251 305 361
#     4  11  20  35  55  83 120 162 204 243 293 357
#     4  10  23  35  56  83 121 162 206 244 295 358
#     4  10  21  37  60  90 126 166 203 246 306 368
#     4  10  22  43  69  92 116 154 205 264 320 363
#     4  11  21  40  60  85 124 158 204 253 302 360
#
# _framework density 20.665084
#
# number of rings (size 3 to 8) (size 9 to 14) (size 15 to 20)
#    0.000    1.667    3.333    1.500    0.000    4.333 
#    0.000    1.667    0.000    3.000    0.000    0.000 
#    0.000    0.000    0.000    0.000    0.000    0.000 
#
# Total GULP energy -133668.221128 kJ/mol
# GULP energy per Si atom -5569.509214 kJ/mol
# Density = 2.061805 g / cm^3
# Si number density = 20.665084 Si / 1000 Ang^3
#
#
#
# Elastic Constant Matrix: (Units=GPa)
#
#
# Indices 1 2 3 4 5 6 
#
# 1 65.7004 18.4717 11.9574 0.0000 0.0000 0.0000
# 2 18.4717 93.9887 16.2356 0.0000 0.0000 0.0000
# 3 11.9574 16.2356 49.9150 0.0000 0.0000 0.0000
# 4 0.0000 0.0000 0.0000 37.0947 0.0000 0.0000
# 5 0.0000 0.0000 0.0000 0.0000 20.5209 0.0000
# 6 0.0000 0.0000 0.0000 0.0000 0.0000 11.9308
#
#
#
# Elastic Compliance Matrix: (Units=1/GPa)
#
#
# Indices 1 2 3 4 5 6 
#
# 1 0.016546 -0.002720 -0.003079 0.000000 0.000000 0.000000
# 2 -0.002720 0.011720 -0.003161 0.000000 0.000000 0.000000
# 3 -0.003079 -0.003161 0.021800 0.000000 0.000000 0.000000
# 4 0.000000 0.000000 0.000000 0.026958 0.000000 0.000000
# 5 0.000000 0.000000 0.000000 0.000000 0.048731 0.000000
# 6 0.000000 0.000000 0.000000 0.000000 0.000000 0.083817
#
#
# Mechanical properties :
#
#
# Convention : Reuss Voigt Hill
#
# Bulk Modulus (GPa) = 31.10744 33.65929 32.38337
# Shear Modulus (GPa) = 20.99028 24.77189 22.88109
#
# Velocity S-wave (km/s) = 3.19052 3.46603 3.33112
# Velocity P-wave (km/s) = 5.35335 5.68693 5.52266
#
# Compressibility (1/GPa) = 0.03214665
#
# Stress axis : x y z
#
# Youngs Moduli (GPa) = 60.43879 85.32373 45.87225
#
# Poissons Ratio (x) = 0.23207 0.14124
# Poissons Ratio (y) = 0.16439 0.14498
# Poissons Ratio (z) = 0.18609 0.26967
#
# Static dielectric constant tensor:
#      x y z
#    x 1.709130 0.000000 0.000000 
#    y 0.000000 1.822810 0.000000 
#    z 0.000000 0.000000 1.789630 
# 
# From -- ./inp_files/4637.got.cif
#   From: 2010.05.17/outbox.cif.g08.bks.cpg/sg38_3_cif.got.tgz:4637.got - 2010.06.03 18:07:57.
