data_PCOD9358373
_publ_section_title
;
Structure prediction by ZEFSAII (Michael W. Deem and Ramdas Pophale) SiO2 
 PCOD9358373
Probable space group: A M M 2
;
_chemical_formula_sum "Si O2"
_cell_formula_units_Z 48
_cell_length_a 19.516187
_cell_length_b 8.233670
_cell_length_c 15.403046
_cell_angle_alpha 90.000000
_cell_angle_beta 90.000000
_cell_angle_gamma 90.000000
_cell_volume 2475.113050
_symmetry_space_group_name_H-M "A M M 2"
_symmetry_group_IT_number 38
_symmetry_cell_setting 'orthorhombic'
loop_
_space_group_symop_operation_xyz
x,y,z
-x,-y,z
-x,y,z
x,-y,z
x,1/2+y,1/2+z
-x,1/2-y,1/2+z
-x,1/2+y,1/2+z
x,1/2-y,1/2+z
loop_
_atom_site_type_symbol
_atom_site_label
_atom_site_fract_x
_atom_site_fract_y
_atom_site_fract_z
Si Si1 0.835775 0.808005 0.625000
Si Si2 0.326246 0.303721 0.372285
Si Si3 0.176253 0.307809 0.435396
Si Si4 0.578061 0.696048 0.025019
Si Si5 0.681782 0.698313 0.174204
Si Si6 0.078399 0.807819 0.283443
O O1 0.848011 0.774870 0.523943
O O2 0.758378 0.750855 0.647141
O O3 0.888960 0.724571 0.689396
O O4 0.838586 0.000000 0.642277
O O5 0.325602 0.500000 0.372077
O O6 0.252477 0.248613 0.409418
O O7 0.385704 0.245228 0.435614
O O8 0.333318 0.249734 0.272573
O O9 0.180376 0.500000 0.451093
O O10 0.125869 0.275203 0.355523
O O11 0.500000 0.754881 0.030991
O O12 0.576827 0.500000 0.029215
O O13 0.626079 0.754351 0.104165
O O14 0.681466 0.500000 0.173050
O O15 0.000000 0.749888 0.287199
O O16 0.079238 0.000000 0.300274
#
# Coordination Sequence:
#
# PCOD9358373 Si02
#       6
#     8   8   8   8   8   8
#     4  11  21  38  64  91 120 157 200 248 299 356
#     4  10  20  36  59  87 115 149 196 245 294 349
#     4  11  22  38  62  93 122 155 202 250 297 358
#     4  10  21  37  57  84 119 156 194 241 297 355
#     4   9  18  35  58  85 113 149 196 239 287 350
#     4  11  25  43  62  89 124 159 197 247 306 360
#
# _framework density 19.393052000000001
#
# number of rings (size 3 to 8) (size 9 to 14) (size 15 to 20)
#    0.000    1.667    3.333    1.500    0.000    3.667 
#    0.000    2.500    0.000    0.000    0.000    0.000 
#    0.000    0.000    0.000    0.000    0.000    0.000 
#
# Total GULP energy -134099.097828 kJ/mol
# GULP energy per Si atom -5587.462409 kJ/mol
# Density = 1.934891 g / cm^3
# Si number density = 19.393052 Si / 1000 Ang^3
#
#
#
# Elastic Constant Matrix: (Units=GPa)
#
#
# Indices 1 2 3 4 5 6 
#
# 1 100.1297 0.4666 13.1081 0.0000 0.0000 0.0000
# 2 0.4666 11.2252 -11.0170 0.0000 0.0000 0.0000
# 3 13.1081 -11.0170 93.3043 0.0000 0.0000 0.0000
# 4 0.0000 0.0000 0.0000 31.4375 0.0000 0.0000
# 5 0.0000 0.0000 0.0000 0.0000 30.4999 0.0000
# 6 0.0000 0.0000 0.0000 0.0000 0.0000 20.4497
#
#
#
# Elastic Compliance Matrix: (Units=1/GPa)
#
#
# Indices 1 2 3 4 5 6 
#
# 1 0.010217 -0.002074 -0.001680 0.000000 0.000000 0.000000
# 2 -0.002074 0.101183 0.012239 0.000000 0.000000 0.000000
# 3 -0.001680 0.012239 0.012399 0.000000 0.000000 0.000000
# 4 0.000000 0.000000 0.000000 0.031809 0.000000 0.000000
# 5 0.000000 0.000000 0.000000 0.000000 0.032787 0.000000
# 6 0.000000 0.000000 0.000000 0.000000 0.000000 0.048900
#
#
# Mechanical properties :
#
#
# Convention : Reuss Voigt Hill
#
# Bulk Modulus (GPa) = 7.10388 23.30829 15.20609
# Shear Modulus (GPa) = 18.70919 29.95086 24.33002
#
# Velocity S-wave (km/s) = 3.10939 3.93416 3.54584
# Velocity P-wave (km/s) = 4.06966 5.71680 4.96206
#
# Compressibility (1/GPa) = 0.14076806
#
# Stress axis : x y z
#
# Youngs Moduli (GPa) = 97.87934 9.88307 80.65331
#
# Poissons Ratio (x) = 0.02049 0.13551
# Poissons Ratio (y) = 0.20297 -0.98708
# Poissons Ratio (z) = 0.16445 -0.12096
#
# Static dielectric constant tensor:
#      x y z
#    x 1.657910 0.000000 0.000000 
#    y 0.000000 1.682280 0.000000 
#    z 0.000000 0.000000 1.643990 
# 
# From -- ./inp_files/14971.got.cif
#   From: 2010.05.17/outbox.cif.g08.bks.cpg/sg38_8_cif.got.tgz:14971.got - 2010.06.03 18:07:57.
