data_PCOD9358469
_publ_section_title
;
Structure prediction by ZEFSAII (Michael W. Deem and Ramdas Pophale) SiO2 
 PCOD9358469
Probable space group: A M M 2
;
_chemical_formula_sum "Si O2"
_cell_formula_units_Z 56
_cell_length_a 22.397421
_cell_length_b 8.975353
_cell_length_c 15.190882
_cell_angle_alpha 90.000000
_cell_angle_beta 90.000000
_cell_angle_gamma 90.000000
_cell_volume 3053.743405
_symmetry_space_group_name_H-M "A M M 2"
_symmetry_group_IT_number 38
_symmetry_cell_setting 'orthorhombic'
loop_
_space_group_symop_operation_xyz
x,y,z
-x,-y,z
-x,y,z
x,-y,z
x,1/2+y,1/2+z
-x,1/2-y,1/2+z
-x,1/2+y,1/2+z
x,1/2-y,1/2+z
loop_
_atom_site_type_symbol
_atom_site_label
_atom_site_fract_x
_atom_site_fract_y
_atom_site_fract_z
Si Si1 0.787187 0.179011 0.759170
Si Si2 0.432262 0.820834 0.101305
Si Si3 0.656782 0.680396 0.756201
Si Si4 0.875160 0.178901 0.399328
Si Si5 0.432254 0.320881 0.911362
Si Si6 0.000000 0.330602 0.611466
Si Si7 0.000000 0.171555 0.897076
Si Si8 0.122889 0.822039 0.605469
O O1 0.720924 0.244064 0.756718
O O2 0.824314 0.248778 0.839668
O O3 0.823260 0.218974 0.669959
O O4 0.786093 0.000000 0.766679
O O5 0.500000 0.780120 0.129548
O O6 0.382638 0.776309 0.171571
O O7 0.430705 0.000000 0.094292
O O8 0.421607 0.750313 0.006243
O O9 0.663272 0.500000 0.756259
O O10 0.617279 0.723159 0.840886
O O11 0.866574 0.217770 0.502975
O O12 0.939542 0.244196 0.371199
O O13 0.874955 0.000000 0.391295
O O14 0.500000 0.280684 0.882994
O O15 0.430562 0.500000 0.918940
O O16 0.000000 0.329542 0.504227
O O17 0.061064 0.250317 0.637293
O O18 0.000000 0.500000 0.642349
O O19 0.000000 0.000000 0.866720
O O20 0.115489 0.000000 0.608330
#
# Coordination Sequence:
#
# PCOD9358469 Si02
#       8
#     8   8   8   8   8   4   4   8
#     4  11  24  39  54  77 108 144 184 224 268 318
#     4   9  18  34  57  84 111 139 175 220 268 315
#     4  10  21  37  55  76 107 146 182 217 261 318
#     4  10  20  37  59  81 106 140 181 223 268 322
#     4   9  18  34  57  83 109 139 176 217 264 318
#     4   9  17  30  55  86 108 130 170 222 269 313
#     4   9  17  32  55  84 112 138 172 220 275 321
#     4   9  20  38  57  76 105 142 176 215 267 322
#
# _framework density 18.338149999999999
#
# number of rings (size 3 to 8) (size 9 to 14) (size 15 to 20)
#    0.000    2.429    0.000    1.714    0.000    8.000 
#    0.000    5.000    0.000    4.286    0.000    0.000 
#    0.000    0.000    0.000    0.000    0.000    0.000 
#
# Total GULP energy -156310.674878 kJ/mol
# GULP energy per Si atom -5582.524103 kJ/mol
# Density = 1.829641 g / cm^3
# Si number density = 18.338150 Si / 1000 Ang^3
#
#
#
# Elastic Constant Matrix: (Units=GPa)
#
#
# Indices 1 2 3 4 5 6 
#
# 1 212.5366 68.1111 111.7203 0.0000 0.0000 0.0000
# 2 68.1111 42.1332 48.9655 0.0000 0.0000 0.0000
# 3 111.7203 48.9655 108.7442 0.0000 0.0000 0.0000
# 4 0.0000 0.0000 0.0000 25.1758 0.0000 0.0000
# 5 0.0000 0.0000 0.0000 0.0000 -36.4265 0.0000
# 6 0.0000 0.0000 0.0000 0.0000 0.0000 33.6290
#
#
#
# Elastic Compliance Matrix: (Units=1/GPa)
#
#
# Indices 1 2 3 4 5 6 
#
# 1 0.012199 -0.010815 -0.007663 0.000000 0.000000 0.000000
# 2 -0.010815 0.059376 -0.015625 0.000000 0.000000 0.000000
# 3 -0.007663 -0.015625 0.024105 0.000000 0.000000 0.000000
# 4 0.000000 0.000000 0.000000 0.039721 0.000000 0.000000
# 5 0.000000 0.000000 0.000000 0.000000 -0.027453 0.000000
# 6 0.000000 0.000000 0.000000 0.000000 0.000000 0.029736
#
#
# Mechanical properties :
#
#
# Convention : Reuss Voigt Hill
#
# Bulk Modulus (GPa) = 36.39902 91.22310 63.81106
# Shear Modulus (GPa) = 23.25059 13.45013 18.35036
#
# Velocity S-wave (km/s) = 3.56459 2.71117 3.16676
# Velocity P-wave (km/s) = 6.06907 7.72357 6.94576
#
# Compressibility (1/GPa) = 0.02747327
#
# Stress axis : x y z
#
# Youngs Moduli (GPa) = 81.97395 16.84182 41.48569
#
# Poissons Ratio (x) = 0.18214 0.31792
# Poissons Ratio (y) = 0.88651 0.64823
# Poissons Ratio (z) = 0.62819 0.26316
#
# Static dielectric constant tensor:
#      x y z
#    x 1.600430 0.000000 0.000000 
#    y 0.000000 1.614070 0.000000 
#    z 0.000000 0.000000 1.634420 
# 
# From -- ./inp_files/15535.got.cif
#   From: 2010.05.17/outbox.cif.g08.bks.cpg/sg38_8_cif.got.tgz:15535.got - 2010.06.03 18:07:57.
