data_PCOD9358898
_publ_section_title
;
Structure prediction by ZEFSAII (Michael W. Deem and Ramdas Pophale) SiO2 
 PCOD9358898
Probable space group: A M M 2
;
_chemical_formula_sum "Si O2"
_cell_formula_units_Z 48
_cell_length_a 7.373460
_cell_length_b 18.422976
_cell_length_c 17.902209
_cell_angle_alpha 90.000000
_cell_angle_beta 90.000000
_cell_angle_gamma 90.000000
_cell_volume 2431.855344
_symmetry_space_group_name_H-M "A M M 2"
_symmetry_group_IT_number 38
_symmetry_cell_setting 'orthorhombic'
loop_
_space_group_symop_operation_xyz
x,y,z
-x,-y,z
-x,y,z
x,-y,z
x,1/2+y,1/2+z
-x,1/2-y,1/2+z
-x,1/2+y,1/2+z
x,1/2-y,1/2+z
loop_
_atom_site_type_symbol
_atom_site_label
_atom_site_fract_x
_atom_site_fract_y
_atom_site_fract_z
Si Si1 0.778995 0.916051 0.838930
Si Si2 0.789280 0.086923 0.548435
Si Si3 0.220084 0.916466 0.007762
Si Si4 0.500000 0.413632 0.759457
Si Si5 0.779552 0.671677 0.195186
Si Si6 0.500000 0.911597 0.428632
Si Si7 0.781478 0.336453 0.657430
O O1 0.717184 0.862549 0.773437
O O2 0.000000 0.914822 0.838821
O O3 0.727287 0.000000 0.823799
O O4 0.720984 0.897525 0.923510
O O5 0.723865 0.122622 0.625060
O O6 0.673214 0.110576 0.477395
O O7 0.000000 0.105713 0.537922
O O8 0.774995 0.000000 0.555475
O O9 0.272667 0.862591 0.074211
O O10 0.000000 0.916807 0.006630
O O11 0.276267 0.000000 0.023615
O O12 0.500000 0.500000 0.761288
O O13 0.676286 0.386634 0.715457
O O14 0.500000 0.385140 0.844264
O O15 0.729178 0.754139 0.177276
O O16 0.000000 0.669616 0.197236
O O17 0.500000 0.000000 0.426033
O O18 0.000000 0.343180 0.663456
#
# Coordination Sequence:
#
# PCOD9358898 Si02
#       7
#     8   8   8   4   8   4   8
#     4   8  13  24  47  79 112 145 182 223 267 325
#     4   9  17  32  56  83 112 148 187 225 268 326
#     4   8  14  27  49  75 103 138 179 222 269 322
#     4  11  24  41  60  79 104 145 194 239 282 327
#     4   9  17  30  50  81 116 147 180 221 276 338
#     4   9  20  37  54  77 105 137 186 237 277 319
#     4  10  21  37  56  82 112 143 183 231 285 338
#
# _framework density 19.738015000000001
#
# number of rings (size 3 to 8) (size 9 to 14) (size 15 to 20)
#    0.000    3.000    0.000    2.000    0.000    4.333 
#    3.000    1.667    0.000    1.000    0.000    2.333 
#    0.000    0.000    0.000    0.000    0.000    0.000 
#
# Total GULP energy -133904.951973 kJ/mol
# GULP energy per Si atom -5579.372999 kJ/mol
# Density = 1.969309 g / cm^3
# Si number density = 19.738015 Si / 1000 Ang^3
#
#
#
# Elastic Constant Matrix: (Units=GPa)
#
#
# Indices 1 2 3 4 5 6 
#
# 1 79.0766 29.1791 42.2215 0.0000 0.0000 0.0000
# 2 29.1791 84.4810 100.0035 0.0000 0.0000 0.0000
# 3 42.2215 100.0035 218.4960 0.0000 0.0000 0.0000
# 4 0.0000 0.0000 0.0000 14.5978 0.0000 0.0000
# 5 0.0000 0.0000 0.0000 0.0000 47.9598 0.0000
# 6 0.0000 0.0000 0.0000 0.0000 0.0000 -3.1036
#
#
#
# Elastic Compliance Matrix: (Units=1/GPa)
#
#
# Indices 1 2 3 4 5 6 
#
# 1 0.014618 -0.003721 -0.001121 0.000000 0.000000 0.000000
# 2 -0.003721 0.026780 -0.011538 0.000000 0.000000 0.000000
# 3 -0.001121 -0.011538 0.010074 0.000000 0.000000 0.000000
# 4 0.000000 0.000000 0.000000 0.068504 0.000000 0.000000
# 5 0.000000 0.000000 0.000000 0.000000 0.020851 0.000000
# 6 0.000000 0.000000 0.000000 0.000000 0.000000 -0.322205
#
#
# Mechanical properties :
#
#
# Convention : Reuss Voigt Hill
#
# Bulk Modulus (GPa) = 53.44505 80.54020 66.99262
# Shear Modulus (GPa) = -35.11732 25.93409 -4.59162
#
# Velocity S-wave (km/s) = -4.22260 3.62873 -1.52687
# Velocity P-wave (km/s) = 1.83363 7.64527 5.55933
#
# Compressibility (1/GPa) = 0.01871081
#
# Stress axis : x y z
#
# Youngs Moduli (GPa) = 68.40902 37.34102 99.26302
#
# Poissons Ratio (x) = 0.13896 0.11132
# Poissons Ratio (y) = 0.25458 1.14529
# Poissons Ratio (z) = 0.07672 0.43084
#
# Static dielectric constant tensor:
#      x y z
#    x 1.720010 0.000000 0.000000 
#    y 0.000000 1.699920 0.000000 
#    z 0.000000 0.000000 1.672790 
# 
# From -- ./inp_files/12133.got.cif
#   From: 2010.05.17/outbox.cif.g08.bks.cpg/sg38_7_cif.got.tgz:12133.got - 2010.06.03 18:07:57.
