data_PCOD9358917
_publ_section_title
;
Structure prediction by ZEFSAII (Michael W. Deem and Ramdas Pophale) SiO2 
 PCOD9358917
Probable space group: A M M 2
;
_chemical_formula_sum "Si O2"
_cell_formula_units_Z 58
_cell_length_a 15.388903
_cell_length_b 8.140355
_cell_length_c 25.352725
_cell_angle_alpha 90.000000
_cell_angle_beta 90.000000
_cell_angle_gamma 90.000000
_cell_volume 3175.964598
_symmetry_space_group_name_H-M "A M M 2"
_symmetry_group_IT_number 38
_symmetry_cell_setting 'orthorhombic'
loop_
_space_group_symop_operation_xyz
x,y,z
-x,-y,z
-x,y,z
x,-y,z
x,1/2+y,1/2+z
-x,1/2-y,1/2+z
-x,1/2+y,1/2+z
x,1/2-y,1/2+z
loop_
_atom_site_type_symbol
_atom_site_label
_atom_site_fract_x
_atom_site_fract_y
_atom_site_fract_z
Si Si1 0.719497 0.809522 0.623690
Si Si2 0.903360 0.304869 0.586662
Si Si3 0.403288 0.196529 0.031515
Si Si4 0.399717 0.307471 0.331320
Si Si5 0.000000 0.500000 0.932634
Si Si6 0.401029 0.307608 0.716225
Si Si7 0.309367 0.190216 0.432255
Si Si8 0.877069 0.307989 0.460869
O O1 0.820775 0.767260 0.616771
O O2 0.670504 0.768700 0.569142
O O3 0.667152 0.718090 0.669615
O O4 0.710626 0.000000 0.635067
O O5 0.903131 0.500000 0.596090
O O6 0.890195 0.282471 0.523787
O O7 0.000000 0.240093 0.600163
O O8 0.500000 0.250503 0.047761
O O9 0.399312 0.000000 0.035757
O O10 0.384080 0.248362 0.971840
O O11 0.500000 0.251389 0.336468
O O12 0.396012 0.500000 0.344377
O O13 0.376128 0.283176 0.270145
O O14 0.339635 0.214342 0.372477
O O15 0.925927 0.651252 0.935088
O O16 0.500000 0.256234 0.700828
O O17 0.404220 0.500000 0.728710
O O18 0.223457 0.291954 0.445729
O O19 0.292479 0.000000 0.443494
O O20 0.903494 0.500000 0.449703
#
# Coordination Sequence:
#
# PCOD9358917 Si02
#       8
#     8   8   8   8   2   8   8   8
#     4  12  24  35  55  84 117 150 190 240 292 352
#     4  10  21  37  57  81 111 152 193 239 295 349
#     4  11  23  37  53  76 114 160 197 236 291 353
#     4  10  21  38  60  85 115 152 196 246 294 343
#     4  12  22  36  60  86 114 156 202 244 304 362
#     4  10  21  39  61  84 112 150 196 243 290 347
#     4  12  23  36  55  85 119 156 199 240 290 357
#     4  11  22  37  57  84 120 155 195 248 298 357
#
# _framework density 18.262167999999999
#
# number of rings (size 3 to 8) (size 9 to 14) (size 15 to 20)
#    0.000    1.103    2.759    4.759    0.966    6.345 
#    0.000    0.000    0.000    0.000    1.793    0.000 
#    0.000    0.000    0.000    0.000    0.000    0.000 
#
# Total GULP energy -161652.359955 kJ/mol
# GULP energy per Si atom -5574.219309 kJ/mol
# Density = 1.822060 g / cm^3
# Si number density = 18.262168 Si / 1000 Ang^3
#
#
#
# Elastic Constant Matrix: (Units=GPa)
#
#
# Indices 1 2 3 4 5 6 
#
# 1 104.6845 16.7037 26.9458 0.0000 0.0000 0.0000
# 2 16.7037 74.9939 -4.6462 0.0000 0.0000 0.0000
# 3 26.9458 -4.6462 46.1352 0.0000 0.0000 0.0000
# 4 0.0000 0.0000 0.0000 26.8786 0.0000 0.0000
# 5 0.0000 0.0000 0.0000 0.0000 31.9374 0.0000
# 6 0.0000 0.0000 0.0000 0.0000 0.0000 26.0383
#
#
#
# Elastic Compliance Matrix: (Units=1/GPa)
#
#
# Indices 1 2 3 4 5 6 
#
# 1 0.011921 -0.003106 -0.007275 0.000000 0.000000 0.000000
# 2 -0.003106 0.014227 0.003247 0.000000 0.000000 0.000000
# 3 -0.007275 0.003247 0.026252 0.000000 0.000000 0.000000
# 4 0.000000 0.000000 0.000000 0.037204 0.000000 0.000000
# 5 0.000000 0.000000 0.000000 0.000000 0.031311 0.000000
# 6 0.000000 0.000000 0.000000 0.000000 0.000000 0.038405
#
#
# Mechanical properties :
#
#
# Convention : Reuss Voigt Hill
#
# Bulk Modulus (GPa) = 26.22529 33.75779 29.99154
# Shear Modulus (GPa) = 26.83857 29.42489 28.13173
#
# Velocity S-wave (km/s) = 3.83773 4.01839 3.92910
# Velocity P-wave (km/s) = 5.83345 6.32892 6.08623
#
# Compressibility (1/GPa) = 0.03813114
#
# Stress axis : x y z
#
# Youngs Moduli (GPa) = 83.88740 70.28708 38.09297
#
# Poissons Ratio (x) = 0.21830 0.27713
# Poissons Ratio (y) = 0.26055 -0.12368
# Poissons Ratio (z) = 0.61030 -0.22821
#
# Static dielectric constant tensor:
#      x y z
#    x 1.665450 0.000000 0.000000 
#    y 0.000000 1.634910 0.000000 
#    z 0.000000 0.000000 1.598370 
# 
# From -- ./inp_files/22864.got.cif
#   From: 2010.05.17/outbox.cif.g08.bks.cpg/sg38_12_cif.got.tgz:22864.got - 2010.06.03 18:07:57.
