data_PCOD9358253
_publ_section_title
;
Structure prediction by ZEFSAII (Michael W. Deem and Ramdas Pophale) SiO2 
 PCOD9358253
Probable space group: A M M 2
;
_chemical_formula_sum "Si O2"
_cell_formula_units_Z 64
_cell_length_a 17.649722
_cell_length_b 13.617695
_cell_length_c 12.643682
_cell_angle_alpha 90.000000
_cell_angle_beta 90.000000
_cell_angle_gamma 90.000000
_cell_volume 3038.890396
_symmetry_space_group_name_H-M "A M M 2"
_symmetry_group_IT_number 38
_symmetry_cell_setting 'orthorhombic'
loop_
_space_group_symop_operation_xyz
x,y,z
-x,-y,z
-x,y,z
x,-y,z
x,1/2+y,1/2+z
-x,1/2-y,1/2+z
-x,1/2+y,1/2+z
x,1/2-y,1/2+z
loop_
_atom_site_type_symbol
_atom_site_label
_atom_site_fract_x
_atom_site_fract_y
_atom_site_fract_z
Si Si1 0.088224 0.888806 0.985840
Si Si2 0.815228 0.116842 0.410831
Si Si3 0.584640 0.796699 0.348642
Si Si4 0.644787 0.612390 0.248819
Si Si5 0.280330 0.614897 0.713506
Si Si6 0.185046 0.117391 0.782649
Si Si7 0.912962 0.190532 0.587575
Si Si8 0.684216 0.216065 0.545659
O O1 0.138173 0.856652 0.886434
O O2 0.000000 0.889776 0.953091
O O3 0.109198 0.000000 0.017052
O O4 0.095040 0.807644 0.075350
O O5 0.793039 0.137479 0.288329
O O6 0.892322 0.145103 0.472102
O O7 0.754344 0.177048 0.478733
O O8 0.804102 0.000000 0.423248
O O9 0.500000 0.837726 0.350242
O O10 0.586491 0.693278 0.286835
O O11 0.646232 0.865161 0.289025
O O12 0.615762 0.769999 0.464520
O O13 0.627546 0.500000 0.273975
O O14 0.726931 0.643121 0.296448
O O15 0.659331 0.630076 0.125459
O O16 0.277649 0.500000 0.682953
O O17 0.292005 0.689018 0.615250
O O18 0.144424 0.155102 0.677406
O O19 0.183917 0.000000 0.773575
O O20 0.000000 0.166266 0.614853
#
# Coordination Sequence:
#
# PCOD9358253 Si02
#       8
#     8   8   8   8   8   8   8   8
#     4   9  20  37  55  79 116 158 198 243 294 347
#     4  10  20  36  57  82 118 156 196 243 292 348
#     4  10  23  40  59  87 119 150 188 241 294 353
#     4  10  21  37  60  88 116 152 191 240 294 345
#     4   9  21  40  61  85 116 157 197 237 287 352
#     4  10  20  35  59  86 115 152 200 246 290 351
#     4  11  22  33  57  91 121 155 199 250 297 338
#     4  10  20  36  62  86 113 154 194 239 284 348
#
# _framework density 21.060319
#
# number of rings (size 3 to 8) (size 9 to 14) (size 15 to 20)
#    0.000    2.125    1.250    1.125    5.250    5.000 
#    0.000    0.625    0.000    1.500    0.000    3.500 
#    0.000    0.000    0.000    0.000    0.000    0.000 
#
# Total GULP energy -178703.173391 kJ/mol
# GULP energy per Si atom -5584.474168 kJ/mol
# Density = 2.101238 g / cm^3
# Si number density = 21.060319 Si / 1000 Ang^3
#
#
#
# Elastic Constant Matrix: (Units=GPa)
#
#
# Indices 1 2 3 4 5 6 
#
# 1 72.6750 -0.2048 15.3692 0.0000 0.0000 0.0000
# 2 -0.2048 72.1244 14.7399 0.0000 0.0000 0.0000
# 3 15.3692 14.7399 42.2783 0.0000 0.0000 0.0000
# 4 0.0000 0.0000 0.0000 18.2854 0.0000 0.0000
# 5 0.0000 0.0000 0.0000 0.0000 2.8107 0.0000
# 6 0.0000 0.0000 0.0000 0.0000 0.0000 5.7772
#
#
#
# Elastic Compliance Matrix: (Units=1/GPa)
#
#
# Indices 1 2 3 4 5 6 
#
# 1 0.015009 0.001247 -0.005891 0.000000 0.000000 0.000000
# 2 0.001247 0.015032 -0.005694 0.000000 0.000000 0.000000
# 3 -0.005891 -0.005694 0.027779 0.000000 0.000000 0.000000
# 4 0.000000 0.000000 0.000000 0.054688 0.000000 0.000000
# 5 0.000000 0.000000 0.000000 0.000000 0.355779 0.000000
# 6 0.000000 0.000000 0.000000 0.000000 0.000000 0.173094
#
#
# Mechanical properties :
#
#
# Convention : Reuss Voigt Hill
#
# Bulk Modulus (GPa) = 26.92208 27.43182 27.17695
# Shear Modulus (GPa) = 7.41356 15.85290 11.63323
#
# Velocity S-wave (km/s) = 1.87824 2.74658 2.35282
# Velocity P-wave (km/s) = 4.18507 4.80749 4.50704
#
# Compressibility (1/GPa) = 0.03714424
#
# Stress axis : x y z
#
# Youngs Moduli (GPa) = 66.62593 66.52415 35.99788
#
# Poissons Ratio (x) = -0.08292 0.21206
# Poissons Ratio (y) = -0.08305 0.20497
# Poissons Ratio (z) = 0.39248 0.37879
#
# Static dielectric constant tensor:
#      x y z
#    x 1.781630 0.000000 0.000000 
#    y 0.000000 1.770690 0.000000 
#    z 0.000000 0.000000 1.782730 
# 
# From -- ./inp_files/10616.got.cif
#   From: 2010.05.17/outbox.cif.g08.bks.cpg/sg38_6_cif.got.tgz:10616.got - 2010.06.03 18:07:57.
