data_PCOD9358170
_publ_section_title
;
Structure prediction by ZEFSAII (Michael W. Deem and Ramdas Pophale) SiO2 
 PCOD9358170
Probable space group: A M M 2
;
_chemical_formula_sum "Si O2"
_cell_formula_units_Z 64
_cell_length_a 7.616002
_cell_length_b 26.189619
_cell_length_c 14.873512
_cell_angle_alpha 90.000000
_cell_angle_beta 90.000000
_cell_angle_gamma 90.000000
_cell_volume 2966.673540
_symmetry_space_group_name_H-M "A M M 2"
_symmetry_group_IT_number 38
_symmetry_cell_setting 'orthorhombic'
loop_
_space_group_symop_operation_xyz
x,y,z
-x,-y,z
-x,y,z
x,-y,z
x,1/2+y,1/2+z
-x,1/2-y,1/2+z
-x,1/2+y,1/2+z
x,1/2-y,1/2+z
loop_
_atom_site_type_symbol
_atom_site_label
_atom_site_fract_x
_atom_site_fract_y
_atom_site_fract_z
Si Si1 0.207561 0.865467 0.843880
Si Si2 0.703929 0.781127 0.517745
Si Si3 0.785505 0.770357 0.726702
Si Si4 0.704655 0.829861 0.027189
Si Si5 0.792057 0.556261 0.821064
Si Si6 0.286650 0.892190 0.502827
Si Si7 0.797365 0.656950 0.728592
Si Si8 0.711167 0.557970 0.187892
O O1 0.275097 0.814542 0.793458
O O2 0.244543 0.912567 0.778844
O O3 0.000000 0.860048 0.852642
O O4 0.280609 0.867830 0.944160
O O5 0.500000 0.780507 0.490631
O O6 0.719116 0.782829 0.626421
O O7 0.779575 0.725405 0.495207
O O8 0.779173 0.834606 0.483003
O O9 0.724513 0.713175 0.752043
O O10 0.000000 0.770208 0.722807
O O11 0.500000 0.822132 0.049253
O O12 0.791757 0.845888 0.120229
O O13 0.718988 0.500000 0.800218
O O14 0.769700 0.568910 0.926062
O O15 0.716045 0.605910 0.770310
O O16 0.000000 0.554345 0.800323
O O17 0.500000 0.890521 0.504021
O O18 0.225750 0.910755 0.600724
O O19 0.000000 0.658237 0.758205
O O20 0.500000 0.556346 0.181237
O O21 0.776663 0.500000 0.186536
#
# Coordination Sequence:
#
# PCOD9358170 Si02
#       8
#     8   8   8   8   8   8   8   8
#     4  11  22  35  55  84 115 150 189 231 280 335
#     4   9  18  33  53  80 112 145 181 221 272 327
#     4   9  18  32  52  79 108 142 181 222 273 330
#     4  10  21  36  56  83 114 147 185 233 282 335
#     4  10  22  38  57  82 111 146 188 231 277 329
#     4  10  20  35  56  83 114 149 184 222 275 334
#     4   9  19  38  58  78 109 146 186 234 284 333
#     4  10  21  38  59  81 111 152 192 233 280 329
#
# _framework density 21.572984000000002
#
# number of rings (size 3 to 8) (size 9 to 14) (size 15 to 20)
#    0.000    2.250    1.250    1.125    1.750    3.500 
#    0.000    0.625    0.000    2.250    0.000    0.000 
#    0.000    0.000    0.000    0.000    0.000    0.000 
#
# Total GULP energy -178685.529041 kJ/mol
# GULP energy per Si atom -5583.922783 kJ/mol
# Density = 2.152388 g / cm^3
# Si number density = 21.572984 Si / 1000 Ang^3
#
#
#
# Elastic Constant Matrix: (Units=GPa)
#
#
# Indices 1 2 3 4 5 6 
#
# 1 51.4037 2.7825 -9.8946 0.0000 0.0000 0.0000
# 2 2.7825 121.8732 23.1388 0.0000 0.0000 0.0000
# 3 -9.8946 23.1388 43.7975 0.0000 0.0000 0.0000
# 4 0.0000 0.0000 0.0000 30.3631 0.0000 0.0000
# 5 0.0000 0.0000 0.0000 0.0000 23.7134 0.0000
# 6 0.0000 0.0000 0.0000 0.0000 0.0000 10.0550
#
#
#
# Elastic Compliance Matrix: (Units=1/GPa)
#
#
# Indices 1 2 3 4 5 6 
#
# 1 0.020583 -0.001504 0.005445 0.000000 0.000000 0.000000
# 2 -0.001504 0.009230 -0.005216 0.000000 0.000000 0.000000
# 3 0.005445 -0.005216 0.026818 0.000000 0.000000 0.000000
# 4 0.000000 0.000000 0.000000 0.032935 0.000000 0.000000
# 5 0.000000 0.000000 0.000000 0.000000 0.042170 0.000000
# 6 0.000000 0.000000 0.000000 0.000000 0.000000 0.099453
#
#
# Mechanical properties :
#
#
# Convention : Reuss Voigt Hill
#
# Bulk Modulus (GPa) = 18.49078 27.68085 23.08581
# Shear Modulus (GPa) = 19.85967 26.22947 23.04457
#
# Velocity S-wave (km/s) = 3.03740 3.49068 3.27190
# Velocity P-wave (km/s) = 4.57066 5.39496 4.99983
#
# Compressibility (1/GPa) = 0.05408102
#
# Stress axis : x y z
#
# Youngs Moduli (GPa) = 48.58319 108.34380 37.28832
#
# Poissons Ratio (x) = 0.16291 -0.20302
# Poissons Ratio (y) = 0.07305 0.19449
# Poissons Ratio (z) = -0.26451 0.56512
#
# Static dielectric constant tensor:
#      x y z
#    x 1.810980 0.000000 0.000000 
#    y 0.000000 1.807210 0.000000 
#    z 0.000000 0.000000 1.758660 
# 
# From -- ./inp_files/12798.got.cif
#   From: 2010.05.17/outbox.cif.g08.bks.cpg/sg38_7_cif.got.tgz:12798.got - 2010.06.03 18:07:57.
