data_PCOD9358689
_publ_section_title
;
Structure prediction by ZEFSAII (Michael W. Deem and Ramdas Pophale) SiO2 
 PCOD9358689
Probable space group: A M M 2
;
_chemical_formula_sum "Si O2"
_cell_formula_units_Z 64
_cell_length_a 7.576171
_cell_length_b 29.244873
_cell_length_c 14.491735
_cell_angle_alpha 90.000000
_cell_angle_beta 90.000000
_cell_angle_gamma 90.000000
_cell_volume 3210.849074
_symmetry_space_group_name_H-M "A M M 2"
_symmetry_group_IT_number 38
_symmetry_cell_setting 'orthorhombic'
loop_
_space_group_symop_operation_xyz
x,y,z
-x,-y,z
-x,y,z
x,-y,z
x,1/2+y,1/2+z
-x,1/2-y,1/2+z
-x,1/2+y,1/2+z
x,1/2-y,1/2+z
loop_
_atom_site_type_symbol
_atom_site_label
_atom_site_fract_x
_atom_site_fract_y
_atom_site_fract_z
Si Si1 0.713190 0.448111 0.581630
Si Si2 0.296008 0.700297 0.083826
Si Si3 0.713190 0.948111 0.550288
Si Si4 0.283691 0.380298 0.210502
Si Si5 0.283691 0.880298 0.921415
Si Si6 0.791413 0.634018 0.711507
Si Si7 0.791413 0.865982 0.420411
Si Si8 0.703992 0.200297 0.048092
O O1 0.500000 0.449306 0.579382
O O2 0.777681 0.500000 0.587237
O O3 0.771295 0.421467 0.489005
O O4 0.764080 0.415902 0.667016
O O5 0.500000 0.708203 0.110815
O O6 0.221437 0.666827 0.162613
O O7 0.214834 0.750000 0.065959
O O8 0.291512 0.670395 0.990601
O O9 0.500000 0.949306 0.552536
O O10 0.771295 0.921467 0.642913
O O11 0.764080 0.915902 0.464902
O O12 0.777681 0.000000 0.544681
O O13 0.500000 0.379825 0.209376
O O14 0.227596 0.385019 0.315959
O O15 0.500000 0.879825 0.922542
O O16 0.221437 0.833173 0.969305
O O17 0.724296 0.636568 0.815959
O O18 0.708488 0.670395 0.641317
O O19 0.000000 0.643289 0.712350
O O20 0.000000 0.856711 0.419568
O O21 0.500000 0.208203 0.021103
#
# Coordination Sequence:
#
# PCOD9358689 Si02
#       8
#     8   8   8   8   8   8   8   8
#     4   9  18  32  50  72  96 124 161 205 251 294
#     4   9  18  32  51  75 100 127 161 201 242 283
#     4   9  18  32  50  72  96 124 161 205 251 294
#     4   8  14  26  45  70  98 124 153 192 238 288
#     4   8  14  26  45  70  98 124 153 192 238 288
#     4  10  21  35  50  70  98 132 166 199 240 291
#     4  10  21  35  50  70  98 132 166 199 240 291
#     4   9  18  32  51  75 100 127 161 201 242 283
#
# _framework density 19.932421999999999
#
# number of rings (size 3 to 8) (size 9 to 14) (size 15 to 20)
#    0.000    3.000    0.000    2.250    0.000    5.000 
#    0.000    7.500    0.000   12.000    0.000    7.000 
#    0.000    0.000    0.000    0.000    0.000    0.000 
#
# Total GULP energy -178439.672368 kJ/mol
# GULP energy per Si atom -5576.239762 kJ/mol
# Density = 1.988705 g / cm^3
# Si number density = 19.932422 Si / 1000 Ang^3
#
#
#
# Elastic Constant Matrix: (Units=GPa)
#
#
# Indices 1 2 3 4 5 6 
#
# 1 45.7090 -11.6414 -17.1714 0.0000 0.0000 0.0000
# 2 -11.6414 118.9356 15.9011 0.0000 0.0000 0.0000
# 3 -17.1714 15.9011 109.2954 0.0000 0.0000 0.0000
# 4 0.0000 0.0000 0.0000 5.6499 0.0000 0.0000
# 5 0.0000 0.0000 0.0000 0.0000 35.8158 0.0000
# 6 0.0000 0.0000 0.0000 0.0000 0.0000 87.8034
#
#
#
# Elastic Compliance Matrix: (Units=1/GPa)
#
#
# Indices 1 2 3 4 5 6 
#
# 1 0.023644 0.001854 0.003445 0.000000 0.000000 0.000000
# 2 0.001854 0.008720 -0.000977 0.000000 0.000000 0.000000
# 3 0.003445 -0.000977 0.009833 0.000000 0.000000 0.000000
# 4 0.000000 0.000000 0.000000 0.176995 0.000000 0.000000
# 5 0.000000 0.000000 0.000000 0.000000 0.027921 0.000000
# 6 0.000000 0.000000 0.000000 0.000000 0.000000 0.011389
#
#
# Mechanical properties :
#
#
# Convention : Reuss Voigt Hill
#
# Bulk Modulus (GPa) = 19.66983 27.56851 23.61917
# Shear Modulus (GPa) = 18.74026 44.97728 31.85877
#
# Velocity S-wave (km/s) = 3.06958 4.75540 4.00226
# Velocity P-wave (km/s) = 4.73843 6.63422 5.76479
#
# Compressibility (1/GPa) = 0.05083928
#
# Stress axis : x y z
#
# Youngs Moduli (GPa) = 42.29438 114.67860 101.69878
#
# Poissons Ratio (x) = -0.21258 -0.35035
# Poissons Ratio (y) = -0.07840 0.09940
# Poissons Ratio (z) = -0.14570 0.11209
#
# Static dielectric constant tensor:
#      x y z
#    x 1.772310 0.000000 0.000000 
#    y 0.000000 1.695650 0.000000 
#    z 0.000000 0.000000 1.672480 
# 
# From -- ./inp_files/13096.got.cif
#   From: 2010.05.17/outbox.cif.g08.bks.cpg/sg38_7_cif.got.tgz:13096.got - 2010.06.03 18:07:57.
