data_PCOD9358115
_publ_section_title
;
Structure prediction by ZEFSAII (Michael W. Deem and Ramdas Pophale) SiO2 
 PCOD9358115
Probable space group: A M M 2
;
_chemical_formula_sum "Si O2"
_cell_formula_units_Z 64
_cell_length_a 24.483772
_cell_length_b 7.494231
_cell_length_c 16.122375
_cell_angle_alpha 90.000000
_cell_angle_beta 90.000000
_cell_angle_gamma 90.000000
_cell_volume 2958.246917
_symmetry_space_group_name_H-M "A M M 2"
_symmetry_group_IT_number 38
_symmetry_cell_setting 'orthorhombic'
loop_
_space_group_symop_operation_xyz
x,y,z
-x,-y,z
-x,y,z
x,-y,z
x,1/2+y,1/2+z
-x,1/2-y,1/2+z
-x,1/2+y,1/2+z
x,1/2-y,1/2+z
loop_
_atom_site_type_symbol
_atom_site_label
_atom_site_fract_x
_atom_site_fract_y
_atom_site_fract_z
Si Si1 0.632964 0.281223 0.094230
Si Si2 0.562327 0.786482 0.750589
Si Si3 0.179021 0.706660 0.250272
Si Si4 0.827793 0.287464 0.427606
Si Si5 0.939770 0.784597 0.195551
Si Si6 0.241866 0.215310 0.589721
Si Si7 0.940196 0.782748 0.001101
Si Si8 0.437675 0.786445 0.437797
O O1 0.633077 0.500000 0.094310
O O2 0.600960 0.221980 0.176793
O O3 0.695707 0.223339 0.093544
O O4 0.600800 0.221996 0.011775
O O5 0.500000 0.717310 0.743284
O O6 0.581832 0.750376 0.844226
O O7 0.559490 0.000000 0.741780
O O8 0.196274 0.500000 0.251095
O O9 0.192904 0.785871 0.339876
O O10 0.113485 0.714734 0.241254
O O11 0.207006 0.784492 0.168235
O O12 0.834459 0.500000 0.416305
O O13 0.787638 0.262291 0.504256
O O14 0.887648 0.216334 0.452145
O O15 0.935168 0.733911 0.098276
O O16 0.000000 0.726649 0.225299
O O17 0.938229 0.000000 0.199376
O O18 0.242167 0.000000 0.592544
O O19 0.000000 0.724380 0.970964
O O20 0.939761 0.000000 0.999149
O O21 0.500000 0.717415 0.445111
O O22 0.440456 0.000000 0.446382
#
# Coordination Sequence:
#
# PCOD9358115 Si02
#       8
#     8   8   8   8   8   8   8   8
#     4   9  18  33  53  72  98 140 178 204 243 304
#     4   9  17  31  53  80 107 135 167 204 251 305
#     4  10  21  34  51  76 103 130 165 211 259 300
#     4  10  20  35  55  76  99 132 170 207 252 307
#     4   9  17  31  53  77 100 129 164 202 248 305
#     4  10  21  37  52  71 102 136 172 215 254 289
#     4   8  14  27  49  73  95 123 159 197 240 297
#     4   9  17  31  52  77 103 131 167 210 251 295
#
# _framework density 21.634436000000001
#
# number of rings (size 3 to 8) (size 9 to 14) (size 15 to 20)
#    0.000    2.750    1.250    1.125    0.000    3.750 
#    0.000    4.375    0.000    3.375    0.000    0.000 
#    0.000    0.000    0.000    0.000    0.000    0.000 
#
# Total GULP energy -178641.651878 kJ/mol
# GULP energy per Si atom -5582.551621 kJ/mol
# Density = 2.158519 g / cm^3
# Si number density = 21.634436 Si / 1000 Ang^3
#
#
#
# Elastic Constant Matrix: (Units=GPa)
#
#
# Indices 1 2 3 4 5 6 
#
# 1 121.1347 -5.0497 103.2883 0.0000 0.0000 0.0000
# 2 -5.0497 57.4479 -1.0878 0.0000 0.0000 0.0000
# 3 103.2883 -1.0878 195.4378 0.0000 0.0000 0.0000
# 4 0.0000 0.0000 0.0000 10.1446 0.0000 0.0000
# 5 0.0000 0.0000 0.0000 0.0000 -9.0421 0.0000
# 6 0.0000 0.0000 0.0000 0.0000 0.0000 6.6708
#
#
#
# Elastic Compliance Matrix: (Units=1/GPa)
#
#
# Indices 1 2 3 4 5 6 
#
# 1 0.015106 0.001177 -0.007977 0.000000 0.000000 0.000000
# 2 0.001177 0.017501 -0.000525 0.000000 0.000000 0.000000
# 3 -0.007977 -0.000525 0.009330 0.000000 0.000000 0.000000
# 4 0.000000 0.000000 0.000000 0.098574 0.000000 0.000000
# 5 0.000000 0.000000 0.000000 0.000000 -0.110593 0.000000
# 6 0.000000 0.000000 0.000000 0.000000 0.000000 0.149907
#
#
# Mechanical properties :
#
#
# Convention : Reuss Voigt Hill
#
# Bulk Modulus (GPa) = 36.64771 63.14691 49.89731
# Shear Modulus (GPa) = 24.56163 20.01263 22.28713
#
# Velocity S-wave (km/s) = 3.37308 3.04474 3.21311
# Velocity P-wave (km/s) = 5.66979 6.45074 6.07283
#
# Compressibility (1/GPa) = 0.02728684
#
# Stress axis : x y z
#
# Youngs Moduli (GPa) = 66.19857 57.14098 107.18574
#
# Poissons Ratio (x) = -0.06724 0.85502
# Poissons Ratio (y) = -0.07790 0.05622
# Poissons Ratio (z) = 0.52806 0.02997
#
# Static dielectric constant tensor:
#      x y z
#    x 1.757620 0.000000 0.000000 
#    y 0.000000 1.824650 0.000000 
#    z 0.000000 0.000000 1.785610 
# 
# From -- ./inp_files/18880.got.cif
#   From: 2010.05.17/outbox.cif.g08.bks.cpg/sg38_10_cif.got.tgz:18880.got - 2010.06.03 18:07:57.
