data_PCOD9358804
_publ_section_title
;
Structure prediction by ZEFSAII (Michael W. Deem and Ramdas Pophale) SiO2 
 PCOD9358804
Probable space group: A M M 2
;
_chemical_formula_sum "Si O2"
_cell_formula_units_Z 58
_cell_length_a 15.504322
_cell_length_b 7.307187
_cell_length_c 24.538479
_cell_angle_alpha 90.000000
_cell_angle_beta 90.000000
_cell_angle_gamma 90.000000
_cell_volume 2780.037415
_symmetry_space_group_name_H-M "A M M 2"
_symmetry_group_IT_number 38
_symmetry_cell_setting 'orthorhombic'
loop_
_space_group_symop_operation_xyz
x,y,z
-x,-y,z
-x,y,z
x,-y,z
x,1/2+y,1/2+z
-x,1/2-y,1/2+z
-x,1/2+y,1/2+z
x,1/2-y,1/2+z
loop_
_atom_site_type_symbol
_atom_site_label
_atom_site_fract_x
_atom_site_fract_y
_atom_site_fract_z
Si Si1 0.400448 0.277271 0.345440
Si Si2 0.095636 0.220778 0.451331
Si Si3 0.000000 0.000000 0.165819
Si Si4 0.764075 0.216520 0.535647
Si Si5 0.258520 0.722233 0.261339
Si Si6 0.093252 0.287008 0.324129
Si Si7 0.164515 0.276232 0.153125
Si Si8 0.598111 0.781264 0.967350
O O1 0.500000 0.223690 0.339001
O O2 0.397983 0.500000 0.345507
O O3 0.341083 0.214463 0.295639
O O4 0.372325 0.218661 0.406645
O O5 0.170849 0.290688 0.489776
O O6 0.105295 0.278337 0.388884
O O7 0.000000 0.277348 0.470412
O O8 0.097115 0.000000 0.451044
O O9 0.922615 0.161529 0.163846
O O10 0.794433 0.278182 0.594931
O O11 0.667117 0.242197 0.514194
O O12 0.777616 0.000000 0.537013
O O13 0.261710 0.500000 0.264095
O O14 0.174859 0.790558 0.294044
O O15 0.236584 0.765635 0.199187
O O16 0.089565 0.500000 0.308661
O O17 0.000000 0.204671 0.310535
O O18 0.148832 0.500000 0.154396
O O19 0.500000 0.714936 0.976915
O O20 0.593161 0.000000 0.963949
#
# Coordination Sequence:
#
# PCOD9358804 Si02
#       8
#     8   8   2   8   8   8   8   8
#     4   8  14  27  52  87 117 147 193 241 291 357
#     4   9  18  32  47  70 103 141 176 221 285 341
#     4  12  26  44  64  90 110 164 214 252 292 360
#     4  10  21  36  55  78 112 152 191 240 292 350
#     4   9  17  32  54  76 109 150 187 239 295 342
#     4   9  17  29  46  72  99 135 181 225 280 345
#     4  10  24  43  61  87 120 154 203 255 300 347
#     4   9  18  33  57  87 117 149 190 244 298 352
#
# _framework density 20.863028
#
# number of rings (size 3 to 8) (size 9 to 14) (size 15 to 20)
#    0.000    2.759    0.000    1.862    2.897    1.931 
#    1.241    0.690    1.517    2.483    0.000    0.000 
#    0.000    0.000    0.000    0.000    0.000    0.000 
#
# Total GULP energy -161486.869032 kJ/mol
# GULP energy per Si atom -5568.512725 kJ/mol
# Density = 2.081554 g / cm^3
# Si number density = 20.863028 Si / 1000 Ang^3
#
#
#
# Elastic Constant Matrix: (Units=GPa)
#
#
# Indices 1 2 3 4 5 6 
#
# 1 78.4608 -0.1770 43.2737 0.0000 0.0000 0.0000
# 2 -0.1770 100.5096 -3.1694 0.0000 0.0000 0.0000
# 3 43.2737 -3.1694 53.7366 0.0000 0.0000 0.0000
# 4 0.0000 0.0000 0.0000 3.1928 0.0000 0.0000
# 5 0.0000 0.0000 0.0000 0.0000 -7.0297 0.0000
# 6 0.0000 0.0000 0.0000 0.0000 0.0000 5.4568
#
#
#
# Elastic Compliance Matrix: (Units=1/GPa)
#
#
# Indices 1 2 3 4 5 6 
#
# 1 0.022959 -0.000544 -0.018521 0.000000 0.000000 0.000000
# 2 -0.000544 0.009981 0.001026 0.000000 0.000000 0.000000
# 3 -0.018521 0.001026 0.033584 0.000000 0.000000 0.000000
# 4 0.000000 0.000000 0.000000 0.313206 0.000000 0.000000
# 5 0.000000 0.000000 0.000000 0.000000 -0.142254 0.000000
# 6 0.000000 0.000000 0.000000 0.000000 0.000000 0.183256
#
#
# Mechanical properties :
#
#
# Convention : Reuss Voigt Hill
#
# Bulk Modulus (GPa) = 32.84257 34.72905 33.78581
# Shear Modulus (GPa) = 10.70762 13.17596 11.94179
#
# Velocity S-wave (km/s) = 2.26792 2.51578 2.39506
# Velocity P-wave (km/s) = 4.75754 5.01211 4.88648
#
# Compressibility (1/GPa) = 0.03044829
#
# Stress axis : x y z
#
# Youngs Moduli (GPa) = 43.55651 100.19325 29.77581
#
# Poissons Ratio (x) = 0.05446 0.55146
# Poissons Ratio (y) = 0.02368 -0.03056
# Poissons Ratio (z) = 0.80669 -0.10284
#
# Static dielectric constant tensor:
#      x y z
#    x 1.747650 0.000000 0.000000 
#    y 0.000000 1.875350 0.000000 
#    z 0.000000 0.000000 1.749720 
# 
# From -- ./inp_files/22859.got.cif
#   From: 2010.05.17/outbox.cif.g08.bks.cpg/sg38_12_cif.got.tgz:22859.got - 2010.06.03 18:07:57.
