data_PCOD9358758
_publ_section_title
;
Structure prediction by ZEFSAII (Michael W. Deem and Ramdas Pophale) SiO2 
 PCOD9358758
Probable space group: A M M 2
;
_chemical_formula_sum "Si O2"
_cell_formula_units_Z 64
_cell_length_a 20.496434
_cell_length_b 8.605804
_cell_length_c 20.817505
_cell_angle_alpha 90.000000
_cell_angle_beta 90.000000
_cell_angle_gamma 90.000000
_cell_volume 3671.964186
_symmetry_space_group_name_H-M "A M M 2"
_symmetry_group_IT_number 38
_symmetry_cell_setting 'orthorhombic'
loop_
_space_group_symop_operation_xyz
x,y,z
-x,-y,z
-x,y,z
x,-y,z
x,1/2+y,1/2+z
-x,1/2-y,1/2+z
-x,1/2+y,1/2+z
x,1/2-y,1/2+z
loop_
_atom_site_type_symbol
_atom_site_label
_atom_site_fract_x
_atom_site_fract_y
_atom_site_fract_z
Si Si1 0.574761 0.812581 0.543970
Si Si2 0.172231 0.812428 0.795362
Si Si3 0.677208 0.687428 0.442056
Si Si4 0.075203 0.314167 0.688673
Si Si5 0.172906 0.187497 0.942788
Si Si6 0.321826 0.310544 0.295674
Si Si7 0.574515 0.189525 0.690663
Si Si8 0.924803 0.685879 0.048998
O O1 0.500000 0.764302 0.529738
O O2 0.626060 0.749969 0.493093
O O3 0.589890 0.763540 0.617396
O O4 0.576245 0.000000 0.542768
O O5 0.122216 0.744788 0.744437
O O6 0.157529 0.766847 0.869132
O O7 0.247140 0.764796 0.781514
O O8 0.169790 0.000000 0.792427
O O9 0.675589 0.500000 0.443111
O O10 0.752048 0.734743 0.456228
O O11 0.662079 0.737101 0.368717
O O12 0.076695 0.500000 0.686406
O O13 0.094891 0.249343 0.618945
O O14 0.000000 0.264117 0.700132
O O15 0.170555 0.000000 0.945570
O O16 0.122818 0.254936 0.993745
O O17 0.322762 0.500000 0.295194
O O18 0.373396 0.255623 0.242922
O O19 0.500000 0.236607 0.705367
O O20 0.575326 0.000000 0.691484
O O21 0.923540 0.500000 0.050755
O O22 0.000000 0.736508 0.037500
#
# Coordination Sequence:
#
# PCOD9358758 Si02
#       8
#     8   8   8   8   8   8   8   8
#     4   9  18  31  46  68  99 131 163 202 248 295
#     4   9  18  33  52  74 102 133 164 202 247 297
#     4   9  18  32  50  73  99 126 160 202 244 291
#     4  10  21  36  53  74 102 133 164 203 250 297
#     4   9  19  35  52  73 104 136 164 203 257 307
#     4   8  15  29  48  71  97 123 157 201 242 280
#     4   8  14  26  45  68  93 122 158 198 236 277
#     4  10  21  36  54  76 100 128 168 213 250 294
#
# _framework density 17.429364
#
# number of rings (size 3 to 8) (size 9 to 14) (size 15 to 20)
#    0.000    3.000    0.000    3.000    0.000    4.750 
#    0.000    6.875    0.000    0.750    0.000    0.000 
#    0.000    0.000    0.000    0.000    0.000    0.000 
#
# Total GULP energy -178376.922461 kJ/mol
# GULP energy per Si atom -5574.278827 kJ/mol
# Density = 1.738969 g / cm^3
# Si number density = 17.429364 Si / 1000 Ang^3
#
#
#
# Elastic Constant Matrix: (Units=GPa)
#
#
# Indices 1 2 3 4 5 6 
#
# 1 133.7411 29.4693 138.7791 0.0000 0.0000 0.0000
# 2 29.4693 13.4769 33.9670 0.0000 0.0000 0.0000
# 3 138.7791 33.9670 175.7353 0.0000 0.0000 0.0000
# 4 0.0000 0.0000 0.0000 28.8859 0.0000 0.0000
# 5 0.0000 0.0000 0.0000 0.0000 43.4101 0.0000
# 6 0.0000 0.0000 0.0000 0.0000 0.0000 26.0752
#
#
#
# Elastic Compliance Matrix: (Units=1/GPa)
#
#
# Indices 1 2 3 4 5 6 
#
# 1 0.043226 -0.016544 -0.030938 0.000000 0.000000 0.000000
# 2 -0.016544 0.151017 -0.016124 0.000000 0.000000 0.000000
# 3 -0.030938 -0.016124 0.033239 0.000000 0.000000 0.000000
# 4 0.000000 0.000000 0.000000 0.034619 0.000000 0.000000
# 5 0.000000 0.000000 0.000000 0.000000 0.023036 0.000000
# 6 0.000000 0.000000 0.000000 0.000000 0.000000 0.038351
#
#
# Mechanical properties :
#
#
# Convention : Reuss Voigt Hill
#
# Bulk Modulus (GPa) = 9.97317 80.82045 45.39681
# Shear Modulus (GPa) = 10.32789 27.72342 19.02566
#
# Velocity S-wave (km/s) = 2.43689 3.99258 3.30750
# Velocity P-wave (km/s) = 3.69491 8.22953 6.37878
#
# Compressibility (1/GPa) = 0.10026904
#
# Stress axis : x y z
#
# Youngs Moduli (GPa) = 23.13397 6.62175 30.08499
#
# Poissons Ratio (x) = 0.10955 0.93078
# Poissons Ratio (y) = 0.38274 0.48510
# Poissons Ratio (z) = 0.71573 0.10677
#
# Static dielectric constant tensor:
#      x y z
#    x 1.582730 0.000000 0.000000 
#    y 0.000000 1.598200 0.000000 
#    z 0.000000 0.000000 1.571590 
# 
# From -- ./inp_files/18841.got.cif
#   From: 2010.05.17/outbox.cif.g08.bks.cpg/sg38_10_cif.got.tgz:18841.got - 2010.06.03 18:07:57.
