data_PCOD9358538
_publ_section_title
;
Structure prediction by ZEFSAII (Michael W. Deem and Ramdas Pophale) SiO2 
 PCOD9358538
Probable space group: A M M 2
;
_chemical_formula_sum "Si O2"
_cell_formula_units_Z 48
_cell_length_a 8.469661
_cell_length_b 14.294170
_cell_length_c 19.210919
_cell_angle_alpha 90.000000
_cell_angle_beta 90.000000
_cell_angle_gamma 90.000000
_cell_volume 2325.803992
_symmetry_space_group_name_H-M "A M M 2"
_symmetry_group_IT_number 38
_symmetry_cell_setting 'orthorhombic'
loop_
_space_group_symop_operation_xyz
x,y,z
-x,-y,z
-x,y,z
x,-y,z
x,1/2+y,1/2+z
-x,1/2-y,1/2+z
-x,1/2+y,1/2+z
x,1/2-y,1/2+z
loop_
_atom_site_type_symbol
_atom_site_label
_atom_site_fract_x
_atom_site_fract_y
_atom_site_fract_z
Si Si1 0.692772 0.195125 0.317350
Si Si2 0.684162 0.101281 0.830668
Si Si3 0.820968 0.252812 0.067512
Si Si4 0.690045 0.392448 0.670455
Si Si5 0.676131 0.106194 0.663353
Si Si6 0.689736 0.102938 0.457609
O O1 0.500000 0.203185 0.313711
O O2 0.753266 0.296281 0.344577
O O3 0.744555 0.162485 0.240569
O O4 0.730729 0.121096 0.377075
O O5 0.500000 0.101110 0.853602
O O6 0.683101 0.102164 0.746372
O O7 0.752910 0.000000 0.852663
O O8 0.739276 0.161988 0.100658
O O9 0.804630 0.328475 0.129819
O O10 0.000000 0.230533 0.050998
O O11 0.745788 0.310139 0.003923
O O12 0.500000 0.393387 0.673590
O O13 0.745175 0.500000 0.671730
O O14 0.500000 0.142685 0.644590
O O15 0.687277 0.000000 0.637980
O O16 0.500000 0.101183 0.462772
O O17 0.749845 0.000000 0.479022
#
# Coordination Sequence:
#
# PCOD9358538 Si02
#       6
#     8   8   8   8   8   8
#     4   9  16  31  57  87 116 143 183 239 292 340
#     4   8  13  23  46  81 113 137 167 218 281 333
#     4  12  24  36  52  78 115 155 190 229 282 341
#     4  10  20  37  63  89 111 142 189 242 292 343
#     4   9  16  29  52  79 107 140 180 229 280 325
#     4  10  21  37  58  84 114 151 194 240 289 338
#
# _framework density 20.638024999999999
#
# number of rings (size 3 to 8) (size 9 to 14) (size 15 to 20)
#    0.000    2.333    1.667    3.500    0.000    5.000 
#    0.000    1.667    0.000    5.000    0.000    0.000 
#    0.000    0.000    0.000    0.000    0.000    0.000 
#
# Total GULP energy -133716.182117 kJ/mol
# GULP energy per Si atom -5571.507588 kJ/mol
# Density = 2.059105 g / cm^3
# Si number density = 20.638025 Si / 1000 Ang^3
#
#
#
# Elastic Constant Matrix: (Units=GPa)
#
#
# Indices 1 2 3 4 5 6 
#
# 1 15.7807 13.8110 9.5986 0.0000 0.0000 0.0000
# 2 13.8110 144.9122 34.3270 0.0000 0.0000 0.0000
# 3 9.5986 34.3270 70.1036 0.0000 0.0000 0.0000
# 4 0.0000 0.0000 0.0000 20.0770 0.0000 0.0000
# 5 0.0000 0.0000 0.0000 0.0000 -28.4654 0.0000
# 6 0.0000 0.0000 0.0000 0.0000 0.0000 2.0091
#
#
#
# Elastic Compliance Matrix: (Units=1/GPa)
#
#
# Indices 1 2 3 4 5 6 
#
# 1 0.072367 -0.005147 -0.007388 0.000000 0.000000 0.000000
# 2 -0.005147 0.008172 -0.003297 0.000000 0.000000 0.000000
# 3 -0.007388 -0.003297 0.016891 0.000000 0.000000 0.000000
# 4 0.000000 0.000000 0.000000 0.049808 0.000000 0.000000
# 5 0.000000 0.000000 0.000000 0.000000 -0.035130 0.000000
# 6 0.000000 0.000000 0.000000 0.000000 0.000000 0.497729
#
#
# Mechanical properties :
#
#
# Convention : Reuss Voigt Hill
#
# Bulk Modulus (GPa) = 15.20551 38.47441 26.83996
# Shear Modulus (GPa) = 7.53667 10.26147 8.89907
#
# Velocity S-wave (km/s) = 1.91305 2.23224 2.07878
# Velocity P-wave (km/s) = 3.50191 5.03258 4.33533
#
# Compressibility (1/GPa) = 0.06576562
#
# Stress axis : x y z
#
# Youngs Moduli (GPa) = 13.81848 122.36552 59.20462
#
# Poissons Ratio (x) = 0.62980 0.43742
# Poissons Ratio (y) = 0.07112 0.19519
# Poissons Ratio (z) = 0.10209 0.40343
#
# Static dielectric constant tensor:
#      x y z
#    x 1.730480 0.000000 0.000000 
#    y 0.000000 1.807680 0.000000 
#    z 0.000000 0.000000 1.738440 
# 
# From -- ./inp_files/19626.got.cif
#   From: 2010.05.17/outbox.cif.g08.bks.cpg/sg38_10_cif.got.tgz:19626.got - 2010.06.03 18:07:57.
