data_PCOD9358532
_publ_section_title
;
Structure prediction by ZEFSAII (Michael W. Deem and Ramdas Pophale) SiO2 
 PCOD9358532
Probable space group: A M M 2
;
_chemical_formula_sum "Si O2"
_cell_formula_units_Z 64
_cell_length_a 8.171280
_cell_length_b 31.640000
_cell_length_c 12.232569
_cell_angle_alpha 90.000000
_cell_angle_beta 90.000000
_cell_angle_gamma 90.000000
_cell_volume 3162.599817
_symmetry_space_group_name_H-M "A M M 2"
_symmetry_group_IT_number 38
_symmetry_cell_setting 'orthorhombic'
loop_
_space_group_symop_operation_xyz
x,y,z
-x,-y,z
-x,y,z
x,-y,z
x,1/2+y,1/2+z
-x,1/2-y,1/2+z
-x,1/2+y,1/2+z
x,1/2-y,1/2+z
loop_
_atom_site_type_symbol
_atom_site_label
_atom_site_fract_x
_atom_site_fract_y
_atom_site_fract_z
Si Si1 0.305297 0.045990 0.275460
Si Si2 0.811605 0.699335 0.227613
Si Si3 0.305092 0.371560 0.391600
Si Si4 0.299985 0.872142 0.143476
Si Si5 0.801781 0.452836 0.256353
Si Si6 0.810270 0.568542 0.012708
Si Si7 0.302297 0.707930 0.787763
Si Si8 0.689269 0.338084 0.009232
O O1 0.500000 0.045354 0.256422
O O2 0.240621 0.086716 0.210194
O O3 0.276982 0.051979 0.404516
O O4 0.238253 0.000000 0.241930
O O5 0.775155 0.666710 0.325045
O O6 0.773855 0.746994 0.262056
O O7 0.705105 0.685820 0.123445
O O8 0.000000 0.695043 0.194961
O O9 0.500000 0.364697 0.390695
O O10 0.249347 0.373237 0.517315
O O11 0.266943 0.415293 0.329851
O O12 0.500000 0.872768 0.146218
O O13 0.250908 0.828997 0.204012
O O14 0.757198 0.500000 0.294105
O O15 0.000000 0.449346 0.256560
O O16 0.747362 0.447150 0.130176
O O17 0.000000 0.556237 0.004609
O O18 0.792116 0.619137 0.013303
O O19 0.500000 0.712161 0.781873
O O20 0.260396 0.691458 0.908780
O O21 0.500000 0.350620 0.989769
#
# Coordination Sequence:
#
# PCOD9358532 Si02
#       8
#     8   8   8   8   8   8   8   8
#     4  10  20  37  62  90 121 159 203 251 303 360
#     4  12  26  42  61  91 129 161 198 246 305 365
#     4  11  23  40  64  90 118 158 209 255 300 356
#     4   9  20  40  62  88 119 155 202 256 305 349
#     4  10  22  40  60  85 122 164 200 245 308 364
#     4  11  21  36  60  90 126 161 197 247 308 360
#     4  10  22  42  66  90 120 158 203 251 302 356
#     4  11  22  40  68  94 120 157 204 252 301 354
#
# _framework density 20.236514
#
# number of rings (size 3 to 8) (size 9 to 14) (size 15 to 20)
#    0.000    1.500    2.500    2.625    1.750    3.000 
#    0.000    3.125    0.000    0.000    0.000    0.000 
#    0.000    0.000    0.000    0.000    0.000    0.000 
#
# Total GULP energy -178869.068296 kJ/mol
# GULP energy per Si atom -5589.658384 kJ/mol
# Density = 2.019046 g / cm^3
# Si number density = 20.236514 Si / 1000 Ang^3
#
#
#
# Elastic Constant Matrix: (Units=GPa)
#
#
# Indices 1 2 3 4 5 6 
#
# 1 20.2210 3.3790 -3.5589 0.0000 0.0000 0.0000
# 2 3.3790 159.6718 57.8178 0.0000 0.0000 0.0000
# 3 -3.5589 57.8178 123.3175 0.0000 0.0000 0.0000
# 4 0.0000 0.0000 0.0000 38.8099 0.0000 0.0000
# 5 0.0000 0.0000 0.0000 0.0000 -33.8341 0.0000
# 6 0.0000 0.0000 0.0000 0.0000 0.0000 7.0412
#
#
#
# Elastic Compliance Matrix: (Units=1/GPa)
#
#
# Indices 1 2 3 4 5 6 
#
# 1 0.050185 -0.001911 0.002344 0.000000 0.000000 0.000000
# 2 -0.001911 0.007616 -0.003626 0.000000 0.000000 0.000000
# 3 0.002344 -0.003626 0.009877 0.000000 0.000000 0.000000
# 4 0.000000 0.000000 0.000000 0.025767 0.000000 0.000000
# 5 0.000000 0.000000 0.000000 0.000000 -0.029556 0.000000
# 6 0.000000 0.000000 0.000000 0.000000 0.000000 0.142022
#
#
# Mechanical properties :
#
#
# Convention : Reuss Voigt Hill
#
# Bulk Modulus (GPa) = 16.31504 46.49845 31.40675
# Shear Modulus (GPa) = 21.48435 18.77488 20.12962
#
# Velocity S-wave (km/s) = 3.26185 3.04924 3.15734
# Velocity P-wave (km/s) = 4.71868 5.95185 5.37078
#
# Compressibility (1/GPa) = 0.06129313
#
# Stress axis : x y z
#
# Youngs Moduli (GPa) = 19.92614 131.29735 101.24630
#
# Poissons Ratio (x) = 0.25090 -0.23735
# Poissons Ratio (y) = 0.03808 0.36713
# Poissons Ratio (z) = -0.04671 0.47609
#
# Static dielectric constant tensor:
#      x y z
#    x 1.722170 0.000000 0.000000 
#    y 0.000000 1.686250 0.000000 
#    z 0.000000 0.000000 1.688030 
# 
# From -- ./inp_files/8628.got.cif
#   From: 2010.05.17/outbox.cif.g08.bks.cpg/sg38_5_cif.got.tgz:8628.got - 2010.06.03 18:07:57.
