data_PCOD9358810
_publ_section_title
;
Structure prediction by ZEFSAII (Michael W. Deem and Ramdas Pophale) SiO2 
 PCOD9358810
Probable space group: A M M 2
;
_chemical_formula_sum "Si O2"
_cell_formula_units_Z 40
_cell_length_a 9.442292
_cell_length_b 8.064887
_cell_length_c 26.477006
_cell_angle_alpha 90.000000
_cell_angle_beta 90.000000
_cell_angle_gamma 90.000000
_cell_volume 2016.250961
_symmetry_space_group_name_H-M "A M M 2"
_symmetry_group_IT_number 38
_symmetry_cell_setting 'orthorhombic'
loop_
_space_group_symop_operation_xyz
x,y,z
-x,-y,z
-x,y,z
x,-y,z
x,1/2+y,1/2+z
-x,1/2-y,1/2+z
-x,1/2+y,1/2+z
x,1/2-y,1/2+z
loop_
_atom_site_type_symbol
_atom_site_label
_atom_site_fract_x
_atom_site_fract_y
_atom_site_fract_z
Si Si1 0.839169 0.300842 0.714470
Si Si2 0.838200 0.299460 0.019764
Si Si3 0.662574 0.799951 0.423157
Si Si4 0.661934 0.700293 0.618031
Si Si5 0.662120 0.197891 0.810924
O O1 0.845851 0.500000 0.709730
O O2 0.745542 0.238352 0.667521
O O3 0.762674 0.261918 0.766962
O O4 0.000000 0.236538 0.712828
O O5 0.841154 0.500000 0.018183
O O6 0.746536 0.248365 0.067944
O O7 0.000000 0.240092 0.023728
O O8 0.762367 0.240866 0.968368
O O9 0.500000 0.741751 0.430437
O O10 0.708785 0.747934 0.367195
O O11 0.660823 0.000000 0.424619
O O12 0.500000 0.761056 0.616871
O O13 0.657400 0.500000 0.620502
O O14 0.500000 0.260846 0.804090
O O15 0.658688 0.000000 0.808166
#
# Coordination Sequence:
#
# PCOD9358810 Si02
#       5
#     8   8   8   8   8
#     4  10  21  37  57  80 107 141 180 221 267 320
#     4  10  21  36  55  81 112 144 178 218 266 319
#     4   9  18  34  55  77 105 144 186 224 262 310
#     4  10  21  37  58  82 107 139 180 223 267 317
#     4  10  21  36  55  81 111 142 178 221 268 317
#
# _framework density 19.838799999999999
#
# number of rings (size 3 to 8) (size 9 to 14) (size 15 to 20)
#    0.000    2.200    0.000    2.400    0.000    7.200 
#    0.000    4.000    0.000    0.000    0.000    0.000 
#    0.000    0.000    0.000    0.000    0.000    0.000 
#
# Total GULP energy -111711.050895 kJ/mol
# GULP energy per Si atom -5585.552545 kJ/mol
# Density = 1.979365 g / cm^3
# Si number density = 19.838800 Si / 1000 Ang^3
#
#
#
# Elastic Constant Matrix: (Units=GPa)
#
#
# Indices 1 2 3 4 5 6 
#
# 1 187.0930 13.6827 143.6177 0.0000 0.0000 0.0000
# 2 13.6827 9.5245 5.1785 0.0000 0.0000 0.0000
# 3 143.6177 5.1785 202.6015 0.0000 0.0000 0.0000
# 4 0.0000 0.0000 0.0000 31.0519 0.0000 0.0000
# 5 0.0000 0.0000 0.0000 0.0000 -227.9877 0.0000
# 6 0.0000 0.0000 0.0000 0.0000 0.0000 20.9704
#
#
#
# Elastic Compliance Matrix: (Units=1/GPa)
#
#
# Indices 1 2 3 4 5 6 
#
# 1 0.013402 -0.014287 -0.009135 0.000000 0.000000 0.000000
# 2 -0.014287 0.121701 0.007017 0.000000 0.000000 0.000000
# 3 -0.009135 0.007017 0.011232 0.000000 0.000000 0.000000
# 4 0.000000 0.000000 0.000000 0.032204 0.000000 0.000000
# 5 0.000000 0.000000 0.000000 0.000000 -0.004386 0.000000
# 6 0.000000 0.000000 0.000000 0.000000 0.000000 0.047686
#
#
# Mechanical properties :
#
#
# Convention : Reuss Voigt Hill
#
# Bulk Modulus (GPa) = 8.80860 80.46409 44.63635
# Shear Modulus (GPa) = 17.09448 -19.41039 -1.15796
#
# Velocity S-wave (km/s) = 2.93860 -3.13134 -0.76482
# Velocity P-wave (km/s) = 3.99545 5.25103 4.66567
#
# Compressibility (1/GPa) = 0.11352536
#
# Stress axis : x y z
#
# Youngs Moduli (GPa) = 74.61443 8.21683 89.03025
#
# Poissons Ratio (x) = 0.11739 0.81331
# Poissons Ratio (y) = 1.06599 -0.62469
# Poissons Ratio (z) = 0.68162 -0.05765
#
# Static dielectric constant tensor:
#      x y z
#    x 1.696420 0.000000 0.000000 
#    y 0.000000 1.712230 0.000000 
#    z 0.000000 0.000000 1.653950 
# 
# From -- ./inp_files/19468.got.cif
#   From: 2010.05.17/outbox.cif.g08.bks.cpg/sg38_10_cif.got.tgz:19468.got - 2010.06.03 18:07:57.
