data_PCOD9358280
_publ_section_title
;
Structure prediction by ZEFSAII (Michael W. Deem and Ramdas Pophale) SiO2 
 PCOD9358280
Probable space group: A M M 2
;
_chemical_formula_sum "Si O2"
_cell_formula_units_Z 48
_cell_length_a 7.921696
_cell_length_b 38.934414
_cell_length_c 7.295183
_cell_angle_alpha 90.000000
_cell_angle_beta 90.000000
_cell_angle_gamma 90.000000
_cell_volume 2250.028428
_symmetry_space_group_name_H-M "A M M 2"
_symmetry_group_IT_number 38
_symmetry_cell_setting 'orthorhombic'
loop_
_space_group_symop_operation_xyz
x,y,z
-x,-y,z
-x,y,z
x,-y,z
x,1/2+y,1/2+z
-x,1/2-y,1/2+z
-x,1/2+y,1/2+z
x,1/2-y,1/2+z
loop_
_atom_site_type_symbol
_atom_site_label
_atom_site_fract_x
_atom_site_fract_y
_atom_site_fract_z
Si Si1 0.187326 0.325891 0.992210
Si Si2 0.704653 0.901092 0.427212
Si Si3 0.500000 0.297501 0.482600
Si Si4 0.296659 0.585657 0.345615
Si Si5 0.813956 0.840686 0.933404
Si Si6 0.500000 0.281968 0.050766
Si Si7 0.705689 0.461697 0.657120
O O1 0.222855 0.362921 0.901077
O O2 0.000000 0.313512 0.946483
O O3 0.191150 0.333246 0.213107
O O4 0.334485 0.298493 0.958885
O O5 0.500000 0.898000 0.416385
O O6 0.750424 0.912719 0.633431
O O7 0.760533 0.931237 0.292030
O O8 0.666918 0.319038 0.527102
O O9 0.500000 0.293932 0.261482
O O10 0.500000 0.258930 0.553371
O O11 0.500000 0.589610 0.354482
O O12 0.220920 0.618855 0.445684
O O13 0.250573 0.551337 0.453568
O O14 0.000000 0.831790 0.000027
O O15 0.500000 0.462602 0.669056
O O16 0.767231 0.500000 0.697459
#
# Coordination Sequence:
#
# PCOD9358280 Si02
#       7
#     8   8   4   8   8   4   8
#     4   9  17  32  55  77 102 140 183 225 267 321
#     4   9  16  30  52  75 102 142 187 227 274 328
#     4  10  20  36  54  78 108 139 173 216 276 333
#     4   9  16  30  52  75 102 142 187 227 274 328
#     4   9  17  32  55  77 102 140 183 225 267 321
#     4  10  20  36  54  78 108 139 173 216 276 333
#     4   9  18  30  47  79 115 144 181 233 282 329
#
# _framework density 21.333064
#
# number of rings (size 3 to 8) (size 9 to 14) (size 15 to 20)
#    0.000    2.833    1.667    0.000    0.000    1.333 
#    3.000    4.167    0.000    2.000    0.000    4.667 
#    0.000    0.000    0.000    0.000    0.000    0.000 
#
# Total GULP energy -134048.069062 kJ/mol
# GULP energy per Si atom -5585.336211 kJ/mol
# Density = 2.128451 g / cm^3
# Si number density = 21.333064 Si / 1000 Ang^3
#
#
#
# Elastic Constant Matrix: (Units=GPa)
#
#
# Indices 1 2 3 4 5 6 
#
# 1 95.2111 56.4094 15.8953 0.0000 0.0000 0.0000
# 2 56.4094 117.6847 17.2772 0.0000 0.0000 0.0000
# 3 15.8953 17.2772 53.3289 0.0000 0.0000 0.0000
# 4 0.0000 0.0000 0.0000 31.0172 0.0000 0.0000
# 5 0.0000 0.0000 0.0000 0.0000 -2.4093 0.0000
# 6 0.0000 0.0000 0.0000 0.0000 0.0000 -8.2136
#
#
#
# Elastic Compliance Matrix: (Units=1/GPa)
#
#
# Indices 1 2 3 4 5 6 
#
# 1 0.014918 -0.006822 -0.002236 0.000000 0.000000 0.000000
# 2 -0.006822 0.012042 -0.001868 0.000000 0.000000 0.000000
# 3 -0.002236 -0.001868 0.020023 0.000000 0.000000 0.000000
# 4 0.000000 0.000000 0.000000 0.032240 0.000000 0.000000
# 5 0.000000 0.000000 0.000000 0.000000 -0.415061 0.000000
# 6 0.000000 0.000000 0.000000 0.000000 0.000000 -0.121749
#
#
# Mechanical properties :
#
#
# Convention : Reuss Voigt Hill
#
# Bulk Modulus (GPa) = 39.79249 49.48762 44.64005
# Shear Modulus (GPa) = -11.69982 15.85504 2.07761
#
# Velocity S-wave (km/s) = -2.34441 2.72915 0.98793
# Velocity P-wave (km/s) = 3.37122 5.76012 4.71933
#
# Compressibility (1/GPa) = 0.02513037
#
# Stress axis : x y z
#
# Youngs Moduli (GPa) = 67.03123 83.04499 49.94206
#
# Poissons Ratio (x) = 0.56657 0.11169
# Poissons Ratio (y) = 0.45732 0.09328
# Poissons Ratio (z) = 0.14990 0.15510
#
# Static dielectric constant tensor:
#      x y z
#    x 1.777890 0.000000 0.000000 
#    y 0.000000 1.706190 0.000000 
#    z 0.000000 0.000000 1.815920 
# 
# From -- ./inp_files/3841.got.cif
#   From: 2010.05.17/outbox.cif.g08.bks.cpg/sg38_2_cif.got.tgz:3841.got - 2010.06.03 18:07:57.
