data_PCOD9358797
_publ_section_title
;
Structure prediction by ZEFSAII (Michael W. Deem and Ramdas Pophale) SiO2 
 PCOD9358797
Probable space group: A M M 2
;
_chemical_formula_sum "Si O2"
_cell_formula_units_Z 64
_cell_length_a 20.962555
_cell_length_b 8.559340
_cell_length_c 19.011540
_cell_angle_alpha 90.000000
_cell_angle_beta 90.000000
_cell_angle_gamma 90.000000
_cell_volume 3411.157647
_symmetry_space_group_name_H-M "A M M 2"
_symmetry_group_IT_number 38
_symmetry_cell_setting 'orthorhombic'
loop_
_space_group_symop_operation_xyz
x,y,z
-x,-y,z
-x,y,z
x,-y,z
x,1/2+y,1/2+z
-x,1/2-y,1/2+z
-x,1/2+y,1/2+z
x,1/2-y,1/2+z
loop_
_atom_site_type_symbol
_atom_site_label
_atom_site_fract_x
_atom_site_fract_y
_atom_site_fract_z
Si Si1 0.309766 0.184767 0.094730
Si Si2 0.687931 0.186605 0.751955
Si Si3 0.573592 0.188382 0.506911
Si Si4 0.927963 0.690322 0.257537
Si Si5 0.807881 0.812966 0.505171
Si Si6 0.072100 0.809670 0.595564
Si Si7 0.573764 0.311749 0.843949
Si Si8 0.807677 0.811141 0.847679
O O1 0.308495 0.238281 0.175351
O O2 0.375947 0.235643 0.058634
O O3 0.252273 0.263015 0.051728
O O4 0.302795 0.000000 0.090282
O O5 0.623340 0.233388 0.791826
O O6 0.747404 0.237641 0.800440
O O7 0.691221 0.000000 0.743965
O O8 0.500000 0.231321 0.521786
O O9 0.587438 0.230458 0.425430
O O10 0.578224 0.000000 0.511980
O O11 0.927654 0.500000 0.258234
O O12 0.914918 0.736749 0.176568
O O13 0.872820 0.743250 0.309936
O O14 0.000000 0.740263 0.276053
O O15 0.872687 0.755993 0.543382
O O16 0.802460 0.748853 0.426645
O O17 0.809875 0.000000 0.502301
O O18 0.000000 0.759886 0.577062
O O19 0.072406 0.000000 0.594805
O O20 0.500000 0.270415 0.829315
O O21 0.579103 0.500000 0.838577
O O22 0.808182 0.000000 0.849105
#
# Coordination Sequence:
#
# PCOD9358797 Si02
#       8
#     8   8   8   8   8   8   8   8
#     4  12  25  39  57  81 111 146 185 231 278 326
#     4  11  23  38  57  80 108 144 185 229 275 325
#     4   9  19  38  63  88 115 147 182 222 270 325
#     4   8  14  28  52  78 105 140 180 222 268 319
#     4  11  22  36  56  81 111 147 185 227 276 329
#     4   8  15  30  53  80 108 141 183 227 272 324
#     4   9  19  37  60  85 113 144 178 219 268 322
#     4  10  21  36  54  80 111 142 182 228 273 325
#
# _framework density 18.761959000000001
#
# number of rings (size 3 to 8) (size 9 to 14) (size 15 to 20)
#    0.000    2.250    0.000    4.875    0.000    7.000 
#    0.000    1.250    0.000    1.125    0.000    3.500 
#    0.000    0.000    0.000    0.000    0.000    0.000 
#
# Total GULP energy -178695.663206 kJ/mol
# GULP energy per Si atom -5584.239475 kJ/mol
# Density = 1.871926 g / cm^3
# Si number density = 18.761959 Si / 1000 Ang^3
#
#
#
# Elastic Constant Matrix: (Units=GPa)
#
#
# Indices 1 2 3 4 5 6 
#
# 1 116.8196 18.0302 92.5406 0.0000 0.0000 0.0000
# 2 18.0302 15.5939 19.8963 0.0000 0.0000 0.0000
# 3 92.5406 19.8963 139.2601 0.0000 0.0000 0.0000
# 4 0.0000 0.0000 0.0000 14.5146 0.0000 0.0000
# 5 0.0000 0.0000 0.0000 0.0000 41.4655 0.0000
# 6 0.0000 0.0000 0.0000 0.0000 0.0000 9.1740
#
#
#
# Elastic Compliance Matrix: (Units=1/GPa)
#
#
# Indices 1 2 3 4 5 6 
#
# 1 0.018688 -0.007047 -0.011411 0.000000 0.000000 0.000000
# 2 -0.007047 0.081081 -0.006901 0.000000 0.000000 0.000000
# 3 -0.011411 -0.006901 0.015750 0.000000 0.000000 0.000000
# 4 0.000000 0.000000 0.000000 0.068896 0.000000 0.000000
# 5 0.000000 0.000000 0.000000 0.000000 0.024116 0.000000
# 6 0.000000 0.000000 0.000000 0.000000 0.000000 0.109004
#
#
# Mechanical properties :
#
#
# Convention : Reuss Voigt Hill
#
# Bulk Modulus (GPa) = 15.43233 59.17864 37.30548
# Shear Modulus (GPa) = 12.82529 22.44458 17.63494
#
# Velocity S-wave (km/s) = 2.61737 3.46248 3.06915
# Velocity P-wave (km/s) = 4.16862 6.89894 5.69968
#
# Compressibility (1/GPa) = 0.06479904
#
# Stress axis : x y z
#
# Youngs Moduli (GPa) = 53.51142 12.33328 63.49298
#
# Poissons Ratio (x) = 0.08692 0.72454
# Poissons Ratio (y) = 0.37712 0.43817
# Poissons Ratio (z) = 0.61064 0.08511
#
# Static dielectric constant tensor:
#      x y z
#    x 1.645150 0.000000 0.000000 
#    y 0.000000 1.641430 0.000000 
#    z 0.000000 0.000000 1.612890 
# 
# From -- ./inp_files/18981.got.cif
#   From: 2010.05.17/outbox.cif.g08.bks.cpg/sg38_10_cif.got.tgz:18981.got - 2010.06.03 18:07:57.
