data_PCOD9358850
_publ_section_title
;
Structure prediction by ZEFSAII (Michael W. Deem and Ramdas Pophale) SiO2 
 PCOD9358850
Probable space group: A M M 2
;
_chemical_formula_sum "Si O2"
_cell_formula_units_Z 48
_cell_length_a 18.312351
_cell_length_b 13.382000
_cell_length_c 9.778126
_cell_angle_alpha 90.000000
_cell_angle_beta 90.000000
_cell_angle_gamma 90.000000
_cell_volume 2396.187282
_symmetry_space_group_name_H-M "A M M 2"
_symmetry_group_IT_number 38
_symmetry_cell_setting 'orthorhombic'
loop_
_space_group_symop_operation_xyz
x,y,z
-x,-y,z
-x,y,z
x,-y,z
x,1/2+y,1/2+z
-x,1/2-y,1/2+z
-x,1/2+y,1/2+z
x,1/2-y,1/2+z
loop_
_atom_site_type_symbol
_atom_site_label
_atom_site_fract_x
_atom_site_fract_y
_atom_site_fract_z
Si Si1 0.155362 0.750000 0.843520
Si Si2 0.714572 0.616772 0.747405
Si Si3 0.912325 0.380461 0.093520
Si Si4 0.419391 0.879249 0.748812
Si Si5 0.285428 0.883228 0.939635
Si Si6 0.419391 0.879249 0.438227
O O1 0.210872 0.676125 0.766127
O O2 0.113575 0.817661 0.729066
O O3 0.210872 0.823875 0.920913
O O4 0.113575 0.682339 0.957974
O O5 0.730007 0.500000 0.771046
O O6 0.687172 0.628807 0.593520
O O7 0.650525 0.646981 0.849988
O O8 0.888165 0.500000 0.093520
O O9 0.000000 0.382003 0.093520
O O10 0.500000 0.852933 0.802942
O O11 0.349475 0.853019 0.837052
O O12 0.412908 0.842026 0.593520
O O13 0.418738 0.000000 0.742886
O O14 0.269993 0.000000 0.915993
O O15 0.500000 0.852932 0.384098
O O16 0.418738 0.000000 0.444153
#
# Coordination Sequence:
#
# PCOD9358850 Si02
#       6
#     8   8   8   8   8   8
#     4  12  23  44  67  98 136 172 216 270 331 392
#     4  10  21  36  57  88 125 167 216 268 327 389
#     4  11  26  48  75 105 136 175 219 265 327 402
#     4   8  15  29  51  81 119 166 219 273 328 382
#     4  10  21  36  57  88 125 167 216 268 327 389
#     4   8  15  29  51  81 119 166 219 273 328 382
#
# _framework density 20.031824
#
# number of rings (size 3 to 8) (size 9 to 14) (size 15 to 20)
#    0.000    2.167    1.667    2.500    2.333    0.667 
#    0.000    4.167    0.000    4.000    0.000    0.000 
#    0.000    0.000    0.000    0.000    0.000    0.000 
#
# Total GULP energy -133827.067998 kJ/mol
# GULP energy per Si atom -5576.127833 kJ/mol
# Density = 1.998623 g / cm^3
# Si number density = 20.031824 Si / 1000 Ang^3
#
#
#
# Elastic Constant Matrix: (Units=GPa)
#
#
# Indices 1 2 3 4 5 6 
#
# 1 121.0318 52.1939 55.7875 0.0000 0.0000 0.0000
# 2 52.1939 146.1568 54.6064 0.0000 0.0000 0.0000
# 3 55.7875 54.6064 85.4009 0.0000 0.0000 0.0000
# 4 0.0000 0.0000 0.0000 18.0768 0.0000 0.0000
# 5 0.0000 0.0000 0.0000 0.0000 44.2870 0.0000
# 6 0.0000 0.0000 0.0000 0.0000 0.0000 90.8568
#
#
#
# Elastic Compliance Matrix: (Units=1/GPa)
#
#
# Indices 1 2 3 4 5 6 
#
# 1 0.012175 -0.001808 -0.006797 0.000000 0.000000 0.000000
# 2 -0.001808 0.009258 -0.004738 0.000000 0.000000 0.000000
# 3 -0.006797 -0.004738 0.019179 0.000000 0.000000 0.000000
# 4 0.000000 0.000000 0.000000 0.055319 0.000000 0.000000
# 5 0.000000 0.000000 0.000000 0.000000 0.022580 0.000000
# 6 0.000000 0.000000 0.000000 0.000000 0.000000 0.011006
#
#
# Mechanical properties :
#
#
# Convention : Reuss Voigt Hill
#
# Bulk Modulus (GPa) = 71.81347 75.30723 73.56035
# Shear Modulus (GPa) = 31.08533 43.31091 37.19812
#
# Velocity S-wave (km/s) = 3.94356 4.65489 4.31391
# Velocity P-wave (km/s) = 7.52749 8.15880 7.84949
#
# Compressibility (1/GPa) = 0.01392497
#
# Stress axis : x y z
#
# Youngs Moduli (GPa) = 82.13494 108.01345 52.13941
#
# Poissons Ratio (x) = 0.19533 0.35439
# Poissons Ratio (y) = 0.14853 0.24706
# Poissons Ratio (z) = 0.55827 0.51181
#
# Static dielectric constant tensor:
#      x y z
#    x 1.665790 0.000000 0.000000 
#    y 0.000000 1.791020 0.000000 
#    z 0.000000 0.000000 1.714020 
# 
# From -- ./inp_files/6193.got.cif
#   From: 2010.05.17/outbox.cif.g08.bks.cpg/sg38_4_cif.got.tgz:6193.got - 2010.06.03 18:07:57.
