data_PCOD9358060
_publ_section_title
;
Structure prediction by ZEFSAII (Michael W. Deem and Ramdas Pophale) SiO2 
 PCOD9358060
Probable space group: A M M 2
;
_chemical_formula_sum "Si O2"
_cell_formula_units_Z 64
_cell_length_a 14.508278
_cell_length_b 8.039316
_cell_length_c 26.930833
_cell_angle_alpha 90.000000
_cell_angle_beta 90.000000
_cell_angle_gamma 90.000000
_cell_volume 3141.121643
_symmetry_space_group_name_H-M "A M M 2"
_symmetry_group_IT_number 38
_symmetry_cell_setting 'orthorhombic'
loop_
_space_group_symop_operation_xyz
x,y,z
-x,-y,z
-x,y,z
x,-y,z
x,1/2+y,1/2+z
-x,1/2-y,1/2+z
-x,1/2+y,1/2+z
x,1/2-y,1/2+z
loop_
_atom_site_type_symbol
_atom_site_label
_atom_site_fract_x
_atom_site_fract_y
_atom_site_fract_z
Si Si1 0.893737 0.700325 0.014870
Si Si2 0.387678 0.190041 0.460829
Si Si3 0.395355 0.795944 0.570185
Si Si4 0.789570 0.799104 0.613852
Si Si5 0.104438 0.302134 0.712844
Si Si6 0.395721 0.700249 0.853090
Si Si7 0.893438 0.799658 0.907378
Si Si8 0.786356 0.197795 0.810621
O O1 0.894257 0.500000 0.016259
O O2 0.840578 0.759141 0.063623
O O3 0.000000 0.759345 0.016865
O O4 0.854503 0.750711 0.961243
O O5 0.500000 0.181230 0.460103
O O6 0.366379 0.263228 0.514757
O O7 0.364473 0.267887 0.407560
O O8 0.351756 0.000000 0.461263
O O9 0.500000 0.742765 0.580664
O O10 0.317010 0.746392 0.608850
O O11 0.396786 0.000000 0.567746
O O12 0.841849 0.743925 0.662845
O O13 0.791164 0.000000 0.613347
O O14 0.098533 0.500000 0.715042
O O15 0.159663 0.244897 0.761213
O O16 0.000000 0.233050 0.712337
O O17 0.500000 0.757956 0.842575
O O18 0.399484 0.500000 0.857913
O O19 0.318998 0.743754 0.813238
O O20 0.838165 0.734820 0.859832
O O21 0.000000 0.740755 0.905014
O O22 0.894941 0.000000 0.905192
O O23 0.786122 0.000000 0.814167
#
# Coordination Sequence:
#
# PCOD9358060 Si02
#       8
#     8   8   8   8   8   8   8   8
#     4   9  18  31  49  78 112 143 180 228 281 338
#     4   7  11  22  43  73 109 148 186 224 265 309
#     4   8  14  26  47  79 116 150 187 227 267 318
#     4  10  20  34  57  86 113 146 187 233 285 335
#     4  11  25  44  64  84 106 140 189 243 296 352
#     4   9  18  33  55  84 118 155 194 236 281 330
#     4   9  19  35  53  76 109 147 183 223 281 347
#     4  11  23  38  59  85 113 149 191 237 291 345
#
# _framework density 20.374887000000001
#
# number of rings (size 3 to 8) (size 9 to 14) (size 15 to 20)
#    0.000    2.750    0.000    3.000    1.750    3.750 
#    0.000    3.125    0.000    2.625    0.000    0.000 
#    0.000    0.000    0.000    0.000    0.000    0.000 
#
# Total GULP energy -178534.786319 kJ/mol
# GULP energy per Si atom -5579.212072 kJ/mol
# Density = 2.032851 g / cm^3
# Si number density = 20.374887 Si / 1000 Ang^3
#
#
#
# Elastic Constant Matrix: (Units=GPa)
#
#
# Indices 1 2 3 4 5 6 
#
# 1 145.7198 14.1277 95.9089 0.0000 0.0000 0.0000
# 2 14.1277 16.7413 9.6262 0.0000 0.0000 0.0000
# 3 95.9089 9.6262 143.2687 0.0000 0.0000 0.0000
# 4 0.0000 0.0000 0.0000 23.3353 0.0000 0.0000
# 5 0.0000 0.0000 0.0000 0.0000 45.6080 0.0000
# 6 0.0000 0.0000 0.0000 0.0000 0.0000 14.5232
#
#
#
# Elastic Compliance Matrix: (Units=1/GPa)
#
#
# Indices 1 2 3 4 5 6 
#
# 1 0.012846 -0.006133 -0.008187 0.000000 0.000000 0.000000
# 2 -0.006133 0.065061 -0.000266 0.000000 0.000000 0.000000
# 3 -0.008187 -0.000266 0.012479 0.000000 0.000000 0.000000
# 4 0.000000 0.000000 0.000000 0.042853 0.000000 0.000000
# 5 0.000000 0.000000 0.000000 0.000000 0.021926 0.000000
# 6 0.000000 0.000000 0.000000 0.000000 0.000000 0.068855
#
#
# Mechanical properties :
#
#
# Convention : Reuss Voigt Hill
#
# Bulk Modulus (GPa) = 16.33634 60.56169 38.44901
# Shear Modulus (GPa) = 18.27510 29.09777 23.68644
#
# Velocity S-wave (km/s) = 2.99815 3.78315 3.41329
# Velocity P-wave (km/s) = 4.47443 6.99079 5.86906
#
# Compressibility (1/GPa) = 0.06121323
#
# Stress axis : x y z
#
# Youngs Moduli (GPa) = 77.84695 15.37023 80.13707
#
# Poissons Ratio (x) = 0.09426 0.65611
# Poissons Ratio (y) = 0.47741 0.02132
# Poissons Ratio (z) = 0.63736 0.00409
#
# Static dielectric constant tensor:
#      x y z
#    x 1.752400 0.000000 0.000000 
#    y 0.000000 1.734950 0.000000 
#    z 0.000000 0.000000 1.718000 
# 
# From -- ./inp_files/22963.got.cif
#   From: 2010.05.17/outbox.cif.g08.bks.cpg/sg38_12_cif.got.tgz:22963.got - 2010.06.03 18:07:57.
