data_PCOD9358635
_publ_section_title
;
Structure prediction by ZEFSAII (Michael W. Deem and Ramdas Pophale) SiO2 
 PCOD9358635
Probable space group: A M M 2
;
_chemical_formula_sum "Si O2"
_cell_formula_units_Z 48
_cell_length_a 7.779450
_cell_length_b 9.416486
_cell_length_c 35.510942
_cell_angle_alpha 90.000000
_cell_angle_beta 90.000000
_cell_angle_gamma 90.000000
_cell_volume 2601.356969
_symmetry_space_group_name_H-M "A M M 2"
_symmetry_group_IT_number 38
_symmetry_cell_setting 'orthorhombic'
loop_
_space_group_symop_operation_xyz
x,y,z
-x,-y,z
-x,y,z
x,-y,z
x,1/2+y,1/2+z
-x,1/2-y,1/2+z
-x,1/2+y,1/2+z
x,1/2-y,1/2+z
loop_
_atom_site_type_symbol
_atom_site_label
_atom_site_fract_x
_atom_site_fract_y
_atom_site_fract_z
Si Si1 0.705802 0.659186 0.939950
Si Si2 0.500000 0.327287 0.231982
Si Si3 0.204500 0.329355 0.598542
Si Si4 0.708447 0.335904 0.368287
Si Si5 0.793332 0.659857 0.512323
Si Si6 0.808536 0.673055 0.284814
Si Si7 0.500000 0.671926 0.144066
O O1 0.500000 0.652050 0.935457
O O2 0.775410 0.500000 0.940488
O O3 0.770642 0.747103 0.904015
O O4 0.738811 0.737214 0.979183
O O5 0.500000 0.500000 0.233152
O O6 0.333775 0.278263 0.255294
O O7 0.500000 0.289539 0.188306
O O8 0.225997 0.500000 0.603896
O O9 0.253787 0.298657 0.554919
O O10 0.331297 0.240283 0.624786
O O11 0.000000 0.298582 0.603670
O O12 0.500000 0.334369 0.367326
O O13 0.762434 0.500000 0.372606
O O14 0.770398 0.282065 0.327682
O O15 0.727867 0.500000 0.505007
O O16 0.000000 0.653968 0.512244
O O17 0.800497 0.500000 0.285624
O O18 0.000000 0.715009 0.273727
O O19 0.500000 0.500000 0.140317
#
# Coordination Sequence:
#
# PCOD9358635 Si02
#       7
#     8   4   8   8   8   8   4
#     4  10  21  33  47  74 111 146 177 212 264 326
#     4   9  18  33  49  76 115 142 167 214 273 333
#     4   9  20  40  62  83 111 149 194 239 280 330
#     4   9  16  29  49  71  99 136 180 228 268 305
#     4   9  19  36  56  76  99 134 183 233 272 310
#     4   9  16  28  50  76 102 137 179 222 267 314
#     4  11  23  35  57  90 121 150 181 224 287 353
#
# _framework density 18.451908
#
# number of rings (size 3 to 8) (size 9 to 14) (size 15 to 20)
#    0.000    2.667    0.833    1.750    1.167    3.667 
#    0.000    5.000    0.000    2.000    0.000    0.000 
#    0.000    0.000    0.000    0.000    0.000    0.000 
#
# Total GULP energy -133849.291244 kJ/mol
# GULP energy per Si atom -5577.053802 kJ/mol
# Density = 1.840991 g / cm^3
# Si number density = 18.451908 Si / 1000 Ang^3
#
#
#
# Elastic Constant Matrix: (Units=GPa)
#
#
# Indices 1 2 3 4 5 6 
#
# 1 88.7706 40.8397 75.3926 0.0000 0.0000 0.0000
# 2 40.8397 64.6922 81.6302 0.0000 0.0000 0.0000
# 3 75.3926 81.6302 181.8123 0.0000 0.0000 0.0000
# 4 0.0000 0.0000 0.0000 22.6514 0.0000 0.0000
# 5 0.0000 0.0000 0.0000 0.0000 -55.9792 0.0000
# 6 0.0000 0.0000 0.0000 0.0000 0.0000 13.0045
#
#
#
# Elastic Compliance Matrix: (Units=1/GPa)
#
#
# Indices 1 2 3 4 5 6 
#
# 1 0.017932 -0.004470 -0.005429 0.000000 0.000000 0.000000
# 2 -0.004470 0.036775 -0.014658 0.000000 0.000000 0.000000
# 3 -0.005429 -0.014658 0.014333 0.000000 0.000000 0.000000
# 4 0.000000 0.000000 0.000000 0.044147 0.000000 0.000000
# 5 0.000000 0.000000 0.000000 0.000000 -0.017864 0.000000
# 6 0.000000 0.000000 0.000000 0.000000 0.000000 0.076897
#
#
# Mechanical properties :
#
#
# Convention : Reuss Voigt Hill
#
# Bulk Modulus (GPa) = 50.18469 81.22222 65.70346
# Shear Modulus (GPa) = 21.93208 5.09617 13.51413
#
# Velocity S-wave (km/s) = 3.45136 1.66369 2.70922
# Velocity P-wave (km/s) = 6.56804 6.91407 6.74327
#
# Compressibility (1/GPa) = 0.01992639
#
# Stress axis : x y z
#
# Youngs Moduli (GPa) = 55.76500 27.19217 69.77118
#
# Poissons Ratio (x) = 0.12155 0.37880
# Poissons Ratio (y) = 0.24927 1.02269
# Poissons Ratio (z) = 0.30276 0.39858
#
# Static dielectric constant tensor:
#      x y z
#    x 1.665110 0.000000 0.000000 
#    y 0.000000 1.633730 0.000000 
#    z 0.000000 0.000000 1.615680 
# 
# From -- ./inp_files/24343.got.cif
#   From: 2010.05.17/outbox.cif.g08.bks.cpg/sg38_13_cif.got.tgz:24343.got - 2010.06.03 18:07:57.
