data_PCOD9358990
_publ_section_title
;
Structure prediction by ZEFSAII (Michael W. Deem and Ramdas Pophale) SiO2 
 PCOD9358990
Probable space group: A M M 2
;
_chemical_formula_sum "Si O2"
_cell_formula_units_Z 32
_cell_length_a 13.406555
_cell_length_b 10.461813
_cell_length_c 10.241466
_cell_angle_alpha 90.000000
_cell_angle_beta 90.000000
_cell_angle_gamma 90.000000
_cell_volume 1436.435980
_symmetry_space_group_name_H-M "A M M 2"
_symmetry_group_IT_number 38
_symmetry_cell_setting 'orthorhombic'
loop_
_space_group_symop_operation_xyz
x,y,z
-x,-y,z
-x,y,z
x,-y,z
x,1/2+y,1/2+z
-x,1/2-y,1/2+z
-x,1/2+y,1/2+z
x,1/2-y,1/2+z
loop_
_atom_site_type_symbol
_atom_site_label
_atom_site_fract_x
_atom_site_fract_y
_atom_site_fract_z
Si Si1 0.619675 0.648448 0.713320
Si Si2 0.703979 0.848461 0.501751
Si Si3 0.119269 0.279365 0.156842
Si Si4 0.120555 0.500000 0.351225
Si Si5 0.879306 0.000000 0.146205
O O1 0.500000 0.652454 0.721971
O O2 0.647364 0.500000 0.679766
O O3 0.653479 0.752701 0.606557
O O4 0.663152 0.676881 0.857331
O O5 0.821091 0.819416 0.527552
O O6 0.686546 0.000000 0.528511
O O7 0.149153 0.377753 0.268143
O O8 0.147588 0.136885 0.201398
O O9 0.000000 0.285903 0.135132
O O10 0.157747 0.500000 0.497229
O O11 0.000000 0.500000 0.358947
O O12 0.000000 0.000000 0.145056
#
# Coordination Sequence:
#
# PCOD9358990 Si02
#       5
#     8   8   8   4   4
#     4  10  24  46  68  94 128 162 209 273 328 378
#     4  11  24  41  67  99 130 168 213 260 316 382
#     4  10  21  37  59  91 129 169 210 252 304 370
#     4   9  18  36  57  79 118 165 206 251 301 353
#     4   9  20  36  55  79 118 167 212 259 299 345
#
# _framework density 22.277360000000002
#
# number of rings (size 3 to 8) (size 9 to 14) (size 15 to 20)
#    0.000    2.000    1.250    0.750    5.250    2.500 
#    0.000    1.250    0.000    9.000    0.000    0.000 
#    0.000    0.000    0.000    0.000    0.000    0.000 
#
# Total GULP energy -89470.607141 kJ/mol
# GULP energy per Si atom -5591.912946 kJ/mol
# Density = 2.222666 g / cm^3
# Si number density = 22.277360 Si / 1000 Ang^3
#
#
#
# Elastic Constant Matrix: (Units=GPa)
#
#
# Indices 1 2 3 4 5 6 
#
# 1 108.8122 49.7799 59.3762 0.0000 0.0000 0.0000
# 2 49.7799 229.5686 109.0840 0.0000 0.0000 0.0000
# 3 59.3762 109.0840 144.1126 0.0000 0.0000 0.0000
# 4 0.0000 0.0000 0.0000 40.3907 0.0000 0.0000
# 5 0.0000 0.0000 0.0000 0.0000 30.3921 0.0000
# 6 0.0000 0.0000 0.0000 0.0000 0.0000 33.2306
#
#
#
# Elastic Compliance Matrix: (Units=1/GPa)
#
#
# Indices 1 2 3 4 5 6 
#
# 1 0.011878 -0.000391 -0.004598 0.000000 0.000000 0.000000
# 2 -0.000391 0.006816 -0.004998 0.000000 0.000000 0.000000
# 3 -0.004598 -0.004998 0.012617 0.000000 0.000000 0.000000
# 4 0.000000 0.000000 0.000000 0.024758 0.000000 0.000000
# 5 0.000000 0.000000 0.000000 0.000000 0.032903 0.000000
# 6 0.000000 0.000000 0.000000 0.000000 0.000000 0.030093
#
#
# Mechanical properties :
#
#
# Convention : Reuss Voigt Hill
#
# Bulk Modulus (GPa) = 88.21019 102.10819 95.15919
# Shear Modulus (GPa) = 35.00983 38.41956 36.71470
#
# Velocity S-wave (km/s) = 3.96857 4.15734 4.06405
# Velocity P-wave (km/s) = 7.78985 8.30536 8.05173
#
# Compressibility (1/GPa) = 0.01133656
#
# Stress axis : x y z
#
# Youngs Moduli (GPa) = 84.18938 146.72179 79.26036
#
# Poissons Ratio (x) = 0.05733 0.36445
# Poissons Ratio (y) = 0.03290 0.39614
# Poissons Ratio (z) = 0.38711 0.73331
#
# Static dielectric constant tensor:
#      x y z
#    x 1.871520 0.000000 0.000000 
#    y 0.000000 1.830930 0.000000 
#    z 0.000000 0.000000 1.774740 
# 
# From -- ./inp_files/5089.got.cif
#   From: 2010.05.17/outbox.cif.g08.bks.cpg/sg38_3_cif.got.tgz:5089.got - 2010.06.03 18:07:57.
