data_PCOD9358271
_publ_section_title
;
Structure prediction by ZEFSAII (Michael W. Deem and Ramdas Pophale) SiO2 
 PCOD9358271
Probable space group: A M M 2
;
_chemical_formula_sum "Si O2"
_cell_formula_units_Z 58
_cell_length_a 7.623128
_cell_length_b 22.749959
_cell_length_c 15.977642
_cell_angle_alpha 90.000000
_cell_angle_beta 90.000000
_cell_angle_gamma 90.000000
_cell_volume 2770.936136
_symmetry_space_group_name_H-M "A M M 2"
_symmetry_group_IT_number 38
_symmetry_cell_setting 'orthorhombic'
loop_
_space_group_symop_operation_xyz
x,y,z
-x,-y,z
-x,y,z
x,-y,z
x,1/2+y,1/2+z
-x,1/2-y,1/2+z
-x,1/2+y,1/2+z
x,1/2-y,1/2+z
loop_
_atom_site_type_symbol
_atom_site_label
_atom_site_fract_x
_atom_site_fract_y
_atom_site_fract_z
Si Si1 0.291363 0.901611 0.271500
Si Si2 0.000000 0.500000 0.729500
Si Si3 0.787071 0.268422 0.719672
Si Si4 0.794740 0.312820 0.372591
Si Si5 0.302451 0.861472 0.453322
Si Si6 0.799967 0.070041 0.610623
Si Si7 0.199267 0.256797 0.533028
Si Si8 0.704641 0.566211 0.299167
O O1 0.500000 0.917461 0.265856
O O2 0.266309 0.835893 0.234916
O O3 0.240849 0.894086 0.370033
O O4 0.156475 0.948314 0.233210
O O5 0.722280 0.226461 0.795521
O O6 0.724919 0.250177 0.626338
O O7 0.000000 0.264040 0.721870
O O8 0.715794 0.299282 0.463850
O O9 0.785101 0.381232 0.351245
O O10 0.000000 0.296617 0.378527
O O11 0.500000 0.841267 0.435127
O O12 0.299849 0.904112 0.532400
O O13 0.198587 0.804863 0.484055
O O14 0.724833 0.083196 0.701674
O O15 0.000000 0.092326 0.608148
O O16 0.801884 0.000000 0.603185
O O17 0.000000 0.277362 0.548020
O O18 0.500000 0.563792 0.319143
O O19 0.778503 0.500000 0.309480
#
# Coordination Sequence:
#
# PCOD9358271 Si02
#       8
#     8   2   8   8   8   8   8   8
#     4  11  25  42  66  97 127 172 224 271 332 398
#     4  12  26  44  72  86 132 176 218 280 332 390
#     4  10  20  39  64  92 127 166 209 270 331 381
#     4  10  20  35  60  91 122 161 207 255 310 378
#     4  11  23  36  54  88 127 158 203 258 310 380
#     4  10  21  34  54  80 112 156 201 242 300 372
#     4  10  21  36  62  92 121 159 208 257 319 386
#     4  10  21  37  56  81 118 160 203 256 315 370
#
# _framework density 20.931553999999998
#
# number of rings (size 3 to 8) (size 9 to 14) (size 15 to 20)
#    0.000    1.655    2.069    2.276    2.897    4.414 
#    0.000    0.000    1.517    0.000    0.000    0.000 
#    0.000    0.000    0.000    0.000    0.000    0.000 
#
# Total GULP energy -161563.613715 kJ/mol
# GULP energy per Si atom -5571.159094 kJ/mol
# Density = 2.088391 g / cm^3
# Si number density = 20.931554 Si / 1000 Ang^3
#
#
#
# Elastic Constant Matrix: (Units=GPa)
#
#
# Indices 1 2 3 4 5 6 
#
# 1 72.6537 13.9100 11.7489 0.0000 0.0000 0.0000
# 2 13.9100 46.3233 2.8819 0.0000 0.0000 0.0000
# 3 11.7489 2.8819 71.9707 0.0000 0.0000 0.0000
# 4 0.0000 0.0000 0.0000 24.6681 0.0000 0.0000
# 5 0.0000 0.0000 0.0000 0.0000 9.0894 0.0000
# 6 0.0000 0.0000 0.0000 0.0000 0.0000 -9.7638
#
#
#
# Elastic Compliance Matrix: (Units=1/GPa)
#
#
# Indices 1 2 3 4 5 6 
#
# 1 0.014964 -0.004352 -0.002269 0.000000 0.000000 0.000000
# 2 -0.004352 0.022907 -0.000207 0.000000 0.000000 0.000000
# 3 -0.002269 -0.000207 0.014273 0.000000 0.000000 0.000000
# 4 0.000000 0.000000 0.000000 0.040538 0.000000 0.000000
# 5 0.000000 0.000000 0.000000 0.000000 0.110018 0.000000
# 6 0.000000 0.000000 0.000000 0.000000 0.000000 -0.102419
#
#
# Mechanical properties :
#
#
# Convention : Reuss Voigt Hill
#
# Bulk Modulus (GPa) = 25.98134 27.55883 26.77008
# Shear Modulus (GPa) = 39.44277 15.62587 27.53432
#
# Velocity S-wave (km/s) = 4.34564 2.73522 3.63084
# Velocity P-wave (km/s) = 6.13343 4.81352 5.51312
#
# Compressibility (1/GPa) = 0.03848917
#
# Stress axis : x y z
#
# Youngs Moduli (GPa) = 66.82680 43.65438 70.06164
#
# Poissons Ratio (x) = 0.19000 0.15894
# Poissons Ratio (y) = 0.29085 0.01449
# Poissons Ratio (z) = 0.15160 0.00903
#
# Static dielectric constant tensor:
#      x y z
#    x 1.823070 0.000000 0.000000 
#    y 0.000000 1.779150 0.000000 
#    z 0.000000 0.000000 1.778670 
# 
# From -- ./inp_files/12646.got.cif
#   From: 2010.05.17/outbox.cif.g08.bks.cpg/sg38_7_cif.got.tgz:12646.got - 2010.06.03 18:07:57.
