data_PCOD9358244
_publ_section_title
;
Structure prediction by ZEFSAII (Michael W. Deem and Ramdas Pophale) SiO2 
 PCOD9358244
Probable space group: A M M 2
;
_chemical_formula_sum "Si O2"
_cell_formula_units_Z 48
_cell_length_a 8.891253
_cell_length_b 28.658739
_cell_length_c 10.440919
_cell_angle_alpha 90.000000
_cell_angle_beta 90.000000
_cell_angle_gamma 90.000000
_cell_volume 2660.472487
_symmetry_space_group_name_H-M "A M M 2"
_symmetry_group_IT_number 38
_symmetry_cell_setting 'orthorhombic'
loop_
_space_group_symop_operation_xyz
x,y,z
-x,-y,z
-x,y,z
x,-y,z
x,1/2+y,1/2+z
-x,1/2-y,1/2+z
-x,1/2+y,1/2+z
x,1/2-y,1/2+z
loop_
_atom_site_type_symbol
_atom_site_label
_atom_site_fract_x
_atom_site_fract_y
_atom_site_fract_z
Si Si1 0.320317 0.356888 0.700240
Si Si2 0.679829 0.799726 0.460593
Si Si3 0.679151 0.553654 0.097744
Si Si4 0.179932 0.196968 0.960769
Si Si5 0.179465 0.356432 0.196627
Si Si6 0.820551 0.053771 0.315245
O O1 0.500000 0.359279 0.685264
O O2 0.287638 0.327155 0.828949
O O3 0.246820 0.331259 0.580043
O O4 0.252573 0.408116 0.723238
O O5 0.500000 0.797377 0.476046
O O6 0.747975 0.748145 0.455681
O O7 0.750086 0.827607 0.579251
O O8 0.500000 0.560714 0.088746
O O9 0.707625 0.500000 0.136215
O O10 0.751440 0.591927 0.189508
O O11 0.750220 0.560244 0.956673
O O12 0.212884 0.169575 0.829319
O O13 0.000000 0.201109 0.974031
O O14 0.000000 0.358823 0.180818
O O15 0.000000 0.060499 0.322256
O O16 0.791146 0.000000 0.277260
#
# Coordination Sequence:
#
# PCOD9358244 Si02
#       6
#     8   8   8   8   8   8
#     4  11  23  39  61  89 119 156 197 241 293 347
#     4  11  23  39  61  88 116 152 198 245 293 347
#     4  10  20  35  58  88 119 151 192 241 290 345
#     4  11  25  41  58  84 119 158 198 243 294 348
#     4  11  23  39  61  88 118 155 197 242 294 348
#     4  10  20  35  59  89 119 152 192 240 290 343
#
# _framework density 18.041907999999999
#
# number of rings (size 3 to 8) (size 9 to 14) (size 15 to 20)
#    0.000    1.333    1.667    4.000    0.000    9.333 
#    0.000    0.833    0.000    1.000    0.000    0.000 
#    0.000    0.000    0.000    0.000    0.000    0.000 
#
# Total GULP energy -134187.267592 kJ/mol
# GULP energy per Si atom -5591.136150 kJ/mol
# Density = 1.800084 g / cm^3
# Si number density = 18.041908 Si / 1000 Ang^3
#
#
#
# Elastic Constant Matrix: (Units=GPa)
#
#
# Indices 1 2 3 4 5 6 
#
# 1 87.4590 78.3443 78.3840 0.0000 0.0000 0.0000
# 2 78.3443 157.6755 75.0350 0.0000 0.0000 0.0000
# 3 78.3840 75.0350 119.2284 0.0000 0.0000 0.0000
# 4 0.0000 0.0000 0.0000 -40.7427 0.0000 0.0000
# 5 0.0000 0.0000 0.0000 0.0000 22.0029 0.0000
# 6 0.0000 0.0000 0.0000 0.0000 0.0000 38.7630
#
#
#
# Elastic Compliance Matrix: (Units=1/GPa)
#
#
# Indices 1 2 3 4 5 6 
#
# 1 0.035329 -0.009280 -0.017386 0.000000 0.000000 0.000000
# 2 -0.009280 0.011491 -0.001131 0.000000 0.000000 0.000000
# 3 -0.017386 -0.001131 0.020529 0.000000 0.000000 0.000000
# 4 0.000000 0.000000 0.000000 -0.024544 0.000000 0.000000
# 5 0.000000 0.000000 0.000000 0.000000 0.045449 0.000000
# 6 0.000000 0.000000 0.000000 0.000000 0.000000 0.025798
#
#
# Mechanical properties :
#
#
# Convention : Reuss Voigt Hill
#
# Bulk Modulus (GPa) = 85.06794 91.98770 88.52782
# Shear Modulus (GPa) = 28.80803 12.84462 20.82632
#
# Velocity S-wave (km/s) = 4.00024 2.67110 3.40123
# Velocity P-wave (km/s) = 8.28182 7.78520 8.03734
#
# Compressibility (1/GPa) = 0.01175531
#
# Stress axis : x y z
#
# Youngs Moduli (GPa) = 28.30566 87.02171 48.71225
#
# Poissons Ratio (x) = 0.80758 0.84689
# Poissons Ratio (y) = 0.26268 0.05509
# Poissons Ratio (z) = 0.49211 0.09841
#
# Static dielectric constant tensor:
#      x y z
#    x 1.600290 0.000000 0.000000 
#    y 0.000000 1.616820 0.000000 
#    z 0.000000 0.000000 1.581770 
# 
# From -- ./inp_files/3726.got.cif
#   From: 2010.05.17/outbox.cif.g08.bks.cpg/sg38_2_cif.got.tgz:3726.got - 2010.06.03 18:07:57.
