data_PCOD9358335
_publ_section_title
;
Structure prediction by ZEFSAII (Michael W. Deem and Ramdas Pophale) SiO2 
 PCOD9358335
Probable space group: A M M 2
;
_chemical_formula_sum "Si O2"
_cell_formula_units_Z 56
_cell_length_a 17.118466
_cell_length_b 8.672680
_cell_length_c 20.878365
_cell_angle_alpha 90.000000
_cell_angle_beta 90.000000
_cell_angle_gamma 90.000000
_cell_volume 3099.664238
_symmetry_space_group_name_H-M "A M M 2"
_symmetry_group_IT_number 38
_symmetry_cell_setting 'orthorhombic'
loop_
_space_group_symop_operation_xyz
x,y,z
-x,-y,z
-x,y,z
x,-y,z
x,1/2+y,1/2+z
-x,1/2-y,1/2+z
-x,1/2+y,1/2+z
x,1/2-y,1/2+z
loop_
_atom_site_type_symbol
_atom_site_label
_atom_site_fract_x
_atom_site_fract_y
_atom_site_fract_z
Si Si1 0.749538 0.314867 0.841850
Si Si2 0.410268 0.813703 0.887555
Si Si3 0.737448 0.685244 0.094902
Si Si4 0.412061 0.685383 0.536224
Si Si5 0.000000 0.185496 0.168283
Si Si6 0.837990 0.313863 0.972192
Si Si7 0.836811 0.685651 0.218079
Si Si8 0.000000 0.815602 0.017819
O O1 0.749122 0.500000 0.838298
O O2 0.660318 0.255703 0.846667
O O3 0.794211 0.267932 0.907255
O O4 0.797578 0.246730 0.782670
O O5 0.500000 0.769672 0.870604
O O6 0.406466 0.000000 0.884598
O O7 0.397290 0.767014 0.962164
O O8 0.735066 0.500000 0.094385
O O9 0.651352 0.748161 0.083909
O O10 0.780855 0.734055 0.159204
O O11 0.787544 0.736735 0.033477
O O12 0.500000 0.733323 0.552502
O O13 0.408688 0.500000 0.537056
O O14 0.077569 0.248214 0.202755
O O15 0.000000 0.234995 0.092976
O O16 0.000000 0.000000 0.169987
O O17 0.842905 0.500000 0.972912
O O18 0.923552 0.246197 0.982213
O O19 0.841220 0.500000 0.219475
O O20 0.000000 0.000000 0.017617
#
# Coordination Sequence:
#
# PCOD9358335 Si02
#       8
#     8   8   8   8   4   8   8   4
#     4  11  23  39  59  87 120 153 192 241 293 342
#     4   9  18  34  57  85 117 153 192 235 287 348
#     4  10  20  36  58  85 112 147 193 235 282 340
#     4   9  18  32  54  86 120 152 188 237 292 339
#     4  11  23  40  61  88 117 147 191 240 289 342
#     4  10  21  38  59  83 115 149 185 235 289 339
#     4  11  24  41  62  84 115 158 196 234 287 350
#     4  11  23  36  59  92 117 145 191 242 287 336
#
# _framework density 18.066472999999998
#
# number of rings (size 3 to 8) (size 9 to 14) (size 15 to 20)
#    0.000    1.857    2.857    2.143    0.000    4.571 
#    0.000    2.857    0.000    0.857    0.000    0.000 
#    0.000    0.000    0.000    0.000    0.000    0.000 
#
# Total GULP energy -156327.257708 kJ/mol
# GULP energy per Si atom -5583.116347 kJ/mol
# Density = 1.802535 g / cm^3
# Si number density = 18.066473 Si / 1000 Ang^3
#
#
#
# Elastic Constant Matrix: (Units=GPa)
#
#
# Indices 1 2 3 4 5 6 
#
# 1 168.9901 36.3353 73.9849 0.0000 0.0000 0.0000
# 2 36.3353 27.2079 34.9220 0.0000 0.0000 0.0000
# 3 73.9849 34.9220 120.8414 0.0000 0.0000 0.0000
# 4 0.0000 0.0000 0.0000 26.2993 0.0000 0.0000
# 5 0.0000 0.0000 0.0000 0.0000 24.1745 0.0000
# 6 0.0000 0.0000 0.0000 0.0000 0.0000 28.5524
#
#
#
# Elastic Compliance Matrix: (Units=1/GPa)
#
#
# Indices 1 2 3 4 5 6 
#
# 1 0.009039 -0.007898 -0.003252 0.000000 0.000000 0.000000
# 2 -0.007898 0.065326 -0.014043 0.000000 0.000000 0.000000
# 3 -0.003252 -0.014043 0.014325 0.000000 0.000000 0.000000
# 4 0.000000 0.000000 0.000000 0.038024 0.000000 0.000000
# 5 0.000000 0.000000 0.000000 0.000000 0.041366 0.000000
# 6 0.000000 0.000000 0.000000 0.000000 0.000000 0.035023
#
#
# Mechanical properties :
#
#
# Convention : Reuss Voigt Hill
#
# Bulk Modulus (GPa) = 26.10680 67.50262 46.80471
# Shear Modulus (GPa) = 18.77885 27.25840 23.01863
#
# Velocity S-wave (km/s) = 3.22752 3.88852 3.57334
# Velocity P-wave (km/s) = 5.32644 7.58982 6.55654
#
# Compressibility (1/GPa) = 0.03830420
#
# Stress axis : x y z
#
# Youngs Moduli (GPa) = 110.62712 15.30783 69.80983
#
# Poissons Ratio (x) = 0.12090 0.22702
# Poissons Ratio (y) = 0.87372 0.98035
# Poissons Ratio (z) = 0.35975 0.21497
#
# Static dielectric constant tensor:
#      x y z
#    x 1.612640 0.000000 0.000000 
#    y 0.000000 1.612260 0.000000 
#    z 0.000000 0.000000 1.602830 
# 
# From -- ./inp_files/21109.got.cif
#   From: 2010.05.17/outbox.cif.g08.bks.cpg/sg38_11_cif.got.tgz:21109.got - 2010.06.03 18:07:57.
