data_PCOD9358794
_publ_section_title
;
Structure prediction by ZEFSAII (Michael W. Deem and Ramdas Pophale) SiO2 
 PCOD9358794
Probable space group: A M M 2
;
_chemical_formula_sum "Si O2"
_cell_formula_units_Z 58
_cell_length_a 30.665876
_cell_length_b 7.387951
_cell_length_c 9.762605
_cell_angle_alpha 90.000000
_cell_angle_beta 90.000000
_cell_angle_gamma 90.000000
_cell_volume 2211.796159
_symmetry_space_group_name_H-M "A M M 2"
_symmetry_group_IT_number 38
_symmetry_cell_setting 'orthorhombic'
loop_
_space_group_symop_operation_xyz
x,y,z
-x,-y,z
-x,y,z
x,-y,z
x,1/2+y,1/2+z
-x,1/2-y,1/2+z
-x,1/2+y,1/2+z
x,1/2-y,1/2+z
loop_
_atom_site_type_symbol
_atom_site_label
_atom_site_fract_x
_atom_site_fract_y
_atom_site_fract_z
Si Si1 0.181243 0.790631 0.359460
Si Si2 0.128548 0.718824 0.107419
Si Si3 0.548790 0.219431 0.871197
Si Si4 0.602885 0.209431 0.623973
Si Si5 0.265314 0.780203 0.200874
Si Si6 0.952183 0.208392 0.426156
Si Si7 0.000000 0.500000 0.273286
Si Si8 0.681718 0.209009 0.449675
O O1 0.139329 0.781938 0.259308
O O2 0.167142 0.713865 0.505391
O O3 0.221113 0.712869 0.272101
O O4 0.191995 0.000000 0.382925
O O5 0.129071 0.500000 0.108843
O O6 0.084432 0.773388 0.030611
O O7 0.500000 0.277533 0.834107
O O8 0.561900 0.281012 0.021815
O O9 0.549468 0.000000 0.868011
O O10 0.585808 0.287039 0.766367
O O11 0.642686 0.293621 0.537924
O O12 0.614224 0.000000 0.649297
O O13 0.304148 0.717723 0.302890
O O14 0.276221 0.716945 0.048987
O O15 0.264679 0.000000 0.197395
O O16 0.962121 0.342438 0.301676
O O17 0.000000 0.205159 0.500944
O O18 0.943836 0.000000 0.386893
O O19 0.670416 0.000000 0.426039
#
# Coordination Sequence:
#
# PCOD9358794 Si02
#       8
#     8   8   8   8   8   8   2   8
#     4  10  22  37  58  81 113 149 188 229 284 341
#     4  10  21  39  57  84 115 148 187 238 281 335
#     4  10  21  36  54  79 113 146 182 228 277 329
#     4  10  21  37  57  83 109 145 188 228 275 332
#     4  10  21  37  55  83 112 145 186 232 279 336
#     4   8  16  31  54  81 115 150 193 239 293 347
#     4   8  14  28  56  82 112 150 194 240 288 348
#     4  10  21  37  59  81 112 146 184 231 281 330
#
# _framework density 26.223032
#
# number of rings (size 3 to 8) (size 9 to 14) (size 15 to 20)
#    0.414    1.931    0.000    2.069    0.966    4.690 
#    0.000    0.690    0.000    0.828    0.000    0.000 
#    0.000    0.000    0.000    0.000    0.000    0.000 
#
# Total GULP energy -161972.627117 kJ/mol
# GULP energy per Si atom -5585.263004 kJ/mol
# Density = 2.616335 g / cm^3
# Si number density = 26.223032 Si / 1000 Ang^3
#
#
#
# Elastic Constant Matrix: (Units=GPa)
#
#
# Indices 1 2 3 4 5 6 
#
# 1 89.8437 8.0590 2.2638 0.0000 0.0000 0.0000
# 2 8.0590 116.0975 -2.5748 0.0000 0.0000 0.0000
# 3 2.2638 -2.5748 116.7744 0.0000 0.0000 0.0000
# 4 0.0000 0.0000 0.0000 7.5061 0.0000 0.0000
# 5 0.0000 0.0000 0.0000 0.0000 44.1664 0.0000
# 6 0.0000 0.0000 0.0000 0.0000 0.0000 17.4469
#
#
#
# Elastic Compliance Matrix: (Units=1/GPa)
#
#
# Indices 1 2 3 4 5 6 
#
# 1 0.011207 -0.000783 -0.000235 0.000000 0.000000 0.000000
# 2 -0.000783 0.008672 0.000206 0.000000 0.000000 0.000000
# 3 -0.000235 0.000206 0.008573 0.000000 0.000000 0.000000
# 4 0.000000 0.000000 0.000000 0.133225 0.000000 0.000000
# 5 0.000000 0.000000 0.000000 0.000000 0.022642 0.000000
# 6 0.000000 0.000000 0.000000 0.000000 0.000000 0.057317
#
#
# Mechanical properties :
#
#
# Convention : Reuss Voigt Hill
#
# Bulk Modulus (GPa) = 37.27294 37.57909 37.42601
# Shear Modulus (GPa) = 19.82551 34.82171 27.32361
#
# Velocity S-wave (km/s) = 2.75259 3.64800 3.23146
# Velocity P-wave (km/s) = 4.93427 5.66617 5.31284
#
# Compressibility (1/GPa) = 0.02682912
#
# Stress axis : x y z
#
# Youngs Moduli (GPa) = 89.23317 115.30847 116.65051
#
# Poissons Ratio (x) = 0.09030 0.02736
# Poissons Ratio (y) = 0.06988 -0.02408
# Poissons Ratio (z) = 0.02093 -0.02380
#
# Static dielectric constant tensor:
#      x y z
#    x 2.150940 0.000000 0.000000 
#    y 0.000000 1.982070 0.000000 
#    z 0.000000 0.000000 2.002910 
# 
# From -- ./inp_files/10916.got.cif
#   From: 2010.05.17/outbox.cif.g08.bks.cpg/sg38_6_cif.got.tgz:10916.got - 2010.06.03 18:07:57.
