data_PCOD9358199
_publ_section_title
;
Structure prediction by ZEFSAII (Michael W. Deem and Ramdas Pophale) SiO2 
 PCOD9358199
Probable space group: A M M 2
;
_chemical_formula_sum "Si O2"
_cell_formula_units_Z 48
_cell_length_a 22.114731
_cell_length_b 10.554882
_cell_length_c 10.218303
_cell_angle_alpha 90.000000
_cell_angle_beta 90.000000
_cell_angle_gamma 90.000000
_cell_volume 2385.139693
_symmetry_space_group_name_H-M "A M M 2"
_symmetry_group_IT_number 38
_symmetry_cell_setting 'orthorhombic'
loop_
_space_group_symop_operation_xyz
x,y,z
-x,-y,z
-x,y,z
x,-y,z
x,1/2+y,1/2+z
-x,1/2-y,1/2+z
-x,1/2+y,1/2+z
x,1/2-y,1/2+z
loop_
_atom_site_type_symbol
_atom_site_label
_atom_site_fract_x
_atom_site_fract_y
_atom_site_fract_z
Si Si1 0.927354 0.146448 0.181940
Si Si2 0.427646 0.367873 0.013752
Si Si3 0.734458 0.353902 0.378034
Si Si4 0.307785 0.359616 0.673176
Si Si5 0.120252 0.646141 0.387870
Si Si6 0.571534 0.770679 0.254396
O O1 0.904147 0.249890 0.285828
O O2 0.000000 0.151997 0.177905
O O3 0.910013 0.000000 0.215680
O O4 0.902286 0.172148 0.035820
O O5 0.500000 0.375031 0.007356
O O6 0.401030 0.500000 0.965797
O O7 0.413836 0.261620 0.907186
O O8 0.414980 0.349281 0.164756
O O9 0.717005 0.500000 0.344365
O O10 0.709714 0.326948 0.524319
O O11 0.713882 0.249117 0.272930
O O12 0.807138 0.349749 0.385415
O O13 0.282291 0.500000 0.701746
O O14 0.380331 0.364822 0.691275
O O15 0.101608 0.500000 0.355696
O O16 0.500000 0.802698 0.238643
#
# Coordination Sequence:
#
# PCOD9358199 Si02
#       6
#     8   8   8   8   8   8
#     4  10  21  37  60  93 129 161 195 238 287 339
#     4   9  18  33  51  73 104 138 172 214 268 336
#     4  10  23  41  60  86 117 152 199 247 289 340
#     4  11  23  39  60  85 114 149 192 244 298 354
#     4  10  21  39  61  84 118 162 201 241 289 339
#     4  10  20  35  57  83 110 143 183 230 292 361
#
# _framework density 20.124606
#
# number of rings (size 3 to 8) (size 9 to 14) (size 15 to 20)
#    0.000    2.000    0.000    3.000    0.000    6.000 
#    0.000    1.667    0.000    9.000    0.000    0.000 
#    0.000    0.000    0.000    0.000    0.000    0.000 
#
# Total GULP energy -133659.765780 kJ/mol
# GULP energy per Si atom -5569.156908 kJ/mol
# Density = 2.007880 g / cm^3
# Si number density = 20.124606 Si / 1000 Ang^3
#
#
#
# Elastic Constant Matrix: (Units=GPa)
#
#
# Indices 1 2 3 4 5 6 
#
# 1 82.1333 45.5290 43.9336 0.0000 0.0000 0.0000
# 2 45.5290 145.9594 124.7733 0.0000 0.0000 0.0000
# 3 43.9336 124.7733 165.4311 0.0000 0.0000 0.0000
# 4 0.0000 0.0000 0.0000 36.0865 0.0000 0.0000
# 5 0.0000 0.0000 0.0000 0.0000 33.3356 0.0000
# 6 0.0000 0.0000 0.0000 0.0000 0.0000 18.0609
#
#
#
# Elastic Compliance Matrix: (Units=1/GPa)
#
#
# Indices 1 2 3 4 5 6 
#
# 1 0.014814 -0.003541 -0.001264 0.000000 0.000000 0.000000
# 2 -0.003541 0.020132 -0.014244 0.000000 0.000000 0.000000
# 3 -0.001264 -0.014244 0.017124 0.000000 0.000000 0.000000
# 4 0.000000 0.000000 0.000000 0.027711 0.000000 0.000000
# 5 0.000000 0.000000 0.000000 0.000000 0.029998 0.000000
# 6 0.000000 0.000000 0.000000 0.000000 0.000000 0.055368
#
#
# Mechanical properties :
#
#
# Convention : Reuss Voigt Hill
#
# Bulk Modulus (GPa) = 71.56595 91.33284 81.44940
# Shear Modulus (GPa) = 24.04986 29.44912 26.74949
#
# Velocity S-wave (km/s) = 3.46070 3.82951 3.64977
# Velocity P-wave (km/s) = 7.18381 8.06447 7.63685
#
# Compressibility (1/GPa) = 0.01397313
#
# Stress axis : x y z
#
# Youngs Moduli (GPa) = 67.50384 49.67193 58.39878
#
# Poissons Ratio (x) = 0.17587 0.07380
# Poissons Ratio (y) = 0.23901 0.83183
# Poissons Ratio (z) = 0.08530 0.70752
#
# Static dielectric constant tensor:
#      x y z
#    x 1.733860 0.000000 0.000000 
#    y 0.000000 1.766490 0.000000 
#    z 0.000000 0.000000 1.695830 
# 
# From -- ./inp_files/6918.got.cif
#   From: 2010.05.17/outbox.cif.g08.bks.cpg/sg38_4_cif.got.tgz:6918.got - 2010.06.03 18:07:57.
