data_PCOD9358152
_publ_section_title
;
Structure prediction by ZEFSAII (Michael W. Deem and Ramdas Pophale) SiO2 
 PCOD9358152
Probable space group: A M M 2
;
_chemical_formula_sum "Si O2"
_cell_formula_units_Z 40
_cell_length_a 17.181012
_cell_length_b 12.944760
_cell_length_c 8.264876
_cell_angle_alpha 90.000000
_cell_angle_beta 90.000000
_cell_angle_gamma 90.000000
_cell_volume 1838.142117
_symmetry_space_group_name_H-M "A M M 2"
_symmetry_group_IT_number 38
_symmetry_cell_setting 'orthorhombic'
loop_
_space_group_symop_operation_xyz
x,y,z
-x,-y,z
-x,y,z
x,-y,z
x,1/2+y,1/2+z
-x,1/2-y,1/2+z
-x,1/2+y,1/2+z
x,1/2-y,1/2+z
loop_
_atom_site_type_symbol
_atom_site_label
_atom_site_fract_x
_atom_site_fract_y
_atom_site_fract_z
Si Si1 0.266669 0.884367 0.889020
Si Si2 0.180089 0.217912 0.590185
Si Si3 0.406297 0.610802 0.823382
Si Si4 0.592977 0.170488 0.689445
Si Si5 0.091596 0.881284 0.295328
O O1 0.216977 0.851943 0.730039
O O2 0.355654 0.881450 0.827941
O O3 0.246943 0.000000 0.942718
O O4 0.243818 0.795385 0.014265
O O5 0.142653 0.147897 0.451569
O O6 0.116254 0.296402 0.663403
O O7 0.500000 0.605148 0.823209
O O8 0.373931 0.500000 0.770909
O O9 0.388900 0.708341 0.713139
O O10 0.385228 0.631760 0.010678
O O11 0.500000 0.154916 0.711117
O O12 0.000000 0.872328 0.331270
O O13 0.106631 0.000000 0.245652
#
# Coordination Sequence:
#
# PCOD9358152 Si02
#       5
#     8   8   8   8   8
#     4  11  22  37  56  78 111 151 185 227 280 326
#     4  10  22  38  56  84 116 146 182 222 268 330
#     4   9  18  34  53  73 101 133 170 227 287 329
#     4  10  20  35  56  80 105 141 192 238 277 325
#     4  10  20  37  62  88 114 145 180 220 266 320
#
# _framework density 21.761102000000001
#
# number of rings (size 3 to 8) (size 9 to 14) (size 15 to 20)
#    0.000    2.000    0.000    3.600    0.000    1.200 
#    0.000    9.000    0.000   21.600    0.000    0.000 
#    0.000    0.000    0.000    0.000    0.000    0.000 
#
# Total GULP energy -111804.547632 kJ/mol
# GULP energy per Si atom -5590.227382 kJ/mol
# Density = 2.171157 g / cm^3
# Si number density = 21.761102 Si / 1000 Ang^3
#
#
#
# Elastic Constant Matrix: (Units=GPa)
#
#
# Indices 1 2 3 4 5 6 
#
# 1 82.0141 22.9669 10.3535 0.0000 0.0000 0.0000
# 2 22.9669 115.4339 -1.4870 0.0000 0.0000 0.0000
# 3 10.3535 -1.4870 26.1522 0.0000 0.0000 0.0000
# 4 0.0000 0.0000 0.0000 -30.8841 0.0000 0.0000
# 5 0.0000 0.0000 0.0000 0.0000 30.4224 0.0000
# 6 0.0000 0.0000 0.0000 0.0000 0.0000 22.8617
#
#
#
# Elastic Compliance Matrix: (Units=1/GPa)
#
#
# Indices 1 2 3 4 5 6 
#
# 1 0.013679 -0.002793 -0.005574 0.000000 0.000000 0.000000
# 2 -0.002793 0.009240 0.001631 0.000000 0.000000 0.000000
# 3 -0.005574 0.001631 0.040537 0.000000 0.000000 0.000000
# 4 0.000000 0.000000 0.000000 -0.032379 0.000000 0.000000
# 5 0.000000 0.000000 0.000000 0.000000 0.032871 0.000000
# 6 0.000000 0.000000 0.000000 0.000000 0.000000 0.043741
#
#
# Mechanical properties :
#
#
# Convention : Reuss Voigt Hill
#
# Bulk Modulus (GPa) = 20.00669 31.91854 25.96262
# Shear Modulus (GPa) = 36.27853 17.26446 26.77149
#
# Velocity S-wave (km/s) = 4.08748 2.81973 3.51129
# Velocity P-wave (km/s) = 5.61163 5.02998 5.32875
#
# Compressibility (1/GPa) = 0.04998327
#
# Stress axis : x y z
#
# Youngs Moduli (GPa) = 73.10492 108.22791 24.66863
#
# Poissons Ratio (x) = 0.30232 0.13751
# Poissons Ratio (y) = 0.20421 -0.04024
# Poissons Ratio (z) = 0.40751 -0.17655
#
# Static dielectric constant tensor:
#      x y z
#    x 1.782920 0.000000 0.000000 
#    y 0.000000 1.859460 0.000000 
#    z 0.000000 0.000000 1.776580 
# 
# From -- ./inp_files/5237.got.cif
#   From: 2010.05.17/outbox.cif.g08.bks.cpg/sg38_3_cif.got.tgz:5237.got - 2010.06.03 18:07:57.
