data_PCOD9358988
_publ_section_title
;
Structure prediction by ZEFSAII (Michael W. Deem and Ramdas Pophale) SiO2 
 PCOD9358988
Probable space group: A M M 2
;
_chemical_formula_sum "Si O2"
_cell_formula_units_Z 58
_cell_length_a 8.001957
_cell_length_b 15.309583
_cell_length_c 24.019463
_cell_angle_alpha 90.000000
_cell_angle_beta 90.000000
_cell_angle_gamma 90.000000
_cell_volume 2942.543343
_symmetry_space_group_name_H-M "A M M 2"
_symmetry_group_IT_number 38
_symmetry_cell_setting 'orthorhombic'
loop_
_space_group_symop_operation_xyz
x,y,z
-x,-y,z
-x,y,z
x,-y,z
x,1/2+y,1/2+z
-x,1/2-y,1/2+z
-x,1/2+y,1/2+z
x,1/2-y,1/2+z
loop_
_atom_site_type_symbol
_atom_site_label
_atom_site_fract_x
_atom_site_fract_y
_atom_site_fract_z
Si Si1 0.189763 0.908231 0.656970
Si Si2 0.310868 0.896221 0.354445
Si Si3 0.802385 0.398449 0.977320
Si Si4 0.193583 0.688654 0.746147
Si Si5 0.201555 0.899551 0.130379
Si Si6 0.313898 0.121618 0.774469
Si Si7 0.000000 0.500000 0.305021
Si Si8 0.305199 0.731830 0.072718
O O1 0.305999 0.908213 0.710081
O O2 0.211939 0.824863 0.619427
O O3 0.000000 0.909159 0.678872
O O4 0.213725 0.000000 0.624966
O O5 0.500000 0.860676 0.350723
O O6 0.230298 0.871556 0.413411
O O7 0.209637 0.873225 0.299381
O O8 0.321636 0.000000 0.356452
O O9 0.740384 0.500000 0.985173
O O10 0.000000 0.400625 0.988364
O O11 0.727006 0.323575 0.016806
O O12 0.258639 0.642956 0.689514
O O13 0.285984 0.775419 0.766342
O O14 0.000000 0.711044 0.735643
O O15 0.250482 0.832115 0.081281
O O16 0.000000 0.902607 0.132454
O O17 0.260875 0.000000 0.124407
O O18 0.500000 0.103886 0.797672
O O19 0.153149 0.075515 0.802738
O O20 0.500000 0.727851 0.085029
#
# Coordination Sequence:
#
# PCOD9358988 Si02
#       8
#     8   8   8   8   8   8   2   8
#     4  11  20  34  51  76 112 154 195 236 286 349
#     4  10  21  37  59  88 123 158 198 251 305 364
#     4  10  21  39  61  87 117 156 199 246 303 367
#     4  11  21  37  59  88 122 160 206 250 300 367
#     4  10  22  39  59  82 114 158 204 248 296 353
#     4  12  22  35  55  81 116 157 202 248 299 361
#     4  12  22  40  52  82 114 160 202 252 300 358
#     4  12  24  35  54  84 118 155 194 244 302 363
#
# _framework density 19.710840000000001
#
# number of rings (size 3 to 8) (size 9 to 14) (size 15 to 20)
#    0.000    1.103    3.448    3.931    0.000    5.517 
#    0.000    0.000    0.000    0.000    1.793    0.000 
#    0.000    0.000    0.000    0.000    0.000    0.000 
#
# Total GULP energy -161465.541548 kJ/mol
# GULP energy per Si atom -5567.777295 kJ/mol
# Density = 1.966598 g / cm^3
# Si number density = 19.710840 Si / 1000 Ang^3
#
#
#
# Elastic Constant Matrix: (Units=GPa)
#
#
# Indices 1 2 3 4 5 6 
#
# 1 103.9759 24.9383 -0.4888 0.0000 0.0000 0.0000
# 2 24.9383 123.6825 29.5428 0.0000 0.0000 0.0000
# 3 -0.4888 29.5428 62.9359 0.0000 0.0000 0.0000
# 4 0.0000 0.0000 0.0000 70.6690 0.0000 0.0000
# 5 0.0000 0.0000 0.0000 0.0000 19.2513 0.0000
# 6 0.0000 0.0000 0.0000 0.0000 0.0000 -35.1119
#
#
#
# Elastic Compliance Matrix: (Units=1/GPa)
#
#
# Indices 1 2 3 4 5 6 
#
# 1 0.010183 -0.002334 0.001175 0.000000 0.000000 0.000000
# 2 -0.002334 0.009641 -0.004544 0.000000 0.000000 0.000000
# 3 0.001175 -0.004544 0.018031 0.000000 0.000000 0.000000
# 4 0.000000 0.000000 0.000000 0.014150 0.000000 0.000000
# 5 0.000000 0.000000 0.000000 0.000000 0.051945 0.000000
# 6 0.000000 0.000000 0.000000 0.000000 0.000000 -0.028480
#
#
# Mechanical properties :
#
#
# Convention : Reuss Voigt Hill
#
# Bulk Modulus (GPa) = 37.80818 44.28654 41.04736
# Shear Modulus (GPa) = 52.25093 26.73515 39.49304
#
# Velocity S-wave (km/s) = 5.15425 3.68689 4.48104
# Velocity P-wave (km/s) = 7.39221 6.37503 6.90238
#
# Compressibility (1/GPa) = 0.02644930
#
# Stress axis : x y z
#
# Youngs Moduli (GPa) = 98.20411 103.72262 55.45945
#
# Poissons Ratio (x) = 0.24206 -0.06514
# Poissons Ratio (y) = 0.22918 0.25199
# Poissons Ratio (z) = -0.11535 0.47129
#
# Static dielectric constant tensor:
#      x y z
#    x 1.731060 0.000000 0.000000 
#    y 0.000000 1.778580 0.000000 
#    z 0.000000 0.000000 1.679840 
# 
# From -- ./inp_files/22025.got.cif
#   From: 2010.05.17/outbox.cif.g08.bks.cpg/sg38_12_cif.got.tgz:22025.got - 2010.06.03 18:07:57.
