data_PCOD9358771
_publ_section_title
;
Structure prediction by ZEFSAII (Michael W. Deem and Ramdas Pophale) SiO2 
 PCOD9358771
Probable space group: A M M 2
;
_chemical_formula_sum "Si O2"
_cell_formula_units_Z 48
_cell_length_a 9.165101
_cell_length_b 7.517395
_cell_length_c 36.062387
_cell_angle_alpha 90.000000
_cell_angle_beta 90.000000
_cell_angle_gamma 90.000000
_cell_volume 2484.614959
_symmetry_space_group_name_H-M "A M M 2"
_symmetry_group_IT_number 38
_symmetry_cell_setting 'orthorhombic'
loop_
_space_group_symop_operation_xyz
x,y,z
-x,-y,z
-x,y,z
x,-y,z
x,1/2+y,1/2+z
-x,1/2-y,1/2+z
-x,1/2+y,1/2+z
x,1/2-y,1/2+z
loop_
_atom_site_type_symbol
_atom_site_label
_atom_site_fract_x
_atom_site_fract_y
_atom_site_fract_z
Si Si1 0.170366 0.216045 0.177180
Si Si2 0.827268 0.713464 0.946588
Si Si3 0.677248 0.500000 0.309950
Si Si4 0.675480 0.706787 0.751920
Si Si5 0.166703 0.286235 0.595463
Si Si6 0.336274 0.288349 0.020659
Si Si7 0.323844 0.000000 0.895688
O O1 0.259148 0.274535 0.213045
O O2 0.218753 0.276326 0.136138
O O3 0.000000 0.262967 0.180927
O O4 0.179626 0.000000 0.177187
O O5 0.805148 0.500000 0.942178
O O6 0.000000 0.747714 0.944536
O O7 0.741106 0.827599 0.916306
O O8 0.765750 0.771464 0.986855
O O9 0.500000 0.500000 0.310288
O O10 0.723431 0.328242 0.286201
O O11 0.722134 0.500000 0.352592
O O12 0.500000 0.714433 0.749474
O O13 0.717286 0.500000 0.757095
O O14 0.160118 0.500000 0.597434
O O15 0.266300 0.242511 0.560712
O O16 0.000000 0.222379 0.589671
O O17 0.500000 0.214088 0.018089
O O18 0.346262 0.500000 0.016273
O O19 0.500000 0.000000 0.898102
#
# Coordination Sequence:
#
# PCOD9358771 Si02
#       7
#     8   8   4   8   8   8   4
#     4   8  15  30  50  73 103 139 181 225 271 324
#     4  10  22  41  63  85 114 154 194 235 289 352
#     4   9  20  37  55  83 115 141 179 229 279 341
#     4   9  17  32  55  78 104 143 183 221 272 330
#     4   9  18  32  51  75 105 143 184 227 275 331
#     4  10  21  36  53  77 109 143 184 231 279 332
#     4  11  23  39  63  91 119 151 191 241 295 351
#
# _framework density 19.318888999999999
#
# number of rings (size 3 to 8) (size 9 to 14) (size 15 to 20)
#    0.000    2.667    0.000    2.250    1.167    3.667 
#    1.500    5.417    0.000    2.000    0.000    0.000 
#    0.000    0.000    0.000    0.000    0.000    0.000 
#
# Total GULP energy -133881.220152 kJ/mol
# GULP energy per Si atom -5578.384173 kJ/mol
# Density = 1.927492 g / cm^3
# Si number density = 19.318889 Si / 1000 Ang^3
#
#
#
# Elastic Constant Matrix: (Units=GPa)
#
#
# Indices 1 2 3 4 5 6 
#
# 1 79.8861 36.5884 75.4309 0.0000 0.0000 0.0000
# 2 36.5884 74.4604 56.4307 0.0000 0.0000 0.0000
# 3 75.4309 56.4307 201.6708 0.0000 0.0000 0.0000
# 4 0.0000 0.0000 0.0000 38.6342 0.0000 0.0000
# 5 0.0000 0.0000 0.0000 0.0000 58.5812 0.0000
# 6 0.0000 0.0000 0.0000 0.0000 0.0000 17.8137
#
#
#
# Elastic Compliance Matrix: (Units=1/GPa)
#
#
# Indices 1 2 3 4 5 6 
#
# 1 0.021014 -0.005545 -0.006308 0.000000 0.000000 0.000000
# 2 -0.005545 0.018508 -0.003105 0.000000 0.000000 0.000000
# 3 -0.006308 -0.003105 0.008187 0.000000 0.000000 0.000000
# 4 0.000000 0.000000 0.000000 0.025884 0.000000 0.000000
# 5 0.000000 0.000000 0.000000 0.000000 0.017070 0.000000
# 6 0.000000 0.000000 0.000000 0.000000 0.000000 0.056136
#
#
# Mechanical properties :
#
#
# Convention : Reuss Voigt Hill
#
# Bulk Modulus (GPa) = 56.20403 76.99083 66.59743
# Shear Modulus (GPa) = 27.37542 35.51033 31.44287
#
# Velocity S-wave (km/s) = 3.76843 4.29198 4.03869
# Velocity P-wave (km/s) = 6.93474 8.03122 7.50304
#
# Compressibility (1/GPa) = 0.01779232
#
# Stress axis : x y z
#
# Youngs Moduli (GPa) = 47.58753 54.03177 122.14804
#
# Poissons Ratio (x) = 0.29961 0.77054
# Poissons Ratio (y) = 0.26388 0.37923
# Poissons Ratio (z) = 0.30019 0.16775
#
# Static dielectric constant tensor:
#      x y z
#    x 1.657340 0.000000 0.000000 
#    y 0.000000 1.715320 0.000000 
#    z 0.000000 0.000000 1.660470 
# 
# From -- ./inp_files/24395.got.cif
#   From: 2010.05.17/outbox.cif.g08.bks.cpg/sg38_13_cif.got.tgz:24395.got - 2010.06.03 18:07:57.
