data_PCOD9358936
_publ_section_title
;
Structure prediction by ZEFSAII (Michael W. Deem and Ramdas Pophale) SiO2 
 PCOD9358936
Probable space group: A M M 2
;
_chemical_formula_sum "Si O2"
_cell_formula_units_Z 64
_cell_length_a 14.139991
_cell_length_b 9.003047
_cell_length_c 26.415266
_cell_angle_alpha 90.000000
_cell_angle_beta 90.000000
_cell_angle_gamma 90.000000
_cell_volume 3362.742701
_symmetry_space_group_name_H-M "A M M 2"
_symmetry_group_IT_number 38
_symmetry_cell_setting 'orthorhombic'
loop_
_space_group_symop_operation_xyz
x,y,z
-x,-y,z
-x,y,z
x,-y,z
x,1/2+y,1/2+z
-x,1/2-y,1/2+z
-x,1/2+y,1/2+z
x,1/2-y,1/2+z
loop_
_atom_site_type_symbol
_atom_site_label
_atom_site_fract_x
_atom_site_fract_y
_atom_site_fract_z
Si Si1 0.110340 0.822837 0.634780
Si Si2 0.386052 0.824972 0.797862
Si Si3 0.389013 0.178258 0.986183
Si Si4 0.613857 0.325443 0.183613
Si Si5 0.114848 0.669736 0.740545
Si Si6 0.282169 0.676756 0.590210
Si Si7 0.716568 0.823494 0.391924
Si Si8 0.111062 0.822982 0.846278
O O1 0.140100 0.753454 0.688922
O O2 0.180536 0.755214 0.593620
O O3 0.000000 0.785708 0.626118
O O4 0.118754 0.000000 0.637195
O O5 0.500000 0.814012 0.801218
O O6 0.358353 0.779481 0.740718
O O7 0.339156 0.731176 0.841980
O O8 0.362020 0.000000 0.804159
O O9 0.500000 0.216056 0.987959
O O10 0.337752 0.260543 0.940431
O O11 0.381725 0.000000 0.978415
O O12 0.339058 0.214287 0.039348
O O13 0.500000 0.314570 0.180756
O O14 0.638644 0.500000 0.177780
O O15 0.659906 0.232791 0.138940
O O16 0.149950 0.500000 0.741537
O O17 0.139606 0.758581 0.791225
O O18 0.000000 0.664063 0.740399
O O19 0.270416 0.500000 0.592573
O O20 0.820674 0.752831 0.386674
O O21 0.721864 0.000000 0.393215
O O22 0.000000 0.789677 0.854166
O O23 0.122775 0.000000 0.846421
#
# Coordination Sequence:
#
# PCOD9358936 Si02
#       8
#     8   8   8   8   8   8   8   8
#     4  10  21  37  57  83 119 163 206 245 292 354
#     4   9  19  37  59  83 116 158 198 238 291 358
#     4  10  23  45  68  88 115 155 202 250 301 361
#     4   9  19  36  58  85 118 156 195 237 292 359
#     4   9  17  31  53  82 117 155 196 245 295 341
#     4  11  23  38  61  90 119 153 198 251 306 356
#     4  12  25  38  59  90 121 154 197 250 306 356
#     4  10  21  38  60  85 117 160 205 245 292 355
#
# _framework density 19.032083
#
# number of rings (size 3 to 8) (size 9 to 14) (size 15 to 20)
#    0.000    2.000    0.000    4.125    1.750    7.250 
#    0.000    1.875    0.000    0.750    0.000    0.000 
#    0.000    0.000    0.000    0.000    0.000    0.000 
#
# Total GULP energy -178859.170212 kJ/mol
# GULP energy per Si atom -5589.349069 kJ/mol
# Density = 1.898877 g / cm^3
# Si number density = 19.032083 Si / 1000 Ang^3
#
#
#
# Elastic Constant Matrix: (Units=GPa)
#
#
# Indices 1 2 3 4 5 6 
#
# 1 124.7993 67.3735 83.7517 0.0000 0.0000 0.0000
# 2 67.3735 97.1590 80.6303 0.0000 0.0000 0.0000
# 3 83.7517 80.6303 132.8135 0.0000 0.0000 0.0000
# 4 0.0000 0.0000 0.0000 32.6899 0.0000 0.0000
# 5 0.0000 0.0000 0.0000 0.0000 37.5172 0.0000
# 6 0.0000 0.0000 0.0000 0.0000 0.0000 29.2908
#
#
#
# Elastic Compliance Matrix: (Units=1/GPa)
#
#
# Indices 1 2 3 4 5 6 
#
# 1 0.015079 -0.005170 -0.006370 0.000000 0.000000 0.000000
# 2 -0.005170 0.022516 -0.010409 0.000000 0.000000 0.000000
# 3 -0.006370 -0.010409 0.017866 0.000000 0.000000 0.000000
# 4 0.000000 0.000000 0.000000 0.030590 0.000000 0.000000
# 5 0.000000 0.000000 0.000000 0.000000 0.026654 0.000000
# 6 0.000000 0.000000 0.000000 0.000000 0.000000 0.034140
#
#
# Mechanical properties :
#
#
# Convention : Reuss Voigt Hill
#
# Bulk Modulus (GPa) = 86.48920 90.92032 88.70476
# Shear Modulus (GPa) = 25.69420 28.10069 26.89745
#
# Velocity S-wave (km/s) = 3.67828 3.84668 3.76342
# Velocity P-wave (km/s) = 7.97385 8.22223 8.09899
#
# Compressibility (1/GPa) = 0.01156214
#
# Stress axis : x y z
#
# Youngs Moduli (GPa) = 66.31900 44.41382 55.97374
#
# Poissons Ratio (x) = 0.22961 0.35655
# Poissons Ratio (y) = 0.34285 0.58263
# Poissons Ratio (z) = 0.42245 0.46230
#
# Static dielectric constant tensor:
#      x y z
#    x 1.697370 0.000000 0.000000 
#    y 0.000000 1.636670 0.000000 
#    z 0.000000 0.000000 1.627440 
# 
# From -- ./inp_files/22920.got.cif
#   From: 2010.05.17/outbox.cif.g08.bks.cpg/sg38_12_cif.got.tgz:22920.got - 2010.06.03 18:07:57.
