data_PCOD9358902
_publ_section_title
;
Structure prediction by ZEFSAII (Michael W. Deem and Ramdas Pophale) SiO2 
 PCOD9358902
Probable space group: A M M 2
;
_chemical_formula_sum "Si O2"
_cell_formula_units_Z 48
_cell_length_a 7.654931
_cell_length_b 17.722533
_cell_length_c 17.121661
_cell_angle_alpha 90.000000
_cell_angle_beta 90.000000
_cell_angle_gamma 90.000000
_cell_volume 2322.806155
_symmetry_space_group_name_H-M "A M M 2"
_symmetry_group_IT_number 38
_symmetry_cell_setting 'orthorhombic'
loop_
_space_group_symop_operation_xyz
x,y,z
-x,-y,z
-x,y,z
x,-y,z
x,1/2+y,1/2+z
-x,1/2-y,1/2+z
-x,1/2+y,1/2+z
x,1/2-y,1/2+z
loop_
_atom_site_type_symbol
_atom_site_label
_atom_site_fract_x
_atom_site_fract_y
_atom_site_fract_z
Si Si1 0.790473 0.585616 0.262290
Si Si2 0.295939 0.154024 0.439294
Si Si3 0.207666 0.316859 0.116441
Si Si4 0.710695 0.319923 0.415860
Si Si5 0.286209 0.000000 0.182921
Si Si6 0.289421 0.146945 0.089799
Si Si7 0.714552 0.500000 0.863815
O O1 0.722696 0.500000 0.262746
O O2 0.724286 0.634325 0.188889
O O3 0.754806 0.628291 0.343009
O O4 0.000000 0.581840 0.254142
O O5 0.500000 0.154174 0.417253
O O6 0.283656 0.158184 0.533045
O O7 0.221957 0.233775 0.408551
O O8 0.222308 0.076445 0.405581
O O9 0.243119 0.227894 0.126254
O O10 0.000000 0.327140 0.110802
O O11 0.500000 0.315891 0.420717
O O12 0.772353 0.351511 0.499688
O O13 0.226469 0.075228 0.138271
O O14 0.500000 0.000000 0.181512
O O15 0.235296 0.000000 0.273227
O O16 0.500000 0.142774 0.088098
O O17 0.500000 0.500000 0.867960
#
# Coordination Sequence:
#
# PCOD9358902 Si02
#       7
#     8   8   8   8   4   8   4
#     4  10  23  39  54  76 107 144 184 223 266 318
#     4   9  19  36  57  83 111 139 177 222 268 321
#     4  10  21  37  57  78 106 145 185 221 268 322
#     4   9  19  34  55  82 109 139 177 222 267 316
#     4   9  18  32  57  86 111 142 174 215 269 321
#     4   9  19  36  59  84 110 140 178 220 268 322
#     4   9  18  32  55  86 113 138 174 219 267 319
#
# _framework density 20.664660000000001
#
# number of rings (size 3 to 8) (size 9 to 14) (size 15 to 20)
#    0.000    2.667    0.000    1.500    4.667    4.333 
#    0.000    0.417    0.000    1.000    0.000    0.000 
#    0.000    0.000    0.000    0.000    0.000    0.000 
#
# Total GULP energy -133966.116786 kJ/mol
# GULP energy per Si atom -5581.921533 kJ/mol
# Density = 2.061763 g / cm^3
# Si number density = 20.664660 Si / 1000 Ang^3
#
#
#
# Elastic Constant Matrix: (Units=GPa)
#
#
# Indices 1 2 3 4 5 6 
#
# 1 33.6060 -1.9536 -11.0469 0.0000 0.0000 0.0000
# 2 -1.9536 221.1933 132.4910 0.0000 0.0000 0.0000
# 3 -11.0469 132.4910 118.2053 0.0000 0.0000 0.0000
# 4 0.0000 0.0000 0.0000 31.0398 0.0000 0.0000
# 5 0.0000 0.0000 0.0000 0.0000 25.6624 0.0000
# 6 0.0000 0.0000 0.0000 0.0000 0.0000 12.3560
#
#
#
# Elastic Compliance Matrix: (Units=1/GPa)
#
#
# Indices 1 2 3 4 5 6 
#
# 1 0.032178 -0.004616 0.008181 0.000000 0.000000 0.000000
# 2 -0.004616 0.014419 -0.016593 0.000000 0.000000 0.000000
# 3 0.008181 -0.016593 0.027823 0.000000 0.000000 0.000000
# 4 0.000000 0.000000 0.000000 0.032217 0.000000 0.000000
# 5 0.000000 0.000000 0.000000 0.000000 0.038968 0.000000
# 6 0.000000 0.000000 0.000000 0.000000 0.000000 0.080932
#
#
# Mechanical properties :
#
#
# Convention : Reuss Voigt Hill
#
# Bulk Modulus (GPa) = 20.67674 67.99839 44.33756
# Shear Modulus (GPa) = 18.60712 30.71258 24.65985
#
# Velocity S-wave (km/s) = 3.00398 3.85936 3.45821
# Velocity P-wave (km/s) = 4.69674 7.26888 6.11948
#
# Compressibility (1/GPa) = 0.04836353
#
# Stress axis : x y z
#
# Youngs Moduli (GPa) = 31.07751 69.35156 35.94126
#
# Poissons Ratio (x) = 0.32015 -0.29405
# Poissons Ratio (y) = 0.14346 0.59639
# Poissons Ratio (z) = -0.25426 1.15077
#
# Static dielectric constant tensor:
#      x y z
#    x 1.757040 0.000000 0.000000 
#    y 0.000000 1.730750 0.000000 
#    z 0.000000 0.000000 1.696950 
# 
# From -- ./inp_files/12073.got.cif
#   From: 2010.05.17/outbox.cif.g08.bks.cpg/sg38_7_cif.got.tgz:12073.got - 2010.06.03 18:07:57.
