data_PCOD9358079
_publ_section_title
;
Structure prediction by ZEFSAII (Michael W. Deem and Ramdas Pophale) SiO2 
 PCOD9358079
Probable space group: A M M 2
;
_chemical_formula_sum "Si O2"
_cell_formula_units_Z 64
_cell_length_a 16.139764
_cell_length_b 14.832105
_cell_length_c 12.661812
_cell_angle_alpha 90.000000
_cell_angle_beta 90.000000
_cell_angle_gamma 90.000000
_cell_volume 3031.069066
_symmetry_space_group_name_H-M "A M M 2"
_symmetry_group_IT_number 38
_symmetry_cell_setting 'orthorhombic'
loop_
_space_group_symop_operation_xyz
x,y,z
-x,-y,z
-x,y,z
x,-y,z
x,1/2+y,1/2+z
-x,1/2-y,1/2+z
-x,1/2+y,1/2+z
x,1/2-y,1/2+z
loop_
_atom_site_type_symbol
_atom_site_label
_atom_site_fract_x
_atom_site_fract_y
_atom_site_fract_z
Si Si1 0.144830 0.895787 0.444540
Si Si2 0.590088 0.104477 0.813575
Si Si3 0.590899 0.330223 0.083453
Si Si4 0.664110 0.604224 0.874158
Si Si5 0.090662 0.293426 0.501578
Si Si6 0.256292 0.603336 0.441087
Si Si7 0.129820 0.107129 0.208843
Si Si8 0.308313 0.167906 0.157923
O O1 0.242820 0.880633 0.420833
O O2 0.111108 0.812912 0.512780
O O3 0.101022 0.887895 0.329391
O O4 0.134747 0.000000 0.481473
O O5 0.500000 0.144234 0.844611
O O6 0.594158 0.107363 0.686893
O O7 0.673495 0.144271 0.863936
O O8 0.589976 0.000000 0.847780
O O9 0.500000 0.285889 0.084284
O O10 0.662686 0.258937 0.104350
O O11 0.604766 0.376979 0.972076
O O12 0.664565 0.500000 0.843245
O O13 0.639618 0.652619 0.764594
O O14 0.171414 0.339365 0.446936
O O15 0.084562 0.344856 0.613238
O O16 0.000000 0.303237 0.448855
O O17 0.236242 0.500000 0.411375
O O18 0.300122 0.602806 0.556610
O O19 0.216934 0.159309 0.204877
O O20 0.140275 0.000000 0.186059
#
# Coordination Sequence:
#
# PCOD9358079 Si02
#       8
#     8   8   8   8   8   8   8   8
#     4   9  20  39  62  90 120 157 203 252 309 372
#     4   9  20  39  60  82 114 163 216 257 303 371
#     4  11  24  36  54  85 122 160 201 253 310 378
#     4  10  20  38  63  86 112 152 201 256 313 369
#     4  11  22  35  59  93 127 164 204 251 308 373
#     4  10  21  39  62  90 125 162 206 263 316 371
#     4   9  19  38  64  88 116 155 205 257 306 367
#     4  10  20  34  59  86 114 149 194 252 308 363
#
# _framework density 21.114663
#
# number of rings (size 3 to 8) (size 9 to 14) (size 15 to 20)
#    0.000    2.125    0.000    4.875    5.250    3.500 
#    0.000    1.250    0.000    4.875    0.000    3.500 
#    0.000    0.000    0.000    0.000    0.000    0.000 
#
# Total GULP energy -178194.253666 kJ/mol
# GULP energy per Si atom -5568.570427 kJ/mol
# Density = 2.106660 g / cm^3
# Si number density = 21.114663 Si / 1000 Ang^3
#
#
#
# Elastic Constant Matrix: (Units=GPa)
#
#
# Indices 1 2 3 4 5 6 
#
# 1 90.8097 44.9317 39.9610 0.0000 0.0000 0.0000
# 2 44.9317 75.5020 -5.4336 0.0000 0.0000 0.0000
# 3 39.9610 -5.4336 65.2303 0.0000 0.0000 0.0000
# 4 0.0000 0.0000 0.0000 16.0494 0.0000 0.0000
# 5 0.0000 0.0000 0.0000 0.0000 5.5378 0.0000
# 6 0.0000 0.0000 0.0000 0.0000 0.0000 23.2116
#
#
#
# Elastic Compliance Matrix: (Units=1/GPa)
#
#
# Indices 1 2 3 4 5 6 
#
# 1 0.028332 -0.018219 -0.018874 0.000000 0.000000 0.000000
# 2 -0.018219 0.025040 0.013247 0.000000 0.000000 0.000000
# 3 -0.018874 0.013247 0.027996 0.000000 0.000000 0.000000
# 4 0.000000 0.000000 0.000000 0.062308 0.000000 0.000000
# 5 0.000000 0.000000 0.000000 0.000000 0.180576 0.000000
# 6 0.000000 0.000000 0.000000 0.000000 0.000000 0.043082
#
#
# Mechanical properties :
#
#
# Convention : Reuss Voigt Hill
#
# Bulk Modulus (GPa) = 29.69444 43.38445 36.53945
# Shear Modulus (GPa) = 11.73013 19.09864 15.41439
#
# Velocity S-wave (km/s) = 2.35956 3.01079 2.70484
# Velocity P-wave (km/s) = 4.63867 5.71648 5.20555
#
# Compressibility (1/GPa) = 0.03367634
#
# Stress axis : x y z
#
# Youngs Moduli (GPa) = 35.29527 39.93557 35.71876
#
# Poissons Ratio (x) = 0.72759 0.67417
# Poissons Ratio (y) = 0.64305 -0.47317
# Poissons Ratio (z) = 0.66618 -0.52903
#
# Static dielectric constant tensor:
#      x y z
#    x 1.844060 0.000000 0.000000 
#    y 0.000000 1.774840 0.000000 
#    z 0.000000 0.000000 1.794410 
# 
# From -- ./inp_files/10605.got.cif
#   From: 2010.05.17/outbox.cif.g08.bks.cpg/sg38_6_cif.got.tgz:10605.got - 2010.06.03 18:07:57.
