data_PCOD9358801
_publ_section_title
;
Structure prediction by ZEFSAII (Michael W. Deem and Ramdas Pophale) SiO2 
 PCOD9358801
Probable space group: A M M 2
;
_chemical_formula_sum "Si O2"
_cell_formula_units_Z 48
_cell_length_a 15.010105
_cell_length_b 12.875612
_cell_length_c 12.904782
_cell_angle_alpha 90.000000
_cell_angle_beta 90.000000
_cell_angle_gamma 90.000000
_cell_volume 2494.033506
_symmetry_space_group_name_H-M "A M M 2"
_symmetry_group_IT_number 38
_symmetry_cell_setting 'orthorhombic'
loop_
_space_group_symop_operation_xyz
x,y,z
-x,-y,z
-x,y,z
x,-y,z
x,1/2+y,1/2+z
-x,1/2-y,1/2+z
-x,1/2+y,1/2+z
x,1/2-y,1/2+z
loop_
_atom_site_type_symbol
_atom_site_label
_atom_site_fract_x
_atom_site_fract_y
_atom_site_fract_z
Si Si1 0.604292 0.120150 0.398040
Si Si2 0.739456 0.235201 0.770586
Si Si3 0.596960 0.338034 0.142131
Si Si4 0.787448 0.380683 0.579110
Si Si5 0.102117 0.375701 0.387826
Si Si6 0.405316 0.616375 0.554670
O O1 0.500000 0.146817 0.375556
O O2 0.675773 0.195030 0.344366
O O3 0.613390 0.128257 0.523497
O O4 0.618232 0.000000 0.367867
O O5 0.676652 0.145589 0.720739
O O6 0.774038 0.306471 0.675804
O O7 0.825573 0.186906 0.823198
O O8 0.500000 0.377143 0.174356
O O9 0.591094 0.211781 0.133593
O O10 0.795112 0.500000 0.613304
O O11 0.870133 0.355101 0.506870
O O12 0.694712 0.374636 0.510893
O O13 0.112210 0.500000 0.372038
O O14 0.000000 0.347710 0.366771
O O15 0.500000 0.625529 0.493813
O O16 0.406904 0.500000 0.600402
#
# Coordination Sequence:
#
# PCOD9358801 Si02
#       6
#     8   8   8   8   8   8
#     4  10  21  36  54  81 120 158 183 209 257 321
#     4  11  19  33  58  86 107 138 187 234 265 312
#     4   9  18  31  48  75 113 151 182 215 261 317
#     4   9  18  33  54  80 109 140 174 217 272 328
#     4  10  23  42  59  77 105 140 179 229 291 345
#     4   8  13  23  43  73 106 136 167 206 252 304
#
# _framework density 19.245932
#
# number of rings (size 3 to 8) (size 9 to 14) (size 15 to 20)
#    0.000    2.500    0.000    3.000    0.000    2.667 
#    0.000    7.500    0.000    4.000    0.000    0.000 
#    0.000    0.000    0.000    0.000    0.000    0.000 
#
# Total GULP energy -133625.575155 kJ/mol
# GULP energy per Si atom -5567.732298 kJ/mol
# Density = 1.920213 g / cm^3
# Si number density = 19.245932 Si / 1000 Ang^3
#
#
#
# Elastic Constant Matrix: (Units=GPa)
#
#
# Indices 1 2 3 4 5 6 
#
# 1 171.8591 49.8287 71.6668 0.0000 0.0000 0.0000
# 2 49.8287 72.9785 35.1063 0.0000 0.0000 0.0000
# 3 71.6668 35.1063 75.7763 0.0000 0.0000 0.0000
# 4 0.0000 0.0000 0.0000 7.2679 0.0000 0.0000
# 5 0.0000 0.0000 0.0000 0.0000 25.9427 0.0000
# 6 0.0000 0.0000 0.0000 0.0000 0.0000 26.4254
#
#
#
# Elastic Compliance Matrix: (Units=1/GPa)
#
#
# Indices 1 2 3 4 5 6 
#
# 1 0.010080 -0.002955 -0.008164 0.000000 0.000000 0.000000
# 2 -0.002955 0.018499 -0.005775 0.000000 0.000000 0.000000
# 3 -0.008164 -0.005775 0.023594 0.000000 0.000000 0.000000
# 4 0.000000 0.000000 0.000000 0.137591 0.000000 0.000000
# 5 0.000000 0.000000 0.000000 0.000000 0.038546 0.000000
# 6 0.000000 0.000000 0.000000 0.000000 0.000000 0.037842
#
#
# Mechanical properties :
#
#
# Convention : Reuss Voigt Hill
#
# Bulk Modulus (GPa) = 54.39792 70.42417 62.41105
# Shear Modulus (GPa) = 16.33615 22.86134 19.59874
#
# Velocity S-wave (km/s) = 2.91660 3.45026 3.19459
# Velocity P-wave (km/s) = 6.29826 7.24869 6.79013
#
# Compressibility (1/GPa) = 0.01838305
#
# Stress axis : x y z
#
# Youngs Moduli (GPa) = 99.20467 54.05813 42.38354
#
# Poissons Ratio (x) = 0.15975 0.34604
# Poissons Ratio (y) = 0.29316 0.24478
# Poissons Ratio (z) = 0.80995 0.31220
#
# Static dielectric constant tensor:
#      x y z
#    x 1.711110 0.000000 0.000000 
#    y 0.000000 1.700460 0.000000 
#    z 0.000000 0.000000 1.705690 
# 
# From -- ./inp_files/10015.got.cif
#   From: 2010.05.17/outbox.cif.g08.bks.cpg/sg38_6_cif.got.tgz:10015.got - 2010.06.03 18:07:57.
