data_PCOD9358390
_publ_section_title
;
Structure prediction by ZEFSAII (Michael W. Deem and Ramdas Pophale) SiO2 
 PCOD9358390
Probable space group: A M M 2
;
_chemical_formula_sum "Si O2"
_cell_formula_units_Z 40
_cell_length_a 8.999585
_cell_length_b 7.609121
_cell_length_c 30.437120
_cell_angle_alpha 90.000000
_cell_angle_beta 90.000000
_cell_angle_gamma 90.000000
_cell_volume 2084.301447
_symmetry_space_group_name_H-M "A M M 2"
_symmetry_group_IT_number 38
_symmetry_cell_setting 'orthorhombic'
loop_
_space_group_symop_operation_xyz
x,y,z
-x,-y,z
-x,y,z
x,-y,z
x,1/2+y,1/2+z
-x,1/2-y,1/2+z
-x,1/2+y,1/2+z
x,1/2-y,1/2+z
loop_
_atom_site_type_symbol
_atom_site_label
_atom_site_fract_x
_atom_site_fract_y
_atom_site_fract_z
Si Si1 0.831692 0.289459 0.760970
Si Si2 0.819939 0.000000 0.925376
Si Si3 0.677514 0.000000 0.021196
Si Si4 0.666945 0.710371 0.171222
Si Si5 0.176352 0.290301 0.081833
Si Si6 0.180963 0.701553 0.856955
O O1 0.841118 0.500000 0.765183
O O2 0.734659 0.251216 0.718575
O O3 0.772278 0.230568 0.808587
O O4 0.000000 0.221458 0.754300
O O5 0.777984 0.169514 0.896168
O O6 0.000000 0.000000 0.930835
O O7 0.742264 0.000000 0.972163
O O8 0.738876 0.829136 0.046847
O O9 0.500000 0.000000 0.021223
O O10 0.500000 0.781169 0.166763
O O11 0.659647 0.500000 0.168328
O O12 0.768712 0.765904 0.130393
O O13 0.205544 0.500000 0.076295
O O14 0.000000 0.263449 0.077988
O O15 0.230055 0.500000 0.863630
O O16 0.000000 0.699764 0.854872
#
# Coordination Sequence:
#
# PCOD9358390 Si02
#       6
#     8   4   4   8   8   8
#     4   9  18  32  52  80 112 149 193 239 285 337
#     4  10  20  36  60  86 110 148 200 250 299 348
#     4  12  26  42  62  90 124 160 194 242 309 376
#     4  10  21  35  52  80 117 155 191 232 290 354
#     4  10  22  42  66  89 115 152 202 255 298 347
#     4   8  16  32  54  82 113 144 189 247 295 336
#
# _framework density 19.191081000000001
#
# number of rings (size 3 to 8) (size 9 to 14) (size 15 to 20)
#    0.000    2.400    0.000    3.300    2.800    3.600 
#    0.000    3.000    0.000    1.200    0.000    0.000 
#    0.000    0.000    0.000    0.000    0.000    0.000 
#
# Total GULP energy -111617.537190 kJ/mol
# GULP energy per Si atom -5580.876860 kJ/mol
# Density = 1.914740 g / cm^3
# Si number density = 19.191081 Si / 1000 Ang^3
#
#
#
# Elastic Constant Matrix: (Units=GPa)
#
#
# Indices 1 2 3 4 5 6 
#
# 1 94.3016 45.7619 75.2905 0.0000 0.0000 0.0000
# 2 45.7619 83.5641 69.9702 0.0000 0.0000 0.0000
# 3 75.2905 69.9702 197.1072 0.0000 0.0000 0.0000
# 4 0.0000 0.0000 0.0000 33.9866 0.0000 0.0000
# 5 0.0000 0.0000 0.0000 0.0000 -27.0993 0.0000
# 6 0.0000 0.0000 0.0000 0.0000 0.0000 18.2057
#
#
#
# Elastic Compliance Matrix: (Units=1/GPa)
#
#
# Indices 1 2 3 4 5 6 
#
# 1 0.016843 -0.005459 -0.004496 0.000000 0.000000 0.000000
# 2 -0.005459 0.018798 -0.004588 0.000000 0.000000 0.000000
# 3 -0.004496 -0.004588 0.008419 0.000000 0.000000 0.000000
# 4 0.000000 0.000000 0.000000 0.029423 0.000000 0.000000
# 5 0.000000 0.000000 0.000000 0.000000 -0.036901 0.000000
# 6 0.000000 0.000000 0.000000 0.000000 0.000000 0.054928
#
#
# Mechanical properties :
#
#
# Convention : Reuss Voigt Hill
#
# Bulk Modulus (GPa) = 66.77911 84.11312 75.44611
# Shear Modulus (GPa) = 39.81320 17.28194 28.54757
#
# Velocity S-wave (km/s) = 4.55968 3.00412 3.86105
# Velocity P-wave (km/s) = 7.91160 7.48047 7.69905
#
# Compressibility (1/GPa) = 0.01497474
#
# Stress axis : x y z
#
# Youngs Moduli (GPa) = 59.37258 53.19761 118.77688
#
# Poissons Ratio (x) = 0.29042 0.53397
# Poissons Ratio (y) = 0.32413 0.54491
# Poissons Ratio (z) = 0.26692 0.24405
#
# Static dielectric constant tensor:
#      x y z
#    x 1.653030 0.000000 0.000000 
#    y 0.000000 1.687730 0.000000 
#    z 0.000000 0.000000 1.655790 
# 
# From -- ./inp_files/23246.got.cif
#   From: 2010.05.17/outbox.cif.g08.bks.cpg/sg38_12_cif.got.tgz:23246.got - 2010.06.03 18:07:57.
