data_PCOD9358757
_publ_section_title
;
Structure prediction by ZEFSAII (Michael W. Deem and Ramdas Pophale) SiO2 
 PCOD9358757
Probable space group: A M M 2
;
_chemical_formula_sum "Si O2"
_cell_formula_units_Z 64
_cell_length_a 10.091242
_cell_length_b 8.730821
_cell_length_c 41.848048
_cell_angle_alpha 90.000000
_cell_angle_beta 90.000000
_cell_angle_gamma 90.000000
_cell_volume 3687.015053
_symmetry_space_group_name_H-M "A M M 2"
_symmetry_group_IT_number 38
_symmetry_cell_setting 'orthorhombic'
loop_
_space_group_symop_operation_xyz
x,y,z
-x,-y,z
-x,y,z
x,-y,z
x,1/2+y,1/2+z
-x,1/2-y,1/2+z
-x,1/2+y,1/2+z
x,1/2-y,1/2+z
loop_
_atom_site_type_symbol
_atom_site_label
_atom_site_fract_x
_atom_site_fract_y
_atom_site_fract_z
Si Si1 0.154958 0.815399 0.428690
Si Si2 0.654958 0.684601 0.129127
Si Si3 0.151871 0.186759 0.501279
Si Si4 0.653892 0.683395 0.805705
Si Si5 0.846108 0.816605 0.752112
Si Si6 0.348129 0.813241 0.556538
Si Si7 0.846453 0.316913 0.682676
Si Si8 0.346454 0.816913 0.875141
O O1 0.189036 0.768273 0.465120
O O2 0.250239 0.742093 0.402706
O O3 0.000000 0.776655 0.423296
O O4 0.165794 0.000000 0.426903
O O5 0.500000 0.723345 0.134522
O O6 0.665794 0.500000 0.130914
O O7 0.689036 0.731727 0.092697
O O8 0.750239 0.757908 0.155111
O O9 0.250000 0.240827 0.528909
O O10 0.000000 0.233697 0.507196
O O11 0.153327 0.000000 0.501619
O O12 0.500000 0.727332 0.799632
O O13 0.661933 0.500000 0.805771
O O14 0.750000 0.750000 0.778909
O O15 0.689420 0.745797 0.840804
O O16 0.810580 0.754203 0.717013
O O17 0.000000 0.772668 0.758185
O O18 0.838067 0.000000 0.752047
O O19 0.500000 0.766304 0.550621
O O20 0.346673 0.000000 0.556199
O O21 0.839214 0.500000 0.684912
O O22 0.000000 0.273766 0.676006
O O23 0.500000 0.773766 0.881812
O O24 0.339215 0.000000 0.872906
#
# Coordination Sequence:
#
# PCOD9358757 Si02
#       8
#     8   8   8   8   8   8   8   8
#     4   9  18  32  50  74 103 133 167 208 253 302
#     4   9  18  32  50  74 103 133 167 208 253 302
#     4   8  14  25  42  67  98 128 160 201 248 297
#     4  10  21  37  57  80 105 134 168 205 248 298
#     4  10  21  37  57  80 105 134 168 205 248 298
#     4   8  14  25  42  67  98 128 160 201 248 297
#     4  10  21  36  53  74 101 133 170 211 252 295
#     4  10  21  36  53  74 101 133 170 211 252 295
#
# _framework density 17.358214
#
# number of rings (size 3 to 8) (size 9 to 14) (size 15 to 20)
#    0.000    2.750    0.000    3.000    0.000    5.500 
#    0.000    2.500    0.000    0.750    0.000    0.000 
#    0.000    0.000    0.000    0.000    0.000    0.000 
#
# Total GULP energy -178463.581499 kJ/mol
# GULP energy per Si atom -5576.986922 kJ/mol
# Density = 1.731871 g / cm^3
# Si number density = 17.358214 Si / 1000 Ang^3
#
#
#
# Elastic Constant Matrix: (Units=GPa)
#
#
# Indices 1 2 3 4 5 6 
#
# 1 106.4617 37.9661 130.8954 0.0000 0.0000 0.0000
# 2 37.9661 27.2015 47.6899 0.0000 0.0000 0.0000
# 3 130.8954 47.6899 195.5589 0.0000 0.0000 0.0000
# 4 0.0000 0.0000 0.0000 21.8578 0.0000 0.0000
# 5 0.0000 0.0000 0.0000 0.0000 43.6527 0.0000
# 6 0.0000 0.0000 0.0000 0.0000 0.0000 25.3431
#
#
#
# Elastic Compliance Matrix: (Units=1/GPa)
#
#
# Indices 1 2 3 4 5 6 
#
# 1 0.060602 -0.023527 -0.034826 0.000000 0.000000 0.000000
# 2 -0.023527 0.073354 -0.002141 0.000000 0.000000 0.000000
# 3 -0.034826 -0.002141 0.028946 0.000000 0.000000 0.000000
# 4 0.000000 0.000000 0.000000 0.045750 0.000000 0.000000
# 5 0.000000 0.000000 0.000000 0.000000 0.022908 0.000000
# 6 0.000000 0.000000 0.000000 0.000000 0.000000 0.039459
#
#
# Mechanical properties :
#
#
# Convention : Reuss Voigt Hill
#
# Bulk Modulus (GPa) = 23.85844 84.70280 54.28062
# Shear Modulus (GPa) = 12.31598 25.68207 18.99903
#
# Velocity S-wave (km/s) = 2.66657 3.85064 3.31195
# Velocity P-wave (km/s) = 4.82238 8.28691 6.77968
#
# Compressibility (1/GPa) = 0.04191389
#
# Stress axis : x y z
#
# Youngs Moduli (GPa) = 16.50117 13.63260 34.54735
#
# Poissons Ratio (x) = 0.32074 1.20314
# Poissons Ratio (y) = 0.38823 0.07395
# Poissons Ratio (z) = 0.57466 0.02918
#
# Static dielectric constant tensor:
#      x y z
#    x 1.578730 0.000000 0.000000 
#    y 0.000000 1.590530 0.000000 
#    z 0.000000 0.000000 1.564000 
# 
# From -- ./inp_files/24934.got.cif
#   From: 2010.05.17/outbox.cif.g08.bks.cpg/sg38_13_cif.got.tgz:24934.got - 2010.06.03 18:07:57.
