data_PCOD9358907
_publ_section_title
;
Structure prediction by ZEFSAII (Michael W. Deem and Ramdas Pophale) SiO2 
 PCOD9358907
Probable space group: A M M 2
;
_chemical_formula_sum "Si O2"
_cell_formula_units_Z 48
_cell_length_a 8.918784
_cell_length_b 15.249784
_cell_length_c 19.380154
_cell_angle_alpha 90.000000
_cell_angle_beta 90.000000
_cell_angle_gamma 90.000000
_cell_volume 2635.885628
_symmetry_space_group_name_H-M "A M M 2"
_symmetry_group_IT_number 38
_symmetry_cell_setting 'orthorhombic'
loop_
_space_group_symop_operation_xyz
x,y,z
-x,-y,z
-x,y,z
x,-y,z
x,1/2+y,1/2+z
-x,1/2-y,1/2+z
-x,1/2+y,1/2+z
x,1/2-y,1/2+z
loop_
_atom_site_type_symbol
_atom_site_label
_atom_site_fract_x
_atom_site_fract_y
_atom_site_fract_z
Si Si1 0.320376 0.761414 0.116570
Si Si2 0.680622 0.261392 0.459279
Si Si3 0.679409 0.102544 0.841544
Si Si4 0.179938 0.897353 0.222849
Si Si5 0.180583 0.101154 0.381734
Si Si6 0.821012 0.897606 0.693724
O O1 0.500000 0.759659 0.120100
O O2 0.258624 0.834021 0.169046
O O3 0.255855 0.668018 0.140633
O O4 0.273946 0.780378 0.037792
O O5 0.500000 0.257197 0.457880
O O6 0.726790 0.335975 0.404630
O O7 0.745995 0.169735 0.432957
O O8 0.500000 0.112780 0.830945
O O9 0.762858 0.124949 0.770539
O O10 0.707790 0.000000 0.856730
O O11 0.223211 0.877784 0.302285
O O12 0.000000 0.886599 0.218020
O O13 0.213740 0.000000 0.210140
O O14 0.000000 0.106679 0.385849
O O15 0.222499 0.000000 0.395405
O O16 0.000000 0.887788 0.690977
O O17 0.783684 0.000000 0.681268
#
# Coordination Sequence:
#
# PCOD9358907 Si02
#       6
#     8   8   8   8   8   8
#     4  11  23  36  52  78 112 146 178 215 261 314
#     4  10  22  36  51  77 110 142 175 213 259 310
#     4   9  18  35  58  80 104 136 173 215 264 315
#     4   9  19  37  59  82 108 138 175 220 266 312
#     4   9  19  36  57  79 103 134 173 218 266 312
#     4  10  21  37  57  80 105 136 178 225 268 313
#
# _framework density 18.210198999999999
#
# number of rings (size 3 to 8) (size 9 to 14) (size 15 to 20)
#    0.000    2.333    0.000    3.000    0.000    8.333 
#    0.000    6.667    0.000    2.000    0.000    0.000 
#    0.000    0.000    0.000    0.000    0.000    0.000 
#
# Total GULP energy -134001.658694 kJ/mol
# GULP energy per Si atom -5583.402446 kJ/mol
# Density = 1.816875 g / cm^3
# Si number density = 18.210199 Si / 1000 Ang^3
#
#
#
# Elastic Constant Matrix: (Units=GPa)
#
#
# Indices 1 2 3 4 5 6 
#
# 1 13.6717 9.1600 6.3078 0.0000 0.0000 0.0000
# 2 9.1600 26.1549 0.8400 0.0000 0.0000 0.0000
# 3 6.3078 0.8400 20.8848 0.0000 0.0000 0.0000
# 4 0.0000 0.0000 0.0000 -5.8390 0.0000 0.0000
# 5 0.0000 0.0000 0.0000 0.0000 3.1154 0.0000
# 6 0.0000 0.0000 0.0000 0.0000 0.0000 27.6009
#
#
#
# Elastic Compliance Matrix: (Units=1/GPa)
#
#
# Indices 1 2 3 4 5 6 
#
# 1 0.114549 -0.039057 -0.033027 0.000000 0.000000 0.000000
# 2 -0.039057 0.051600 0.009721 0.000000 0.000000 0.000000
# 3 -0.033027 0.009721 0.057466 0.000000 0.000000 0.000000
# 4 0.000000 0.000000 0.000000 -0.171261 0.000000 0.000000
# 5 0.000000 0.000000 0.000000 0.000000 0.320986 0.000000
# 6 0.000000 0.000000 0.000000 0.000000 0.000000 0.036231
#
#
# Mechanical properties :
#
#
# Convention : Reuss Voigt Hill
#
# Bulk Modulus (GPa) = 10.11218 10.36966 10.24092
# Shear Modulus (GPa) = 8.81432 7.93569 8.37501
#
# Velocity S-wave (km/s) = 2.20246 2.08981 2.14687
# Velocity P-wave (km/s) = 3.46884 3.39556 3.43240
#
# Compressibility (1/GPa) = 0.09889061
#
# Stress axis : x y z
#
# Youngs Moduli (GPa) = 8.72985 19.37984 17.40166
#
# Poissons Ratio (x) = 0.75691 0.57472
# Poissons Ratio (y) = 0.34096 -0.16916
# Poissons Ratio (z) = 0.28832 -0.18839
#
# Static dielectric constant tensor:
#      x y z
#    x 1.606940 0.000000 0.000000 
#    y 0.000000 1.615690 0.000000 
#    z 0.000000 0.000000 1.606950 
# 
# From -- ./inp_files/12046.got.cif
#   From: 2010.05.17/outbox.cif.g08.bks.cpg/sg38_7_cif.got.tgz:12046.got - 2010.06.03 18:07:57.
