data_PCOD9358408
_publ_section_title
;
Structure prediction by ZEFSAII (Michael W. Deem and Ramdas Pophale) SiO2 
 PCOD9358408
Probable space group: A M M 2
;
_chemical_formula_sum "Si O2"
_cell_formula_units_Z 56
_cell_length_a 16.538908
_cell_length_b 19.016455
_cell_length_c 9.201003
_cell_angle_alpha 90.000000
_cell_angle_beta 90.000000
_cell_angle_gamma 90.000000
_cell_volume 2893.820332
_symmetry_space_group_name_H-M "A M M 2"
_symmetry_group_IT_number 38
_symmetry_cell_setting 'orthorhombic'
loop_
_space_group_symop_operation_xyz
x,y,z
-x,-y,z
-x,y,z
x,-y,z
x,1/2+y,1/2+z
-x,1/2-y,1/2+z
-x,1/2+y,1/2+z
x,1/2-y,1/2+z
loop_
_atom_site_type_symbol
_atom_site_label
_atom_site_fract_x
_atom_site_fract_y
_atom_site_fract_z
Si Si1 0.746361 0.581572 0.721460
Si Si2 0.411975 0.148626 0.118496
Si Si3 0.163829 0.415573 0.444320
Si Si4 0.228982 0.307445 0.243594
Si Si5 0.000000 0.915736 0.803051
Si Si6 0.409769 0.221406 0.806400
Si Si7 0.834088 0.673515 0.924044
Si Si8 0.000000 0.087440 0.455459
O O1 0.755526 0.500000 0.748029
O O2 0.662656 0.597624 0.641515
O O3 0.814746 0.606213 0.606938
O O4 0.762666 0.623050 0.867219
O O5 0.500000 0.114417 0.101777
O O6 0.414106 0.196810 0.262967
O O7 0.400792 0.198010 0.974993
O O8 0.168054 0.500000 0.438335
O O9 0.223942 0.379564 0.333005
O O10 0.078063 0.389593 0.386900
O O11 0.325356 0.296949 0.227589
O O12 0.184913 0.245697 0.336753
O O13 0.182009 0.312103 0.092682
O O14 0.000000 0.904182 0.631090
O O15 0.000000 0.000000 0.819876
O O16 0.500000 0.193697 0.760581
O O17 0.918868 0.629938 0.904181
O O18 0.000000 0.000000 0.425394
#
# Coordination Sequence:
#
# PCOD9358408 Si02
#       8
#     8   8   8   8   4   8   8   4
#     4  11  23  40  59  90 126 164 212 258 314 378
#     4  10  20  36  60  89 120 160 204 255 317 380
#     4  10  21  38  65  92 123 161 205 258 312 375
#     4  12  22  40  65  93 130 161 214 263 315 374
#     4   9  18  38  64  89 114 154 203 247 306 372
#     4  10  20  36  62  93 124 160 205 258 319 378
#     4  12  26  40  65  93 126 171 209 267 320 371
#     4  11  24  44  64  93 129 166 215 259 317 388
#
# _framework density 19.351583000000002
#
# number of rings (size 3 to 8) (size 9 to 14) (size 15 to 20)
#    0.000    1.286    4.286    2.143    0.000    2.571 
#    0.000    1.429    0.000    0.429    0.000    0.000 
#    0.000    0.000    0.000    0.000    0.000    0.000 
#
# Total GULP energy -155868.375668 kJ/mol
# GULP energy per Si atom -5566.727702 kJ/mol
# Density = 1.930754 g / cm^3
# Si number density = 19.351583 Si / 1000 Ang^3
#
#
#
# Elastic Constant Matrix: (Units=GPa)
#
#
# Indices 1 2 3 4 5 6 
#
# 1 115.7277 18.9104 5.9795 0.0000 0.0000 0.0000
# 2 18.9104 30.2169 32.2127 0.0000 0.0000 0.0000
# 3 5.9795 32.2127 72.2014 0.0000 0.0000 0.0000
# 4 0.0000 0.0000 0.0000 20.0014 0.0000 0.0000
# 5 0.0000 0.0000 0.0000 0.0000 20.4280 0.0000
# 6 0.0000 0.0000 0.0000 0.0000 0.0000 24.9723
#
#
#
# Elastic Compliance Matrix: (Units=1/GPa)
#
#
# Indices 1 2 3 4 5 6 
#
# 1 0.010144 -0.010398 0.003799 0.000000 0.000000 0.000000
# 2 -0.010398 0.073770 -0.032051 0.000000 0.000000 0.000000
# 3 0.003799 -0.032051 0.027835 0.000000 0.000000 0.000000
# 4 0.000000 0.000000 0.000000 0.049997 0.000000 0.000000
# 5 0.000000 0.000000 0.000000 0.000000 0.048953 0.000000
# 6 0.000000 0.000000 0.000000 0.000000 0.000000 0.040044
#
#
# Mechanical properties :
#
#
# Convention : Reuss Voigt Hill
#
# Bulk Modulus (GPa) = 29.02928 36.92792 32.97860
# Shear Modulus (GPa) = 14.72638 23.81655 19.27147
#
# Velocity S-wave (km/s) = 2.76160 3.51198 3.15915
# Velocity P-wave (km/s) = 5.02017 5.96401 5.51233
#
# Compressibility (1/GPa) = 0.03444797
#
# Stress axis : x y z
#
# Youngs Moduli (GPa) = 98.58236 13.55562 35.92556
#
# Poissons Ratio (x) = 0.14096 -0.13649
# Poissons Ratio (y) = 1.02509 1.15147
# Poissons Ratio (z) = -0.37453 0.43448
#
# Static dielectric constant tensor:
#      x y z
#    x 1.818850 0.000000 0.000000 
#    y 0.000000 1.671900 0.000000 
#    z 0.000000 0.000000 1.656910 
# 
# From -- ./inp_files/5778.got.cif
#   From: 2010.05.17/outbox.cif.g08.bks.cpg/sg38_3_cif.got.tgz:5778.got - 2010.06.03 18:07:57.
