data_PCOD9358245
_publ_section_title
;
Structure prediction by ZEFSAII (Michael W. Deem and Ramdas Pophale) SiO2 
 PCOD9358245
Probable space group: A M M 2
;
_chemical_formula_sum "Si O2"
_cell_formula_units_Z 40
_cell_length_a 11.737418
_cell_length_b 8.943345
_cell_length_c 20.646464
_cell_angle_alpha 90.000000
_cell_angle_beta 90.000000
_cell_angle_gamma 90.000000
_cell_volume 2167.296048
_symmetry_space_group_name_H-M "A M M 2"
_symmetry_group_IT_number 38
_symmetry_cell_setting 'orthorhombic'
loop_
_space_group_symop_operation_xyz
x,y,z
-x,-y,z
-x,y,z
x,-y,z
x,1/2+y,1/2+z
-x,1/2-y,1/2+z
-x,1/2+y,1/2+z
x,1/2-y,1/2+z
loop_
_atom_site_type_symbol
_atom_site_label
_atom_site_fract_x
_atom_site_fract_y
_atom_site_fract_z
Si Si1 0.500000 0.680568 0.687110
Si Si2 0.864370 0.826929 0.107563
Si Si3 0.256577 0.178585 0.243484
Si Si4 0.743955 0.677300 0.989161
Si Si5 0.866864 0.820858 0.866172
Si Si6 0.500000 0.819576 0.543157
O O1 0.500000 0.500000 0.680082
O O2 0.386064 0.722910 0.726136
O O3 0.500000 0.748995 0.614967
O O4 0.815133 0.793604 0.178255
O O5 0.811944 0.720100 0.053945
O O6 0.000000 0.816248 0.107951
O O7 0.832948 0.000000 0.092082
O O8 0.199193 0.261054 0.303342
O O9 0.255179 0.000000 0.256124
O O10 0.746749 0.500000 0.977718
O O11 0.613579 0.722658 0.003936
O O12 0.803046 0.759108 0.929357
O O13 0.000000 0.772630 0.865504
O O14 0.865143 0.000000 0.867082
O O15 0.500000 0.000000 0.550677
#
# Coordination Sequence:
#
# PCOD9358245 Si02
#       6
#     4   8   8   8   8   4
#     4  10  20  37  64  93 121 155 197 243 292 353
#     4  10  20  35  58  88 119 153 197 246 295 352
#     4  10  21  38  62  90 120 157 197 242 297 354
#     4  11  23  39  61  87 118 158 199 245 299 353
#     4  11  25  43  61  85 120 160 202 249 299 354
#     4  10  22  39  60  89 123 155 195 247 296 351
#
# _framework density 18.456175999999999
#
# number of rings (size 3 to 8) (size 9 to 14) (size 15 to 20)
#    0.000    1.600    2.000    2.400    0.000    8.400 
#    0.000    4.000    0.000    0.000    0.000    0.000 
#    0.000    0.000    0.000    0.000    0.000    0.000 
#
# Total GULP energy -111752.721027 kJ/mol
# GULP energy per Si atom -5587.636051 kJ/mol
# Density = 1.841417 g / cm^3
# Si number density = 18.456176 Si / 1000 Ang^3
#
#
#
# Elastic Constant Matrix: (Units=GPa)
#
#
# Indices 1 2 3 4 5 6 
#
# 1 156.4083 51.4770 86.0897 0.0000 0.0000 0.0000
# 2 51.4770 41.7014 54.7718 0.0000 0.0000 0.0000
# 3 86.0897 54.7718 122.0407 0.0000 0.0000 0.0000
# 4 0.0000 0.0000 0.0000 41.4491 0.0000 0.0000
# 5 0.0000 0.0000 0.0000 0.0000 37.9942 0.0000
# 6 0.0000 0.0000 0.0000 0.0000 0.0000 25.9432
#
#
#
# Elastic Compliance Matrix: (Units=1/GPa)
#
#
# Indices 1 2 3 4 5 6 
#
# 1 0.011621 -0.008716 -0.004286 0.000000 0.000000 0.000000
# 2 -0.008716 0.064949 -0.023001 0.000000 0.000000 0.000000
# 3 -0.004286 -0.023001 0.021540 0.000000 0.000000 0.000000
# 4 0.000000 0.000000 0.000000 0.024126 0.000000 0.000000
# 5 0.000000 0.000000 0.000000 0.000000 0.026320 0.000000
# 6 0.000000 0.000000 0.000000 0.000000 0.000000 0.038546
#
#
# Mechanical properties :
#
#
# Convention : Reuss Voigt Hill
#
# Bulk Modulus (GPa) = 38.30700 78.31416 58.31058
# Shear Modulus (GPa) = 18.67000 29.59811 24.13406
#
# Velocity S-wave (km/s) = 3.18399 4.00896 3.62006
# Velocity P-wave (km/s) = 5.85814 7.99710 7.00969
#
# Compressibility (1/GPa) = 0.02610489
#
# Stress axis : x y z
#
# Youngs Moduli (GPa) = 86.04905 15.39668 46.42483
#
# Poissons Ratio (x) = 0.13420 0.19898
# Poissons Ratio (y) = 0.75001 1.06780
# Poissons Ratio (z) = 0.36882 0.35413
#
# Static dielectric constant tensor:
#      x y z
#    x 1.635800 0.000000 0.000000 
#    y 0.000000 1.629220 0.000000 
#    z 0.000000 0.000000 1.589450 
# 
# From -- ./inp_files/20483.got.cif
#   From: 2010.05.17/outbox.cif.g08.bks.cpg/sg38_11_cif.got.tgz:20483.got - 2010.06.03 18:07:57.
