data_PCOD9358968
_publ_section_title
;
Structure prediction by ZEFSAII (Michael W. Deem and Ramdas Pophale) SiO2 
 PCOD9358968
Probable space group: A M M 2
;
_chemical_formula_sum "Si O2"
_cell_formula_units_Z 48
_cell_length_a 19.377681
_cell_length_b 7.483448
_cell_length_c 16.280692
_cell_angle_alpha 90.000000
_cell_angle_beta 90.000000
_cell_angle_gamma 90.000000
_cell_volume 2360.893561
_symmetry_space_group_name_H-M "A M M 2"
_symmetry_group_IT_number 38
_symmetry_cell_setting 'orthorhombic'
loop_
_space_group_symop_operation_xyz
x,y,z
-x,-y,z
-x,y,z
x,-y,z
x,1/2+y,1/2+z
-x,1/2-y,1/2+z
-x,1/2+y,1/2+z
x,1/2-y,1/2+z
loop_
_atom_site_type_symbol
_atom_site_label
_atom_site_fract_x
_atom_site_fract_y
_atom_site_fract_z
Si Si1 0.578884 0.500000 0.371410
Si Si2 0.165612 0.285503 0.881633
Si Si3 0.686082 0.211337 0.624779
Si Si4 0.578775 0.000000 0.068013
Si Si5 0.313024 0.788266 0.316027
Si Si6 0.164685 0.717801 0.062323
Si Si7 0.077987 0.213166 0.718909
O O1 0.500000 0.500000 0.341256
O O2 0.578024 0.500000 0.469723
O O3 0.621440 0.327637 0.341806
O O4 0.167832 0.500000 0.884872
O O5 0.244230 0.227808 0.863920
O O6 0.118162 0.240571 0.804155
O O7 0.141844 0.222588 0.971599
O O8 0.621217 0.328043 0.597986
O O9 0.700561 0.251471 0.720167
O O10 0.755110 0.264275 0.575800
O O11 0.674349 0.000000 0.613901
O O12 0.500000 0.000000 0.098205
O O13 0.323486 0.000000 0.328915
O O14 0.161999 0.500000 0.064056
O O15 0.120192 0.782514 0.139865
O O16 0.000000 0.283736 0.722609
O O17 0.073805 0.000000 0.707851
#
# Coordination Sequence:
#
# PCOD9358968 Si02
#       7
#     4   8   8   4   8   8   8
#     4  11  26  44  64  94 130 172 211 256 332 390
#     4  10  21  37  61  90 118 156 208 260 313 367
#     4  11  21  40  66  93 123 164 215 267 312 374
#     4  11  26  44  62  94 132 164 209 264 324 386
#     4  11  22  40  65  97 126 161 217 272 310 375
#     4   9  19  37  61  87 117 158 209 255 308 373
#     4  10  21  37  58  86 122 159 200 251 309 376
#
# _framework density 20.331285000000001
#
# number of rings (size 3 to 8) (size 9 to 14) (size 15 to 20)
#    0.000    1.667    3.333    1.000    1.167    4.333 
#    1.500    3.333    0.000    0.000    0.000    0.000 
#    0.000    0.000    0.000    0.000    0.000    0.000 
#
# Total GULP energy -134102.182945 kJ/mol
# GULP energy per Si atom -5587.590956 kJ/mol
# Density = 2.028501 g / cm^3
# Si number density = 20.331285 Si / 1000 Ang^3
#
#
#
# Elastic Constant Matrix: (Units=GPa)
#
#
# Indices 1 2 3 4 5 6 
#
# 1 163.0731 42.9316 75.8072 0.0000 0.0000 0.0000
# 2 42.9316 93.3796 15.4095 0.0000 0.0000 0.0000
# 3 75.8072 15.4095 158.0553 0.0000 0.0000 0.0000
# 4 0.0000 0.0000 0.0000 14.6270 0.0000 0.0000
# 5 0.0000 0.0000 0.0000 0.0000 3.1498 0.0000
# 6 0.0000 0.0000 0.0000 0.0000 0.0000 17.6489
#
#
#
# Elastic Compliance Matrix: (Units=1/GPa)
#
#
# Indices 1 2 3 4 5 6 
#
# 1 0.008852 -0.003424 -0.003912 0.000000 0.000000 0.000000
# 2 -0.003424 0.012209 0.000452 0.000000 0.000000 0.000000
# 3 -0.003912 0.000452 0.008159 0.000000 0.000000 0.000000
# 4 0.000000 0.000000 0.000000 0.068367 0.000000 0.000000
# 5 0.000000 0.000000 0.000000 0.000000 0.317479 0.000000
# 6 0.000000 0.000000 0.000000 0.000000 0.000000 0.056661
#
#
# Mechanical properties :
#
#
# Convention : Reuss Voigt Hill
#
# Bulk Modulus (GPa) = 64.71740 75.86720 70.29230
# Shear Modulus (GPa) = 10.19066 25.77579 17.98322
#
# Velocity S-wave (km/s) = 2.24125 3.56447 2.97730
# Velocity P-wave (km/s) = 6.21274 7.37137 6.81671
#
# Compressibility (1/GPa) = 0.01545179
#
# Stress axis : x y z
#
# Youngs Moduli (GPa) = 112.96585 81.90877 122.56309
#
# Poissons Ratio (x) = 0.28048 0.47945
# Poissons Ratio (y) = 0.38683 -0.05541
# Poissons Ratio (z) = 0.44191 -0.03703
#
# Static dielectric constant tensor:
#      x y z
#    x 1.695510 0.000000 0.000000 
#    y 0.000000 1.742780 0.000000 
#    z 0.000000 0.000000 1.723290 
# 
# From -- ./inp_files/14984.got.cif
#   From: 2010.05.17/outbox.cif.g08.bks.cpg/sg38_8_cif.got.tgz:14984.got - 2010.06.03 18:07:57.
