data_PCOD9358328
_publ_section_title
;
Structure prediction by ZEFSAII (Michael W. Deem and Ramdas Pophale) SiO2 
 PCOD9358328
Probable space group: A M M 2
;
_chemical_formula_sum "Si O2"
_cell_formula_units_Z 48
_cell_length_a 9.157518
_cell_length_b 7.879012
_cell_length_c 34.950082
_cell_angle_alpha 90.000000
_cell_angle_beta 90.000000
_cell_angle_gamma 90.000000
_cell_volume 2521.725104
_symmetry_space_group_name_H-M "A M M 2"
_symmetry_group_IT_number 38
_symmetry_cell_setting 'orthorhombic'
loop_
_space_group_symop_operation_xyz
x,y,z
-x,-y,z
-x,y,z
x,-y,z
x,1/2+y,1/2+z
-x,1/2-y,1/2+z
-x,1/2+y,1/2+z
x,1/2-y,1/2+z
loop_
_atom_site_type_symbol
_atom_site_label
_atom_site_fract_x
_atom_site_fract_y
_atom_site_fract_z
Si Si1 0.673096 0.500000 0.958851
Si Si2 0.174844 0.701457 0.412490
Si Si3 0.327732 0.500000 0.050158
Si Si4 0.333345 0.201374 0.250424
Si Si5 0.166565 0.801307 0.675070
Si Si6 0.332326 0.703677 0.333854
Si Si7 0.824101 0.190873 0.093003
O O1 0.500000 0.500000 0.949834
O O2 0.747971 0.668273 0.941291
O O3 0.690762 0.500000 0.004526
O O4 0.208996 0.500000 0.419198
O O5 0.235280 0.748808 0.370330
O O6 0.000000 0.719712 0.414141
O O7 0.500000 0.500000 0.058894
O O8 0.253261 0.665620 0.068402
O O9 0.500000 0.266234 0.250851
O O10 0.251184 0.277189 0.214359
O O11 0.272789 0.238747 0.292709
O O12 0.335195 0.000000 0.245252
O O13 0.224048 0.707369 0.637412
O O14 0.000000 0.744264 0.681396
O O15 0.165927 0.000000 0.665040
O O16 0.500000 0.767987 0.338218
O O17 0.338584 0.500000 0.332849
O O18 0.000000 0.218321 0.092678
O O19 0.794989 0.000000 0.079258
#
# Coordination Sequence:
#
# PCOD9358328 Si02
#       7
#     4   8   4   8   8   8   8
#     4  11  25  43  65  91 123 163 205 247 303 373
#     4  10  22  40  63  93 125 157 200 253 307 363
#     4  11  25  43  63  93 127 159 199 253 309 367
#     4  10  21  34  50  79 117 155 198 246 294 349
#     4  10  20  36  58  82 112 153 201 249 298 353
#     4   9  18  34  55  79 112 156 201 244 298 359
#     4  10  21  40  66  91 120 161 205 249 303 368
#
# _framework density 19.034589
#
# number of rings (size 3 to 8) (size 9 to 14) (size 15 to 20)
#    0.000    2.000    0.833    2.000    1.167    6.667 
#    0.000    5.000    0.000    0.000    0.000    0.000 
#    0.000    0.000    0.000    0.000    0.000    0.000 
#
# Total GULP energy -133979.991901 kJ/mol
# GULP energy per Si atom -5582.499663 kJ/mol
# Density = 1.899126 g / cm^3
# Si number density = 19.034589 Si / 1000 Ang^3
#
#
#
# Elastic Constant Matrix: (Units=GPa)
#
#
# Indices 1 2 3 4 5 6 
#
# 1 74.6373 54.6710 64.0583 0.0000 0.0000 0.0000
# 2 54.6710 104.4590 65.0108 0.0000 0.0000 0.0000
# 3 64.0583 65.0108 115.4579 0.0000 0.0000 0.0000
# 4 0.0000 0.0000 0.0000 -4.5827 0.0000 0.0000
# 5 0.0000 0.0000 0.0000 0.0000 44.5746 0.0000
# 6 0.0000 0.0000 0.0000 0.0000 0.0000 26.0905
#
#
#
# Elastic Compliance Matrix: (Units=1/GPa)
#
#
# Indices 1 2 3 4 5 6 
#
# 1 0.029414 -0.008064 -0.011779 0.000000 0.000000 0.000000
# 2 -0.008064 0.016948 -0.005069 0.000000 0.000000 0.000000
# 3 -0.011779 -0.005069 0.018051 0.000000 0.000000 0.000000
# 4 0.000000 0.000000 0.000000 -0.218214 0.000000 0.000000
# 5 0.000000 0.000000 0.000000 0.000000 0.022434 0.000000
# 6 0.000000 0.000000 0.000000 0.000000 0.000000 0.038328
#
#
# Mechanical properties :
#
#
# Convention : Reuss Voigt Hill
#
# Bulk Modulus (GPa) = 68.54377 73.55936 71.05157
# Shear Modulus (GPa) = -130.37587 20.60410 -54.88588
#
# Velocity S-wave (km/s) = -8.28510 3.29364 -5.37563
# Velocity P-wave (km/s) = 7.44551 7.29336 1.05889
#
# Compressibility (1/GPa) = 0.01458922
#
# Stress axis : x y z
#
# Youngs Moduli (GPa) = 33.99697 59.00289 55.39934
#
# Poissons Ratio (x) = 0.47579 0.65256
# Poissons Ratio (y) = 0.27415 0.28083
# Poissons Ratio (z) = 0.40046 0.29909
#
# Static dielectric constant tensor:
#      x y z
#    x 1.659220 0.000000 0.000000 
#    y 0.000000 1.678650 0.000000 
#    z 0.000000 0.000000 1.645730 
# 
# From -- ./inp_files/24387.got.cif
#   From: 2010.05.17/outbox.cif.g08.bks.cpg/sg38_13_cif.got.tgz:24387.got - 2010.06.03 18:07:57.
