data_PCOD9358369
_publ_section_title
;
Structure prediction by ZEFSAII (Michael W. Deem and Ramdas Pophale) SiO2 
 PCOD9358369
Probable space group: A M M 2
;
_chemical_formula_sum "Si O2"
_cell_formula_units_Z 48
_cell_length_a 8.739684
_cell_length_b 29.073687
_cell_length_c 10.520600
_cell_angle_alpha 90.000000
_cell_angle_beta 90.000000
_cell_angle_gamma 90.000000
_cell_volume 2673.230143
_symmetry_space_group_name_H-M "A M M 2"
_symmetry_group_IT_number 38
_symmetry_cell_setting 'orthorhombic'
loop_
_space_group_symop_operation_xyz
x,y,z
-x,-y,z
-x,y,z
x,-y,z
x,1/2+y,1/2+z
-x,1/2-y,1/2+z
-x,1/2+y,1/2+z
x,1/2-y,1/2+z
loop_
_atom_site_type_symbol
_atom_site_label
_atom_site_fract_x
_atom_site_fract_y
_atom_site_fract_z
Si Si1 0.815605 0.552255 0.130230
Si Si2 0.316593 0.303363 0.475044
Si Si3 0.815115 0.646325 0.719716
Si Si4 0.183245 0.200971 0.477564
Si Si5 0.813958 0.448878 0.833125
Si Si6 0.316985 0.145268 0.715748
O O1 0.774129 0.500000 0.167219
O O2 0.741205 0.592942 0.209561
O O3 0.000000 0.556084 0.136877
O O4 0.772148 0.558289 0.981264
O O5 0.500000 0.299873 0.477587
O O6 0.259323 0.331881 0.596054
O O7 0.246756 0.252469 0.479169
O O8 0.270375 0.329086 0.345162
O O9 0.776883 0.676187 0.844810
O O10 0.764232 0.594061 0.748827
O O11 0.000000 0.646869 0.706164
O O12 0.248727 0.172111 0.595142
O O13 0.000000 0.201628 0.487738
O O14 0.762489 0.500000 0.794193
O O15 0.000000 0.448973 0.831058
O O16 0.500000 0.146037 0.707648
#
# Coordination Sequence:
#
# PCOD9358369 Si02
#       6
#     8   8   8   8   8   8
#     4   9  17  33  59  87 113 143 185 236 280 323
#     4  11  25  40  53  77 115 155 188 226 278 334
#     4  10  20  36  59  86 111 143 184 229 281 331
#     4  11  22  38  61  86 108 140 190 240 281 328
#     4   8  14  29  55  85 112 136 172 226 278 322
#     4  11  23  38  57  83 117 154 187 225 278 337
#
# _framework density 17.955804000000001
#
# number of rings (size 3 to 8) (size 9 to 14) (size 15 to 20)
#    0.000    2.000    1.667    3.500    0.000    7.000 
#    0.000    0.833    0.000    3.500    0.000    0.000 
#    0.000    0.000    0.000    0.000    0.000    0.000 
#
# Total GULP energy -134004.373926 kJ/mol
# GULP energy per Si atom -5583.515580 kJ/mol
# Density = 1.791494 g / cm^3
# Si number density = 17.955804 Si / 1000 Ang^3
#
#
#
# Elastic Constant Matrix: (Units=GPa)
#
#
# Indices 1 2 3 4 5 6 
#
# 1 28.1531 38.7222 40.3173 0.0000 0.0000 0.0000
# 2 38.7222 170.9664 73.2851 0.0000 0.0000 0.0000
# 3 40.3173 73.2851 118.8016 0.0000 0.0000 0.0000
# 4 0.0000 0.0000 0.0000 -14.3164 0.0000 0.0000
# 5 0.0000 0.0000 0.0000 0.0000 24.8806 0.0000
# 6 0.0000 0.0000 0.0000 0.0000 0.0000 -19.6209
#
#
#
# Elastic Compliance Matrix: (Units=1/GPa)
#
#
# Indices 1 2 3 4 5 6 
#
# 1 0.077249 -0.008509 -0.020967 0.000000 0.000000 0.000000
# 2 -0.008509 0.008889 -0.002596 0.000000 0.000000 0.000000
# 3 -0.020967 -0.002596 0.017134 0.000000 0.000000 0.000000
# 4 0.000000 0.000000 0.000000 -0.069850 0.000000 0.000000
# 5 0.000000 0.000000 0.000000 0.000000 0.040192 0.000000
# 6 0.000000 0.000000 0.000000 0.000000 0.000000 -0.050966
#
#
# Mechanical properties :
#
#
# Convention : Reuss Voigt Hill
#
# Bulk Modulus (GPa) = 25.55622 69.17446 47.36534
# Shear Modulus (GPa) = 50.08303 9.22844 29.65574
#
# Velocity S-wave (km/s) = 5.28705 2.26951 4.06839
# Velocity P-wave (km/s) = 7.17874 6.74359 6.96457
#
# Compressibility (1/GPa) = 0.03912941
#
# Stress axis : x y z
#
# Youngs Moduli (GPa) = 12.94511 112.50002 58.36289
#
# Poissons Ratio (x) = 0.95722 1.22370
# Poissons Ratio (y) = 0.11014 0.15150
# Poissons Ratio (z) = 0.27142 0.29202
#
# Static dielectric constant tensor:
#      x y z
#    x 1.603060 0.000000 0.000000 
#    y 0.000000 1.619890 0.000000 
#    z 0.000000 0.000000 1.583400 
# 
# From -- ./inp_files/3775.got.cif
#   From: 2010.05.17/outbox.cif.g08.bks.cpg/sg38_2_cif.got.tgz:3775.got - 2010.06.03 18:07:57.
