data_PCOD9358113
_publ_section_title
;
Structure prediction by ZEFSAII (Michael W. Deem and Ramdas Pophale) SiO2 
 PCOD9358113
Probable space group: A M M 2
;
_chemical_formula_sum "Si O2"
_cell_formula_units_Z 58
_cell_length_a 7.506457
_cell_length_b 16.170575
_cell_length_c 19.387010
_cell_angle_alpha 90.000000
_cell_angle_beta 90.000000
_cell_angle_gamma 90.000000
_cell_volume 2353.267508
_symmetry_space_group_name_H-M "A M M 2"
_symmetry_group_IT_number 38
_symmetry_cell_setting 'orthorhombic'
loop_
_space_group_symop_operation_xyz
x,y,z
-x,-y,z
-x,y,z
x,-y,z
x,1/2+y,1/2+z
-x,1/2-y,1/2+z
-x,1/2+y,1/2+z
x,1/2-y,1/2+z
loop_
_atom_site_type_symbol
_atom_site_label
_atom_site_fract_x
_atom_site_fract_y
_atom_site_fract_z
Si Si1 0.216115 0.590930 0.073380
Si Si2 0.297408 0.271201 0.183824
Si Si3 0.710074 0.411871 0.831208
Si Si4 0.794423 0.307509 0.950186
Si Si5 0.782516 0.623082 0.457823
Si Si6 0.787848 0.908605 0.796789
Si Si7 0.500000 0.000000 0.018311
Si Si8 0.287473 0.408608 0.666470
O O1 0.281380 0.500000 0.091004
O O2 0.278467 0.661361 0.124553
O O3 0.000000 0.588096 0.077418
O O4 0.276638 0.619123 0.997550
O O5 0.500000 0.246129 0.196553
O O6 0.251689 0.326436 0.251743
O O7 0.214473 0.184620 0.154418
O O8 0.500000 0.411187 0.844425
O O9 0.785429 0.500000 0.856084
O O10 0.785388 0.334476 0.871275
O O11 0.732025 0.409132 0.749691
O O12 0.722432 0.217809 0.964625
O O13 0.000000 0.300214 0.968943
O O14 0.741607 0.599719 0.377756
O O15 0.659382 0.570550 0.507788
O O16 0.000000 0.613594 0.467222
O O17 0.000000 0.913785 0.793553
O O18 0.719188 0.000000 0.772465
O O19 0.500000 0.413903 0.648427
O O20 0.215577 0.500000 0.644445
#
# Coordination Sequence:
#
# PCOD9358113 Si02
#       8
#     8   8   8   8   8   8   2   8
#     4  10  22  41  60  78 108 154 194 231 293 356
#     4  11  22  33  55  85 110 144 195 244 288 347
#     4   9  17  30  52  84 115 145 181 227 284 351
#     4  10  21  37  58  80 110 148 193 241 287 351
#     4  10  22  38  58  89 122 157 199 244 300 358
#     4  10  20  35  54  80 120 157 185 230 287 350
#     4  12  22  36  64  86 118 168 190 248 296 364
#     4   8  16  33  54  77 111 146 176 218 282 344
#
# _framework density 24.646583
#
# number of rings (size 3 to 8) (size 9 to 14) (size 15 to 20)
#    0.000    2.207    0.690    3.103    1.931    3.586 
#    0.000    0.690    1.517    3.310    0.000    0.000 
#    0.000    0.000    0.000    0.000    0.000    0.000 
#
# Total GULP energy -161552.958088 kJ/mol
# GULP energy per Si atom -5570.791658 kJ/mol
# Density = 2.459049 g / cm^3
# Si number density = 24.646583 Si / 1000 Ang^3
#
#
#
# Elastic Constant Matrix: (Units=GPa)
#
#
# Indices 1 2 3 4 5 6 
#
# 1 66.6943 18.2599 0.7065 0.0000 0.0000 0.0000
# 2 18.2599 228.8591 28.8900 0.0000 0.0000 0.0000
# 3 0.7065 28.8900 68.4443 0.0000 0.0000 0.0000
# 4 0.0000 0.0000 0.0000 27.2847 0.0000 0.0000
# 5 0.0000 0.0000 0.0000 0.0000 19.2654 0.0000
# 6 0.0000 0.0000 0.0000 0.0000 0.0000 46.5008
#
#
#
# Elastic Compliance Matrix: (Units=1/GPa)
#
#
# Indices 1 2 3 4 5 6 
#
# 1 0.015338 -0.001272 0.000378 0.000000 0.000000 0.000000
# 2 -0.001272 0.004721 -0.001980 0.000000 0.000000 0.000000
# 3 0.000378 -0.001980 0.015442 0.000000 0.000000 0.000000
# 4 0.000000 0.000000 0.000000 0.036651 0.000000 0.000000
# 5 0.000000 0.000000 0.000000 0.000000 0.051906 0.000000
# 6 0.000000 0.000000 0.000000 0.000000 0.000000 0.021505
#
#
# Mechanical properties :
#
#
# Convention : Reuss Voigt Hill
#
# Bulk Modulus (GPa) = 33.60724 51.07892 42.34308
# Shear Modulus (GPa) = 31.01225 39.68628 35.34926
#
# Velocity S-wave (km/s) = 3.55107 4.01710 3.79125
# Velocity P-wave (km/s) = 5.52075 6.50274 6.03177
#
# Compressibility (1/GPa) = 0.02975550
#
# Stress axis : x y z
#
# Youngs Moduli (GPa) = 65.19799 211.82690 64.75816
#
# Poissons Ratio (x) = 0.26934 -0.02450
# Poissons Ratio (y) = 0.08290 0.12819
# Poissons Ratio (z) = -0.02467 0.41932
#
# Static dielectric constant tensor:
#      x y z
#    x 1.956440 0.000000 0.000000 
#    y 0.000000 2.021490 0.000000 
#    z 0.000000 0.000000 2.007940 
# 
# From -- ./inp_files/22063.got.cif
#   From: 2010.05.17/outbox.cif.g08.bks.cpg/sg38_12_cif.got.tgz:22063.got - 2010.06.03 18:07:57.
