data_PCOD9358885
_publ_section_title
;
Structure prediction by ZEFSAII (Michael W. Deem and Ramdas Pophale) SiO2 
 PCOD9358885
Probable space group: A M M 2
;
_chemical_formula_sum "Si O2"
_cell_formula_units_Z 48
_cell_length_a 19.636715
_cell_length_b 13.087418
_cell_length_c 9.182580
_cell_angle_alpha 90.000000
_cell_angle_beta 90.000000
_cell_angle_gamma 90.000000
_cell_volume 2359.867022
_symmetry_space_group_name_H-M "A M M 2"
_symmetry_group_IT_number 38
_symmetry_cell_setting 'orthorhombic'
loop_
_space_group_symop_operation_xyz
x,y,z
-x,-y,z
-x,y,z
x,-y,z
x,1/2+y,1/2+z
-x,1/2-y,1/2+z
-x,1/2+y,1/2+z
x,1/2-y,1/2+z
loop_
_atom_site_type_symbol
_atom_site_label
_atom_site_fract_x
_atom_site_fract_y
_atom_site_fract_z
Si Si1 0.646640 0.877408 0.862290
Si Si2 0.621764 0.885902 0.539148
Si Si3 0.500000 0.875751 0.339086
Si Si4 0.500000 0.878896 0.015396
Si Si5 0.918355 0.119975 0.922968
Si Si6 0.251133 0.197917 0.424076
Si Si7 0.154229 0.746263 0.673776
O O1 0.638005 0.839051 0.695438
O O2 0.707109 0.806624 0.926487
O O3 0.663510 0.000000 0.866905
O O4 0.572587 0.864013 0.935968
O O5 0.564054 0.844323 0.434934
O O6 0.690062 0.883556 0.445916
O O7 0.599022 0.000000 0.577438
O O8 0.500000 0.831439 0.177194
O O9 0.500000 0.000000 0.330802
O O10 0.500000 0.000000 0.038073
O O11 0.887696 0.181656 0.784741
O O12 0.000000 0.127531 0.920057
O O13 0.899383 0.000000 0.916831
O O14 0.890385 0.172161 0.071316
O O15 0.199555 0.191342 0.558693
O O16 0.207771 0.188959 0.278119
#
# Coordination Sequence:
#
# PCOD9358885 Si02
#       7
#     8   8   4   4   8   8   8
#     4  10  21  38  59  79 112 160 213 265 323 388
#     4  10  21  37  56  77 111 157 205 258 316 379
#     4   9  19  34  53  80 110 146 202 270 327 371
#     4   9  19  34  55  84 108 146 210 278 331 375
#     4  10  22  44  74 102 132 175 216 256 314 377
#     4  11  22  38  57  89 125 162 205 252 315 383
#     4  10  23  40  63  97 138 166 207 264 314 376
#
# _framework density 20.340129999999998
#
# number of rings (size 3 to 8) (size 9 to 14) (size 15 to 20)
#    0.000    2.000    1.667    1.000    2.333    6.667 
#    0.000    2.500    0.000    9.000    0.000    0.000 
#    0.000    0.000    0.000    0.000    0.000    0.000 
#
# Total GULP energy -133861.523581 kJ/mol
# GULP energy per Si atom -5577.563483 kJ/mol
# Density = 2.029383 g / cm^3
# Si number density = 20.340130 Si / 1000 Ang^3
#
#
#
# Elastic Constant Matrix: (Units=GPa)
#
#
# Indices 1 2 3 4 5 6 
#
# 1 110.1672 31.5998 59.2881 0.0000 0.0000 0.0000
# 2 31.5998 100.0688 39.9580 0.0000 0.0000 0.0000
# 3 59.2881 39.9580 139.3271 0.0000 0.0000 0.0000
# 4 0.0000 0.0000 0.0000 16.4004 0.0000 0.0000
# 5 0.0000 0.0000 0.0000 0.0000 33.0039 0.0000
# 6 0.0000 0.0000 0.0000 0.0000 0.0000 4.7140
#
#
#
# Elastic Compliance Matrix: (Units=1/GPa)
#
#
# Indices 1 2 3 4 5 6 
#
# 1 0.012116 -0.001996 -0.004583 0.000000 0.000000 0.000000
# 2 -0.001996 0.011614 -0.002482 0.000000 0.000000 0.000000
# 3 -0.004583 -0.002482 0.009839 0.000000 0.000000 0.000000
# 4 0.000000 0.000000 0.000000 0.060974 0.000000 0.000000
# 5 0.000000 0.000000 0.000000 0.000000 0.030299 0.000000
# 6 0.000000 0.000000 0.000000 0.000000 0.000000 0.212133
#
#
# Mechanical properties :
#
#
# Convention : Reuss Voigt Hill
#
# Bulk Modulus (GPa) = 64.73256 67.91721 66.32489
# Shear Modulus (GPa) = 13.87934 25.40480 19.64207
#
# Velocity S-wave (km/s) = 2.61504 3.53795 3.11091
# Velocity P-wave (km/s) = 6.40407 7.08186 6.75147
#
# Compressibility (1/GPa) = 0.01544818
#
# Stress axis : x y z
#
# Youngs Moduli (GPa) = 82.53383 86.10079 101.63165
#
# Poissons Ratio (x) = 0.17185 0.46582
# Poissons Ratio (y) = 0.16473 0.25221
# Poissons Ratio (z) = 0.37829 0.21367
#
# Static dielectric constant tensor:
#      x y z
#    x 1.708850 0.000000 0.000000 
#    y 0.000000 1.761630 0.000000 
#    z 0.000000 0.000000 1.718200 
# 
# From -- ./inp_files/6217.got.cif
#   From: 2010.05.17/outbox.cif.g08.bks.cpg/sg38_4_cif.got.tgz:6217.got - 2010.06.03 18:07:57.
