data_PCOD9358007
_publ_section_title
;
Structure prediction by ZEFSAII (Michael W. Deem and Ramdas Pophale) SiO2 
 PCOD9358007
Probable space group: A M M 2
;
_chemical_formula_sum "Si O2"
_cell_formula_units_Z 40
_cell_length_a 15.072406
_cell_length_b 7.862046
_cell_length_c 15.999829
_cell_angle_alpha 90.000000
_cell_angle_beta 90.000000
_cell_angle_gamma 90.000000
_cell_volume 1895.978925
_symmetry_space_group_name_H-M "A M M 2"
_symmetry_group_IT_number 38
_symmetry_cell_setting 'orthorhombic'
loop_
_space_group_symop_operation_xyz
x,y,z
-x,-y,z
-x,y,z
x,-y,z
x,1/2+y,1/2+z
-x,1/2-y,1/2+z
-x,1/2+y,1/2+z
x,1/2-y,1/2+z
loop_
_atom_site_type_symbol
_atom_site_label
_atom_site_fract_x
_atom_site_fract_y
_atom_site_fract_z
Si Si1 0.285612 0.203637 0.625000
Si Si2 0.097994 0.202550 0.370587
Si Si3 0.397960 0.291428 0.283452
Si Si4 0.902723 0.299678 0.178728
Si Si5 0.283544 0.202295 0.941479
O O1 0.349298 0.265985 0.698731
O O2 0.185630 0.273753 0.637314
O O3 0.316562 0.238742 0.531546
O O4 0.279980 0.000000 0.635631
O O5 0.109367 0.284406 0.278931
O O6 0.181277 0.246513 0.427499
O O7 0.000000 0.252644 0.402866
O O8 0.097688 0.000000 0.358682
O O9 0.500000 0.237568 0.287028
O O10 0.397424 0.500000 0.283721
O O11 0.341705 0.233118 0.363671
O O12 0.906352 0.500000 0.157367
O O13 0.000000 0.225637 0.158485
O O14 0.287808 0.000000 0.939350
#
# Coordination Sequence:
#
# PCOD9358007 Si02
#       5
#     8   8   8   8   8
#     4  10  20  36  57  84 114 150 190 230 282 339
#     4  10  20  34  55  83 115 151 190 233 281 333
#     4   9  19  38  61  82 111 151 191 233 286 344
#     4   9  17  32  55  81 111 148 188 229 279 339
#     4  11  22  37  58  86 116 151 192 234 282 336
#
# _framework density 21.097280999999999
#
# number of rings (size 3 to 8) (size 9 to 14) (size 15 to 20)
#    0.000    2.200    2.000    1.200    0.000    3.600 
#    0.000    2.000    0.000    4.200    0.000    0.000 
#    0.000    0.000    0.000    0.000    0.000    0.000 
#
# Total GULP energy -111667.692652 kJ/mol
# GULP energy per Si atom -5583.384633 kJ/mol
# Density = 2.104926 g / cm^3
# Si number density = 21.097281 Si / 1000 Ang^3
#
#
#
# Elastic Constant Matrix: (Units=GPa)
#
#
# Indices 1 2 3 4 5 6 
#
# 1 150.1749 13.2667 90.9196 0.0000 0.0000 0.0000
# 2 13.2667 17.4867 -2.4523 0.0000 0.0000 0.0000
# 3 90.9196 -2.4523 147.4843 0.0000 0.0000 0.0000
# 4 0.0000 0.0000 0.0000 14.2150 0.0000 0.0000
# 5 0.0000 0.0000 0.0000 0.0000 1.6915 0.0000
# 6 0.0000 0.0000 0.0000 0.0000 0.0000 6.0907
#
#
#
# Elastic Compliance Matrix: (Units=1/GPa)
#
#
# Indices 1 2 3 4 5 6 
#
# 1 0.012254 -0.010380 -0.007727 0.000000 0.000000 0.000000
# 2 -0.010380 0.066113 0.007498 0.000000 0.000000 0.000000
# 3 -0.007727 0.007498 0.011668 0.000000 0.000000 0.000000
# 4 0.000000 0.000000 0.000000 0.070348 0.000000 0.000000
# 5 0.000000 0.000000 0.000000 0.000000 0.591204 0.000000
# 6 0.000000 0.000000 0.000000 0.000000 0.000000 0.164184
#
#
# Mechanical properties :
#
#
# Convention : Reuss Voigt Hill
#
# Bulk Modulus (GPa) = 14.53101 57.62377 36.07739
# Shear Modulus (GPa) = 5.20872 18.62689 11.91780
#
# Velocity S-wave (km/s) = 1.57298 2.97459 2.37934
# Velocity P-wave (km/s) = 3.19399 6.25862 4.96849
#
# Compressibility (1/GPa) = 0.06881836
#
# Stress axis : x y z
#
# Youngs Moduli (GPa) = 81.60678 15.12554 85.70175
#
# Poissons Ratio (x) = 0.15701 0.66220
# Poissons Ratio (y) = 0.84710 -0.64263
# Poissons Ratio (z) = 0.63056 -0.11342
#
# Static dielectric constant tensor:
#      x y z
#    x 1.764800 0.000000 0.000000 
#    y 0.000000 1.777110 0.000000 
#    z 0.000000 0.000000 1.746840 
# 
# From -- ./inp_files/14267.got.cif
#   From: 2010.05.17/outbox.cif.g08.bks.cpg/sg38_8_cif.got.tgz:14267.got - 2010.06.03 18:07:57.
