data_PCOD9358924
_publ_section_title
;
Structure prediction by ZEFSAII (Michael W. Deem and Ramdas Pophale) SiO2 
 PCOD9358924
Probable space group: A M M 2
;
_chemical_formula_sum "Si O2"
_cell_formula_units_Z 48
_cell_length_a 14.407732
_cell_length_b 13.219883
_cell_length_c 12.280268
_cell_angle_alpha 90.000000
_cell_angle_beta 90.000000
_cell_angle_gamma 90.000000
_cell_volume 2339.004610
_symmetry_space_group_name_H-M "A M M 2"
_symmetry_group_IT_number 38
_symmetry_cell_setting 'orthorhombic'
loop_
_space_group_symop_operation_xyz
x,y,z
-x,-y,z
-x,y,z
x,-y,z
x,1/2+y,1/2+z
-x,1/2-y,1/2+z
-x,1/2+y,1/2+z
x,1/2-y,1/2+z
loop_
_atom_site_type_symbol
_atom_site_label
_atom_site_fract_x
_atom_site_fract_y
_atom_site_fract_z
Si Si1 0.392981 0.806327 0.180320
Si Si2 0.762856 0.187082 0.583145
Si Si3 0.598987 0.883769 0.939007
Si Si4 0.201355 0.383118 0.461062
Si Si5 0.763832 0.383805 0.837687
Si Si6 0.893173 0.301067 0.266540
O O1 0.500000 0.789252 0.208379
O O2 0.336563 0.707196 0.139493
O O3 0.331700 0.856650 0.274614
O O4 0.393944 0.874293 0.070224
O O5 0.803107 0.300057 0.555168
O O6 0.754628 0.131334 0.468242
O O7 0.835535 0.145824 0.669922
O O8 0.500000 0.834580 0.909506
O O9 0.700786 0.850448 0.901425
O O10 0.593571 0.000000 0.906811
O O11 0.208597 0.500000 0.494917
O O12 0.120391 0.366937 0.375402
O O13 0.787792 0.500000 0.814372
O O14 0.841498 0.304530 0.796576
O O15 0.000000 0.286715 0.238998
#
# Coordination Sequence:
#
# PCOD9358924 Si02
#       6
#     8   8   8   8   8   8
#     4   9  17  31  53  80 111 145 178 214 260 316
#     4   9  20  36  54  80 111 145 180 222 272 327
#     4   8  13  24  47  79 110 138 169 205 249 307
#     4   9  18  34  56  81 108 137 175 223 270 321
#     4  10  21  37  57  82 112 146 185 230 279 329
#     4  10  22  39  55  75 106 142 183 231 284 339
#
# _framework density 20.521549
#
# number of rings (size 3 to 8) (size 9 to 14) (size 15 to 20)
#    0.000    2.833    0.000    0.500    0.000    9.667 
#    0.000    8.333    0.000    0.000    0.000    2.333 
#    0.000    0.000    0.000    0.000    0.000    0.000 
#
# Total GULP energy -133677.241164 kJ/mol
# GULP energy per Si atom -5569.885048 kJ/mol
# Density = 2.047484 g / cm^3
# Si number density = 20.521549 Si / 1000 Ang^3
#
#
#
# Elastic Constant Matrix: (Units=GPa)
#
#
# Indices 1 2 3 4 5 6 
#
# 1 121.6332 0.5212 14.4043 0.0000 0.0000 0.0000
# 2 0.5212 46.2281 8.1946 0.0000 0.0000 0.0000
# 3 14.4043 8.1946 64.7403 0.0000 0.0000 0.0000
# 4 0.0000 0.0000 0.0000 7.8564 0.0000 0.0000
# 5 0.0000 0.0000 0.0000 0.0000 20.9348 0.0000
# 6 0.0000 0.0000 0.0000 0.0000 0.0000 10.6082
#
#
#
# Elastic Compliance Matrix: (Units=1/GPa)
#
#
# Indices 1 2 3 4 5 6 
#
# 1 0.008447 0.000243 -0.001910 0.000000 0.000000 0.000000
# 2 0.000243 0.022135 -0.002856 0.000000 0.000000 0.000000
# 3 -0.001910 -0.002856 0.016233 0.000000 0.000000 0.000000
# 4 0.000000 0.000000 0.000000 0.127284 0.000000 0.000000
# 5 0.000000 0.000000 0.000000 0.000000 0.047767 0.000000
# 6 0.000000 0.000000 0.000000 0.000000 0.000000 0.094267
#
#
# Mechanical properties :
#
#
# Convention : Reuss Voigt Hill
#
# Bulk Modulus (GPa) = 26.47648 30.98242 28.72945
# Shear Modulus (GPa) = 14.80303 21.84531 18.32417
#
# Velocity S-wave (km/s) = 2.68869 3.26622 2.99142
# Velocity P-wave (km/s) = 4.75064 5.41798 5.09525
#
# Compressibility (1/GPa) = 0.03776937
#
# Stress axis : x y z
#
# Youngs Moduli (GPa) = 118.39086 45.17655 61.60363
#
# Poissons Ratio (x) = -0.01099 0.11767
# Poissons Ratio (y) = -0.02881 0.17594
# Poissons Ratio (z) = 0.22614 0.12902
#
# Static dielectric constant tensor:
#      x y z
#    x 1.773090 0.000000 0.000000 
#    y 0.000000 1.734630 0.000000 
#    z 0.000000 0.000000 1.752180 
# 
# From -- ./inp_files/10008.got.cif
#   From: 2010.05.17/outbox.cif.g08.bks.cpg/sg38_6_cif.got.tgz:10008.got - 2010.06.03 18:07:57.
