data_PCOD9358303
_publ_section_title
;
Structure prediction by ZEFSAII (Michael W. Deem and Ramdas Pophale) SiO2 
 PCOD9358303
Probable space group: A M M 2
;
_chemical_formula_sum "Si O2"
_cell_formula_units_Z 48
_cell_length_a 8.595942
_cell_length_b 30.551481
_cell_length_c 10.364744
_cell_angle_alpha 90.000000
_cell_angle_beta 90.000000
_cell_angle_gamma 90.000000
_cell_volume 2721.976203
_symmetry_space_group_name_H-M "A M M 2"
_symmetry_group_IT_number 38
_symmetry_cell_setting 'orthorhombic'
loop_
_space_group_symop_operation_xyz
x,y,z
-x,-y,z
-x,y,z
x,-y,z
x,1/2+y,1/2+z
-x,1/2-y,1/2+z
-x,1/2+y,1/2+z
x,1/2-y,1/2+z
loop_
_atom_site_type_symbol
_atom_site_label
_atom_site_fract_x
_atom_site_fract_y
_atom_site_fract_z
Si Si1 0.811205 0.382114 0.243160
Si Si2 0.813198 0.118852 0.450113
Si Si3 0.187128 0.218515 0.737628
Si Si4 0.314481 0.215913 0.452414
Si Si5 0.686245 0.550599 0.744335
Si Si6 0.188174 0.550479 0.460443
O O1 0.765478 0.331773 0.267872
O O2 0.756492 0.416222 0.350342
O O3 0.000000 0.383145 0.245894
O O4 0.764785 0.393314 0.096629
O O5 0.743611 0.166731 0.422840
O O6 0.757300 0.083273 0.348308
O O7 0.000000 0.122263 0.447436
O O8 0.245813 0.228092 0.592893
O O9 0.254880 0.251349 0.842692
O O10 0.000000 0.220725 0.738672
O O11 0.500000 0.216616 0.458534
O O12 0.500000 0.553183 0.748260
O O13 0.732578 0.500000 0.769497
O O14 0.744507 0.561630 0.600566
O O15 0.230357 0.500000 0.430951
O O16 0.000000 0.552638 0.467375
#
# Coordination Sequence:
#
# PCOD9358303 Si02
#       6
#     8   8   8   8   8   8
#     4   8  17  33  54  79 104 132 172 221 265 309
#     4  10  20  36  57  80 106 139 179 221 269 325
#     4  10  20  37  57  78 108 146 185 225 272 327
#     4  11  22  37  56  81 111 142 180 227 277 326
#     4  10  21  36  52  75 109 144 178 219 266 317
#     4   9  17  32  54  78 104 136 176 221 267 316
#
# _framework density 17.634246000000001
#
# number of rings (size 3 to 8) (size 9 to 14) (size 15 to 20)
#    0.000    2.333    0.000    4.000    0.000    3.000 
#    0.000   11.667    0.000    2.000    0.000    0.000 
#    0.000    0.000    0.000    0.000    0.000    0.000 
#
# Total GULP energy -133941.149355 kJ/mol
# GULP energy per Si atom -5580.881223 kJ/mol
# Density = 1.759411 g / cm^3
# Si number density = 17.634246 Si / 1000 Ang^3
#
#
#
# Elastic Constant Matrix: (Units=GPa)
#
#
# Indices 1 2 3 4 5 6 
#
# 1 65.9624 44.8661 48.8856 0.0000 0.0000 0.0000
# 2 44.8661 128.5022 134.9467 0.0000 0.0000 0.0000
# 3 48.8856 134.9467 165.6094 0.0000 0.0000 0.0000
# 4 0.0000 0.0000 0.0000 44.8991 0.0000 0.0000
# 5 0.0000 0.0000 0.0000 0.0000 3.2776 0.0000
# 6 0.0000 0.0000 0.0000 0.0000 0.0000 22.4810
#
#
#
# Elastic Compliance Matrix: (Units=1/GPa)
#
#
# Indices 1 2 3 4 5 6 
#
# 1 0.019934 -0.005410 -0.001476 0.000000 0.000000 0.000000
# 2 -0.005410 0.055402 -0.043548 0.000000 0.000000 0.000000
# 3 -0.001476 -0.043548 0.041959 0.000000 0.000000 0.000000
# 4 0.000000 0.000000 0.000000 0.022272 0.000000 0.000000
# 5 0.000000 0.000000 0.000000 0.000000 0.305102 0.000000
# 6 0.000000 0.000000 0.000000 0.000000 0.000000 0.044482
#
#
# Mechanical properties :
#
#
# Convention : Reuss Voigt Hill
#
# Bulk Modulus (GPa) = 60.87190 90.83008 75.85099
# Shear Modulus (GPa) = 8.39640 22.88991 15.64316
#
# Velocity S-wave (km/s) = 2.18443 3.60674 2.98164
# Velocity P-wave (km/s) = 6.39972 8.30448 7.41353
#
# Compressibility (1/GPa) = 0.01642794
#
# Stress axis : x y z
#
# Youngs Moduli (GPa) = 50.16651 18.04980 23.83292
#
# Poissons Ratio (x) = 0.09764 0.03518
# Poissons Ratio (y) = 0.27138 1.03787
# Poissons Ratio (z) = 0.07405 0.78603
#
# Static dielectric constant tensor:
#      x y z
#    x 1.591770 0.000000 0.000000 
#    y 0.000000 1.585460 0.000000 
#    z 0.000000 0.000000 1.574580 
# 
# From -- ./inp_files/3769.got.cif
#   From: 2010.05.17/outbox.cif.g08.bks.cpg/sg38_2_cif.got.tgz:3769.got - 2010.06.03 18:07:57.
