data_PCOD9358699
_publ_section_title
;
Structure prediction by ZEFSAII (Michael W. Deem and Ramdas Pophale) SiO2 
 PCOD9358699
Probable space group: A M M 2
;
_chemical_formula_sum "Si O2"
_cell_formula_units_Z 64
_cell_length_a 24.745947
_cell_length_b 7.753509
_cell_length_c 15.190122
_cell_angle_alpha 90.000000
_cell_angle_beta 90.000000
_cell_angle_gamma 90.000000
_cell_volume 2914.497155
_symmetry_space_group_name_H-M "A M M 2"
_symmetry_group_IT_number 38
_symmetry_cell_setting 'orthorhombic'
loop_
_space_group_symop_operation_xyz
x,y,z
-x,-y,z
-x,y,z
x,-y,z
x,1/2+y,1/2+z
-x,1/2-y,1/2+z
-x,1/2+y,1/2+z
x,1/2-y,1/2+z
loop_
_atom_site_type_symbol
_atom_site_label
_atom_site_fract_x
_atom_site_fract_y
_atom_site_fract_z
Si Si1 0.866466 0.208076 0.170040
Si Si2 0.637752 0.700237 0.575183
Si Si3 0.060570 0.794265 0.513132
Si Si4 0.615272 0.800158 0.394119
Si Si5 0.733681 0.708424 0.848148
Si Si6 0.148225 0.711277 0.872860
Si Si7 0.440246 0.699721 0.224529
Si Si8 0.251054 0.709070 0.641541
O O1 0.916106 0.263878 0.110440
O O2 0.866640 0.261818 0.272399
O O3 0.810016 0.270142 0.125789
O O4 0.864864 0.000000 0.170680
O O5 0.642434 0.500000 0.552874
O O6 0.604143 0.785781 0.497186
O O7 0.606500 0.714486 0.667094
O O8 0.698276 0.775922 0.585990
O O9 0.104379 0.726421 0.442957
O O10 0.000000 0.724555 0.502483
O O11 0.057992 0.000000 0.499421
O O12 0.676304 0.728033 0.382644
O O13 0.575013 0.711275 0.327014
O O14 0.615721 0.000000 0.367880
O O15 0.733429 0.500000 0.856999
O O16 0.790019 0.769819 0.890436
O O17 0.737451 0.747075 0.744213
O O18 0.148773 0.500000 0.874447
O O19 0.500000 0.773275 0.209245
O O20 0.440502 0.500000 0.198711
O O21 0.251411 0.500000 0.633523
#
# Coordination Sequence:
#
# PCOD9358699 Si02
#       8
#     8   8   8   8   8   8   8   8
#     4   9  18  34  57  81 106 141 187 234 278 333
#     4  11  22  38  61  90 124 158 192 238 295 351
#     4  10  21  35  51  76 111 148 187 232 283 339
#     4  11  22  37  61  92 122 155 195 239 291 352
#     4   8  14  29  54  82 111 144 182 228 282 338
#     4   8  16  32  54  77 106 144 185 227 274 334
#     4  11  25  45  65  86 117 157 202 247 289 344
#     4   8  15  31  55  83 115 146 179 228 289 343
#
# _framework density 21.959192000000002
#
# number of rings (size 3 to 8) (size 9 to 14) (size 15 to 20)
#    0.000    2.500    1.250    2.625    1.750    2.250 
#    0.000    2.500    0.000    0.000    0.000    0.000 
#    0.000    0.000    0.000    0.000    0.000    0.000 
#
# Total GULP energy -178648.110029 kJ/mol
# GULP energy per Si atom -5582.753438 kJ/mol
# Density = 2.190921 g / cm^3
# Si number density = 21.959192 Si / 1000 Ang^3
#
#
#
# Elastic Constant Matrix: (Units=GPa)
#
#
# Indices 1 2 3 4 5 6 
#
# 1 83.1760 4.4645 4.6740 0.0000 0.0000 0.0000
# 2 4.4645 38.3341 -5.1202 0.0000 0.0000 0.0000
# 3 4.6740 -5.1202 40.9121 0.0000 0.0000 0.0000
# 4 0.0000 0.0000 0.0000 20.8668 0.0000 0.0000
# 5 0.0000 0.0000 0.0000 0.0000 20.6775 0.0000
# 6 0.0000 0.0000 0.0000 0.0000 0.0000 12.5121
#
#
#
# Elastic Compliance Matrix: (Units=1/GPa)
#
#
# Indices 1 2 3 4 5 6 
#
# 1 0.012200 -0.001634 -0.001598 0.000000 0.000000 0.000000
# 2 -0.001634 0.026749 0.003534 0.000000 0.000000 0.000000
# 3 -0.001598 0.003534 0.025068 0.000000 0.000000 0.000000
# 4 0.000000 0.000000 0.000000 0.047923 0.000000 0.000000
# 5 0.000000 0.000000 0.000000 0.000000 0.048362 0.000000
# 6 0.000000 0.000000 0.000000 0.000000 0.000000 0.079923
#
#
# Mechanical properties :
#
#
# Convention : Reuss Voigt Hill
#
# Bulk Modulus (GPa) = 15.47510 18.93988 17.20749
# Shear Modulus (GPa) = 19.14529 21.37155 20.25842
#
# Velocity S-wave (km/s) = 2.95593 3.12306 3.04064
# Velocity P-wave (km/s) = 4.32580 4.65279 4.49227
#
# Compressibility (1/GPa) = 0.06461992
#
# Stress axis : x y z
#
# Youngs Moduli (GPa) = 81.96561 37.38478 39.89213
#
# Poissons Ratio (x) = 0.06110 0.06376
# Poissons Ratio (y) = 0.13396 -0.14099
# Poissons Ratio (z) = 0.13101 -0.13213
#
# Static dielectric constant tensor:
#      x y z
#    x 1.810820 0.000000 0.000000 
#    y 0.000000 1.808150 0.000000 
#    z 0.000000 0.000000 1.788380 
# 
# From -- ./inp_files/15856.got.cif
#   From: 2010.05.17/outbox.cif.g08.bks.cpg/sg38_8_cif.got.tgz:15856.got - 2010.06.03 18:07:57.
