data_PCOD9358634
_publ_section_title
;
Structure prediction by ZEFSAII (Michael W. Deem and Ramdas Pophale) SiO2 
 PCOD9358634
Probable space group: A M M 2
;
_chemical_formula_sum "Si O2"
_cell_formula_units_Z 48
_cell_length_a 7.795493
_cell_length_b 9.002004
_cell_length_c 36.147812
_cell_angle_alpha 90.000000
_cell_angle_beta 90.000000
_cell_angle_gamma 90.000000
_cell_volume 2536.674846
_symmetry_space_group_name_H-M "A M M 2"
_symmetry_group_IT_number 38
_symmetry_cell_setting 'orthorhombic'
loop_
_space_group_symop_operation_xyz
x,y,z
-x,-y,z
-x,y,z
x,-y,z
x,1/2+y,1/2+z
-x,1/2-y,1/2+z
-x,1/2+y,1/2+z
x,1/2-y,1/2+z
loop_
_atom_site_type_symbol
_atom_site_label
_atom_site_fract_x
_atom_site_fract_y
_atom_site_fract_z
Si Si1 0.796208 0.822508 0.281850
Si Si2 0.500000 0.819323 0.916281
Si Si3 0.500000 0.320767 0.330430
Si Si4 0.198043 0.318264 0.470171
Si Si5 0.794824 0.833358 0.050850
Si Si6 0.205090 0.669875 0.205517
Si Si7 0.703719 0.832957 0.625483
O O1 0.669388 0.743536 0.310551
O O2 0.743196 0.764570 0.241040
O O3 0.000000 0.787252 0.287449
O O4 0.777812 0.000000 0.283928
O O5 0.500000 0.775955 0.873543
O O6 0.330549 0.771240 0.938687
O O7 0.500000 0.000000 0.916977
O O8 0.500000 0.500000 0.327749
O O9 0.197845 0.500000 0.471536
O O10 0.260627 0.269095 0.511099
O O11 0.000000 0.272694 0.463806
O O12 0.758808 0.747233 0.088270
O O13 0.000000 0.843171 0.047112
O O14 0.723898 0.000000 0.054524
O O15 0.274347 0.500000 0.207793
O O16 0.249334 0.734972 0.165276
O O17 0.000000 0.660813 0.206989
O O18 0.500000 0.841557 0.624502
O O19 0.777665 0.000000 0.625598
#
# Coordination Sequence:
#
# PCOD9358634 Si02
#       7
#     8   4   4   8   8   8   8
#     4  10  22  40  61  85 115 151 189 231 282 340
#     4   9  18  31  51  80 109 140 173 216 277 331
#     4  11  23  37  59  90 119 146 183 232 285 343
#     4   8  15  29  49  75 107 139 175 222 272 321
#     4   9  18  32  51  75 102 137 181 225 267 313
#     4   9  18  34  55  77 103 140 184 229 276 322
#     4  10  21  33  47  74 110 144 179 219 265 317
#
# _framework density 18.922409999999999
#
# number of rings (size 3 to 8) (size 9 to 14) (size 15 to 20)
#    0.000    2.667    0.000    2.250    2.333    3.667 
#    0.000    3.333    0.000    2.000    0.000    0.000 
#    0.000    0.000    0.000    0.000    0.000    0.000 
#
# Total GULP energy -133771.399098 kJ/mol
# GULP energy per Si atom -5573.808296 kJ/mol
# Density = 1.887934 g / cm^3
# Si number density = 18.922410 Si / 1000 Ang^3
#
#
#
# Elastic Constant Matrix: (Units=GPa)
#
#
# Indices 1 2 3 4 5 6 
#
# 1 80.2027 29.0477 77.5431 0.0000 0.0000 0.0000
# 2 29.0477 39.8969 53.8144 0.0000 0.0000 0.0000
# 3 77.5431 53.8144 218.1028 0.0000 0.0000 0.0000
# 4 0.0000 0.0000 0.0000 25.6519 0.0000 0.0000
# 5 0.0000 0.0000 0.0000 0.0000 36.6335 0.0000
# 6 0.0000 0.0000 0.0000 0.0000 0.0000 19.7135
#
#
#
# Elastic Compliance Matrix: (Units=1/GPa)
#
#
# Indices 1 2 3 4 5 6 
#
# 1 0.020433 -0.007611 -0.005387 0.000000 0.000000 0.000000
# 2 -0.007611 0.040402 -0.007263 0.000000 0.000000 0.000000
# 3 -0.005387 -0.007263 0.008292 0.000000 0.000000 0.000000
# 4 0.000000 0.000000 0.000000 0.038983 0.000000 0.000000
# 5 0.000000 0.000000 0.000000 0.000000 0.027297 0.000000
# 6 0.000000 0.000000 0.000000 0.000000 0.000000 0.050727
#
#
# Mechanical properties :
#
#
# Convention : Reuss Voigt Hill
#
# Bulk Modulus (GPa) = 34.95700 73.22364 54.09032
# Shear Modulus (GPa) = 21.16928 28.25293 24.71111
#
# Velocity S-wave (km/s) = 3.34839 3.86825 3.61767
# Velocity P-wave (km/s) = 5.78471 7.66368 6.78951
#
# Compressibility (1/GPa) = 0.02860657
#
# Stress axis : x y z
#
# Youngs Moduli (GPa) = 48.94047 24.75115 120.59494
#
# Poissons Ratio (x) = 0.18837 0.64962
# Poissons Ratio (y) = 0.37247 0.87587
# Poissons Ratio (z) = 0.26363 0.17977
#
# Static dielectric constant tensor:
#      x y z
#    x 1.663770 0.000000 0.000000 
#    y 0.000000 -5.055340 0.000000 
#    z 0.000000 0.000000 1.671090 
# 
# From -- ./inp_files/24409.got.cif
#   From: 2010.05.17/outbox.cif.g08.bks.cpg/sg38_13_cif.got.tgz:24409.got - 2010.06.03 18:07:57.
