data_PCOD9358493
_publ_section_title
;
Structure prediction by ZEFSAII (Michael W. Deem and Ramdas Pophale) SiO2 
 PCOD9358493
Probable space group: A M M 2
;
_chemical_formula_sum "Si O2"
_cell_formula_units_Z 64
_cell_length_a 8.509867
_cell_length_b 28.931450
_cell_length_c 12.898532
_cell_angle_alpha 90.000000
_cell_angle_beta 90.000000
_cell_angle_gamma 90.000000
_cell_volume 3175.654586
_symmetry_space_group_name_H-M "A M M 2"
_symmetry_group_IT_number 38
_symmetry_cell_setting 'orthorhombic'
loop_
_space_group_symop_operation_xyz
x,y,z
-x,-y,z
-x,y,z
x,-y,z
x,1/2+y,1/2+z
-x,1/2-y,1/2+z
-x,1/2+y,1/2+z
x,1/2-y,1/2+z
loop_
_atom_site_type_symbol
_atom_site_label
_atom_site_fract_x
_atom_site_fract_y
_atom_site_fract_z
Si Si1 0.817310 0.948776 0.599810
Si Si2 0.818887 0.667506 0.926949
Si Si3 0.317723 0.070430 0.383618
Si Si4 0.187346 0.552537 0.441796
Si Si5 0.311693 0.195328 0.223485
Si Si6 0.316584 0.381647 0.263044
Si Si7 0.688915 0.704885 0.138778
Si Si8 0.310449 0.908301 0.158143
O O1 0.779182 0.950408 0.478054
O O2 0.713318 0.911457 0.658766
O O3 0.000000 0.936972 0.615224
O O4 0.789528 0.000000 0.643751
O O5 0.702470 0.624881 0.905669
O O6 0.781689 0.700396 0.830715
O O7 0.000000 0.651815 0.924039
O O8 0.778535 0.689013 0.036597
O O9 0.500000 0.056703 0.391146
O O10 0.262706 0.065413 0.264731
O O11 0.246775 0.500000 0.420976
O O12 0.236597 0.589724 0.354986
O O13 0.244572 0.569461 0.554359
O O14 0.000000 0.550628 0.441906
O O15 0.500000 0.193485 0.243102
O O16 0.281422 0.241332 0.158650
O O17 0.266828 0.146099 0.171563
O O18 0.500000 0.379872 0.287823
O O19 0.264840 0.329670 0.232974
O O20 0.500000 0.698717 0.124367
O O21 0.500000 0.910124 0.154890
#
# Coordination Sequence:
#
# PCOD9358493 Si02
#       8
#     8   8   8   8   8   8   8   8
#     4  11  23  37  56  86 122 155 189 239 303 361
#     4  11  21  34  56  84 118 154 189 243 305 358
#     4  10  20  37  60  85 114 152 197 242 294 358
#     4  11  25  43  62  85 120 165 206 254 318 378
#     4   9  20  39  61  86 119 160 203 249 303 367
#     4  11  23  39  62  88 116 156 207 255 298 358
#     4  10  21  38  61  87 117 158 204 249 301 366
#     4   9  20  39  63  88 116 153 201 252 299 356
#
# _framework density 20.153324999999999
#
# number of rings (size 3 to 8) (size 9 to 14) (size 15 to 20)
#    0.000    1.750    1.250    3.750    0.000    8.500 
#    0.000    7.500    0.000    0.000    0.000    0.000 
#    0.000    0.000    0.000    0.000    0.000    0.000 
#
# Total GULP energy -178626.966493 kJ/mol
# GULP energy per Si atom -5582.092703 kJ/mol
# Density = 2.010746 g / cm^3
# Si number density = 20.153325 Si / 1000 Ang^3
#
#
#
# Elastic Constant Matrix: (Units=GPa)
#
#
# Indices 1 2 3 4 5 6 
#
# 1 19.3603 10.7350 12.4737 0.0000 0.0000 0.0000
# 2 10.7350 54.8021 15.9125 0.0000 0.0000 0.0000
# 3 12.4737 15.9125 94.8410 0.0000 0.0000 0.0000
# 4 0.0000 0.0000 0.0000 16.5760 0.0000 0.0000
# 5 0.0000 0.0000 0.0000 0.0000 353.4679 0.0000
# 6 0.0000 0.0000 0.0000 0.0000 0.0000 19.5844
#
#
#
# Elastic Compliance Matrix: (Units=1/GPa)
#
#
# Indices 1 2 3 4 5 6 
#
# 1 0.061398 -0.010178 -0.006368 0.000000 0.000000 0.000000
# 2 -0.010178 0.020869 -0.002163 0.000000 0.000000 0.000000
# 3 -0.006368 -0.002163 0.011744 0.000000 0.000000 0.000000
# 4 0.000000 0.000000 0.000000 0.060328 0.000000 0.000000
# 5 0.000000 0.000000 0.000000 0.000000 0.002829 0.000000
# 6 0.000000 0.000000 0.000000 0.000000 0.000000 0.051061
#
#
# Mechanical properties :
#
#
# Convention : Reuss Voigt Hill
#
# Bulk Modulus (GPa) = 17.66946 27.47175 22.57060
# Shear Modulus (GPa) = 18.90273 86.58450 52.74361
#
# Velocity S-wave (km/s) = 3.06591 6.56172 5.12133
# Velocity P-wave (km/s) = 4.61732 8.43025 6.79665
#
# Compressibility (1/GPa) = 0.05659484
#
# Stress axis : x y z
#
# Youngs Moduli (GPa) = 16.28708 47.91742 85.14760
#
# Poissons Ratio (x) = 0.48771 0.54218
# Poissons Ratio (y) = 0.16577 0.18416
# Poissons Ratio (z) = 0.10371 0.10364
#
# Static dielectric constant tensor:
#      x y z
#    x 1.668530 0.000000 0.000000 
#    y 0.000000 1.760060 0.000000 
#    z 0.000000 0.000000 1.714590 
# 
# From -- ./inp_files/8656.got.cif
#   From: 2010.05.17/outbox.cif.g08.bks.cpg/sg38_5_cif.got.tgz:8656.got - 2010.06.03 18:07:57.
