data_PCOD9358593
_publ_section_title
;
Structure prediction by ZEFSAII (Michael W. Deem and Ramdas Pophale) SiO2 
 PCOD9358593
Probable space group: A M M 2
;
_chemical_formula_sum "Si O2"
_cell_formula_units_Z 30
_cell_length_a 12.708633
_cell_length_b 7.610650
_cell_length_c 16.918650
_cell_angle_alpha 90.000000
_cell_angle_beta 90.000000
_cell_angle_gamma 90.000000
_cell_volume 1636.388032
_symmetry_space_group_name_H-M "A M M 2"
_symmetry_group_IT_number 38
_symmetry_cell_setting 'orthorhombic'
loop_
_space_group_symop_operation_xyz
x,y,z
-x,-y,z
-x,y,z
x,-y,z
x,1/2+y,1/2+z
-x,1/2-y,1/2+z
-x,1/2+y,1/2+z
x,1/2-y,1/2+z
loop_
_atom_site_type_symbol
_atom_site_label
_atom_site_fract_x
_atom_site_fract_y
_atom_site_fract_z
Si Si1 0.306826 0.000000 0.400221
Si Si2 0.500000 0.205231 0.153183
Si Si3 0.500000 0.000000 0.520659
Si Si4 0.123728 0.205438 0.151447
Si Si5 0.306975 0.204347 0.769019
Si Si6 0.124409 0.500000 0.022377
O O1 0.397956 0.000000 0.465344
O O2 0.316499 0.168877 0.343764
O O3 0.196175 0.000000 0.445658
O O4 0.500000 0.331034 0.077693
O O5 0.601550 0.247756 0.206738
O O6 0.500000 0.000000 0.132326
O O7 0.197407 0.259819 0.223923
O O8 0.148012 0.330670 0.077231
O O9 0.000000 0.229792 0.169940
O O10 0.141412 0.000000 0.133522
O O11 0.315567 0.000000 0.789986
O O12 0.000000 0.500000 0.004302
#
# Coordination Sequence:
#
# PCOD9358593 Si02
#       6
#     4   4   2   8   8   4
#     4  12  26  40  60  96 135 159 195 263 326 364
#     4  12  23  43  71  91 116 163 216 254 299 374
#     4  12  26  42  66  94 126 162 202 258 318 372
#     4  10  20  38  66  93 120 165 218 255 295 366
#     4  12  23  40  65  93 125 163 209 256 307 368
#     4  10  22  40  62  92 130 164 204 260 312 364
#
# _framework density 18.33306
#
# number of rings (size 3 to 8) (size 9 to 14) (size 15 to 20)
#    0.000    0.800    5.333    2.400    0.000    3.200 
#    0.000    0.000    0.000    0.000    0.000    0.000 
#    0.000    0.000    0.000    0.000    0.000    0.000 
#
# Total GULP energy -83882.735979 kJ/mol
# GULP energy per Si atom -5592.182399 kJ/mol
# Density = 1.829133 g / cm^3
# Si number density = 18.333060 Si / 1000 Ang^3
#
#
#
# Elastic Constant Matrix: (Units=GPa)
#
#
# Indices 1 2 3 4 5 6 
#
# 1 72.6633 55.2091 70.3126 0.0000 0.0000 0.0000
# 2 55.2091 206.6535 93.0169 0.0000 0.0000 0.0000
# 3 70.3126 93.0169 148.8683 0.0000 0.0000 0.0000
# 4 0.0000 0.0000 0.0000 45.9558 0.0000 0.0000
# 5 0.0000 0.0000 0.0000 0.0000 -88.8615 0.0000
# 6 0.0000 0.0000 0.0000 0.0000 0.0000 24.8895
#
#
#
# Elastic Compliance Matrix: (Units=1/GPa)
#
#
# Indices 1 2 3 4 5 6 
#
# 1 0.025908 -0.001967 -0.011008 0.000000 0.000000 0.000000
# 2 -0.001967 0.006882 -0.003371 0.000000 0.000000 0.000000
# 3 -0.011008 -0.003371 0.014023 0.000000 0.000000 0.000000
# 4 0.000000 0.000000 0.000000 0.021760 0.000000 0.000000
# 5 0.000000 0.000000 0.000000 0.000000 -0.011253 0.000000
# 6 0.000000 0.000000 0.000000 0.000000 0.000000 0.040178
#
#
# Mechanical properties :
#
#
# Convention : Reuss Voigt Hill
#
# Bulk Modulus (GPa) = 70.81421 96.14025 83.47723
# Shear Modulus (GPa) = 37.06571 10.37319 23.71945
#
# Velocity S-wave (km/s) = 4.50132 2.38128 3.60086
# Velocity P-wave (km/s) = 8.10717 7.75341 7.93226
#
# Compressibility (1/GPa) = 0.01412146
#
# Stress axis : x y z
#
# Youngs Moduli (GPa) = 38.59772 145.31135 71.31243
#
# Poissons Ratio (x) = 0.28580 0.78500
# Poissons Ratio (y) = 0.07591 0.24039
# Poissons Ratio (z) = 0.42488 0.48984
#
# Static dielectric constant tensor:
#      x y z
#    x 1.637260 0.000000 0.000000 
#    y 0.000000 1.628300 0.000000 
#    z 0.000000 0.000000 1.578160 
# 
# From -- ./inp_files/13260.got.cif
#   From: 2010.05.17/outbox.cif.g08.bks.cpg/sg38_7_cif.got.tgz:13260.got - 2010.06.03 18:07:57.
