data_PCOD9358859
_publ_section_title
;
Structure prediction by ZEFSAII (Michael W. Deem and Ramdas Pophale) SiO2 
 PCOD9358859
Probable space group: A M M 2
;
_chemical_formula_sum "Si O2"
_cell_formula_units_Z 64
_cell_length_a 24.398049
_cell_length_b 8.757222
_cell_length_c 15.721213
_cell_angle_alpha 90.000000
_cell_angle_beta 90.000000
_cell_angle_gamma 90.000000
_cell_volume 3358.980715
_symmetry_space_group_name_H-M "A M M 2"
_symmetry_group_IT_number 38
_symmetry_cell_setting 'orthorhombic'
loop_
_space_group_symop_operation_xyz
x,y,z
-x,-y,z
-x,y,z
x,-y,z
x,1/2+y,1/2+z
-x,1/2-y,1/2+z
-x,1/2+y,1/2+z
x,1/2-y,1/2+z
loop_
_atom_site_type_symbol
_atom_site_label
_atom_site_fract_x
_atom_site_fract_y
_atom_site_fract_z
Si Si1 0.236223 0.183040 0.592640
Si Si2 0.437432 0.685860 0.939483
Si Si3 0.937752 0.180348 0.492296
Si Si4 0.436574 0.184182 0.245511
Si Si5 0.827143 0.819716 0.931795
Si Si6 0.173406 0.679937 0.752937
Si Si7 0.363540 0.815680 0.596020
Si Si8 0.062202 0.180361 0.697345
O O1 0.206282 0.257337 0.512197
O O2 0.206070 0.236287 0.678053
O O3 0.299959 0.228537 0.595248
O O4 0.232176 0.000000 0.585410
O O5 0.500000 0.733421 0.959160
O O6 0.437239 0.500000 0.939713
O O7 0.424250 0.732195 0.842788
O O8 0.395268 0.737733 0.011129
O O9 0.890626 0.277012 0.448657
O O10 0.933418 0.197669 0.594815
O O11 0.000000 0.221281 0.467924
O O12 0.929357 0.000000 0.474040
O O13 0.500000 0.226921 0.227288
O O14 0.395684 0.253950 0.177517
O O15 0.433459 0.000000 0.242141
O O16 0.808881 0.738607 0.845183
O O17 0.820925 0.000000 0.923993
O O18 0.181057 0.500000 0.745384
O O19 0.109523 0.722940 0.740533
O O20 0.365677 0.000000 0.597500
O O21 0.000000 0.221893 0.721724
O O22 0.070348 0.000000 0.715714
#
# Coordination Sequence:
#
# PCOD9358859 Si02
#       8
#     8   8   8   8   8   8   8   8
#     4  11  24  43  61  84 120 155 199 256 304 352
#     4   8  15  31  55  83 116 152 188 225 273 337
#     4   9  18  35  61  90 121 155 189 234 293 354
#     4   9  18  33  55  85 121 157 192 235 283 334
#     4  12  25  41  63  89 117 155 198 245 301 359
#     4  12  25  41  63  88 115 156 202 246 298 356
#     4  10  21  36  59  86 112 150 195 241 291 343
#     4   9  18  35  61  90 121 154 187 235 297 355
#
# _framework density 19.053398999999999
#
# number of rings (size 3 to 8) (size 9 to 14) (size 15 to 20)
#    0.000    2.000    1.250    4.500    0.000    3.750 
#    0.000    3.125    0.000    0.750    0.000    0.000 
#    0.000    0.000    0.000    0.000    0.000    0.000 
#
# Total GULP energy -178790.150174 kJ/mol
# GULP energy per Si atom -5587.192193 kJ/mol
# Density = 1.901003 g / cm^3
# Si number density = 19.053399 Si / 1000 Ang^3
#
#
#
# Elastic Constant Matrix: (Units=GPa)
#
#
# Indices 1 2 3 4 5 6 
#
# 1 102.3090 15.9157 46.4279 0.0000 0.0000 0.0000
# 2 15.9157 20.2414 -4.9803 0.0000 0.0000 0.0000
# 3 46.4279 -4.9803 72.7459 0.0000 0.0000 0.0000
# 4 0.0000 0.0000 0.0000 29.3267 0.0000 0.0000
# 5 0.0000 0.0000 0.0000 0.0000 -8.1411 0.0000
# 6 0.0000 0.0000 0.0000 0.0000 0.0000 22.2589
#
#
#
# Elastic Compliance Matrix: (Units=1/GPa)
#
#
# Indices 1 2 3 4 5 6 
#
# 1 0.018397 -0.017652 -0.012950 0.000000 0.000000 0.000000
# 2 -0.017652 0.067187 0.015865 0.000000 0.000000 0.000000
# 3 -0.012950 0.015865 0.023097 0.000000 0.000000 0.000000
# 4 0.000000 0.000000 0.000000 0.034099 0.000000 0.000000
# 5 0.000000 0.000000 0.000000 0.000000 -0.122834 0.000000
# 6 0.000000 0.000000 0.000000 0.000000 0.000000 0.044926
#
#
# Mechanical properties :
#
#
# Convention : Reuss Voigt Hill
#
# Bulk Modulus (GPa) = 12.62485 34.44702 23.53593
# Shear Modulus (GPa) = 41.40920 17.88444 29.64682
#
# Velocity S-wave (km/s) = 4.66695 3.06706 3.94888
# Velocity P-wave (km/s) = 5.97336 5.53723 5.75942
#
# Compressibility (1/GPa) = 0.07920885
#
# Stress axis : x y z
#
# Youngs Moduli (GPa) = 54.35705 14.88392 43.29493
#
# Poissons Ratio (x) = 0.26272 0.56066
# Poissons Ratio (y) = 0.95949 -0.68689
# Poissons Ratio (z) = 0.70391 -0.23614
#
# Static dielectric constant tensor:
#      x y z
#    x 1.653020 0.000000 0.000000 
#    y 0.000000 1.638360 0.000000 
#    z 0.000000 0.000000 1.655520 
# 
# From -- ./inp_files/15826.got.cif
#   From: 2010.05.17/outbox.cif.g08.bks.cpg/sg38_8_cif.got.tgz:15826.got - 2010.06.03 18:07:57.
